#------------------------------------------------------------------------------
#$Date: 2017-02-04 04:08:26 +0200 (Sat, 04 Feb 2017) $
#$Revision: 191339 $
#$URL: file:///home/coder/svn-repositories/cod/cif/4/34/50/4345004.cif $
#------------------------------------------------------------------------------
#
# This file is available in the Crystallography Open Database (COD),
# http://www.crystallography.net/
#
# All data on this site have been placed in the public domain by the
# contributors.
#
data_4345004
loop_
_publ_author_name
'Shankar, Ravi'
'Mendiratta, Swati'
'Singla, Nisha'
'Kociok-K\"ohn, Gabriele'
'Lutter, Michael'
'Jurkschat, Klaus'
_publ_section_title
;
 Reactivity of Elemental Tin and Zinc toward Organophosphonic Acid Dialkyl
 Esters: A New One-Pot Recipe for the Synthesis of Coordination Assemblies
 Derived from O-Alkylorganophosphonate Ligands.
;
_journal_issue                   2
_journal_name_full               'Inorganic chemistry'
_journal_page_first              721
_journal_page_last               724
_journal_paper_doi               10.1021/acs.inorgchem.6b02789
_journal_volume                  56
_journal_year                    2017
_chemical_formula_moiety         'C10 H26 O6 P2 Sn'
_chemical_formula_sum            'C10 H26 O6 P2 Sn'
_chemical_formula_weight         422.94
_space_group_crystal_system      triclinic
_space_group_IT_number           2
_space_group_name_Hall           '-P 1'
_space_group_name_H-M_alt        'P -1'
_symmetry_space_group_name_Hall  '-P 1'
_symmetry_space_group_name_H-M   'P -1'
_atom_sites_solution_hydrogens   geom
_audit_creation_method           SHELXL-2014/7
_cell_angle_alpha                102.890(3)
_cell_angle_beta                 98.888(3)
_cell_angle_gamma                91.217(3)
_cell_formula_units_Z            1
_cell_length_a                   5.1656(2)
_cell_length_b                   8.5955(3)
_cell_length_c                   9.7592(4)
_cell_measurement_reflns_used    11133
_cell_measurement_temperature    173(2)
_cell_measurement_theta_max      30.8850
_cell_measurement_theta_min      2.8940
_cell_volume                     416.63(3)
_computing_cell_refinement
'CrysAlisPro, Oxford Diffraction Ltd., Version 1.171.33.55''
_computing_data_collection
'CrysAlisPro, Oxford Diffraction Ltd., Version 1.171.33.55''
_computing_data_reduction
'CrysAlisPro, Oxford Diffraction Ltd., Version 1.171.33.55''
_computing_molecular_graphics    'SHELXL-2014/7 (Sheldrick, 2014)'
_computing_publication_material  'enCIFer Version 1.5'
_computing_structure_refinement  'SHELXL-2014/7 (Sheldrick, 2014)'
_computing_structure_solution    'SHELXL-2014/7 (Sheldrick, 2014)'
_diffrn_ambient_temperature      173(2)
_diffrn_measured_fraction_theta_full 0.999
_diffrn_measured_fraction_theta_max 0.999
_diffrn_measurement_device       'XcaliburS CCD Diffractometer'
_diffrn_measurement_method       '\w und \y scan'
_diffrn_radiation_type           MoK\a
_diffrn_radiation_wavelength     0.71073
_diffrn_reflns_av_R_equivalents  0.0308
_diffrn_reflns_av_unetI/netI     0.0129
_diffrn_reflns_Laue_measured_fraction_full 0.999
_diffrn_reflns_Laue_measured_fraction_max 0.999
_diffrn_reflns_limit_h_max       6
_diffrn_reflns_limit_h_min       -6
_diffrn_reflns_limit_k_max       10
_diffrn_reflns_limit_k_min       -10
_diffrn_reflns_limit_l_max       11
_diffrn_reflns_limit_l_min       -11
_diffrn_reflns_number            16784
_diffrn_reflns_point_group_measured_fraction_full 0.999
_diffrn_reflns_point_group_measured_fraction_max 0.999
_diffrn_reflns_theta_full        25.242
_diffrn_reflns_theta_max         25.495
_diffrn_reflns_theta_min         2.435
_exptl_absorpt_coefficient_mu    1.742
_exptl_absorpt_correction_T_max  1.00000
_exptl_absorpt_correction_T_min  0.73725
_exptl_absorpt_correction_type   multi-scan
_exptl_absorpt_process_details
;
CrysAlisPro, Agilent Technologies,
Version 1.171.37.34 (release 22-05-2014 CrysAlis171 .NET)
(compiled May 22 2014,16:03:01)
Empirical absorption correction using spherical harmonics,
 implemented in SCALE3 ABSPACK scaling algorithm.
;
_exptl_crystal_colour            colourless
_exptl_crystal_density_diffrn    1.686
_exptl_crystal_description       column
_exptl_crystal_F_000             214
_exptl_crystal_size_max          0.370
_exptl_crystal_size_mid          0.190
_exptl_crystal_size_min          0.130
_refine_diff_density_max         0.372
_refine_diff_density_min         -0.530
_refine_diff_density_rms         0.164
_refine_ls_extinction_method     none
_refine_ls_goodness_of_fit_ref   1.513
_refine_ls_hydrogen_treatment    constr
_refine_ls_matrix_type           full
_refine_ls_number_parameters     88
_refine_ls_number_reflns         1553
_refine_ls_number_restraints     0
_refine_ls_restrained_S_all      1.513
_refine_ls_R_factor_all          0.0154
_refine_ls_R_factor_gt           0.0153
_refine_ls_shift/su_max          0.000
_refine_ls_shift/su_mean         0.000
_refine_ls_structure_factor_coef Fsqd
_refine_ls_weighting_details
'w=1/[\s^2^(Fo^2^)+(0.0297P)^2^] where P=(Fo^2^+2Fc^2^)/3'
_refine_ls_weighting_scheme      calc
_refine_ls_wR_factor_gt          0.0537
_refine_ls_wR_factor_ref         0.0537
_reflns_Friedel_coverage         0.000
_reflns_number_gt                1550
_reflns_number_total             1553
_reflns_threshold_expression     'I > 2\s(I)'
_cod_data_source_file            ic6b02789_si_002.cif
_cod_data_source_block           compound2
_cod_depositor_comments
'Adding full bibliography for 4345004--4345005.cif.'
_cod_database_code               4345004
_shelx_shelxl_version_number     2014/7
_shelx_space_group_comment
;
The symmetry employed for this shelxl refinement is uniquely defined
by the following loop, which should always be used as a source of
symmetry information in preference to the above space-group names.
They are only intended as comments.
;
_shelx_estimated_absorpt_t_min   0.565
_shelx_estimated_absorpt_t_max   0.805
_shelx_res_file
;

    3334.res created by SHELXL-2014/7


TITL 3334 in P1                       New: P-1
CELL  0.71073    5.1656    8.5955    9.7592   102.890    98.888    91.217
ZERR        1    0.0002    0.0003    0.0004     0.003     0.003     0.003
LATT   1
SFAC  C  H  O  P Sn
UNIT    10    26   6   2   1

L.S. 10
FMAP 2
PLAN -20
BOND $H
TEMP -100
SIZE 0.37 0.19 0.13
ACTA
CONF
OMIT 0 51

WGHT    0.029700
FVAR       9.64892
SN1   5    0.500000    0.500000    0.500000    10.50000    0.00915    0.01526 =
         0.01344    0.00630    0.00340    0.00251
P1    4   -0.049090    0.530164    0.268175    11.00000    0.01076    0.01849 =
         0.01357    0.00723    0.00259    0.00209
O1    3    0.222273    0.471775    0.296717    11.00000    0.01314    0.02464 =
         0.01795    0.00623    0.00281    0.00470
O2    3   -0.189629    0.573013    0.393724    11.00000    0.01336    0.02063 =
         0.01741    0.00722    0.00375   -0.00013
O3    3   -0.017258    0.684770    0.206654    11.00000    0.02080    0.02676 =
         0.02534    0.01645    0.00832    0.00609
C1    1    0.576309    0.252995    0.445601    11.00000    0.01694    0.01671 =
         0.02508    0.00774    0.00532    0.00477
AFIX  23
H1A   2    0.725625    0.241450    0.392253    11.00000   -1.20000
H1B   2    0.631784    0.217343    0.534835    11.00000   -1.20000
AFIX   0
C2    1    0.348766    0.141969    0.357437    11.00000    0.02844    0.01936 =
         0.03477    0.00242    0.00144    0.00219
AFIX  33
H2A   2    0.403583    0.031815    0.338235    11.00000   -1.50000
H2B   2    0.200885    0.149134    0.410079    11.00000   -1.50000
H2C   2    0.294986    0.173308    0.267102    11.00000   -1.50000
AFIX   0
C5    1   -0.222694    0.798208    0.213569    11.00000    0.03159    0.02696 =
         0.02985    0.01403    0.00709    0.01238
AFIX  23
H5A   2   -0.199608    0.870884    0.309352    11.00000   -1.20000
H5B   2   -0.397183    0.740720    0.195019    11.00000   -1.20000
AFIX   0
C6    1   -0.203062    0.891802    0.102792    11.00000    0.04202    0.02765 =
         0.03477    0.01784   -0.00060    0.00280
AFIX  33
H6A   2   -0.339592    0.969351    0.105110    11.00000   -1.50000
H6B   2   -0.029971    0.948467    0.122349    11.00000   -1.50000
H6C   2   -0.226781    0.818807    0.008457    11.00000   -1.50000
AFIX   0
C7    1   -0.244137    0.387255    0.126194    11.00000    0.01985    0.03273 =
         0.02077    0.00175    0.00095   -0.00131
AFIX  33
H7A   2   -0.149327    0.360725    0.045212    11.00000   -1.50000
H7B   2   -0.279420    0.290210    0.158822    11.00000   -1.50000
H7C   2   -0.410507    0.432545    0.096772    11.00000   -1.50000

AFIX   0
HKLF 4

REM  3334 in P1                       New: P-1
REM R1 =  0.0153 for    1550 Fo > 4sig(Fo)  and  0.0154 for all    1553 data
REM     88 parameters refined using      0 restraints

END

WGHT      0.0297      0.1252

REM Highest difference peak  0.372,  deepest hole -0.530,  1-sigma level  0.164
Q1    1   0.3223  0.0309  0.3583  11.00000  0.05    0.37
Q2    1   0.5000  0.0000  0.5000  10.50000  0.05    0.37
Q3    1  -0.0901  1.0090  0.1990  11.00000  0.05    0.33
Q4    1   0.3469  0.1204  0.2574  11.00000  0.05    0.33
Q5    1  -0.0230  0.9072  0.0833  11.00000  0.05    0.33
Q6    1   0.0871  0.9866  0.1917  11.00000  0.05    0.32
Q7    1   0.3540 -0.0839  0.1495  11.00000  0.05    0.32
Q8    1  -0.0559  0.8850  0.3028  11.00000  0.05    0.32
Q9    1  -0.3276  1.0072  0.1653  11.00000  0.05    0.32
Q10   1  -0.4930  0.9724  0.0985  11.00000  0.05    0.31
Q11   1   0.5386 -0.0230  0.3902  11.00000  0.05    0.31
Q12   1  -0.0155  1.0147  0.3217  11.00000  0.05    0.30
Q13   1  -0.2007  1.0171  0.3540  11.00000  0.05    0.30
Q14   1  -0.1205  1.0569  0.4228  11.00000  0.05    0.29
Q15   1   0.3272  0.0487  0.1479  11.00000  0.05    0.29
Q16   1   0.3175 -0.0412  0.2465  11.00000  0.05    0.29
Q17   1   0.1689  1.0508  0.0956  11.00000  0.05    0.29
Q18   1   0.0413  0.0238  0.4332  11.00000  0.05    0.29
Q19   1   0.0401  1.0348  0.4865  11.00000  0.05    0.28
Q20   1   0.7866  0.1031  0.3616  11.00000  0.05    0.28
;
_shelx_res_checksum              48898
_shelx_hkl_file
;
  -7  -3   3 29651.4 2409.41   1
  -7  -3   4 42410.5 2933.52   1
  -7  -2   2 6265.73 1133.49   1
  -7  -2   3 21286.7 2040.35   1
  -7  -2   4 47873.1 3151.15   1
  -7  -2   5 19415.7 1835.38   1
  -7  -1   2 4082.98 936.128   1
  -7  -1   3 23401.6 2205.60   1
  -7  -1   4 35804.9 2639.69   1
  -7  -1   5 10888.9 1359.11   1
  -7   0   1 5450.90 1083.43   1
  -7   0   2 2879.76 724.044   1
  -7   0   3 27769.1 2320.06   1
  -7   0   4 32388.5 2441.99   1
  -7   0   5 19360.9 1856.72   1
  -7   0   6 7017.34 1090.60   1
  -7   1   1 7631.61 1263.50  16
  -7   1   2 2022.18 851.833   1
  -7   1   2 2125.89 713.464  16
  -7   1   3 34774.5 2644.50   1
  -7   1   3 35789.4 2588.38  16
  -7   1   3 33728.9 2290.13   6
  -7   1   4 44024.5 2639.05   6
  -7   1   4 42134.8 2927.09   1
  -7   1   5 18329.8 1733.34   6
  -7   1   5 21579.7 2022.21   1
  -7   2   0 65243.9 3396.83   6
  -7   2   1 10403.5 1310.30   6
  -7   2   1 11698.7 1459.44  16
  -7   2   2 3544.80 814.561   6
  -7   2   2 6422.85 1042.87  16
  -7   2   3 33046.2 2416.43  16
  -7   2   3 30358.9 2273.16   6
  -7   2   4 36824.7 2524.10   6
  -7   3  -1 33946.9 2393.48   6
  -7   3   0 70364.1 3637.64   6
  -7   3   1 12192.2 1484.82   6
  -7   3   1 15954.8 1715.55  16
  -7   3   2 1569.83 816.830   6
  -7   3   2 793.587 402.225  16
  -7   3   3 14310.8 1631.13  16
  -7   4   1 16265.1 1779.28  16
  -7   4   2 2776.59 737.413  16
  -6  -7   3 11493.3 1328.05  16
  -6  -7   4 34675.8 2404.95  16
  -6  -7   5 34582.1 2487.73   9
  -6  -6   0 42546.2 2812.98  16
  -6  -6   1 24725.7 2338.84   1
  -6  -6   1 25256.3 2077.79  16
  -6  -6   2 4921.14 918.955  16
  -6  -6   2 5909.67 1301.74   1
  -6  -6   3 5706.64 1234.40   1
  -6  -6   3 7487.80 1124.25  16
  -6  -6   4 22445.0 1927.08  16
  -6  -6   5 40819.3 2712.20  16
  -6  -6   5 43658.8 2672.82   9
  -6  -6   6 18363.4 1702.24   9
  -6  -6   6 17412.3 1692.27  16
  -6  -6   7 7384.46 1106.81   9
  -6  -5  -1 7474.70 1122.61  16
  -6  -5   0 34370.3 2519.70  16
  -6  -5   0 42819.1 3163.68   1
  -6  -5   1 25265.7 2119.81  16
  -6  -5   1 26230.8 2401.20   1
  -6  -5   2 1274.83 532.706  16
  -6  -5   2 569.144 474.364   1
  -6  -5   3 5003.55 942.708  16
  -6  -5   3 4599.66 880.543   1
  -6  -5   4 20751.8 1907.41   1
  -6  -5   4 23655.0 1950.57  16
  -6  -5   5 42718.8 2747.50  16
  -6  -5   6 19045.4 1744.38  16
  -6  -5   6 17900.5 1723.76   9
  -6  -5   7 1626.57 696.819  16
  -6  -5   7 4155.24 930.525   9
  -6  -5   8 21706.9 1957.71   9
  -6  -4  -2 9932.79 1318.71  16
  -6  -4  -1 5565.81 1057.56  16
  -6  -4  -1 8257.12 1346.78   1
  -6  -4   0 27316.0 2207.37  16
  -6  -4   0 35075.7 2681.89   1
  -6  -4   1 34591.7 2396.25  16
  -6  -4   1 35567.5 2651.33   1
  -6  -4   2 8326.34 1257.47   1
  -6  -4   2 8714.16 1129.21  16
  -6  -4   3 1884.65 579.826  16
  -6  -4   3 3256.80 835.323   1
  -6  -4   4 25792.9 2076.41   1
  -6  -4   4 24191.2 1992.55  16
  -6  -4   5 54074.0 3058.93  16
  -6  -4   6 12400.8 1451.40  16
  -6  -4   6 15049.6 1474.49   9
  -6  -4   7 9439.44 1175.55   9
  -6  -4   7 7099.41 1077.32  16
  -6  -4   8 37255.8 2583.96   9
  -6  -4   9 53543.8 3270.86   9
  -6  -3  -3 19926.4 2006.28  16
  -6  -3  -2 13397.6 1550.79  16
  -6  -3  -2 15726.3 1897.39   1
  -6  -3  -1 16783.4 1753.62  16
  -6  -3  -1 19519.5 1982.16   1
  -6  -3   0 40443.8 2599.58  16
  -6  -3   0 38252.3 2703.66   1
  -6  -3   1 46624.0 2765.39  16
  -6  -3   1 46283.2 2934.68   1
  -6  -3   2 32643.8 2352.46   1
  -6  -3   2 31029.1 2228.04  16
  -6  -3   3 2843.26 746.403  16
  -6  -3   3 4482.58 803.602   1
  -6  -3   4 14920.5 1498.32   1
  -6  -3   4 13380.5 1518.94  16
  -6  -3   5 80901.0 3804.33  16
  -6  -3   5 79627.1 3674.45   1
  -6  -3   6 30226.4 2247.04  16
  -6  -3   7 6890.37 1088.04  16
  -6  -3   7 8084.16 1138.34   9
  -6  -3   8 30590.6 2344.96   9
  -6  -3   8 30450.4 2431.55  16
  -6  -3   9 52270.9 3236.86  12
  -6  -3   9 58166.2 3341.25   9
  -6  -2  -3 40768.8 2829.21  16
  -6  -2  -3 25552.1 2474.39   1
  -6  -2  -2 20038.7 1927.25  16
  -6  -2  -2 21045.5 2100.91   1
  -6  -2  -1 30692.6 2296.26  16
  -6  -2  -1 27991.6 2303.06   1
  -6  -2   0 28327.2 2188.16  16
  -6  -2   0 29627.5 2329.70   1
  -6  -2   1 45955.8 2720.13  16
  -6  -2   1 46223.6 2844.86   1
  -6  -2   2 45519.8 2706.72  16
  -6  -2   2 46847.9 2802.51   1
  -6  -2   3 13168.5 1449.65   1
  -6  -2   3 12408.4 1355.05  16
  -6  -2   4 18589.2 1726.91   1
  -6  -2   4 16831.1 1613.49  16
  -6  -2   5 43353.2 2714.07  16
  -6  -2   5 46354.9 2666.73   1
  -6  -2   6 31375.1 2144.54   1
  -6  -2   6 34017.2 2436.37  16
  -6  -2   7 5176.17 938.041  16
  -6  -2   7 5646.63 928.271   9
  -6  -2   7 5733.79 978.657  12
  -6  -2   8 6933.19 990.080   9
  -6  -2   8 4374.64 1017.21   6
  -6  -2   8 6113.39 1170.51  12
  -6  -2   8 7588.10 1349.04  16
  -6  -2   9 52446.1 3154.46   9
  -6  -2   9 48753.3 2974.71   6
  -6  -2   9 48057.8 3124.43  12
  -6  -1  -4 30356.1 2525.12   1
  -6  -1  -4 31294.8 2469.65  16
  -6  -1  -3 48254.7 3167.41   1
  -6  -1  -3 45129.2 2976.12  16
  -6  -1  -2 14987.2 1659.65   1
  -6  -1  -2 14334.7 1658.46  16
  -6  -1  -1 16514.4 1661.80  16
  -6  -1  -1 15891.8 1717.36   1
  -6  -1   0 35308.6 2488.49   1
  -6  -1   0 35737.2 2444.78  16
  -6  -1   1 59054.3 3087.37  16
  -6  -1   1 56887.5 3156.66   1
  -6  -1   2 40380.3 2545.59  16
  -6  -1   2 46635.0 2797.04   1
  -6  -1   3 11108.3 1078.60   6
  -6  -1   3 11820.1 1301.90  16
  -6  -1   3 14209.5 1440.92   1
  -6  -1   4 18907.0 1684.66   1
  -6  -1   4 17199.7 1655.38  16
  -6  -1   4 18355.1 1420.55   6
  -6  -1   5 18833.2 1706.06  16
  -6  -1   5 19278.9 1525.26   6
  -6  -1   5 17256.1 1600.02   1
  -6  -1   6 22731.9 1785.50  13
  -6  -1   6 16514.5 1661.86  16
  -6  -1   6 18311.9 1537.62   6
  -6  -1   6 21414.7 1719.44  12
  -6  -1   6 19061.4 1665.48   1
  -6  -1   7 16152.1 1620.43  13
  -6  -1   7 16326.3 1731.12  16
  -6  -1   7 16494.0 1616.86  12
  -6  -1   7 15844.4 1580.20   6
  -6  -1   8 4545.78 846.294   9
  -6  -1   8 7401.69 1156.05  12
  -6  -1   8 5681.83 1025.46   6
  -6  -1   8 6810.19 1090.17  13
  -6  -1   8 5409.59 1039.38  16
  -6  -1   9 46472.9 2877.87   9
  -6  -1   9 38899.5 2674.55   6
  -6  -1   9 39007.5 2791.80  12
  -6   0  -4 11646.4 1517.54   1
  -6   0  -4 9369.71 1319.67  16
  -6   0  -3 37974.5 2707.11   1
  -6   0  -3 33684.7 2484.40  16
  -6   0  -2 29745.5 2297.93  16
  -6   0  -2 33765.6 2519.39   1
  -6   0  -1 4784.38 1063.16  16
  -6   0  -1 6082.95 1059.68   1
  -6   0   0 18408.8 1747.96   1
  -6   0   0 16914.4 1620.12  16
  -6   0   0 19172.3 1476.26   6
  -6   0   1 78264.7 3689.86   1
  -6   0   1 77558.5 3192.56   6
  -6   0   1 76608.7 3559.91  16
  -6   0   2 32074.7 2223.63  16
  -6   0   2 31272.0 2267.89   1
  -6   0   2 32428.5 1943.79   6
  -6   0   3 9909.40 1054.40   6
  -6   0   3 10384.9 1230.52   1
  -6   0   3 10046.8 1245.10  16
  -6   0   4 20213.3 1746.29   1
  -6   0   4 21958.2 1667.12   6
  -6   0   4 21795.6 1804.22  16
  -6   0   5 34163.1 2287.61  16
  -6   0   5 30509.4 2078.20  12
  -6   0   5 29971.7 2185.60   1
  -6   0   5 27484.5 1980.43   6
  -6   0   5 35404.0 2182.55  13
  -6   0   6 29933.8 2159.03   1
  -6   0   6 30705.3 2233.69  16
  -6   0   6 29432.8 2097.32   6
  -6   0   6 30957.3 2175.10  12
  -6   0   6 31564.0 2230.32  13
  -6   0   7 18759.0 1706.27   6
  -6   0   7 23023.7 1980.00  12
  -6   0   7 16828.0 1577.68   1
  -6   0   7 17444.2 1749.74  13
  -6   0   7 17832.3 1874.68  16
  -6   0   8 14409.0 1685.14   6
  -6   0   8 11644.2 1447.82  12
  -6   0   8 14035.4 1657.68  13
  -6   0   8 14617.8 1684.29  16
  -6   0   9 32223.5 2451.71   6
  -6   0   9 31781.4 2622.04  13
  -6   0   9 33364.4 2594.67  12
  -6   0   9 34172.5 2478.65   9
  -6   1  -5 2325.69 868.547   1
  -6   1  -4 7826.76 1377.69   1
  -6   1  -4 8055.83 1261.84  16
  -6   1  -3 41058.0 2720.96  16
  -6   1  -3 40987.5 2822.44   1
  -6   1  -2 41612.6 2355.32   6
  -6   1  -2 43514.5 2850.54   1
  -6   1  -2 41113.3 2721.09  16
  -6   1  -1 7378.19 951.341   6
  -6   1  -1 5573.42 980.193   1
  -6   1  -1 5388.82 970.676  16
  -6   1   0 3016.29 828.960   1
  -6   1   0 5834.73 993.060  16
  -6   1   0 4721.71 711.839   6
  -6   1   1 72485.0 3589.47   1
  -6   1   1 70630.4 3384.61  16
  -6   1   1 71643.3 3201.94   6
  -6   1   2 72396.2 3524.12   1
  -6   1   2 71329.6 3342.13  16
  -6   1   2 67345.8 3073.54   6
  -6   1   3 28167.6 1863.79   6
  -6   1   3 26598.6 2080.76   1
  -6   1   3 23378.4 1883.36  16
  -6   1   4 29436.9 2136.75  16
  -6   1   4 28796.2 2133.79   1
  -6   1   4 29839.1 1960.15  12
  -6   1   4 28530.8 1999.98   6
  -6   1   4 30553.6 1974.40  13
  -6   1   5 38685.1 2398.89  12
  -6   1   5 37100.9 2437.39  16
  -6   1   5 39108.6 2440.79  13
  -6   1   5 38899.8 2407.38   6
  -6   1   5 41272.1 2570.50   1
  -6   1   6 42501.7 2645.55  13
  -6   1   6 45300.4 2671.51   6
  -6   1   6 42438.2 2609.22  12
  -6   1   6 39127.5 2605.75  16
  -6   1   6 40552.0 2571.59   1
  -6   1   7 11768.8 1433.22  12
  -6   1   7 12446.8 1440.67   1
  -6   1   7 12766.3 1594.53  16
  -6   1   7 13687.1 1538.69  13
  -6   1   7 13343.6 1547.82   6
  -6   1   8 6114.47 1225.35  16
  -6   1   8 8601.32 1371.40   6
  -6   1   8 8554.21 1239.49  13
  -6   1   8 6633.37 1330.81  12
  -6   2  -5 7227.18 1074.64   6
  -6   2  -5 8782.08 1305.23   1
  -6   2  -4 7357.55 1266.16   1
  -6   2  -4 9766.71 1449.30  16
  -6   2  -4 7966.64 1084.31   6
  -6   2  -3 39434.7 2749.71   1
  -6   2  -3 42395.4 2510.83   6
  -6   2  -3 42878.2 2781.36  16
  -6   2  -2 52740.9 2791.21   6
  -6   2  -2 44969.9 2790.08  16
  -6   2  -2 48854.5 3023.49   1
  -6   2  -1 6978.90 1094.74  16
  -6   2  -1 6785.09 1179.72   1
  -6   2  -1 7614.91 989.487   6
  -6   2   0 11765.4 1263.60   6
  -6   2   0 12626.8 1443.82   1
  -6   2   0 12730.7 1405.17  16
  -6   2   1 66173.6 3191.27  16
  -6   2   1 65681.2 3112.46   6
  -6   2   1 64810.2 3400.40   1
  -6   2   2 88972.9 3752.63   6
  -6   2   2 86115.6 3816.88  16
  -6   2   2 98998.5 3658.15  14
  -6   2   2 89803.3 4041.87   1
  -6   2   3 43393.8 2403.04  12
  -6   2   3 39639.7 2625.35   1
  -6   2   3 41843.9 2373.14  13
  -6   2   3 43954.4 2510.42   6
  -6   2   3 38508.9 2443.37  16
  -6   2   4 11031.3 1308.91  16
  -6   2   4 10266.1 1185.29  12
  -6   2   4 11247.1 1274.86   6
  -6   2   4 11024.6 1188.41  13
  -6   2   4 9885.07 1239.07   1
  -6   2   5 28577.7 2194.78   1
  -6   2   5 30141.4 2184.36  13
  -6   2   5 28322.7 2100.51  12
  -6   2   5 26843.1 2053.72  16
  -6   2   5 30974.8 2221.18   6
  -6   2   6 42880.4 2772.00   1
  -6   2   6 42820.1 2702.49   6
  -6   2   6 44767.3 2790.78  13
  -6   2   6 40538.5 2677.87  16
  -6   2   6 39345.0 2630.24  12
  -6   2   7 12402.6 1567.61  13
  -6   2   7 13931.0 1630.84  12
  -6   2   7 10135.2 1286.33   1
  -6   2   7 11505.5 1419.02   6
  -6   2   7 11658.1 1435.59  16
  -6   2   8 6881.57 1149.77  12
  -6   2   8 6430.33 1175.11   1
  -6   2   8 4381.87 1131.56  13
  -6   2   8 6184.55 1089.60  16
  -6   3  -6 26015.8 2196.69   6
  -6   3  -5 5752.93 1095.37   6
  -6   3  -5 6842.28 1232.89   1
  -6   3  -4 13768.0 1464.35   6
  -6   3  -4 11863.3 1507.65  16
  -6   3  -4 9608.57 1487.00   1
  -6   3  -3 50748.9 2932.95   6
  -6   3  -3 49504.1 3030.84  16
  -6   3  -3 50633.8 3144.69   1
  -6   3  -2 70049.8 3594.59   1
  -6   3  -2 65714.5 3388.01  16
  -6   3  -2 69909.9 3387.37   6
  -6   3  -1 10429.3 1243.48  16
  -6   3  -1 10271.8 1240.91   6
  -6   3  -1 10004.2 1323.45   1
  -6   3   0 4174.11 919.777   1
  -6   3   0 4226.63 800.207   6
  -6   3   0 4045.79 880.292  16
  -6   3   1 41610.9 2492.83   6
  -6   3   1 37326.8 2374.97  16
  -6   3   1 39482.2 2614.84   1
  -6   3   2 56953.3 3019.65   6
  -6   3   2 61657.8 2915.39  12
  -6   3   2 60535.2 3273.47   1
  -6   3   2 61560.2 2934.73  14
  -6   3   2 60972.8 2900.77  13
  -6   3   2 57798.9 2986.72  16
  -6   3   3 32285.7 2135.32  13
  -6   3   3 30907.3 2287.65   1
  -6   3   3 32805.5 2224.31  16
  -6   3   3 29982.9 2115.81   6
  -6   3   3 31694.3 2120.03  12
  -6   3   3 29527.3 2064.11  14
  -6   3   4 6159.57 984.392  12
  -6   3   4 6847.58 965.302  13
  -6   3   4 5548.64 1017.26   1
  -6   3   4 6386.94 1023.18  16
  -6   3   5 22714.3 1956.23  12
  -6   3   5 20774.6 1857.63  16
  -6   3   5 26715.5 2088.95  13
  -6   3   5 23313.1 2097.97   1
  -6   3   5 23771.9 1987.75   6
  -6   3   6 48524.2 3063.41   1
  -6   3   6 51701.8 3142.94  13
  -6   3   6 48057.9 2954.74   6
  -6   3   6 46103.1 2813.01  16
  -6   3   6 49595.8 3050.26  12
  -6   3   7 13232.6 1529.80  12
  -6   3   7 12096.6 1508.07  13
  -6   3   7 10087.9 1447.85  16
  -6   3   7 8975.72 1338.88   1
  -6   3   8 5780.51 1224.03  16
  -6   3   8 4442.63 1016.47   1
  -6   4  -5 11419.4 1702.15   1
  -6   4  -5 11240.4 1403.80   6
  -6   4  -4 10680.4 1511.85   1
  -6   4  -4 13244.8 1468.83   6
  -6   4  -3 59006.3 3251.10   6
  -6   4  -3 56090.2 3309.57   1
  -6   4  -3 58133.5 3267.76  16
  -6   4  -2 43980.1 2836.26   1
  -6   4  -2 41334.9 2636.38  16
  -6   4  -2 37582.9 2540.85   6
  -6   4  -1 5838.58 1022.27   6
  -6   4  -1 4620.60 1054.37  16
  -6   4  -1 7040.16 1210.01   1
  -6   4   0 1181.03 662.999  16
  -6   4   0 1644.60 722.735   1
  -6   4   0 1481.56 483.269   6
  -6   4   1 10228.3 1288.09   6
  -6   4   1 12720.6 1264.26  13
  -6   4   1 12201.0 1233.74  14
  -6   4   1 11865.7 1244.30  12
  -6   4   1 12505.8 1485.12   1
  -6   4   1 12371.3 1437.20  16
  -6   4   2 68800.5 3299.72  13
  -6   4   2 70456.5 3316.12  14
  -6   4   2 63675.5 3179.97  12
  -6   4   2 70739.2 3515.47   6
  -6   4   2 68852.0 3614.84   1
  -6   4   2 67113.8 3283.16  16
  -6   4   3 40467.0 2478.85  16
  -6   4   3 39274.1 2527.16  14
  -6   4   3 41989.3 2561.46  12
  -6   4   3 40615.1 2563.42  13
  -6   4   3 42943.5 2882.16   1
  -6   4   3 38020.9 2529.68   6
  -6   4   4 6368.59 1001.16  13
  -6   4   4 6566.78 1125.77   6
  -6   4   4 7383.92 1097.65  16
  -6   4   4 7611.52 1246.62   1
  -6   4   4 5143.13 886.648  14
  -6   4   4 4995.74 971.259  12
  -6   4   5 19943.6 1807.10  16
  -6   4   5 23586.7 2044.78   6
  -6   4   5 23916.5 2152.88   1
  -6   4   5 21238.3 1929.76  13
  -6   4   5 21500.1 1954.38  12
  -6   4   6 48986.1 3146.11  12
  -6   4   6 48761.9 3166.21   1
  -6   4   6 47701.0 3161.42  13
  -6   4   6 44665.2 2835.02  16
  -6   4   7 16914.6 1794.36  16
  -6   5  -4 8449.79 1370.06   6
  -6   5  -4 8793.49 1379.34   1
  -6   5  -3 42078.8 2736.22  16
  -6   5  -3 45253.3 2966.92   1
  -6   5  -3 41461.1 2805.37   6
  -6   5  -2 33819.0 2456.36   6
  -6   5  -2 31342.9 2517.95   1
  -6   5  -2 36489.3 2445.35  16
  -6   5  -1 6630.72 1052.63   6
  -6   5  -1 4660.40 1069.18   1
  -6   5  -1 7455.85 1123.90  16
  -6   5   0 7274.56 1106.59  16
  -6   5   0 5630.67 1010.25  12
  -6   5   0 7662.63 1204.38   1
  -6   5   0 6940.18 1030.14  13
  -6   5   0 6746.54 1022.67  14
  -6   5   0 7446.05 1094.25   6
  -6   5   1 18765.4 1693.17  13
  -6   5   1 16961.6 1558.87  16
  -6   5   1 17760.5 1888.68   1
  -6   5   1 19527.2 1794.99   6
  -6   5   1 16267.2 1510.08  14
  -6   5   1 17979.2 1573.58  12
  -6   5   2 53535.0 3021.49  12
  -6   5   2 55920.8 3084.25  13
  -6   5   2 57614.7 2922.79  16
  -6   5   2 50268.9 3092.52   6
  -6   5   2 62111.6 3514.01   1
  -6   5   2 60595.3 3167.66  14
  -6   5   3 47324.9 2877.40  14
  -6   5   3 49017.3 3155.58   1
  -6   5   3 47110.7 2920.09   6
  -6   5   3 47419.9 2871.70  13
  -6   5   3 40469.0 2774.91  12
  -6   5   3 48709.0 2687.88  16
  -6   5   4 7748.87 1118.27  14
  -6   5   4 4436.74 918.824  12
  -6   5   4 10027.7 1314.21   1
  -6   5   4 5543.94 971.134  13
  -6   5   4 7079.77 1081.16   6
  -6   5   5 12676.9 1652.43  12
  -6   5   5 15279.9 1644.85  14
  -6   5   5 14347.4 1709.05  13
  -6   6  -2 53091.1 3337.23   1
  -6   6  -1 12221.0 1373.36  13
  -6   6  -1 14345.1 1451.54  12
  -6   6  -1 16574.4 1833.81   1
  -6   6  -1 12961.7 1574.35   6
  -6   6  -1 13470.9 1413.25  14
  -6   6   0 3434.11 711.935  14
  -6   6   0 3813.45 795.422  13
  -6   6   0 5964.33 1041.44   6
  -6   6   0 4556.14 1020.09  12
  -6   6   0 4047.74 1133.02   1
  -6   6   1 23932.3 2112.94   6
  -6   6   1 21993.2 1872.65  13
  -6   6   1 22235.0 1847.96  14
  -6   6   1 18521.0 1698.45  12
  -6   6   1 19843.8 1990.59   1
  -6   6   2 42471.7 2804.30  13
  -6   6   2 42959.6 2804.22  14
  -6   6   2 46877.8 2937.50  12
  -6   6   3 22952.5 2037.42  14
  -6   6   3 22532.4 2004.77  13
  -6   6   3 21870.3 2059.36  12
  -6   7  -2 57189.4 3187.86  15
  -6   7  -1 13246.0 1461.20  12
  -6   7  -1 12338.0 1392.99  15
  -6   7  -1 13593.7 1516.12  13
  -6   7  -1 12169.6 1384.24  14
  -6   7   0 817.136 821.047  12
  -6   7   0 599.181 667.524  13
  -6   7   0 2391.23 914.270  14
  -5  -8   0 1107.81 423.228   9
  -5  -8   1 11331.3 1347.36   9
  -5  -8   2 18930.2 1845.28   9
  -5  -8   3 16859.9 1734.96   9
  -5  -8   3 15706.1 1913.34  11
  -5  -8   4 9951.75 1290.97   9
  -5  -8   5 5068.60 972.520   9
  -5  -8   6 22680.4 2174.49   9
  -5  -7   0 572.170 430.464  11
  -5  -7   0 871.563 433.138   9
  -5  -7   1 19003.9 1786.75   9
  -5  -7   1 18189.3 1984.67  11
  -5  -7   1 20190.9 1634.53  16
  -5  -7   2 59446.8 3562.13  11
  -5  -7   2 50051.2 2797.57  16
  -5  -7   2 59284.7 3128.12   9
  -5  -7   3 21339.9 1739.86  16
  -5  -7   3 22495.2 1885.10   9
  -5  -7   4 10068.2 1209.47   9
  -5  -7   4 11393.2 1252.62  16
  -5  -7   5 6608.14 949.375  16
  -5  -7   5 4995.18 853.517   9
  -5  -7   6 24746.9 1897.34  16
  -5  -7   6 26790.1 2129.28   9
  -5  -7   7 57773.7 3311.28   9
  -5  -7   7 56005.6 3074.92  16
  -5  -7   8 22502.7 2004.73  16
  -5  -7   8 29807.6 2318.93   9
  -5  -7   9 12302.3 1398.26  16
  -5  -6  -2 51086.0 3418.91  11
  -5  -6  -2 54725.4 3109.79  16
  -5  -6  -1 37303.4 2480.89  16
  -5  -6  -1 39081.9 2956.56  11
  -5  -6   0 6638.43 963.835  16
  -5  -6   0 7452.87 1342.91  11
  -5  -6   0 7928.75 1007.39   9
  -5  -6   1 21534.8 1714.45   9
  -5  -6   1 22129.1 2077.23   1
  -5  -6   1 23980.8 1906.28  16
  -5  -6   2 57552.1 3253.29   1
  -5  -6   2 60488.9 2986.90   9
  -5  -6   2 53074.1 2788.32  16
  -5  -6   3 52190.6 2732.52  16
  -5  -6   3 52143.5 3000.56   1
  -5  -6   3 55841.1 2866.15   9
  -5  -6   4 5599.17 874.463   9
  -5  -6   4 6644.13 989.837   1
  -5  -6   5 3794.35 755.234   9
  -5  -6   5 3578.20 672.285  16
  -5  -6   6 37704.2 2357.19  16
  -5  -6   6 38892.3 2542.03   9
  -5  -6   7 44761.4 2690.21  16
  -5  -6   7 50932.1 2964.83   9
  -5  -6   8 25847.2 2172.72   9
  -5  -6   8 24944.0 1967.12  16
  -5  -6   9 12612.5 1557.28   9
  -5  -6   9 7805.14 1259.27  16
  -5  -6   9 9250.97 1555.69  12
  -5  -6  10 12853.0 1769.02  12
  -5  -5  -4 4969.96 1020.81  11
  -5  -5  -3 15813.3 1844.27  11
  -5  -5  -2 59570.2 3566.20  11
  -5  -5  -2 53237.4 3511.37   1
  -5  -5  -2 59592.0 3194.59  16
  -5  -5  -1 42326.2 2532.04  16
  -5  -5  -1 39794.0 2787.39   1
  -5  -5   0 4022.86 1001.87   1
  -5  -5   0 4803.76 869.721  16
  -5  -5   0 4968.91 796.759   9
  -5  -5   1 16081.2 1407.32   9
  -5  -5   1 15161.4 1453.43  16
  -5  -5   1 14821.1 1684.21   1
  -5  -5   2 64430.4 3355.88   1
  -5  -5   2 72116.2 3056.87   9
  -5  -5   2 61361.1 3042.09  16
  -5  -5   3 69672.7 3222.69  16
  -5  -5   3 75101.5 3266.92   9
  -5  -5   3 78936.2 3579.84   1
  -5  -5   4 12319.7 1288.65  16
  -5  -5   4 11996.7 1289.21   1
  -5  -5   4 12781.5 1264.68   9
  -5  -5   5 364.207 218.719  16
  -5  -5   5 498.891 470.813   9
  -5  -5   6 23720.9 1873.36  16
  -5  -5   6 28263.9 2020.41   9
  -5  -5   7 37505.5 2468.38  12
  -5  -5   7 43102.6 2662.78  16
  -5  -5   7 44659.9 2654.85   9
  -5  -5   8 15941.2 1630.19  16
  -5  -5   8 20559.5 1821.46   9
  -5  -5   8 20516.9 1849.95  12
  -5  -5   9 10204.6 1415.27   9
  -5  -5   9 9689.54 1444.21  16
  -5  -5   9 11805.4 1574.97  12
  -5  -5  10 12167.1 1590.80  12
  -5  -5  10 13937.2 1584.29   9
  -5  -4  -5 24593.2 2274.34  10
  -5  -4  -4-170.571 373.428   1
  -5  -4  -3 7275.00 1354.56   1
  -5  -4  -3 8190.96 1184.24  16
  -5  -4  -2 42826.2 2630.04  16
  -5  -4  -2 41775.3 2931.13   1
  -5  -4  -1 29333.7 2113.78  16
  -5  -4  -1 27527.0 2305.55   1
  -5  -4   0 13777.0 1526.53   1
  -5  -4   0 10552.6 1200.44  16
  -5  -4   1 11892.7 1127.29   9
  -5  -4   1 10269.0 1326.12   1
  -5  -4   1 10946.5 1219.52  16
  -5  -4   2 69468.0 3319.01   1
  -5  -4   2 65505.6 3147.50  16
  -5  -4   2 76810.1 3026.94   9
  -5  -4   3 97105.8 3582.62   9
  -5  -4   3 97644.0 3907.45   1
  -5  -4   3 93483.2 3785.95  16
  -5  -4   4 6657.66 917.508   9
  -5  -4   4 5432.63 957.708  16
  -5  -4   4 5723.52 859.614   1
  -5  -4   5 303.996 318.825   9
  -5  -4   5 1048.30 434.906   1
  -5  -4   5 164.301 497.879  16
  -5  -4   6 26426.5 1899.03  12
  -5  -4   6 24852.7 1909.36  16
  -5  -4   6 26061.3 1897.67   9
  -5  -4   7 59188.5 3074.56   9
  -5  -4   7 61383.9 3148.28  12
  -5  -4   7 59972.3 3147.20  16
  -5  -4   8 34741.6 2449.16  12
  -5  -4   8 36386.8 2483.53  16
  -5  -4   8 38699.6 2481.22   9
  -5  -4   9 13542.0 1580.24  12
  -5  -4   9 11492.2 1419.48   9
  -5  -4   9 10910.9 1410.47  16
  -5  -4  10 18606.6 1917.80   9
  -5  -4  10 18396.1 1925.48  16
  -5  -4  10 16155.4 1841.30  12
  -5  -3  -7 13727.0 1653.67   4
  -5  -3  -6 27563.3 2187.95   4
  -5  -3  -6 27010.8 2303.81  10
  -5  -3  -5 16409.1 1651.04  10
  -5  -3  -5 12980.2 1745.78   1
  -5  -3  -4 2490.71 639.400  10
  -5  -3  -4 1404.68 825.961   1
  -5  -3  -3 6419.06 1262.39   1
  -5  -3  -3 8775.60 1224.44  16
  -5  -3  -2 43722.2 2847.89   1
  -5  -3  -2 44340.0 2616.40  16
  -5  -3  -1 41085.5 2463.57  16
  -5  -3  -1 41990.0 2610.94   1
  -5  -3   0 16799.7 1509.78  16
  -5  -3   0 17711.0 1641.15   1
  -5  -3   1 10559.3 948.254   9
  -5  -3   1 8747.56 1077.97  16
  -5  -3   1 8969.58 1171.81   1
  -5  -3   2 51609.3 2741.79   1
  -5  -3   2 54201.2 2717.68  16
  -5  -3   3 149802. 4966.33   1
  -5  -3   3 150077. 4526.54   9
  -5  -3   3 140744. 4837.00  16
  -5  -3   4 31570.3 1991.10   1
  -5  -3   4 30016.8 1984.14  16
  -5  -3   4 30458.9 1818.45   9
  -5  -3   5 4034.11 725.123  12
  -5  -3   5 4654.64 800.061  16
  -5  -3   5 4027.59 619.928   6
  -5  -3   5 4556.07 753.592   1
  -5  -3   5 1894.00 535.304   9
  -5  -3   6 46185.0 2532.55  12
  -5  -3   6 46378.6 2255.41   6
  -5  -3   6 46515.0 2513.20   9
  -5  -3   6 45731.2 2341.47   1
  -5  -3   6 43052.3 2566.26  16
  -5  -3   7 81418.1 3601.96   9
  -5  -3   7 80939.6 3715.16  16
  -5  -3   7 79379.3 3317.78   6
  -5  -3   7 79408.8 3605.76  12
  -5  -3   8 35195.7 2416.02  12
  -5  -3   8 36252.6 2473.64  16
  -5  -3   8 41836.1 2594.06   9
  -5  -3   9 2115.56 802.401  12
  -5  -3   9 1585.10 564.794   9
  -5  -3  10 15346.9 1712.57  16
  -5  -3  10 17342.0 1785.73  12
  -5  -3  10 16318.8 1729.53   9
  -5  -2  -7 6760.70 1226.32  10
  -5  -2  -7 8337.96 1301.18   4
  -5  -2  -6 41788.6 2992.26   1
  -5  -2  -6 38470.6 2692.08  10
  -5  -2  -6 35901.7 2519.05   4
  -5  -2  -5 25365.0 2316.64   1
  -5  -2  -5 21986.2 1827.04   4
  -5  -2  -5 22579.7 1963.20  10
  -5  -2  -4 3931.35 826.681  10
  -5  -2  -4 3247.41 998.800   1
  -5  -2  -4 3067.52 783.613  16
  -5  -2  -3 27828.7 2254.27   1
  -5  -2  -3 26556.5 1908.22  10
  -5  -2  -3 30530.7 2195.38  16
  -5  -2  -2 38256.7 2504.00   1
  -5  -2  -2 38408.4 2426.05  16
  -5  -2  -1 37947.1 2321.92  16
  -5  -2  -1 38933.2 2437.68   1
  -5  -2   0 23764.2 1860.49   1
  -5  -2   0 22649.9 1728.82  16
  -5  -2   1 13481.5 1312.52  16
  -5  -2   1 13312.5 1403.64   1
  -5  -2   2 89983.0 2996.57   6
  -5  -2   2 85300.2 3523.68  16
  -5  -2   2 87904.0 3628.35   1
  -5  -2   3 144017. 4967.57  16
  -5  -2   3 160418. 4478.58  13
  -5  -2   3 153173. 5023.67   1
  -5  -2   3 158499. 4465.63   6
  -5  -2   3 163517. 4611.40   9
  -5  -2   3 158696. 4432.04  12
  -5  -2   4 74746.5 3267.40  16
  -5  -2   4 76783.7 2937.75  12
  -5  -2   4 72509.3 2799.22   6
  -5  -2   4 76101.2 3164.61   1
  -5  -2   4 76089.4 2935.99   9
  -5  -2   5 10747.9 1049.06  12
  -5  -2   5 9220.51 936.948   6
  -5  -2   5 7994.50 1083.40  16
  -5  -2   5 9976.25 1049.62   1
  -5  -2   5 8052.00 951.339   9
  -5  -2   6 12192.3 1343.76  16
  -5  -2   6 10893.0 1120.66   1
  -5  -2   6 11608.7 1133.53   6
  -5  -2   6 13766.1 1291.15   9
  -5  -2   6 10026.8 1131.00  12
  -5  -2   7 74893.8 3513.87  12
  -5  -2   7 75190.6 3298.58   6
  -5  -2   7 78953.8 3447.57   9
  -5  -2   7 78372.6 3561.84  16
  -5  -2   8 43431.9 2726.54  16
  -5  -2   8 38102.2 2590.18  12
  -5  -2   8 41651.7 2559.63   9
  -5  -2   9-81.0935 319.637  12
  -5  -2   9 585.652 574.932   9
  -5  -2   9 1236.77 489.432  16
  -5  -2  10 8150.89 1344.20   9
  -5  -2  10 6858.13 1248.08  16
  -5  -2  10 10431.0 1479.33  12
  -5  -2  11 57367.7 3525.86   9
  -5  -1  -7 10016.2 1311.18  10
  -5  -1  -7 10504.4 1679.77   1
  -5  -1  -7 10057.7 1341.27   4
  -5  -1  -6 57722.7 3206.94  10
  -5  -1  -6 58037.6 3499.53   1
  -5  -1  -5 57986.9 3361.36   1
  -5  -1  -5 55888.3 3012.07  10
  -5  -1  -4 7993.48 1137.39  16
  -5  -1  -4 10028.3 1375.22   1
  -5  -1  -4 7095.42 916.558  10
  -5  -1  -3 17982.0 1675.54  16
  -5  -1  -3 16623.5 1406.33  10
  -5  -1  -3 18354.3 1756.48   1
  -5  -1  -2 59314.6 3099.17   1
  -5  -1  -2 60334.6 2993.90  16
  -5  -1  -1 49731.4 2735.11   1
  -5  -1  -1 52651.5 2200.68   6
  -5  -1  -1 50925.6 2672.38  16
  -5  -1   0 20122.5 1612.84  16
  -5  -1   0 22092.2 1751.60   1
  -5  -1   0 20876.6 1305.06   6
  -5  -1   1 22927.0 1738.40   1
  -5  -1   1 23651.9 1409.39   6
  -5  -1   1 24521.3 1721.31  16
  -5  -1   2 85338.1 3498.71   1
  -5  -1   2 93502.9 2909.96  12
  -5  -1   2 87473.1 3077.26   6
  -5  -1   2 91294.6 2918.36  13
  -5  -1   2 92898.5 2875.70   9
  -5  -1   3 95467.6 3218.65  13
  -5  -1   3 94519.7 3183.04  12
  -5  -1   3 94432.1 3091.90   9
  -5  -1   3 90810.9 3224.62   6
  -5  -1   3 92123.1 3645.30  16
  -5  -1   3 86257.1 3516.52   1
  -5  -1   4 38068.9 1988.63   6
  -5  -1   4 39155.9 2057.62  13
  -5  -1   4 37734.5 1921.20   9
  -5  -1   4 39219.6 2040.54  12
  -5  -1   4 35079.0 2095.40   1
  -5  -1   4 37344.9 2204.46  16
  -5  -1   5 17759.7 1413.19   1
  -5  -1   5 17186.5 1391.34  12
  -5  -1   5 18824.5 1555.56  16
  -5  -1   5 16655.2 1302.08   9
  -5  -1   5 16606.0 1389.76   6
  -5  -1   6 6124.85 884.482   1
  -5  -1   6 7789.98 1070.85  16
  -5  -1   6 9854.74 1108.84  12
  -5  -1   6 7247.75 939.948   6
  -5  -1   6 7182.10 974.245   9
  -5  -1   7 57014.1 3031.37  16
  -5  -1   7 57589.3 2853.67   9
  -5  -1   7 51728.6 2549.98   1
  -5  -1   7 55316.0 2823.43   6
  -5  -1   7 58210.8 3037.62  12
  -5  -1   8 63464.8 3389.67  16
  -5  -1   8 67066.0 3306.23   9
  -5  -1   8 65052.5 3412.30  12
  -5  -1   9 749.298 489.644  12
  -5  -1   9 967.800 564.995  16
  -5  -1   9 1734.18 783.864   9
  -5  -1  10 526.398 499.088  16
  -5  -1  10 1071.24 604.272  12
  -5  -1  11 37029.5 2866.00   9
  -5   0  -8 13739.8 1637.71  10
  -5   0  -7 8040.70 1129.73  10
  -5   0  -7 8550.15 1364.15   1
  -5   0  -6 50196.7 3114.09   1
  -5   0  -6 42334.5 2667.85  10
  -5   0  -5 52441.0 2814.24  10
  -5   0  -5 52484.5 3076.49   1
  -5   0  -4 29284.0 1911.93  10
  -5   0  -4 33393.9 2340.43   1
  -5   0  -4 31897.1 2246.78  16
  -5   0  -4 29166.0 1822.49   6
  -5   0  -3 12364.7 1107.07   6
  -5   0  -3 10577.7 1068.17  10
  -5   0  -3 11669.8 1398.46  16
  -5   0  -3 13404.8 1514.07   1
  -5   0  -2 46542.8 2663.41   1
  -5   0  -2 44663.7 2537.29  16
  -5   0  -2 45308.2 2186.58   6
  -5   0  -1 97111.5 3394.68   6
  -5   0  -1 98805.8 3930.01   1
  -5   0  -1 97925.6 3820.07  16
  -5   0   0 3908.11 775.297   1
  -5   0   0 3890.74 725.630  16
  -5   0   0 3556.39 613.324   6
  -5   0   1 1136.73 275.605  12
  -5   0   1 2409.95 456.246   6
  -5   0   1 1881.25 613.293   1
  -5   0   1 1721.11 374.405  13
  -5   0   1 2732.17 731.501  16
  -5   0   2 66592.2 2493.15  13
  -5   0   2 59161.5 2788.24  16
  -5   0   2 71211.1 2548.35  12
  -5   0   2 67356.4 2671.09   6
  -5   0   2 55376.9 2771.54   1
  -5   0   3 82442.9 3331.36  16
  -5   0   3 83235.7 3029.55  12
  -5   0   3 73421.3 2994.22   6
  -5   0   3 80721.9 2997.02  13
  -5   0   3 84789.7 2771.68   9
  -5   0   3 79696.1 3305.42   1
  -5   0   4 50180.0 2160.40   9
  -5   0   4 46539.0 2319.09  12
  -5   0   4 44594.6 2392.42   1
  -5   0   4 44422.5 2269.22   6
  -5   0   4 48505.0 2504.81  16
  -5   0   4 45558.1 2317.12  13
  -5   0   5 24752.5 1738.65  12
  -5   0   5 22648.3 1623.84   6
  -5   0   5 24186.4 1716.33  13
  -5   0   5 22599.1 1770.05  16
  -5   0   5 23020.4 1520.51   9
  -5   0   5 22657.3 1681.14   1
  -5   0   6 33051.7 1985.70   9
  -5   0   6 35087.8 2213.35  16
  -5   0   6 33167.0 2136.82  12
  -5   0   6 26726.4 1826.09   1
  -5   0   6 29755.5 1977.98   6
  -5   0   6 29745.7 2063.97  13
  -5   0   7 61544.2 2845.69   1
  -5   0   7 65993.6 3044.57   9
  -5   0   7 58025.2 3108.34  12
  -5   0   7 55261.3 2994.63  16
  -5   0   7 53044.4 2927.73   6
  -5   0   8 45359.8 2772.54  16
  -5   0   8 43846.1 2409.53   8
  -5   0   8 38589.7 2526.59   6
  -5   0   8 38294.1 2622.15  12
  -5   0   9 9790.26 1301.08  12
  -5   0   9 10232.5 1416.01  16
  -5   0  10 3402.09 986.048  12
  -5   0  10 3023.26 1138.70  16
  -5   1  -8 6523.18 1294.32   1
  -5   1  -8 7593.06 1178.41  10
  -5   1  -7 7619.97 1270.53   1
  -5   1  -7 9346.86 1212.20  10
  -5   1  -6 25273.4 1928.68   6
  -5   1  -6 27139.4 2246.43   1
  -5   1  -6 26158.3 1923.40  10
  -5   1  -5 56695.1 2855.80   6
  -5   1  -5 54719.2 2769.89  10
  -5   1  -5 51187.4 3042.84   1
  -5   1  -4 46227.9 2767.94   1
  -5   1  -4 47335.7 2813.89  16
  -5   1  -4 53242.4 2472.51  10
  -5   1  -4 52728.3 2617.75   6
  -5   1  -3 10740.4 1339.48   1
  -5   1  -3 11155.5 1303.91  16
  -5   1  -3 13636.2 1229.62   6
  -5   1  -2 16140.0 1486.65  16
  -5   1  -2 15121.0 1461.39   1
  -5   1  -2 13695.8 1210.94   6
  -5   1  -1 69554.9 3191.57   1
  -5   1  -1 72909.9 2948.48   6
  -5   1  -1 72245.5 3130.75  16
  -5   1   0 24413.7 1333.40  14
  -5   1   0 24433.9 1716.04  16
  -5   1   0 24263.1 1306.58  13
  -5   1   0 21950.2 1728.85   1
  -5   1   0 24071.1 1330.61  12
  -5   1   0 21876.8 1500.16   6
  -5   1   1 1346.51 359.586  12
  -5   1   1 1426.77 569.298   1
  -5   1   1 271.893 380.357  16
  -5   1   1 905.204 362.592  13
  -5   1   1 590.644 287.610   6
  -5   1   1 760.595 248.306  14
  -5   1   2 50531.4 2543.14  16
  -5   1   2 56955.2 2367.97  12
  -5   1   2 57977.6 2398.52  13
  -5   1   2 51038.9 2435.75   6
  -5   1   2 54797.6 2694.65   1
  -5   1   3 127451. 4123.18  12
  -5   1   3 122659. 4145.28   6
  -5   1   3 127321. 4422.40   1
  -5   1   3 125908. 4131.49  13
  -5   1   3 123058. 4281.57  16
  -5   1   4 65265.3 2922.47   6
  -5   1   4 75825.4 2729.08   9
  -5   1   4 70217.1 3009.15  13
  -5   1   4 69717.4 3121.00   1
  -5   1   4 68031.2 2984.78  12
  -5   1   4 71309.4 3093.97  16
  -5   1   5 17900.1 1542.96  12
  -5   1   5 17869.8 1333.79   9
  -5   1   5 15985.2 1403.10   6
  -5   1   5 16498.0 1477.80  13
  -5   1   5 17061.0 1509.79  16
  -5   1   5 15242.4 1416.07   1
  -5   1   6 29820.2 2136.59  13
  -5   1   6 29787.3 2001.95   1
  -5   1   6 33918.2 2235.66  12
  -5   1   6 31911.4 2120.71   6
  -5   1   6 31915.5 2150.42  16
  -5   1   7 87697.2 3866.14   6
  -5   1   7 90184.0 4001.03  12
  -5   1   7 87953.9 3853.25  16
  -5   1   7 80579.0 3855.57  13
  -5   1   7 85869.2 3621.18   1
  -5   1   8 38517.6 2346.66   1
  -5   1   8 36345.8 2478.67  16
  -5   1   8 38049.3 2623.48  12
  -5   1   8 38346.5 2531.56   6
  -5   1   8 40486.3 2465.14   8
  -5   1   8 36388.8 2609.60  13
  -5   1   9 11228.4 1531.26  16
  -5   1   9 11736.4 1292.11   8
  -5   1   9 9716.82 1415.19  13
  -5   1   9 8153.52 1202.30   6
  -5   1   9 10084.1 1391.93  12
  -5   1  10 8886.72 1417.70  16
  -5   1  10 6738.08 1280.53  13
  -5   1  10 9708.07 1500.35   6
  -5   1  10 9931.76 1387.55   8
  -5   1  10 9025.11 1390.35  12
  -5   2  -8 2176.82 987.842   1
  -5   2  -7 11157.9 1469.65   1
  -5   2  -7 10075.5 1271.60   6
  -5   2  -6 22222.1 1839.77   6
  -5   2  -6 24047.5 2070.59   1
  -5   2  -5 35704.6 2273.39   6
  -5   2  -5 40125.9 2604.15   1
  -5   2  -4 50027.4 2643.62   6
  -5   2  -4 53630.6 2947.62   1
  -5   2  -4 48052.3 2816.19  16
  -5   2  -3 15927.2 1378.20   6
  -5   2  -3 14755.0 1589.57   1
  -5   2  -3 14437.5 1433.90  16
  -5   2  -2 29562.8 2020.62  16
  -5   2  -2 30316.8 1905.05   6
  -5   2  -2 30418.5 2077.66   1
  -5   2  -1 77529.0 2704.84  12
  -5   2  -1 69257.9 3090.91  16
  -5   2  -1 73086.0 2645.13  14
  -5   2  -1 74827.1 2664.25  13
  -5   2  -1 70432.1 3017.28   6
  -5   2  -1 69763.3 3207.97   1
  -5   2   0 58170.7 2742.22  16
  -5   2   0 62149.0 2472.71  14
  -5   2   0 63860.1 2490.67  13
  -5   2   0 59938.8 2916.92   1
  -5   2   0 66457.8 2847.62   6
  -5   2   0 59865.6 2426.28  12
  -5   2   1 30931.0 1689.09  12
  -5   2   1 28800.1 1784.49   6
  -5   2   1 28316.5 1634.45  13
  -5   2   1 27848.2 1916.21   1
  -5   2   1 29992.5 1881.97  16
  -5   2   1 28547.2 1658.25  14
  -5   2   2 17269.1 1418.45  16
  -5   2   2 15097.2 1373.08   6
  -5   2   2 15149.5 1259.98  12
  -5   2   2 17483.5 1329.45  13
  -5   2   2 16508.0 1447.18   1
  -5   2   3 87171.8 3370.38  13
  -5   2   3 84576.6 3336.52  12
  -5   2   3 80709.6 3346.48   6
  -5   2   3 88602.2 3415.97  16
  -5   2   3 85154.9 3549.64   1
  -5   2   4 91500.2 3550.74  16
  -5   2   4 80981.0 3543.78   1
  -5   2   4 87298.9 3525.42  13
  -5   2   4 86300.5 3499.16  12
  -5   2   4 85754.9 3532.50   6
  -5   2   5 14090.2 1380.03  16
  -5   2   5 12421.3 1313.18   1
  -5   2   5 11411.1 1270.10  13
  -5   2   5 12475.6 1308.07  12
  -5   2   5 12919.7 1294.62   6
  -5   2   6 26624.5 2015.53  13
  -5   2   6 22770.0 1833.43   6
  -5   2   6 25382.8 1906.70  16
  -5   2   6 23424.5 1910.59  12
  -5   2   6 27350.1 1951.79   1
  -5   2   7 82476.3 3721.88  16
  -5   2   7 78551.0 3595.52   1
  -5   2   7 78686.1 3702.85   6
  -5   2   7 88314.9 4024.57  13
  -5   2   7 83507.7 3916.50  12
  -5   2   8 41676.7 2800.61   6
  -5   2   8 46670.5 2885.67  16
  -5   2   8 46729.4 2700.30   1
  -5   2   8 50377.2 3122.57  13
  -5   2   8 41633.9 2666.22   8
  -5   2   8 40056.3 2869.78  12
  -5   2   9 4728.37 1179.54  12
  -5   2   9 5245.63 1141.82   6
  -5   2   9 6912.65 1104.57   8
  -5   2   9 6600.96 1259.24  13
  -5   2   9 6760.65 1150.42  16
  -5   2  10 1497.87 894.468  16
  -5   2  10 1943.42 859.638   8
  -5   3  -8 10765.5 1394.56   6
  -5   3  -8 7508.09 1406.86   1
  -5   3  -7 1766.62 718.071   6
  -5   3  -7 2262.02 807.402   1
  -5   3  -6 15868.2 1704.74   1
  -5   3  -6 18404.5 1780.82   6
  -5   3  -5 52250.4 2962.32   6
  -5   3  -5 57948.5 3148.72   1
  -5   3  -4 53948.8 2939.64  16
  -5   3  -4 57208.9 2941.13   6
  -5   3  -4 55406.7 2988.06   1
  -5   3  -3 33224.8 2157.72   6
  -5   3  -3 32734.9 2153.53  16
  -5   3  -3 33858.2 2228.88   1
  -5   3  -2 49308.6 2225.77  15
  -5   3  -2 55026.0 2302.63  12
  -5   3  -2 49926.4 2623.81  16
  -5   3  -2 51706.0 2260.32  13
  -5   3  -2 53588.2 2297.16  14
  -5   3  -2 53429.9 2810.27   1
  -5   3  -2 50853.5 2632.94   6
  -5   3  -1 75152.4 3266.17   6
  -5   3  -1 70318.1 3137.32  16
  -5   3  -1 82559.4 3007.04  14
  -5   3  -1 76483.9 3388.05   1
  -5   3  -1 77858.4 2928.14  13
  -5   3  -1 78363.9 2947.50  12
  -5   3   0 47894.8 2612.92   1
  -5   3   0 49676.3 2435.63  16
  -5   3   0 48139.9 2259.98  12
  -5   3   0 46198.8 2479.16   6
  -5   3   0 49100.4 2281.95  13
  -5   3   0 47897.1 2266.23  14
  -5   3   1 21270.1 1523.43  12
  -5   3   1 19962.2 1556.99   6
  -5   3   1 22661.7 1611.04  16
  -5   3   1 23229.6 1811.54   1
  -5   3   1 22604.8 1549.17  13
  -5   3   1 21464.3 1504.23  14
  -5   3   2 7825.21 988.784  16
  -5   3   2 9462.85 1050.17  14
  -5   3   2 8638.88 991.239  13
  -5   3   2 9018.63 1149.31   1
  -5   3   2 10194.3 1120.50   6
  -5   3   2 10518.9 1138.09  12
  -5   3   3 38549.6 2283.75   6
  -5   3   3 41840.4 2313.79  12
  -5   3   3 39210.9 2410.31   1
  -5   3   3 38949.8 2254.91  13
  -5   3   3 40750.7 2222.81  16
  -5   3   4 76594.9 3412.43  13
  -5   3   4 79988.6 3259.24  16
  -5   3   4 79374.1 3532.34   1
  -5   3   4 72578.1 3329.27   6
  -5   3   4 74621.1 3344.83  12
  -5   3   5 19121.3 1682.94  13
  -5   3   5 18448.0 1537.60  16
  -5   3   5 16353.5 1561.27   1
  -5   3   5 17689.2 1623.11  12
  -5   3   5 17489.5 1641.68   6
  -5   3   6 15099.0 1612.95  13
  -5   3   6 13033.1 1446.16   1
  -5   3   6 14144.7 1503.13   6
  -5   3   6 15892.4 1521.28  16
  -5   3   6 16048.8 1589.82  12
  -5   3   7 45342.4 2712.42  16
  -5   3   7 44190.3 2669.40   1
  -5   3   7 44026.0 2814.57  12
  -5   3   7 45494.8 2955.63  13
  -5   3   7 44544.9 2840.69   6
  -5   3   8 39140.7 2791.04  12
  -5   3   8 37457.7 2547.15  16
  -5   3   8 34647.8 2581.39   6
  -5   3   8 31526.5 2342.80   1
  -5   3   8 39280.6 2790.94  13
  -5   3   8 38921.7 2627.38   8
  -5   3   9 8113.10 1388.53  13
  -5   3   9 7662.25 1170.86   1
  -5   3   9 13197.3 1649.26  12
  -5   3   9 11566.0 1434.90   8
  -5   3   9 11433.4 1585.17  16
  -5   4  -8 12351.7 1690.76   1
  -5   4  -7 4088.07 829.491   6
  -5   4  -7 3704.30 962.744   1
  -5   4  -6 9867.30 1301.64   6
  -5   4  -6 12076.6 1491.72   1
  -5   4  -5 84550.3 3824.79   1
  -5   4  -5 87463.8 3962.50   6
  -5   4  -4 60842.8 3151.81   6
  -5   4  -4 60869.3 3134.33   1
  -5   4  -3 14661.2 1455.31   6
  -5   4  -3 18251.0 1579.76  16
  -5   4  -3 15625.1 1298.79  15
  -5   4  -3 17088.1 1321.74  13
  -5   4  -3 17831.3 1670.11   1
  -5   4  -3 16871.8 1319.70  14
  -5   4  -3 18661.2 1370.85  12
  -5   4  -2 29874.7 1801.46  15
  -5   4  -2 32102.2 2115.61   6
  -5   4  -2 29520.0 1974.93  16
  -5   4  -2 32295.8 1874.99  13
  -5   4  -2 32268.0 1863.20  14
  -5   4  -2 33177.7 2208.74   1
  -5   4  -2 32779.8 1882.22  12
  -5   4  -1 40391.1 2133.39  14
  -5   4  -1 41685.1 2395.23   6
  -5   4  -1 41319.7 2469.88   1
  -5   4  -1 38186.6 2235.86  16
  -5   4  -1 40091.9 2131.75  13
  -5   4  -1 41157.0 2141.88  12
  -5   4   0 54416.7 2764.41   6
  -5   4   0 53578.4 2824.14   1
  -5   4   0 53068.3 2571.71  16
  -5   4   0 57835.3 2673.19  14
  -5   4   0 54803.3 2596.41  12
  -5   4   0 56437.6 2604.04  13
  -5   4   1 19870.3 1537.56  13
  -5   4   1 18939.1 1523.79  12
  -5   4   1 18205.5 1564.16   6
  -5   4   1 18465.5 1496.38  14
  -5   4   1 19028.9 1498.82  16
  -5   4   1 19548.2 1714.46   1
  -5   4   2 6584.23 846.901  16
  -5   4   2 5125.38 879.295   6
  -5   4   2 6914.72 1126.42   1
  -5   4   2 5091.78 810.902  12
  -5   4   2 6392.03 858.306  14
  -5   4   2 4898.52 844.419  13
  -5   4   3 34359.6 1994.75  16
  -5   4   3 37299.7 2252.25  12
  -5   4   3 33707.8 2200.35   6
  -5   4   3 34511.3 2221.99  13
  -5   4   3 34189.7 2364.73   1
  -5   4   4 46324.6 2621.51  13
  -5   4   4 38783.7 2512.71   1
  -5   4   4 43919.3 2301.31  16
  -5   4   4 38539.1 2446.25   6
  -5   4   4 40415.8 2466.86  12
  -5   4   5 13185.3 1546.57  13
  -5   4   5 13317.9 1525.95   6
  -5   4   5 17336.0 1673.08   1
  -5   4   5 19366.2 1777.08  12
  -5   4   5 18005.3 1477.04  16
  -5   4   6 9982.45 1373.46  12
  -5   4   6 14048.7 1444.58   1
  -5   4   6 14195.6 1426.29  16
  -5   4   6 13808.4 1501.60   6
  -5   4   6 10698.6 1426.01  13
  -5   4   7 29495.8 2164.63  16
  -5   4   7 28047.6 2307.67   6
  -5   4   7 30921.0 2464.85  13
  -5   4   7 29204.4 2255.36   1
  -5   4   7 37242.7 2628.08  12
  -5   4   8 50018.3 3232.68   8
  -5   4   8 61956.2 3280.04  16
  -5   4   8 52703.5 3339.04  13
  -5   4   8 53254.0 3300.63   6
  -5   4   8 50195.5 3228.87  12
  -5   4   9 21913.0 2178.59  16
  -5   5  -7 2851.14 790.961   6
  -5   5  -7 2751.95 880.933   1
  -5   5  -6 9416.31 1385.04   6
  -5   5  -6 9206.04 1418.50   1
  -5   5  -5 46165.2 2778.99   1
  -5   5  -5 47297.0 2880.57   6
  -5   5  -4 36390.0 2477.95   1
  -5   5  -4 39259.2 2538.07   6
  -5   5  -3 9079.25 1170.49  16
  -5   5  -3 8043.34 977.738  13
  -5   5  -3 6052.63 1031.83   6
  -5   5  -3 8571.68 967.314  15
  -5   5  -3 9975.62 1068.81  14
  -5   5  -3 8669.91 1002.11  12
  -5   5  -3 8923.17 1188.27   1
  -5   5  -2 20117.1 1742.25   6
  -5   5  -2 16771.1 1450.32  13
  -5   5  -2 17277.3 1421.40  15
  -5   5  -2 18030.9 1496.79  16
  -5   5  -2 15840.1 1377.00  14
  -5   5  -2 19807.3 1763.13   1
  -5   5  -2 18586.2 1462.03  12
  -5   5  -1 51567.5 2764.12   6
  -5   5  -1 45159.4 2449.03  12
  -5   5  -1 42811.6 2439.67  14
  -5   5  -1 50791.4 2544.23  13
  -5   5  -1 48168.6 2709.36   1
  -5   5  -1 47743.8 2454.86  16
  -5   5   0 63003.6 2964.15  12
  -5   5   0 62261.5 2961.94  13
  -5   5   0 62211.0 3154.28   1
  -5   5   0 60336.0 3112.64   6
  -5   5   0 68668.1 3055.90  14
  -5   5   0 66642.1 2876.38  16
  -5   5   1 33615.0 2315.25   1
  -5   5   1 31316.8 2083.84  13
  -5   5   1 31767.7 2073.20  12
  -5   5   1 29868.9 2102.01   6
  -5   5   1 30239.9 2072.88  14
  -5   5   1 31411.5 1884.79  16
  -5   5   2 4679.79 770.726  14
  -5   5   2 4982.71 855.449   6
  -5   5   2 5138.29 961.733   1
  -5   5   2 6076.77 842.643  16
  -5   5   2 4505.62 907.458  12
  -5   5   2 4405.92 776.876  13
  -5   5   3 17875.2 1595.41  13
  -5   5   3 22932.2 1987.16   1
  -5   5   3 20697.8 1786.09  14
  -5   5   3 19222.1 1702.51  12
  -5   5   3 20569.5 1552.26  16
  -5   5   3 22495.1 1836.11   6
  -5   5   4 43030.5 2727.83   1
  -5   5   4 42260.8 2639.79  13
  -5   5   4 41602.6 2586.86   6
  -5   5   4 41324.2 2265.02  16
  -5   5   4 37927.2 2540.53  12
  -5   5   4 39680.0 2559.21  14
  -5   5   5 29264.8 2177.79   6
  -5   5   5 26096.1 2196.88   1
  -5   5   5 26070.9 2186.26  12
  -5   5   5 26219.6 2160.79  13
  -5   5   5 28869.5 1940.73  16
  -5   5   6 22264.4 1988.21   6
  -5   5   6 19438.5 1903.31  12
  -5   5   6 22803.2 2044.20  13
  -5   5   6 19813.8 1697.24  16
  -5   5   7 27479.1 2395.36   6
  -5   5   7 27910.0 2378.28  12
  -5   5   7 28834.5 2458.59  13
  -5   6  -6 732.064 525.643   6
  -5   6  -6 3003.41 748.525   1
  -5   6  -5 49639.7 2940.74   1
  -5   6  -5 47861.2 3027.11   6
  -5   6  -4 38890.3 2333.51  12
  -5   6  -4 38581.5 2529.73   1
  -5   6  -4 33426.5 2186.00  14
  -5   6  -4 34458.6 2483.21   6
  -5   6  -4 36206.1 2249.70  13
  -5   6  -4 37452.3 2332.41  15
  -5   6  -3 17737.2 1514.88  15
  -5   6  -3 15585.4 1622.34   1
  -5   6  -3 15115.1 1426.81  14
  -5   6  -3 16370.6 1502.01  13
  -5   6  -3 17908.4 1745.75   6
  -5   6  -3 18169.9 1543.39  12
  -5   6  -2 15130.6 1639.17   6
  -5   6  -2 14661.2 1410.69  15
  -5   6  -2 15968.5 1459.48  13
  -5   6  -2 16491.0 1538.67  12
  -5   6  -2 14983.3 1441.22  14
  -5   6  -2 15658.7 1583.76   1
  -5   6  -2 17257.3 1504.13  16
  -5   6  -1 50678.3 2766.88  13
  -5   6  -1 50672.1 2748.58  12
  -5   6  -1 50054.1 2705.23  14
  -5   6  -1 51364.1 2900.96   1
  -5   6  -1 50389.3 2894.12   6
  -5   6   0 68133.5 3299.49  14
  -5   6   0 73435.8 3511.73   6
  -5   6   0 70727.4 3357.15  12
  -5   6   0 74250.1 3419.34  13
  -5   6   0 75923.2 3587.56   1
  -5   6   1 20728.3 1784.79  13
  -5   6   1 22732.6 2000.72   1
  -5   6   1 20635.7 1767.82  14
  -5   6   1 23950.0 1916.50  12
  -5   6   1 20839.1 1787.80   6
  -5   6   2 15462.2 1576.76  12
  -5   6   2 14096.5 1495.25  14
  -5   6   2 13457.2 1446.32  13
  -5   6   2 16595.9 1726.86   1
  -5   6   2 15882.9 1574.46   6
  -5   6   3 24255.1 1992.86  13
  -5   6   3 20290.8 1837.82  12
  -5   6   3 18366.2 1835.67   1
  -5   6   3 23499.2 2020.09  14
  -5   6   3 25645.1 2019.73   6
  -5   6   4 32862.7 2414.68   6
  -5   6   4 33658.4 2507.25  12
  -5   6   4 30607.8 2348.41  13
  -5   6   4 33383.1 2561.73   1
  -5   6   4 36901.6 2537.06  14
  -5   6   5 35681.1 2600.25  14
  -5   6   5 37874.4 2617.06   6
  -5   6   5 37121.2 2710.01  13
  -5   6   5 37420.6 2726.95  12
  -5   6   6 13503.2 1604.85   6
  -5   6   6 11054.7 1407.75  12
  -5   6   6 13619.6 1632.10  13
  -5   7  -6 3343.07 1001.75   1
  -5   7  -5 42476.2 2639.09  15
  -5   7  -5 41086.4 2584.60  13
  -5   7  -5 45232.2 2854.18   1
  -5   7  -5 42163.6 2621.01  12
  -5   7  -5 42701.1 2659.47  14
  -5   7  -5 50127.9 3090.28   6
  -5   7  -4 66936.8 3374.65  13
  -5   7  -4 65860.2 3595.54   6
  -5   7  -4 65872.8 3347.24  12
  -5   7  -4 60129.6 3281.47   1
  -5   7  -4 63307.5 3257.31  14
  -5   7  -4 63534.0 3273.09  15
  -5   7  -3 11227.8 1279.05  15
  -5   7  -3 13956.1 1591.88   1
  -5   7  -3 12870.8 1363.98  14
  -5   7  -3 12004.7 1366.81  13
  -5   7  -3 11480.1 1405.96   6
  -5   7  -3 13260.4 1382.53  12
  -5   7  -2 5323.75 932.445  14
  -5   7  -2 4639.30 1015.73   1
  -5   7  -2 4094.64 777.799  13
  -5   7  -2 3777.45 853.247  15
  -5   7  -2 3462.23 790.835  12
  -5   7  -2 5331.92 929.626   6
  -5   7  -1 43657.6 2682.66  14
  -5   7  -1 44023.1 2779.79   6
  -5   7  -1 46999.4 2803.98  12
  -5   7  -1 49205.7 2830.09  13
  -5   7  -1 46180.4 2898.25   1
  -5   7   0 83905.7 4052.03   1
  -5   7   0 87353.4 3944.68  14
  -5   7   0 81269.1 3856.17  13
  -5   7   0 85071.5 4040.81   6
  -5   7   0 85258.8 3929.89  12
  -5   7   1 28659.3 2210.12  13
  -5   7   1 28121.9 2324.06   1
  -5   7   1 27877.6 2178.14  12
  -5   7   1 28126.3 2159.83   6
  -5   7   1 33040.2 2330.81  14
  -5   7   2 10049.6 1309.04  14
  -5   7   2 8534.51 1222.02  12
  -5   7   2 13555.8 1463.91  13
  -5   7   2 9060.27 1330.15   6
  -5   7   2 9667.19 1406.31   1
  -5   7   3 25295.5 2109.84  14
  -5   7   3 23193.2 2022.20   6
  -5   7   3 23196.7 2079.23   1
  -5   7   3 20706.9 2038.59  12
  -5   7   3 20141.2 1966.79  13
  -5   7   4 16613.8 1723.56  14
  -5   7   4 16608.7 1765.87  13
  -5   7   4 16601.2 1726.94   6
  -5   7   4 16599.3 1827.31  12
  -5   8  -5 18391.4 1784.69  15
  -5   8  -5 19639.2 1856.04  14
  -5   8  -5 17478.4 1709.77  13
  -5   8  -5 13647.3 1788.01   1
  -5   8  -5 15787.4 1642.23  12
  -5   8  -4 41978.2 2727.82  13
  -5   8  -4 36460.0 2643.51  12
  -5   8  -4 42733.1 2912.39   1
  -5   8  -4 39852.8 2733.30  14
  -5   8  -4 46514.0 2884.47  15
  -5   8  -3 22108.5 2066.58   1
  -5   8  -3 23961.7 2060.92  13
  -5   8  -3 21833.8 1918.27  15
  -5   8  -3 22625.0 1920.77  14
  -5   8  -3 19250.4 1859.28  12
  -5   8  -2 1056.26 539.880   6
  -5   8  -2 242.641 165.561  12
  -5   8  -2 921.768 527.611  13
  -5   8  -2 1337.70 720.770   1
  -5   8  -2 619.698 319.099  15
  -5   8  -2 644.651 554.280  14
  -5   8  -1 27967.1 2338.85   1
  -5   8  -1 24054.3 2194.92   6
  -5   8  -1 24798.8 2140.74  12
  -5   8  -1 25791.4 2137.46  15
  -5   8  -1 23770.2 2056.18  13
  -5   8  -1 22970.5 2090.73  14
  -5   8   0 75577.7 3835.38  14
  -5   8   0 83148.1 4073.57   6
  -5   8   0 72607.6 3800.50  12
  -5   8   0 81594.3 3936.02  13
  -5   8   0 72010.1 3847.05   1
  -5   8   1 25621.5 2190.52  13
  -5   8   1 20782.1 1989.56   6
  -5   8   1 23234.6 2031.99  12
  -5   8   1 22745.3 2004.58  14
  -5   8   1 20996.9 2090.88   1
  -5   8   2 3183.04 717.198  14
  -5   8   2 2999.16 854.765  13
  -5   8   2 1782.80 707.433   6
  -5   8   2 3277.67 861.348  12
  -4 -10   5 8154.64 1308.37  11
  -4 -10   6 322.678 790.506  11
  -4  -9  -1 17152.8 1825.62   9
  -4  -9   0 39917.6 2895.21   9
  -4  -9   1 23300.3 2066.09   9
  -4  -9   1 22107.2 2221.18   2
  -4  -9   1 20468.2 2145.54  11
  -4  -9   2 6286.99 1200.51  11
  -4  -9   2 5711.64 1047.30   9
  -4  -9   3 17302.4 1858.00  11
  -4  -9   3 15901.7 1746.86   9
  -4  -9   4 29770.4 2429.00   9
  -4  -9   4 29421.1 2409.54  11
  -4  -9   5 20391.0 1927.62   9
  -4  -9   5 16641.1 1827.28  11
  -4  -9   6 1637.70 740.722  11
  -4  -9   6 1731.44 751.364   9
  -4  -8  -2 2149.37 784.671   2
  -4  -8  -2 4229.51 1120.61  11
  -4  -8  -1 19330.6 1827.00   9
  -4  -8  -1 15713.8 1762.46   2
  -4  -8  -1 18114.0 1990.99  11
  -4  -8   0 22798.4 2188.66  11
  -4  -8   0 27178.2 2171.95   9
  -4  -8   0 21785.7 2053.73   2
  -4  -8   1 13112.7 1493.57   9
  -4  -8   1 15866.5 1813.43  11
  -4  -8   1 16580.7 1748.37   2
  -4  -8   2 22057.2 1940.21   9
  -4  -8   2 23984.8 2162.55  11
  -4  -8   3 16163.5 1742.46  11
  -4  -8   3 15603.8 1589.06   9
  -4  -8   4 32404.5 2314.66   9
  -4  -8   4 28477.5 2246.30  11
  -4  -8   5 30141.9 2310.02   9
  -4  -8   5 31126.4 2281.62  11
  -4  -8   6 3583.67 960.203   9
  -4  -8   7 4022.15 1055.62   9
  -4  -8   8 29933.6 2409.40  19
  -4  -8   8 35265.4 2597.36   9
  -4  -8   9 40065.2 2886.33  19
  -4  -8  10 10521.0 1604.44  19
  -4  -7  -5 16820.0 1787.97   2
  -4  -7  -4 22957.7 2054.78   2
  -4  -7  -4 21869.9 2380.22  11
  -4  -7  -3 4800.84 1010.84   2
  -4  -7  -3 4478.22 945.240  11
  -4  -7  -2 627.167 373.791  11
  -4  -7  -2-242.410 250.261   2
  -4  -7  -1 18262.8 1690.47   9
  -4  -7  -1 13924.2 1757.39  11
  -4  -7  -1 15168.1 1598.04   2
  -4  -7   0 53719.5 3273.24  11
  -4  -7   0 50112.4 2955.83   2
  -4  -7   0 54737.3 2635.52  16
  -4  -7   0 50256.3 2855.67   9
  -4  -7   1 21401.5 1768.01   9
  -4  -7   1 23315.1 2156.80  11
  -4  -7   1 19348.5 1488.18  16
  -4  -7   2 23460.6 1857.96   9
  -4  -7   2 21856.3 1548.56  16
  -4  -7   2 19212.2 1872.48  11
  -4  -7   3 34760.7 2386.17  11
  -4  -7   3 35439.4 1984.39  16
  -4  -7   3 34743.6 2285.54   9
  -4  -7   4 34088.8 2287.55   9
  -4  -7   4 30769.0 1865.07  16
  -4  -7   4 33708.0 2300.39  11
  -4  -7   5 40518.0 2517.46   9
  -4  -7   5 40048.9 2516.22  11
  -4  -7   5 40582.2 2203.84  16
  -4  -7   6 13216.8 1278.80  16
  -4  -7   6 16202.4 1525.31  19
  -4  -7   6 16808.5 1550.84   9
  -4  -7   7 17520.4 1712.59   9
  -4  -7   7 15750.2 1551.40  19
  -4  -7   7 14426.4 1340.66  16
  -4  -7   8 31457.3 2384.63   9
  -4  -7   8 31561.4 2113.16  16
  -4  -7   8 37543.7 2517.55  19
  -4  -7   9 36193.3 2414.86  16
  -4  -7   9 41409.3 2837.98  19
  -4  -7   9 38699.7 2741.99   9
  -4  -7  10 24706.2 2075.14  16
  -4  -7  10 27324.4 2333.30  19
  -4  -7  11 5628.84 1118.90  16
  -4  -6  -6 3816.03 1217.28  11
  -4  -6  -5 7962.97 1202.86  11
  -4  -6  -5 7053.64 1232.48   2
  -4  -6  -4 37641.0 2831.64  11
  -4  -6  -4 38876.2 2672.95   2
  -4  -6  -3 17092.6 1663.53   2
  -4  -6  -3 16499.7 1837.76  11
  -4  -6  -2 100.569 214.004   9
  -4  -6  -2 132.092 482.260   2
  -4  -6  -2 544.234 379.467  16
  -4  -6  -2 1240.34 561.841  11
  -4  -6  -1 21804.2 1892.60   2
  -4  -6  -1 21448.3 1598.34  16
  -4  -6  -1 20339.5 1666.28   9
  -4  -6  -1 21871.9 2011.90  11
  -4  -6   0 66104.1 3463.11  11
  -4  -6   0 63197.0 3020.13   9
  -4  -6   0 69339.3 2954.02  16
  -4  -6   0 65154.7 3279.65   2
  -4  -6   1 46795.2 2383.85  16
  -4  -6   1 54384.1 2672.53   9
  -4  -6   1 50316.7 2893.58  11
  -4  -6   2 12763.9 1122.39  16
  -4  -6   2 12676.1 1280.20   9
  -4  -6   2 12640.2 1412.87  11
  -4  -6   3 36389.0 2307.07  11
  -4  -6   3 31171.3 1826.26  16
  -4  -6   3 31723.9 2101.07   1
  -4  -6   3 30934.3 2006.98   9
  -4  -6   4 110397. 4261.61  11
  -4  -6   4 110473. 4025.80   1
  -4  -6   4 106686. 4074.38   9
  -4  -6   4 106474. 3834.75  16
  -4  -6   5 54041.9 2757.55   9
  -4  -6   5 49844.4 2476.29  16
  -4  -6   5 52317.8 2622.98  19
  -4  -6   6 22296.5 1783.16   9
  -4  -6   6 16455.3 1533.75  19
  -4  -6   6 19880.3 1525.54  16
  -4  -6   7 20674.0 1746.06   9
  -4  -6   7 18865.9 1666.64  19
  -4  -6   7 18649.5 1562.20  16
  -4  -6   8 19505.3 1629.97  16
  -4  -6   8 15860.2 1617.20  19
  -4  -6   8 18374.8 1745.98   9
  -4  -6   9 25599.3 2040.85  16
  -4  -6   9 22931.7 2101.07  19
  -4  -6   9 25094.4 2097.46   9
  -4  -6  10 18463.0 1986.15   9
  -4  -6  10 19514.5 1815.25  16
  -4  -6  11 9607.58 1406.66  16
  -4  -5  -7 4218.57 880.445  11
  -4  -5  -6 9395.27 1335.47  11
  -4  -5  -6 7023.28 1217.59  10
  -4  -5  -5 20688.0 1833.00   2
  -4  -5  -5 25546.3 2208.05  10
  -4  -5  -5 25081.5 2211.82  11
  -4  -5  -4 64451.2 3476.24  10
  -4  -5  -4 65965.5 3291.34   2
  -4  -5  -4 63791.1 3508.07  11
  -4  -5  -3 39607.2 2447.23   2
  -4  -5  -3 39092.2 2660.65  11
  -4  -5  -2 2603.19 558.937  16
  -4  -5  -2 3538.41 663.574   9
  -4  -5  -2 1423.72 535.284   2
  -4  -5  -2 3538.83 851.303  11
  -4  -5  -1 10352.0 1286.95  11
  -4  -5  -1 9222.33 1198.01   2
  -4  -5  -1 10341.8 1354.23   1
  -4  -5  -1 8733.69 1049.97  16
  -4  -5  -1 10080.9 1083.76   9
  -4  -5   0 67318.1 2883.40  16
  -4  -5   0 70865.9 2938.05   9
  -4  -5   0 60302.6 3160.78   1
  -4  -5   0 63940.7 3229.14  11
  -4  -5   1 83570.4 3257.97  16
  -4  -5   1 87108.6 3738.11  11
  -4  -5   1 82729.7 3250.23   9
  -4  -5   1 87990.8 3686.55   1
  -4  -5   2 27110.4 1696.82  16
  -4  -5   2 28809.6 1957.34   1
  -4  -5   2 27857.2 1990.64  11
  -4  -5   2 28301.4 1817.73   9
  -4  -5   3 16425.7 1495.89  11
  -4  -5   3 15764.3 1296.88  16
  -4  -5   3 16032.0 1421.36   1
  -4  -5   3 17300.8 1462.56   9
  -4  -5   4 107429. 3852.45   1
  -4  -5   4 112177. 3986.86   9
  -4  -5   4 115769. 3918.01  16
  -4  -5   5 83459.9 3159.96   1
  -4  -5   5 80504.0 3287.12  16
  -4  -5   5 91445.8 3523.37   9
  -4  -5   6 7312.91 981.145  16
  -4  -5   6 6623.31 942.850   9
  -4  -5   7 12753.3 1284.00  16
  -4  -5   7 11312.9 1291.62   9
  -4  -5   8 20985.8 1727.99  16
  -4  -5   8 20345.9 1804.05   9
  -4  -5   9 33543.7 2343.25  16
  -4  -5   9 33211.4 2440.53   9
  -4  -5  10 17888.9 1845.96   9
  -4  -5  10 15481.4 1669.81  16
  -4  -5  11 7761.77 1284.03  12
  -4  -5  11 9675.57 1550.21   9
  -4  -5  11 8060.50 1180.93  16
  -4  -4  -7 17166.3 1855.20   4
  -4  -4  -7 18408.8 1734.99  11
  -4  -4  -7 15372.3 1849.61  10
  -4  -4  -6 7226.07 1223.11  11
  -4  -4  -6 7216.13 1102.29   4
  -4  -4  -6 7779.33 1160.50  10
  -4  -4  -5 39733.8 2637.54  10
  -4  -4  -5 39034.3 2345.44   2
  -4  -4  -5 40924.7 2711.47  11
  -4  -4  -4 80234.6 3513.53   2
  -4  -4  -4 82278.7 3775.78  10
  -4  -4  -4 81554.4 4022.75   1
  -4  -4  -4 85868.5 3922.33  11
  -4  -4  -3 20200.5 1654.37   2
  -4  -4  -3 21050.0 1843.74  11
  -4  -4  -3 22994.7 1811.83  16
  -4  -4  -3 24052.3 2039.91   1
  -4  -4  -3 24396.9 1848.96  10
  -4  -4  -2 10079.6 1376.78   1
  -4  -4  -2 8659.67 1060.40  16
  -4  -4  -2 10086.7 1285.81  11
  -4  -4  -2 9144.20 950.912   9
  -4  -4  -1 9894.40 1084.34  16
  -4  -4  -1 9691.39 1276.34  11
  -4  -4  -1 9271.76 972.448   9
  -4  -4  -1 9023.00 1176.73   1
  -4  -4   0 59170.1 2454.72   9
  -4  -4   0 55827.7 2550.21  16
  -4  -4   0 56936.1 2893.16  11
  -4  -4   0 51358.4 2735.66   1
  -4  -4   1 103663. 3707.99  16
  -4  -4   1 109332. 4119.51  11
  -4  -4   1 118018. 3710.76   9
  -4  -4   1 106058. 3998.65   1
  -4  -4   2 10458.6 1017.61   9
  -4  -4   2 11435.5 1129.47   1
  -4  -4   2 12871.5 1143.53  16
  -4  -4   3 6327.41 798.130   9
  -4  -4   3 5309.28 797.579   1
  -4  -4   3 6766.71 682.718  12
  -4  -4   4 65820.1 2761.04   9
  -4  -4   4 62531.5 2715.22  16
  -4  -4   4 62644.2 2635.25   1
  -4  -4   4 64624.3 2186.60   6
  -4  -4   4 67607.1 2690.66  12
  -4  -4   5 105731. 3803.12  16
  -4  -4   5 109935. 3569.78   1
  -4  -4   5 105807. 3796.75   9
  -4  -4   6 44939.9 2396.50   9
  -4  -4   6 39920.7 2263.33  16
  -4  -4   7 9267.80 1116.82   9
  -4  -4   7 7759.17 1028.31  16
  -4  -4   8 34456.2 2258.44   9
  -4  -4   8 29839.1 2206.76  12
  -4  -4   8 32637.5 2216.74  16
  -4  -4   9 50177.5 2883.69  16
  -4  -4   9 49270.7 3059.67  12
  -4  -4   9 50031.3 2948.38   9
  -4  -4  10 17386.4 1721.55   9
  -4  -4  10 15534.1 1767.96  12
  -4  -4  10 16962.9 1692.95  16
  -4  -4  11 8993.76 1339.58  12
  -4  -4  11 7632.09 1218.45  16
  -4  -4  11 8922.83 1379.39   9
  -4  -3  -8 36803.7 2797.79  10
  -4  -3  -8 38659.6 2843.79   4
  -4  -3  -7 9657.97 1336.07   4
  -4  -3  -7 11384.3 1548.59  10
  -4  -3  -7 9187.92 1272.40  11
  -4  -3  -6 1488.86 466.245  10
  -4  -3  -6 1309.89 616.494   4
  -4  -3  -6 1568.79 540.478  11
  -4  -3  -5 23983.1 1931.31   4
  -4  -3  -5 27755.7 2311.30   1
  -4  -3  -5 26774.3 2071.95  11
  -4  -3  -5 25174.6 1983.51  10
  -4  -3  -4 93937.6 3874.17  10
  -4  -3  -4 86378.8 3852.28  11
  -4  -3  -4 91476.8 3696.56   4
  -4  -3  -4 95787.6 4191.62   1
  -4  -3  -3 48521.4 2679.65  11
  -4  -3  -3 43526.8 2661.90   1
  -4  -3  -3 43448.3 2431.38  16
  -4  -3  -3 48873.4 2543.70  10
  -4  -3  -2 8922.37 838.098   9
  -4  -3  -2 6781.19 1069.03   1
  -4  -3  -2 9604.49 1179.33  11
  -4  -3  -2 8222.39 1014.21  10
  -4  -3  -2 9020.12 1075.98  16
  -4  -3  -1 11792.9 1146.66  16
  -4  -3  -1 11686.6 1275.35   1
  -4  -3  -1 12155.1 996.372   9
  -4  -3  -1 10819.7 1232.73  11
  -4  -3   0 51382.9 2079.96   9
  -4  -3   0 49272.5 2481.37   1
  -4  -3   0 46494.8 2275.07  16
  -4  -3   1 84392.7 2321.02   6
  -4  -3   1 82162.6 2823.23   9
  -4  -3   1 76443.1 3043.03  16
  -4  -3   1 83458.7 3240.65   1
  -4  -3   2 16020.3 883.154   6
  -4  -3   2 16406.1 936.325  12
  -4  -3   2 15593.9 1292.63   1
  -4  -3   2 15846.4 1134.75   9
  -4  -3   2 13695.8 1193.46  16
  -4  -3   3 6827.14 835.838  16
  -4  -3   3 6171.01 827.168   1
  -4  -3   3 5318.48 635.176  12
  -4  -3   3 5732.12 731.994   9
  -4  -3   3 6208.53 591.639   6
  -4  -3   4 105006. 3645.97  16
  -4  -3   4 103863. 3487.93   9
  -4  -3   4 100139. 3091.74   6
  -4  -3   4 99294.6 3431.92  12
  -4  -3   4 105083. 3481.07   1
  -4  -3   5 164941. 4957.77   9
  -4  -3   5 165431. 5055.31  12
  -4  -3   5 167339. 5085.78  16
  -4  -3   5 165867. 4689.86   1
  -4  -3   6 87018.0 2949.74   1
  -4  -3   6 82235.8 3328.38   9
  -4  -3   6 90271.0 3574.18  12
  -4  -3   6 86311.3 3414.51  16
  -4  -3   7 13659.0 1328.26   9
  -4  -3   7 14062.7 1418.17  12
  -4  -3   7 11687.0 1293.60  16
  -4  -3   8 19878.6 1791.47  12
  -4  -3   8 22112.3 1783.29   9
  -4  -3   8 23408.3 1868.36  16
  -4  -3   9 68964.9 3597.61  12
  -4  -3   9 71465.5 3478.63  16
  -4  -3   9 70324.9 3503.19   9
  -4  -3  10 23856.2 2082.74   9
  -4  -3  10 25975.8 2161.23  12
  -4  -3  11 9632.75 1523.04  12
  -4  -3  11 11229.7 1467.54  16
  -4  -3  11 10736.2 1483.46   9
  -4  -2  -8 31365.3 2467.08   4
  -4  -2  -8 34682.0 2633.67  10
  -4  -2  -7 9428.46 1368.90   4
  -4  -2  -7 9987.96 1324.79  10
  -4  -2  -6-125.481 148.345   4
  -4  -2  -6 383.946 260.668  10
  -4  -2  -6 134.568 570.078   1
  -4  -2  -5 44754.4 2775.21   1
  -4  -2  -5 43274.4 2491.42   4
  -4  -2  -5 47093.5 2645.79  10
  -4  -2  -4 97544.8 4012.37  16
  -4  -2  -4 106078. 3968.81  10
  -4  -2  -4 103655. 3824.92   4
  -4  -2  -4 104249. 4241.52   1
  -4  -2  -3 64558.8 3101.95   1
  -4  -2  -3 67231.5 3014.94  16
  -4  -2  -3 62116.2 2812.94  10
  -4  -2  -3 69438.5 2793.41   4
  -4  -2  -2 15803.2 1442.86   1
  -4  -2  -2 16324.4 973.680   6
  -4  -2  -2 15411.5 1174.10   4
  -4  -2  -2 13904.9 1217.80  10
  -4  -2  -2 16045.2 1341.40  16
  -4  -2  -1 4677.53 533.801   9
  -4  -2  -1 3515.74 748.805   1
  -4  -2  -1 4053.68 476.830   6
  -4  -2  -1 3228.90 707.730  16
  -4  -2   0 102366. 3018.78   9
  -4  -2   0 100294. 3652.77   1
  -4  -2   0 105363. 2903.55   6
  -4  -2   0 100247. 3538.55  16
  -4  -2   1 132811. 4270.70   1
  -4  -2   1 131130. 4204.86  16
  -4  -2   1 139778. 3377.99  13
  -4  -2   1 138601. 3580.45   6
  -4  -2   1 135789. 3740.61   9
  -4  -2   1 132465. 3337.24  12
  -4  -2   2 39840.8 1756.50   9
  -4  -2   2 39378.2 2019.10  16
  -4  -2   2 42903.1 1660.32  12
  -4  -2   2 42102.6 1667.84   6
  -4  -2   2 40474.5 2020.80   1
  -4  -2   3 22462.1 1490.36  16
  -4  -2   3 21072.4 1200.03   6
  -4  -2   3 23997.1 1507.25   1
  -4  -2   3 22107.7 1337.50   9
  -4  -2   3 23483.3 1302.18  12
  -4  -2   4 64085.6 2447.47   9
  -4  -2   4 57713.2 2380.17   1
  -4  -2   4 57345.8 2229.97   6
  -4  -2   4 54033.1 2339.58  12
  -4  -2   4 55504.8 2516.11  16
  -4  -2   5 190944. 5161.59   1
  -4  -2   5 195427. 5392.98   9
  -4  -2   5 185577. 5483.14  16
  -4  -2   5 188261. 5495.57  12
  -4  -2   6 101865. 3322.17   1
  -4  -2   6 103331. 3700.03   9
  -4  -2   6 94088.3 3765.84  12
  -4  -2   6 100671. 3757.11  16
  -4  -2   6 106456. 3108.47   8
  -4  -2   7 7507.23 1069.73  16
  -4  -2   7 7300.82 744.124   1
  -4  -2   7 7834.74 773.520   8
  -4  -2   7 8751.27 1078.78  12
  -4  -2   7 8773.87 1079.33   9
  -4  -2   8 30923.7 2107.67  16
  -4  -2   8 26104.1 2037.43  12
  -4  -2   8 29910.7 2058.69   9
  -4  -2   9 70444.0 3465.58   9
  -4  -2   9 73221.1 3483.96  16
  -4  -2   9 67705.7 3578.97  12
  -4  -2  10 29342.9 2303.78   9
  -4  -2  10 30930.4 2452.65  12
  -4  -2  10 25666.7 2111.46  16
  -4  -2  11 2720.71 752.155   9
  -4  -2  11 4149.60 864.236  12
  -4  -2  11 3080.41 787.394  16
  -4  -1  -9 10253.7 1359.46   4
  -4  -1  -9 10324.1 1541.18  10
  -4  -1  -8 41261.0 2795.36   4
  -4  -1  -8 43000.0 2855.03  10
  -4  -1  -7 18818.9 1801.60   4
  -4  -1  -7 17255.0 1796.36  10
  -4  -1  -7 18595.9 1888.36   1
  -4  -1  -6 1819.91 774.807   1
  -4  -1  -6 1299.33 475.955  10
  -4  -1  -6 1007.27 398.613   4
  -4  -1  -5 25100.6 1845.91  10
  -4  -1  -5 28836.6 2115.37   1
  -4  -1  -5 29916.1 1944.76   4
  -4  -1  -4 123186. 4493.77  16
  -4  -1  -4 125849. 4179.50   4
  -4  -1  -4 124117. 3885.34   6
  -4  -1  -4 126306. 4317.54  10
  -4  -1  -4 123205. 4533.72   1
  -4  -1  -3 88514.1 2978.48   6
  -4  -1  -3 93195.4 3658.33   1
  -4  -1  -3 93813.0 3401.72  10
  -4  -1  -3 93870.6 3620.67  16
  -4  -1  -3 89011.9 3183.97   4
  -4  -1  -2 24449.4 1305.90   6
  -4  -1  -2 23839.8 1339.72   4
  -4  -1  -2 24985.6 1493.58  10
  -4  -1  -2 22921.3 1653.74  16
  -4  -1  -2 22157.1 1654.59   1
  -4  -1  -1 34186.4 1329.42   9
  -4  -1  -1 38068.8 2052.53   1
  -4  -1  -1 36023.2 1589.22   6
  -4  -1  -1 33827.0 1890.85  16
  -4  -1   0 140339. 4635.40   1
  -4  -1   0 168655. 3744.37  13
  -4  -1   0 156915. 3905.91   9
  -4  -1   0 149951. 4122.55   6
  -4  -1   0 155413. 4693.46  16
  -4  -1   0 164751. 3726.11  12
  -4  -1   1 141792. 3884.85   6
  -4  -1   1 145506. 3725.71   9
  -4  -1   1 143893. 4363.25  16
  -4  -1   1 144292. 3666.20  13
  -4  -1   1 149971. 3675.14  12
  -4  -1   1 137270. 4325.57   1
  -4  -1   2 23719.2 1291.13   6
  -4  -1   2 23368.5 1220.82  12
  -4  -1   2 19310.4 1399.00  16
  -4  -1   2 23119.9 1478.56   1
  -4  -1   2 22511.0 1211.71  13
  -4  -1   2 23104.8 1201.89   9
  -4  -1   3 8392.76 771.784   9
  -4  -1   3 9379.76 836.753   6
  -4  -1   3 11182.4 1009.77   1
  -4  -1   3 8881.15 830.275  12
  -4  -1   3 9811.20 998.946  16
  -4  -1   4 30300.1 1604.17   9
  -4  -1   4 31496.0 1620.35   6
  -4  -1   4 28821.3 1632.32   1
  -4  -1   4 29961.7 1682.09  12
  -4  -1   4 29309.9 1747.92  16
  -4  -1   5 140628. 4246.50   9
  -4  -1   5 141120. 4435.54  16
  -4  -1   5 137510. 4406.98  12
  -4  -1   5 128434. 4039.77   1
  -4  -1   6 137206. 4711.67  12
  -4  -1   6 144228. 4587.98   9
  -4  -1   6 143664. 4264.73   1
  -4  -1   6 149910. 4199.87   8
  -4  -1   6 147335. 4747.13  16
  -4  -1   7 9315.48 906.895   1
  -4  -1   7 10375.5 1153.29  12
  -4  -1   7 9941.81 937.650   8
  -4  -1   7 10663.4 1218.10  16
  -4  -1   8 11039.4 1294.96  16
  -4  -1   8 11361.5 1091.67   8
  -4  -1   8 12237.7 1374.99  12
  -4  -1   9 56599.7 3081.62  16
  -4  -1   9 59886.3 3293.50  12
  -4  -1   9 60149.8 2837.38   8
  -4  -1  10 33544.7 2551.91  12
  -4  -1  10 32129.3 2162.44   8
  -4  -1  10 33109.8 2452.15  16
  -4  -1  11 4784.00 1040.84  12
  -4  -1  11 3204.48 928.717  16
  -4   0  -9 11781.1 1427.93   4
  -4   0  -9 13299.3 1589.46  10
  -4   0  -8 51947.5 3217.26   1
  -4   0  -8 56344.7 3165.64   4
  -4   0  -8 48998.0 3004.94  10
  -4   0  -7 21958.0 2004.92   1
  -4   0  -7 15981.4 1577.71   4
  -4   0  -7 18714.0 1756.56  10
  -4   0  -6 4507.98 1015.07   1
  -4   0  -6 4588.58 832.236  10
  -4   0  -6 3847.07 771.826   4
  -4   0  -5 18439.0 1479.54   4
  -4   0  -5 19631.7 1452.43   6
  -4   0  -5 20312.8 1702.21   1
  -4   0  -5 18083.4 1507.00  10
  -4   0  -4 103135. 3679.83   4
  -4   0  -4 109142. 4118.37  16
  -4   0  -4 113548. 4127.48   1
  -4   0  -4 105580. 3590.90   6
  -4   0  -4 113383. 3850.79  10
  -4   0  -3 199089. 5846.22  16
  -4   0  -3 193051. 5795.48   1
  -4   0  -3 200708. 5313.68   6
  -4   0  -3 198638. 5294.58   4
  -4   0  -3 192703. 5402.56  10
  -4   0  -2 18186.1 1425.06  16
  -4   0  -2 19724.6 1495.44   1
  -4   0  -2 16466.1 1144.16   6
  -4   0  -2 16410.3 1130.40  10
  -4   0  -2 17042.9 1088.44   4
  -4   0  -1 14438.0 1051.90   6
  -4   0  -1 14508.1 844.556   4
  -4   0  -1 14101.5 760.295  13
  -4   0  -1 14227.5 755.629  14
  -4   0  -1 16359.8 1331.38   1
  -4   0  -1 15271.0 770.825  12
  -4   0  -1 13974.9 630.889   9
  -4   0  -1 13919.9 974.203  10
  -4   0  -1 14209.4 1226.87  16
  -4   0   0 166518. 4069.86  12
  -4   0   0 169039. 4090.08  14
  -4   0   0 168629. 4095.27  13
  -4   0   0 166839. 3800.95   9
  -4   0   0 162014. 4798.61  16
  -4   0   0 160339. 4827.59   1
  -4   0   0 166015. 4487.76   6
  -4   0   1 85282.9 3120.50   1
  -4   0   1 86622.8 2861.73   6
  -4   0   1 90621.2 2690.45  13
  -4   0   1 87428.5 3107.51  16
  -4   0   1 85885.2 2650.05  12
  -4   0   1 88687.6 2434.95   9
  -4   0   2 12291.2 942.695  13
  -4   0   2 14517.0 996.989  12
  -4   0   2 14496.5 1044.75   6
  -4   0   2 15881.4 1218.66   1
  -4   0   2 13424.1 1159.50  16
  -4   0   2 14615.2 889.627   9
  -4   0   3 3938.52 597.660  12
  -4   0   3 3060.92 604.682   1
  -4   0   3 3236.47 596.339   6
  -4   0   3 3369.96 499.071   9
  -4   0   3 3811.09 689.307  16
  -4   0   3 4008.98 608.778  13
  -4   0   4 38044.7 1946.64  12
  -4   0   4 37020.6 1910.56   1
  -4   0   4 40651.6 1980.61   6
  -4   0   4 41036.7 1867.63   9
  -4   0   4 41351.8 2043.04  16
  -4   0   5 128002. 3991.97   1
  -4   0   5 129956. 4199.53  16
  -4   0   5 126131. 4212.05  12
  -4   0   5 125737. 4074.44   6
  -4   0   5 123170. 3797.42   8
  -4   0   6 78510.1 3287.54  12
  -4   0   6 78235.0 2942.77   1
  -4   0   6 77420.9 2930.40   8
  -4   0   6 79318.5 3242.65  16
  -4   0   7 23009.0 1766.70  16
  -4   0   7 21228.4 1463.92   1
  -4   0   7 23102.0 1784.40  12
  -4   0   7 20780.4 1504.65   8
  -4   0   8 14016.0 1294.70   8
  -4   0   8 13071.9 1454.23  12
  -4   0   8 13584.8 1149.29   1
  -4   0   8 13501.2 1423.06  16
  -4   0   9 41562.2 2731.92  12
  -4   0   9 42593.0 2469.39   8
  -4   0   9 43649.8 2697.30  16
  -4   0  10 72856.0 3800.14  16
  -4   0  10 78645.5 4015.93  12
  -4   0  10 75688.1 3658.85   8
  -4   0  11 16451.5 1867.33  12
  -4   0  11 14671.2 1558.65   8
  -4   0  11 16906.1 1839.51  16
  -4   0  12 754.793 719.414   8
  -4   1 -10 8935.46 1503.02   4
  -4   1  -9 19252.9 1873.91   4
  -4   1  -9 19053.9 1908.28  10
  -4   1  -9 21184.3 2061.10   1
  -4   1  -8 28776.6 2197.15  10
  -4   1  -8 32944.8 2444.19   1
  -4   1  -8 31622.2 2363.36   4
  -4   1  -7 23744.0 1908.37  10
  -4   1  -7 27734.9 2077.81   4
  -4   1  -7 30195.5 2191.30   1
  -4   1  -6 14896.4 1471.28   1
  -4   1  -6 16066.1 1482.86  10
  -4   1  -6 15707.3 1460.58   6
  -4   1  -6 17065.0 1538.88   4
  -4   1  -5 14305.7 1266.73  10
  -4   1  -5 13522.9 1355.52   1
  -4   1  -5 12868.3 1194.03   4
  -4   1  -5 12433.4 1184.18   6
  -4   1  -4 65470.2 2902.24   1
  -4   1  -4 67852.6 2730.92   4
  -4   1  -4 59646.9 2596.07  10
  -4   1  -4 64797.1 2705.92   6
  -4   1  -4 56653.1 2845.01  16
  -4   1  -3 135022. 4233.92   6
  -4   1  -3 130102. 4484.19  16
  -4   1  -3 135881. 4516.66   1
  -4   1  -3 130701. 4027.55   4
  -4   1  -3 144605. 3562.92  14
  -4   1  -3 147234. 3575.29  12
  -4   1  -3 136036. 4088.50  10
  -4   1  -3 142728. 3574.33  15
  -4   1  -3 146774. 3575.52  13
  -4   1  -2 27093.9 1313.76   4
  -4   1  -2 25515.1 1154.69  13
  -4   1  -2 28049.7 1568.00   6
  -4   1  -2 22213.8 1600.28   1
  -4   1  -2 25276.6 1319.23  10
  -4   1  -2 25177.5 1655.09  16
  -4   1  -2 25597.0 1152.18  12
  -4   1  -2 26413.1 1170.29  14
  -4   1  -2 27846.4 1195.48  15
  -4   1  -1 1497.23 525.318  16
  -4   1  -1 1591.64 328.625  13
  -4   1  -1 2154.20 373.433  10
  -4   1  -1 2384.93 386.173  14
  -4   1  -1 1829.84 319.309   4
  -4   1  -1 1956.22 504.372   6
  -4   1  -1 1767.81 560.252   1
  -4   1  -1 2061.62 344.629  12
  -4   1   0 126565. 2769.96   4
  -4   1   0 121948. 3726.10   6
  -4   1   0 125211. 2771.90   9
  -4   1   0 123847. 3974.12   1
  -4   1   0 114195. 3804.13  16
  -4   1   0 123561. 3454.15  12
  -4   1   0 120416. 3429.24  14
  -4   1   0 125996. 3450.11  13
  -4   1   1 209409. 5580.04   6
  -4   1   1 209651. 5370.35  12
  -4   1   1 215622. 5839.49   1
  -4   1   1 215329. 5394.74  13
  -4   1   1 229839. 4846.13   9
  -4   1   1 203034. 5667.24  16
  -4   1   2 30804.9 1752.94   1
  -4   1   2 29394.8 1625.73   6
  -4   1   2 32472.6 1729.79  16
  -4   1   2 33120.7 1367.53   9
  -4   1   2 30958.1 1603.10  13
  -4   1   2 34362.3 1636.10  12
  -4   1   3 216.569 402.623  16
  -4   1   3 280.307 334.334  13
  -4   1   3 322.089 369.074   1
  -4   1   3 307.986 378.891  12
  -4   1   3 68.1945 361.535   6
  -4   1   4 30794.7 1774.97   1
  -4   1   4 30730.2 1781.35  13
  -4   1   4 28460.2 1691.19   6
  -4   1   4 28731.0 1745.16  12
  -4   1   4 30290.5 1752.48  16
  -4   1   5 152993. 4666.91  16
  -4   1   5 150077. 4505.37   8
  -4   1   5 152657. 4583.68   1
  -4   1   5 140426. 4593.04   6
  -4   1   5 147094. 4751.09  13
  -4   1   5 150771. 4790.57  12
  -4   1   6 60109.4 2776.83  16
  -4   1   6 57981.0 2832.05  12
  -4   1   6 62432.4 2660.68   1
  -4   1   6 62016.9 2667.57   8
  -4   1   6 59619.9 2805.21   6
  -4   1   7 26464.1 1678.85   1
  -4   1   7 22501.1 1647.19   8
  -4   1   7 23166.4 1797.38  16
  -4   1   7 22745.8 1801.50  12
  -4   1   8 40256.9 2194.73   1
  -4   1   8 44130.8 2497.60   8
  -4   1   8 41296.0 2531.87  16
  -4   1   8 42414.6 2658.43  12
  -4   1   9 48354.2 2888.68  16
  -4   1   9 48310.2 2788.56   8
  -4   1   9 43330.4 2860.39  12
  -4   1   9 46339.3 2412.39   1
  -4   1  10 64535.3 3447.77   8
  -4   1  10 58436.1 3394.23  16
  -4   1  11 19011.2 1914.87   8
  -4   1  11 23221.4 2188.24  12
  -4   1  11 19621.7 1970.26  16
  -4   1  12-427.483 799.448   8
  -4   2 -10 2331.84 1014.60  10
  -4   2 -10 4254.80 1336.15   4
  -4   2  -9 27203.6 2234.77   4
  -4   2  -9 26036.5 2260.72   1
  -4   2  -9 26839.5 2196.76  10
  -4   2  -8 45830.5 2751.00   1
  -4   2  -8 42486.0 2800.79   4
  -4   2  -8 42621.1 2677.70  10
  -4   2  -7 17878.0 1654.88   1
  -4   2  -7 16779.9 1640.05   4
  -4   2  -7 14691.7 1519.58   6
  -4   2  -7 15816.2 1496.85  10
  -4   2  -6 12741.2 1246.72  10
  -4   2  -6 14172.9 1398.05   4
  -4   2  -6 13936.1 1406.56   6
  -4   2  -6 14790.3 1455.32   1
  -4   2  -5 6809.05 834.417  10
  -4   2  -5 6802.96 964.062   6
  -4   2  -5 7288.45 890.929   4
  -4   2  -5 7040.40 1052.89   1
  -4   2  -4 36467.5 1988.74   4
  -4   2  -4 40159.9 1697.81  12
  -4   2  -4 40324.3 1688.85  14
  -4   2  -4 40246.7 2260.56  16
  -4   2  -4 39319.2 1936.87  10
  -4   2  -4 33193.0 2062.07   1
  -4   2  -4 40458.9 2158.00   6
  -4   2  -4 41885.4 1738.96  15
  -4   2  -4 44068.6 1736.33  13
  -4   2  -3 87423.4 3289.85   6
  -4   2  -3 89658.0 3055.81   4
  -4   2  -3 85851.2 3374.80  16
  -4   2  -3 91583.5 2797.39  14
  -4   2  -3 92702.6 2964.99  10
  -4   2  -3 93647.1 2843.02  15
  -4   2  -3 86567.3 3375.23   1
  -4   2  -3 91893.2 2813.85  12
  -4   2  -3 88891.7 2780.22  13
  -4   2  -2 48301.3 2383.79   1
  -4   2  -2 50265.5 1937.06  13
  -4   2  -2 53915.3 2409.07  16
  -4   2  -2 53735.3 2348.00   6
  -4   2  -2 50439.4 1846.19  10
  -4   2  -2 50795.8 1960.51  14
  -4   2  -2 52742.9 1971.34  12
  -4   2  -2 50517.9 1915.75   4
  -4   2  -1 49538.0 2263.56  16
  -4   2  -1 50965.8 2368.69   1
  -4   2  -1 51510.3 1657.42  10
  -4   2  -1 53847.5 2335.59   6
  -4   2  -1 54521.7 1718.37   4
  -4   2  -1 54704.1 2053.17  14
  -4   2  -1 50168.4 1988.02  13
  -4   2  -1 50194.5 1989.68  12
  -4   2   0 70526.3 2682.15  16
  -4   2   0 62407.8 2698.14   1
  -4   2   0 65654.2 2623.95   6
  -4   2   0 68824.1 2454.34  13
  -4   2   0 69660.0 2463.71  14
  -4   2   0 70509.2 2466.73  12
  -4   2   1 208090. 5708.43  16
  -4   2   1 217118. 5635.64  13
  -4   2   1 232908. 4889.48   9
  -4   2   1 212070. 5928.86   1
  -4   2   1 212402. 5783.01   6
  -4   2   1 216173. 5644.07  12
  -4   2   2 102403. 3383.20  13
  -4   2   2 102431. 3402.53  12
  -4   2   2 99789.0 3437.05   6
  -4   2   2 106078. 3425.33  16
  -4   2   2 98215.7 3511.50   1
  -4   2   3 1411.88 437.656  12
  -4   2   3 1428.46 501.732   1
  -4   2   3 2236.96 554.401  13
  -4   2   3 1515.44 535.410  16
  -4   2   3 1396.96 448.404   6
  -4   2   4 26278.9 1691.57   6
  -4   2   4 23728.0 1609.93   1
  -4   2   4 25006.5 1680.14  12
  -4   2   4 25288.1 1696.76  13
  -4   2   4 24513.3 1566.85  16
  -4   2   5 176878. 5470.08  13
  -4   2   5 178986. 5482.78  12
  -4   2   5 174574. 5265.66   1
  -4   2   5 181236. 5258.75  16
  -4   2   5 175687. 5252.95   8
  -4   2   5 171591. 5322.77   6
  -4   2   6 86368.3 3622.11  12
  -4   2   6 88253.3 3665.92  13
  -4   2   6 84494.8 3524.42   6
  -4   2   6 81294.0 3369.70   8
  -4   2   6 85900.3 3398.43  16
  -4   2   7 13838.1 1369.25   8
  -4   2   7 14083.3 1393.61  16
  -4   2   7 16661.2 1615.97  13
  -4   2   7 12398.3 1443.24   6
  -4   2   7 14082.7 1541.90  12
  -4   2   8 13058.8 1440.32   8
  -4   2   8 13529.9 1568.21  12
  -4   2   8 14119.5 1623.00  13
  -4   2   8 14440.8 1469.65  16
  -4   2   9 50255.9 2937.51  16
  -4   2   9 52476.4 3189.19  12
  -4   2   9 53325.0 3082.95   8
  -4   2   9 51730.9 3168.30  13
  -4   2  10 42620.3 2877.95   8
  -4   2  10 43402.3 3036.66  12
  -4   2  10 49321.8 3183.27  13
  -4   2  10 44280.8 2957.14  16
  -4   2  11 9603.20 1484.83   8
  -4   2  11 12365.2 1659.19  16
  -4   3 -10 7616.14 1265.73   4
  -4   3 -10 4975.11 1149.15  10
  -4   3  -9 10909.0 1367.39  10
  -4   3  -9 11250.4 1424.29   4
  -4   3  -8 47426.4 2749.44   1
  -4   3  -8 44289.6 2816.54   4
  -4   3  -8 37579.8 2635.97   6
  -4   3  -8 44813.2 2632.10  10
  -4   3  -7 33323.2 2291.09   4
  -4   3  -7 34399.2 2355.51   6
  -4   3  -7 30903.9 2137.66   1
  -4   3  -7 33496.5 2188.17  10
  -4   3  -6 5140.52 952.491   6
  -4   3  -6 5665.92 868.017   4
  -4   3  -6 5129.45 1000.02   1
  -4   3  -6 4204.84 694.061  10
  -4   3  -5 17274.8 1444.29   4
  -4   3  -5 15467.3 1425.32   1
  -4   3  -5 18074.3 1227.76  12
  -4   3  -5 16924.2 1188.89  13
  -4   3  -5 16035.8 1147.76  15
  -4   3  -5 17256.8 1288.39  10
  -4   3  -5 13685.4 1399.66   6
  -4   3  -5 15319.4 1145.01  14
  -4   3  -4 80984.8 3284.50   6
  -4   3  -4 76141.5 2726.72  14
  -4   3  -4 76075.9 2744.11  13
  -4   3  -4 74639.8 2743.30  10
  -4   3  -4 80914.8 3057.94   4
  -4   3  -4 78801.5 2794.54  15
  -4   3  -4 78116.1 2770.45  12
  -4   3  -4 74916.3 3193.84  16
  -4   3  -4 79963.4 3218.54   1
  -4   3  -3 87108.3 3355.21   6
  -4   3  -3 82851.3 2950.70   4
  -4   3  -3 86223.8 2931.84  15
  -4   3  -3 87191.4 2953.50  12
  -4   3  -3 88795.9 3347.17   1
  -4   3  -3 92225.4 2778.36  10
  -4   3  -3 81474.5 2875.42  13
  -4   3  -3 89284.9 2970.08  14
  -4   3  -3 79350.5 3220.18  16
  -4   3  -2 47896.2 2065.40  14
  -4   3  -2 52642.2 2427.81   6
  -4   3  -2 50225.2 2308.41  16
  -4   3  -2 54369.7 1736.44  10
  -4   3  -2 47575.7 1905.36   4
  -4   3  -2 50692.3 2119.02  12
  -4   3  -2 48231.8 2350.87   1
  -4   3  -2 49597.3 2090.58  13
  -4   3  -1 61169.4 2376.58  14
  -4   3  -1 65158.4 2442.60  13
  -4   3  -1 60876.8 1943.77   4
  -4   3  -1 57052.1 2591.09   1
  -4   3  -1 57516.3 2434.44  16
  -4   3  -1 58795.2 2354.41  12
  -4   3  -1 58846.6 2590.91   6
  -4   3   0 74485.7 2795.48  12
  -4   3   0 82147.7 3116.55   1
  -4   3   0 75523.6 2951.95   6
  -4   3   0 78488.5 2843.93  13
  -4   3   0 78628.8 2830.10  14
  -4   3   0 76456.3 2818.46  16
  -4   3   1 123263. 3903.45  13
  -4   3   1 130814. 3879.74  16
  -4   3   1 121399. 4104.51   1
  -4   3   1 121255. 3895.81  12
  -4   3   1 126138. 4040.20   6
  -4   3   1 123516. 3909.98  14
  -4   3   2 123746. 4181.63   1
  -4   3   2 126129. 4095.21  12
  -4   3   2 127201. 3904.17  16
  -4   3   2 127458. 4132.46   6
  -4   3   2 131691. 4113.59  13
  -4   3   3 9541.37 1051.06   6
  -4   3   3 8915.23 1047.58   1
  -4   3   3 11395.4 1159.42  13
  -4   3   3 11419.3 1152.69  12
  -4   3   3 10804.0 1004.71  16
  -4   3   4 10723.3 1058.26  16
  -4   3   4 8732.57 1064.39  12
  -4   3   4 11700.2 1179.05  13
  -4   3   4 10002.9 1113.13   6
  -4   3   5 88150.5 3334.12  16
  -4   3   5 89329.5 3544.57   8
  -4   3   5 85749.9 3593.17  12
  -4   3   5 87756.5 3556.75   6
  -4   3   5 93790.1 3723.79  13
  -4   3   6 61018.4 3000.09   6
  -4   3   6 65996.9 2904.79  16
  -4   3   6 63846.6 3139.26  13
  -4   3   6 60783.1 2969.74   8
  -4   3   6 62896.8 3126.79  12
  -4   3   7 5029.28 873.218   8
  -4   3   7 5630.21 1046.62  13
  -4   3   7 5734.04 965.656  12
  -4   3   7 8121.50 1100.61  16
  -4   3   7 4394.46 854.673   6
  -4   3   8 628.511 319.208   6
  -4   3   8 1063.45 686.610  16
  -4   3   8 686.901 598.490  13
  -4   3   8 290.443 358.874  12
  -4   3   8 1471.06 480.825   8
  -4   3   9 39329.4 2642.13  16
  -4   3   9 42745.4 2806.08   6
  -4   3   9 42731.1 2915.86  12
  -4   3   9 43896.4 2858.07   8
  -4   3   9 43620.6 2968.86  13
  -4   3  10 70258.8 3878.32   8
  -4   3  10 62104.5 3708.08  12
  -4   3  10 63616.8 3759.53  13
  -4   3  10 66231.9 3622.13  16
  -4   3  11 9463.44 1420.24  16
  -4   4 -10 10673.6 1479.75  10
  -4   4 -10 12243.6 1505.55   4
  -4   4  -9 10195.8 1396.51  10
  -4   4  -9 11906.5 1551.11   4
  -4   4  -8 33852.3 2236.00   1
  -4   4  -8 32189.4 2363.07   4
  -4   4  -8 25849.7 2046.73  10
  -4   4  -8 26500.6 2231.48   6
  -4   4  -7 89286.6 3957.99   4
  -4   4  -7 93586.7 3773.51   1
  -4   4  -7 80563.4 3623.19  10
  -4   4  -7 88151.2 4035.44   6
  -4   4  -6 31438.2 1825.42  12
  -4   4  -6 31433.6 1828.38  14
  -4   4  -6 34900.2 1986.79  10
  -4   4  -6 32652.5 1849.02  13
  -4   4  -6 27146.4 1965.38   4
  -4   4  -6 27547.7 2088.34   6
  -4   4  -6 34059.0 1916.91  15
  -4   4  -6 32158.6 2090.71   1
  -4   4  -6 31396.8 1847.34  20
  -4   4  -5 7902.95 1040.22   1
  -4   4  -5 7884.22 1019.75   6
  -4   4  -5 6936.05 841.663  14
  -4   4  -5 8251.16 1030.62   4
  -4   4  -5 8909.54 917.830  12
  -4   4  -5 7632.79 880.984  15
  -4   4  -5 7425.25 817.919  13
  -4   4  -4 81865.3 3030.39  15
  -4   4  -4 77604.4 2961.90  14
  -4   4  -4 75658.8 2952.58  12
  -4   4  -4 79283.9 2973.75  13
  -4   4  -4 79662.2 3239.50   1
  -4   4  -4 74666.9 3280.78   6
  -4   4  -4 80637.1 3111.75   4
  -4   4  -3 61201.4 2796.73   1
  -4   4  -3 63320.4 2719.29  16
  -4   4  -3 59908.9 2524.26  13
  -4   4  -3 61872.2 2574.96  15
  -4   4  -3 60629.0 2544.82  12
  -4   4  -3 62640.4 2490.77   4
  -4   4  -3 62993.5 2555.17  14
  -4   4  -3 62590.8 2881.31   6
  -4   4  -2 30112.6 1707.00  12
  -4   4  -2 26255.7 1611.92  14
  -4   4  -2 29664.2 1668.78  13
  -4   4  -2 30327.8 1873.18   1
  -4   4  -2 30351.4 1471.11   4
  -4   4  -2 28324.9 1678.91  16
  -4   4  -2 25483.8 1801.33   6
  -4   4  -1 32324.0 1759.88  12
  -4   4  -1 31033.5 1759.35  13
  -4   4  -1 32650.0 1789.82  14
  -4   4  -1 30721.0 1874.18   1
  -4   4  -1 27809.4 1809.44   6
  -4   4  -1 30721.6 1707.73  16
  -4   4   0 73463.4 2845.00  14
  -4   4   0 69125.4 2598.95  16
  -4   4   0 63956.5 2682.18  13
  -4   4   0 67950.3 2861.78   6
  -4   4   0 64362.4 2703.16  12
  -4   4   0 64893.3 2838.95   1
  -4   4   1 149426. 4605.51  14
  -4   4   1 140299. 4649.66   1
  -4   4   1 150566. 4596.31  13
  -4   4   1 146986. 4577.84  12
  -4   4   1 146303. 4243.68  16
  -4   4   1 143607. 4622.00   6
  -4   4   2 60424.7 2700.94  14
  -4   4   2 62297.6 2412.59  16
  -4   4   2 56625.6 2627.23  13
  -4   4   2 57442.6 2713.99   1
  -4   4   2 60377.9 2696.79   6
  -4   4   2 54415.5 2610.26  12
  -4   4   3 10916.7 990.574  16
  -4   4   3 8727.32 1020.86  12
  -4   4   3 8812.28 1076.88   6
  -4   4   3 9830.91 1124.63  13
  -4   4   4 8406.27 1165.78  13
  -4   4   4 8595.07 951.587  16
  -4   4   4 8245.79 1074.11  12
  -4   4   4 9374.24 1062.80   6
  -4   4   5 26576.6 1696.70  16
  -4   4   5 26598.0 1960.86  12
  -4   4   5 24339.8 1917.21  13
  -4   4   5 24910.5 1845.11   6
  -4   4   5 22489.8 1796.60   8
  -4   4   6 57484.0 3092.75  13
  -4   4   6 49908.3 2859.60   8
  -4   4   6 59429.2 3020.03   6
  -4   4   6 54321.6 2638.03  16
  -4   4   6 52142.9 2956.69  12
  -4   4   7 13373.7 1528.95   8
  -4   4   7 14379.0 1590.30  12
  -4   4   7 13350.8 1505.00   6
  -4   4   7 13856.7 1423.80  16
  -4   4   7 14494.9 1651.53  13
  -4   4   8 1890.16 573.829  12
  -4   4   8 2619.16 704.885   8
  -4   4   8 2516.50 679.912  13
  -4   4   8 1123.57 448.353   6
  -4   4   8 1851.46 737.813  16
  -4   4   9 36205.1 2727.64   8
  -4   4   9 34876.3 2744.98  13
  -4   4   9 35146.5 2644.49   6
  -4   4   9 36652.7 2850.63  12
  -4   4   9 45548.5 2766.12  16
  -4   4  10 55402.4 3347.07  16
  -4   5 -10 21711.2 2068.51   4
  -4   5  -9 12826.5 1608.45   4
  -4   5  -9 10628.9 1556.01   6
  -4   5  -8 29555.5 2374.42   4
  -4   5  -8 32476.8 2545.18   6
  -4   5  -7 75664.5 3346.48   1
  -4   5  -7 70277.9 3622.62   6
  -4   5  -7 69023.4 3454.58   4
  -4   5  -6 38422.7 2188.02  14
  -4   5  -6 38254.8 2174.93  12
  -4   5  -6 38716.2 2295.83   1
  -4   5  -6 37604.2 2202.60  15
  -4   5  -6 39165.7 2387.58   4
  -4   5  -6 36202.9 2110.98  13
  -4   5  -6 37396.6 2531.80   6
  -4   5  -5 1958.94 640.601   6
  -4   5  -5 4070.60 675.740   4
  -4   5  -5 2597.94 509.152  13
  -4   5  -5 4445.93 715.587  12
  -4   5  -5 4702.20 905.163   1
  -4   5  -5 4416.95 741.326  14
  -4   5  -5 3116.31 655.098  15
  -4   5  -4 18113.6 1437.45  15
  -4   5  -4 16546.0 1529.80   6
  -4   5  -4 19919.9 1560.27   1
  -4   5  -4 17766.7 1415.61  12
  -4   5  -4 19277.2 1429.18  13
  -4   5  -4 16473.6 1354.30  14
  -4   5  -4 18472.9 1404.70   4
  -4   5  -3 65591.2 2792.61  13
  -4   5  -3 59996.4 2695.39  14
  -4   5  -3 67312.1 2613.43   4
  -4   5  -3 59928.2 2718.38  12
  -4   5  -3 58363.9 2672.14  15
  -4   5  -3 62470.9 2856.26   1
  -4   5  -3 60466.1 2670.70  16
  -4   5  -3 59174.1 2922.44   6
  -4   5  -2 36163.6 2024.26  13
  -4   5  -2 33035.9 2126.74   6
  -4   5  -2 35862.2 2013.78  14
  -4   5  -2 39297.0 2093.30  12
  -4   5  -2 35456.8 2100.09   1
  -4   5  -2 37258.2 1921.93  16
  -4   5  -1 18854.7 1505.00   6
  -4   5  -1 16020.9 1341.43  13
  -4   5  -1 17472.8 1263.20  16
  -4   5  -1 16648.1 1432.82   1
  -4   5  -1 16777.5 1352.94  12
  -4   5  -1 18171.0 1419.20  14
  -4   5   0 35838.0 2081.65  14
  -4   5   0 39332.9 2146.22  13
  -4   5   0 35558.6 1770.10  16
  -4   5   0 35957.4 2059.28  12
  -4   5   0 37468.1 2151.41   1
  -4   5   0 37870.5 2154.50   6
  -4   5   1 94545.8 3726.28   1
  -4   5   1 95210.8 3654.39  14
  -4   5   1 103833. 3783.25   6
  -4   5   1 93903.7 3619.84  13
  -4   5   1 99581.3 3220.84  16
  -4   5   1 93894.9 3637.60  12
  -4   5   2 51321.4 2159.70  16
  -4   5   2 51453.6 2599.84  13
  -4   5   2 48968.3 2540.03  12
  -4   5   2 52617.2 2622.03   6
  -4   5   2 50873.3 2611.26  14
  -4   5   3 8143.13 1113.27  12
  -4   5   3 8895.95 1153.71  14
  -4   5   3 8069.09 867.173  16
  -4   5   3 8540.92 1141.64  13
  -4   5   3 8799.43 1083.92   6
  -4   5   4 24933.4 1545.67  16
  -4   5   4 25297.8 1902.43  13
  -4   5   4 22161.9 1804.55  12
  -4   5   4 19318.4 1632.83   6
  -4   5   5 47615.6 2287.80  16
  -4   5   5 46212.1 2741.69  12
  -4   5   5 49486.1 2818.08  13
  -4   5   5 38097.0 2502.90   8
  -4   5   5 45148.7 2627.41   6
  -4   5   6 56737.5 3259.36  13
  -4   5   6 62123.9 3287.07   8
  -4   5   6 59640.7 3276.55  12
  -4   5   6 64596.5 2831.77  16
  -4   5   6 57764.4 3112.66   6
  -4   5   7 17939.0 1746.46   6
  -4   5   7 19319.6 1870.48  13
  -4   5   7 23772.9 2065.01  12
  -4   5   7 22825.8 1753.33  16
  -4   5   7 19551.6 1900.58   8
  -4   5   8 2674.94 748.172  12
  -4   5   8 4177.27 879.516   6
  -4   5   8 1415.62 857.851  13
  -4   5   8 1909.61 666.554   8
  -4   5   9 30117.5 2560.07   8
  -4   6  -9 7349.67 1328.21   4
  -4   6  -8 15548.1 1616.29   4
  -4   6  -8 12994.3 1596.10   6
  -4   6  -7 56773.2 2977.91  13
  -4   6  -7 54637.6 2920.52  12
  -4   6  -7 55138.8 3075.48   4
  -4   6  -7 55824.0 2957.24  15
  -4   6  -7 63035.5 3020.25   1
  -4   6  -7 56711.3 2970.28  14
  -4   6  -7 57448.8 3344.14   6
  -4   6  -7 57123.0 2986.31  20
  -4   6  -6 23837.8 1804.88  14
  -4   6  -6 26765.5 1919.97  15
  -4   6  -6 24731.0 2037.42   6
  -4   6  -6 28696.4 1993.99  12
  -4   6  -6 24191.8 1854.76   1
  -4   6  -6 23741.5 1867.85  13
  -4   6  -6 24391.4 1894.10   4
  -4   6  -5 12677.1 1269.17  15
  -4   6  -5 12396.5 1230.27  13
  -4   6  -5 12125.3 1437.80   6
  -4   6  -5 13805.8 1367.81  12
  -4   6  -5 13725.3 1333.84  14
  -4   6  -5 12959.2 1314.41   4
  -4   6  -5 13685.9 1373.46   1
  -4   6  -4 15374.5 1465.50   1
  -4   6  -4 14584.7 1465.39   6
  -4   6  -4 13372.0 1365.66  12
  -4   6  -4 15413.1 1385.23  14
  -4   6  -4 14874.9 1375.90  15
  -4   6  -4 16795.5 1348.77   4
  -4   6  -4 15932.7 1404.04  13
  -4   6  -3 38171.6 2231.72   1
  -4   6  -3 39308.9 2391.89   6
  -4   6  -3 40828.2 2297.29  15
  -4   6  -3 39649.7 2289.93  14
  -4   6  -3 35740.1 2196.44  12
  -4   6  -3 36401.2 2157.99  13
  -4   6  -2 54440.4 2360.05  16
  -4   6  -2 48862.7 2552.25  14
  -4   6  -2 54830.5 2806.29   6
  -4   6  -2 57309.6 2744.78   1
  -4   6  -2 50514.8 2597.41  12
  -4   6  -2 48420.4 2565.57  13
  -4   6  -2 48742.3 2537.77  15
  -4   6  -1 6433.36 970.265   6
  -4   6  -1 5826.86 908.781  14
  -4   6  -1 5794.74 854.159  13
  -4   6  -1 6936.79 1027.83   1
  -4   6  -1 7482.83 1015.68  12
  -4   6  -1 7939.47 832.860  16
  -4   6   0 26696.0 1501.45  16
  -4   6   0 24351.6 1827.66   6
  -4   6   0 25016.3 1856.98   1
  -4   6   0 24116.3 1816.84  13
  -4   6   0 23916.0 1785.16  12
  -4   6   0 22681.5 1735.67  14
  -4   6   1 96746.5 3049.97  16
  -4   6   1 82209.0 3578.08  12
  -4   6   1 85397.9 3618.78  13
  -4   6   1 86229.5 3602.38   6
  -4   6   1 87100.8 3649.78  14
  -4   6   2 69804.8 3249.93  14
  -4   6   2 68316.4 3130.41   6
  -4   6   2 62252.2 3111.38  13
  -4   6   2 64580.4 3128.15  12
  -4   6   3 39033.4 2413.08   6
  -4   6   3 40561.4 2480.36  12
  -4   6   3 43588.8 2563.49  13
  -4   6   3 40811.7 2509.33  14
  -4   6   4 22237.9 1900.64  12
  -4   6   4 20588.4 1844.94  13
  -4   6   4 22769.8 1889.34   6
  -4   6   4 22295.4 1892.26  14
  -4   6   5 39231.7 2616.99  13
  -4   6   5 35985.2 2410.30   6
  -4   6   5 33448.6 2440.93  12
  -4   6   6 43125.5 2876.56   8
  -4   6   6 43031.7 2868.65  13
  -4   6   6 46248.5 2858.25   6
  -4   6   6 45385.4 2982.82  12
  -4   6   7 6851.25 1146.15  12
  -4   6   7 8621.33 1344.73   6
  -4   6   7 8179.17 1375.08  13
  -4   6   7 8613.80 1337.59   8
  -4   6   8 1768.27 744.950   6
  -4   7  -9 986.350 918.263   4
  -4   7  -8 9593.51 1271.66  20
  -4   7  -8 9491.77 1254.90  13
  -4   7  -8 11057.7 1335.43  15
  -4   7  -8 13436.6 1565.60   4
  -4   7  -8 12041.8 1368.16  14
  -4   7  -8 12457.1 1392.72  12
  -4   7  -7 52084.4 2979.98  13
  -4   7  -7 54751.9 3064.91  12
  -4   7  -7 49858.6 2913.34  14
  -4   7  -7 52785.6 3121.78   4
  -4   7  -7 54639.4 3080.52  20
  -4   7  -7 58788.2 3398.90   6
  -4   7  -7 56143.5 3096.14  15
  -4   7  -6 56524.7 3033.30  14
  -4   7  -6 60658.3 3156.57  12
  -4   7  -6 58431.4 3083.09  13
  -4   7  -6 61008.9 3017.28   1
  -4   7  -6 58189.1 3161.58  15
  -4   7  -6 54272.9 3231.94   6
  -4   7  -5 14378.5 1477.42  13
  -4   7  -5 13032.7 1446.10   6
  -4   7  -5 13198.6 1412.92   1
  -4   7  -5 15746.0 1506.73  14
  -4   7  -5 13917.9 1403.77  12
  -4   7  -5 15441.0 1516.25  15
  -4   7  -4 11601.3 1299.68  15
  -4   7  -4 11608.4 1332.06   1
  -4   7  -4 11220.4 1314.20  14
  -4   7  -4 9169.56 1192.13  12
  -4   7  -4 12908.3 1383.40  13
  -4   7  -4 14120.6 1449.50   6
  -4   7  -3 39539.3 2399.77  12
  -4   7  -3 42484.2 2451.53   1
  -4   7  -3 38998.6 2538.86   6
  -4   7  -3 42205.0 2499.21  14
  -4   7  -3 40082.5 2417.01  13
  -4   7  -3 37916.4 2394.95  15
  -4   7  -2 50502.0 2800.55   6
  -4   7  -2 51865.5 2748.19   1
  -4   7  -2 48371.7 2640.83  12
  -4   7  -2 46247.2 2603.77  14
  -4   7  -2 49745.3 2680.20  13
  -4   7  -2 45951.7 2602.08  15
  -4   7  -1 13405.0 1389.71  13
  -4   7  -1 16216.3 1492.90  12
  -4   7  -1 17524.6 1639.17   1
  -4   7  -1 17079.7 1626.90  14
  -4   7  -1 16621.8 1581.62   6
  -4   7   0 20778.6 1770.91  12
  -4   7   0 21475.1 1823.13   1
  -4   7   0 19843.4 1767.33  13
  -4   7   0 24293.0 1893.96   6
  -4   7   0 22678.3 1858.82  14
  -4   7   1 78079.3 3621.45  14
  -4   7   1 81276.3 3668.78  12
  -4   7   1 80713.6 3578.68   6
  -4   7   1 79446.3 3612.23  13
  -4   7   2 57936.8 3085.72  13
  -4   7   2 56305.7 3028.28  12
  -4   7   2 55323.2 3071.16  14
  -4   7   2 57951.8 2978.56   6
  -4   7   3 20242.0 1865.80  12
  -4   7   3 22130.3 1845.35   6
  -4   7   3 22818.1 2002.04  13
  -4   7   3 24477.1 2039.98  14
  -4   7   4 8298.37 1269.11  14
  -4   7   4 11278.6 1370.94   6
  -4   7   4 11532.9 1485.97  12
  -4   7   4 12718.1 1523.86  13
  -4   7   5 15899.6 1707.40  14
  -4   7   5 15868.2 1762.73  12
  -4   7   5 17159.5 1664.67   6
  -4   7   5 16803.7 1807.65  13
  -4   7   6 30124.6 2534.51  13
  -4   7   6 33666.1 2640.58  12
  -4   7   6 27656.8 2366.75  14
  -4   7   6 32597.8 2393.95   6
  -4   7   7 8929.16 1232.85   6
  -4   8  -8 19365.3 1982.39  20
  -4   8  -8 19543.9 1860.90  14
  -4   8  -8 15920.1 1728.49  12
  -4   8  -8 16123.2 1704.99  15
  -4   8  -8 18773.0 1826.27  13
  -4   8  -7 39626.7 2728.70  12
  -4   8  -7 41151.9 2767.68  13
  -4   8  -7 38094.5 2661.82  15
  -4   8  -7 42303.0 2844.80  14
  -4   8  -7 39219.5 2690.34  20
  -4   8  -6 49633.8 2986.50  14
  -4   8  -6 48234.2 2949.49  13
  -4   8  -6 45848.0 3001.14   6
  -4   8  -6 48175.3 2960.76  12
  -4   8  -6 48895.6 3095.43  15
  -4   8  -5 30389.0 2280.67  15
  -4   8  -5 30571.4 2343.85   6
  -4   8  -5 28633.5 2112.70   1
  -4   8  -5 32084.1 2313.53  14
  -4   8  -5 29159.6 2244.50  12
  -4   8  -5 30013.8 2268.96  13
  -4   8  -4 4219.59 818.241  15
  -4   8  -4 3049.37 783.635  14
  -4   8  -4 6022.44 944.297  13
  -4   8  -4 5550.25 1026.39   1
  -4   8  -4 3952.43 858.937  12
  -4   8  -4 3555.45 767.055   6
  -4   8  -3 44861.2 2709.56  13
  -4   8  -3 43495.2 2569.26   1
  -4   8  -3 41734.0 2666.12   6
  -4   8  -3 39363.3 2504.43  12
  -4   8  -3 38655.5 2552.47  15
  -4   8  -3 39776.0 2560.98  14
  -4   8  -2 61607.8 3221.78  12
  -4   8  -2 63310.7 3227.55   1
  -4   8  -2 66786.2 3414.88   6
  -4   8  -2 67783.4 3353.14  13
  -4   8  -2 59911.0 3227.52  15
  -4   8  -2 65510.1 3348.32  14
  -4   8  -1 14371.1 1557.27  14
  -4   8  -1 12275.4 1474.49   1
  -4   8  -1 14891.2 1514.55  13
  -4   8  -1 12625.2 1473.42   6
  -4   8  -1 13420.0 1487.09  12
  -4   8   0 9568.99 1341.60  14
  -4   8   0 5321.25 982.022   6
  -4   8   0 6745.69 1191.25  13
  -4   8   0 8532.05 1139.36  12
  -4   8   1 22599.3 1954.87  14
  -4   8   1 23690.9 1978.60  12
  -4   8   1 20318.4 1876.40  13
  -4   8   1 20324.9 1864.99   6
  -4   8   2 41083.9 2676.23  12
  -4   8   2 35328.9 2522.53  13
  -4   8   2 37741.2 2640.87  14
  -4   8   2 33817.9 2407.19   6
  -4   8   3 12657.7 1447.47  13
  -4   8   3 14973.5 1607.87   6
  -4   8   3 13595.2 1599.31  12
  -4   8   3 18413.1 1793.01  14
  -4   8   4 7871.75 1169.45  13
  -4   8   4 5603.51 1028.33   6
  -4   8   4 6326.34 1174.60  12
  -4   8   4 6658.64 1228.48  14
  -4   8   5 27101.3 2213.06   6
  -4   8   5 25046.3 2246.99  12
  -4   8   5 25288.6 2366.59  14
  -4   9  -6 35688.8 2626.83  14
  -4   9  -6 38051.7 2804.19  15
  -4   9  -6 32060.3 2553.33  12
  -4   9  -6 37302.1 2643.38  13
  -4   9  -5 21941.0 2156.78  12
  -4   9  -5 24209.6 2088.33  15
  -4   9  -5 27307.3 2327.57   6
  -4   9  -5 23402.6 2119.93  13
  -4   9  -5 23908.3 2069.79  14
  -4   9  -4 11874.6 1443.54   1
  -4   9  -4 12272.5 1500.99  12
  -4   9  -4 15782.7 1679.49   6
  -4   9  -4 10580.4 1380.37  14
  -4   9  -4 13040.5 1478.81  15
  -4   9  -4 12188.4 1463.37  13
  -4   9  -3 14356.5 1532.49  14
  -4   9  -3 14382.0 1621.96   6
  -4   9  -3 15098.1 1695.91  13
  -4   9  -3 16829.1 1654.30  15
  -4   9  -3 13029.0 1585.85   1
  -4   9  -3 12563.8 1562.10  12
  -4   9  -2 32016.0 2402.62   6
  -4   9  -2 35125.2 2505.89  13
  -4   9  -2 33430.0 2457.41  12
  -4   9  -2 31260.2 2368.07   1
  -4   9  -2 30465.3 2355.29  15
  -4   9  -2 34997.9 2563.75  14
  -4   9  -1 11563.1 1547.18   1
  -4   9  -1 13004.2 1505.46  14
  -4   9  -1 15087.5 1660.49   6
  -4   9  -1 11439.7 1433.96  13
  -4   9  -1 12994.2 1575.03  12
  -4   9  -1 13671.2 1561.67  15
  -4   9   0 1403.94 607.508  12
  -4   9   0 2668.12 801.495  13
  -4   9   0 1732.00 649.259  14
  -4   9   0 616.191 621.541   6
  -4   9   1 9648.47 1436.42   6
  -4   9   1 9735.29 1375.13  12
  -4   9   1 9128.99 1353.34  14
  -4   9   1 8188.51 1300.21  13
  -4   9   2 45111.8 2996.39  14
  -4   9   2 42694.2 2822.52   6
  -4   9   2 43416.7 2963.13  13
  -4   9   2 38079.2 2847.30  12
  -4   9   3 31374.6 2420.64   6
  -4  10  -3 16681.3 1890.42   1
  -4  10  -2 11965.5 1680.34   1
  -4  10  -1 22356.9 2201.30   1
  -4  10  -1 20403.9 2058.11   6
  -4  10   0 10787.2 1472.97   6
  -3 -11   5 19690.8 2100.87  11
  -3 -10   0 7321.17 1210.97   9
  -3 -10   1 38954.2 2860.85   2
  -3 -10   1 36839.6 2941.92  11
  -3 -10   1 38268.0 2825.78   9
  -3 -10   2 27678.0 2550.76  11
  -3 -10   2 34312.5 2635.28   2
  -3 -10   2 30543.3 2498.12   9
  -3 -10   3 12067.3 1569.91  11
  -3 -10   3 14311.6 1607.37   9
  -3 -10   3 14094.5 1654.78   2
  -3 -10   4 5971.12 1145.57   9
  -3 -10   4 6175.93 1151.73   2
  -3 -10   4 6847.69 1166.63  11
  -3 -10   5 34127.5 2588.93   9
  -3 -10   5 35905.4 2572.85  11
  -3 -10   6 57028.7 3220.28  11
  -3 -10   6 57879.3 3503.95   9
  -3 -10   7 11361.9 1552.47  19
  -3 -10   8 3821.30 1058.02  19
  -3  -9  -2 21981.2 2321.97  11
  -3  -9  -2 23106.7 2181.41   2
  -3  -9  -1 6323.03 1042.27   2
  -3  -9  -1 6439.35 1216.65  11
  -3  -9  -1 4769.10 1138.71   9
  -3  -9   0 5422.53 1015.04   2
  -3  -9   0 6201.04 1137.18  11
  -3  -9   0 6817.88 1155.17   9
  -3  -9   1 37362.0 2601.05   9
  -3  -9   1 35214.5 2615.90   2
  -3  -9   1 37529.2 2734.96  11
  -3  -9   2 39116.1 2699.14   2
  -3  -9   2 35267.1 2621.25  11
  -3  -9   2 38735.9 2639.23   9
  -3  -9   3 16142.2 1699.20   2
  -3  -9   3 18717.0 1800.38  11
  -3  -9   3 16575.3 1804.46   9
  -3  -9   4 12407.3 1514.70   9
  -3  -9   4 14957.1 1571.67  11
  -3  -9   5 34821.4 2497.29   9
  -3  -9   5 30509.3 2263.97  11
  -3  -9   6 69311.0 3634.46  19
  -3  -9   6 80101.4 3603.20  11
  -3  -9   6 76976.7 3842.40   9
  -3  -9   7 12284.6 1496.55  19
  -3  -9   7 9833.93 1420.57   9
  -3  -9   8 623.602 517.435  19
  -3  -9   8-160.748 804.007   9
  -3  -9   9 11153.5 1451.74  19
  -3  -8  -5 16279.8 1819.73   2
  -3  -8  -4 15691.9 1928.25  11
  -3  -8  -4 13462.8 1619.71   2
  -3  -8  -3 36083.0 2693.75   2
  -3  -8  -3 33790.3 2787.60  11
  -3  -8  -2 24986.0 2162.29   2
  -3  -8  -2 17127.5 2094.52  11
  -3  -8  -1 1326.18 610.671   9
  -3  -8  -1 572.176 407.686   2
  -3  -8  -1 1480.16 820.537  11
  -3  -8   0 13065.2 1662.57  11
  -3  -8   0 12592.8 1433.70   2
  -3  -8   0 12683.2 1383.25   9
  -3  -8   1 34148.2 2290.14   9
  -3  -8   1 26289.9 2091.93   2
  -3  -8   1 29520.5 2323.78  11
  -3  -8   2 43430.5 2627.37   2
  -3  -8   2 44446.8 2649.27   9
  -3  -8   2 42218.6 2699.63  11
  -3  -8   3 28696.3 2151.17  11
  -3  -8   3 31523.7 2191.60   2
  -3  -8   3 28947.3 2122.65   9
  -3  -8   4 6869.22 1064.25   9
  -3  -8   4 6832.29 1049.29  11
  -3  -8   4 4368.39 803.484  19
  -3  -8   5 28437.6 2029.64  11
  -3  -8   5 26225.1 2070.00   9
  -3  -8   5 29445.5 2033.94  19
  -3  -8   6 58748.4 3151.21  19
  -3  -8   6 58212.9 3166.68   9
  -3  -8   7 26418.5 2133.07  19
  -3  -8   7 28560.9 1916.30  11
  -3  -8   7 29181.3 2216.22   9
  -3  -8   8 1713.54 721.834  19
  -3  -8   8 1980.77 727.493   9
  -3  -8   9 10248.0 1393.40  19
  -3  -8   9 7767.96 1304.40   9
  -3  -8  10 55619.7 3481.57   9
  -3  -8  10 56424.7 3536.50  19
  -3  -7  -6 22842.5 2218.99  11
  -3  -7  -6 21765.8 2133.95   2
  -3  -7  -5 9574.33 1311.20   2
  -3  -7  -5 6728.10 1236.97  11
  -3  -7  -4 5351.12 1079.91  11
  -3  -7  -4 6563.02 1062.68   2
  -3  -7  -3 36471.6 2516.66   2
  -3  -7  -3 31106.1 2482.41  11
  -3  -7  -2 41776.3 2544.71   9
  -3  -7  -2 37581.7 2681.66  11
  -3  -7  -2 34574.8 2488.51   2
  -3  -7  -1 5163.00 961.499   2
  -3  -7  -1 4090.22 863.293   9
  -3  -7  -1 3948.71 986.996  11
  -3  -7   0 10804.0 1289.57   2
  -3  -7   0 10113.1 950.271  16
  -3  -7   0 12656.8 1463.96  11
  -3  -7   0 13203.4 1359.63   9
  -3  -7   1 46816.3 2741.06  11
  -3  -7   1 41934.4 2518.93   2
  -3  -7   1 43102.7 2488.61   9
  -3  -7   1 44247.8 1995.16  16
  -3  -7   2 27773.3 1521.54  16
  -3  -7   2 29954.3 1993.79   9
  -3  -7   2 30633.9 2126.15  11
  -3  -7   2 26995.9 1943.35   2
  -3  -7   3 20085.9 1621.45   9
  -3  -7   3 17161.6 1498.75   2
  -3  -7   3 20980.6 1718.67  11
  -3  -7   3 17075.4 1334.73  19
  -3  -7   3 18852.0 1244.69  16
  -3  -7   4 16861.5 1525.61   9
  -3  -7   4 17107.4 1190.50  16
  -3  -7   4 16866.5 1375.56  19
  -3  -7   4 16282.0 1483.69  11
  -3  -7   5 49911.3 2662.02   9
  -3  -7   5 51291.7 2547.45  11
  -3  -7   5 49188.2 2226.50  16
  -3  -7   5 48648.8 2596.43  19
  -3  -7   6 93393.4 3989.58  19
  -3  -7   6 98414.8 3966.81   9
  -3  -7   6 98201.1 3652.32  11
  -3  -7   6 96892.8 3452.66  16
  -3  -7   7 45077.5 2722.41  19
  -3  -7   7 53040.0 2491.53  16
  -3  -7   7 51069.9 2835.59   9
  -3  -7   8 16909.5 1705.28  19
  -3  -7   8 17858.3 1744.91   9
  -3  -7   8 21226.0 1613.81  16
  -3  -7   9 5466.13 861.730  16
  -3  -7   9 5194.84 1037.67  19
  -3  -7   9 4487.41 984.600   9
  -3  -7  10 38789.8 2469.65  16
  -3  -7  10 35743.6 2756.25  19
  -3  -7  10 38758.7 2713.20   9
  -3  -7  11 62956.8 3782.40  19
  -3  -7  11 65560.8 3753.40   9
  -3  -7  11 55307.8 3176.20  16
  -3  -7  12 3715.20 1016.89  16
  -3  -6  -7 4108.50 1004.22  11
  -3  -6  -7 7735.24 1223.34   2
  -3  -6  -6 22114.8 2070.90  10
  -3  -6  -6 21079.2 1891.99   2
  -3  -6  -6 24905.4 2178.38  11
  -3  -6  -5 10734.9 1465.10  11
  -3  -6  -5 11307.8 1386.58   2
  -3  -6  -5 12307.8 1524.03  10
  -3  -6  -4 3704.35 876.653  11
  -3  -6  -4 4533.34 961.822  10
  -3  -6  -4 3530.36 698.676   2
  -3  -6  -3 48993.4 2835.01   2
  -3  -6  -3 56065.8 3143.65  11
  -3  -6  -2 71510.0 3198.23   9
  -3  -6  -2 68469.2 3445.97  11
  -3  -6  -2 65167.3 3190.01   2
  -3  -6  -1 23261.8 1801.84   2
  -3  -6  -1 22606.2 1454.18  16
  -3  -6  -1 22798.6 1862.21  11
  -3  -6  -1 24890.5 1731.41   9
  -3  -6   0 4952.82 842.805   2
  -3  -6   0 4522.62 830.279  11
  -3  -6   0 6310.07 903.728   9
  -3  -6   0 5776.75 710.043  16
  -3  -6   1 31004.4 1990.34   2
  -3  -6   1 29025.6 1565.77  16
  -3  -6   1 32138.9 1952.07   9
  -3  -6   1 31106.6 2066.41  11
  -3  -6   2 106887. 3317.39  19
  -3  -6   2 96756.3 3227.99  16
  -3  -6   2 99257.9 3754.28   2
  -3  -6   2 102990. 3911.39  11
  -3  -6   2 100234. 3675.28   9
  -3  -6   3 19559.2 1530.46   9
  -3  -6   3 21566.6 1319.63  16
  -3  -6   3 19804.2 1568.78  11
  -3  -6   3 20625.5 1411.68  19
  -3  -6   4 25056.5 1654.04  19
  -3  -6   4 26070.8 1497.99  16
  -3  -6   4 24601.8 1710.25   9
  -3  -6   4 27182.8 1778.78  11
  -3  -6   5 120161. 4008.22  11
  -3  -6   5 114652. 4122.79   9
  -3  -6   5 116018. 4151.73  19
  -3  -6   5 111329. 3706.32  16
  -3  -6   6 98648.2 3788.54   9
  -3  -6   6 95576.7 3403.91  16
  -3  -6   6 90918.5 3771.94  19
  -3  -6   7 51873.9 2745.38   9
  -3  -6   7 49785.6 2422.78  16
  -3  -6   7 51966.3 2885.16  19
  -3  -6   8 22048.8 1820.20   9
  -3  -6   8 19097.5 1517.36  16
  -3  -6   8 16497.7 1701.07  19
  -3  -6   9 9595.41 1186.81  16
  -3  -6   9 13230.3 1535.35  19
  -3  -6   9 12368.1 1503.47   9
  -3  -6  10 32151.2 2243.24  16
  -3  -6  10 34410.5 2497.26   9
  -3  -6  10 28987.7 2389.08  19
  -3  -6  11 34449.4 2730.15  19
  -3  -6  11 38592.9 2630.74  16
  -3  -6  11 39931.8 2838.23   9
  -3  -6  12 10626.8 1437.70  16
  -3  -5  -7 12109.5 1601.71   4
  -3  -5  -7 14103.9 1552.27  11
  -3  -5  -7 12544.3 1642.75  10
  -3  -5  -6 31854.1 2404.42  11
  -3  -5  -6 29433.1 2140.59   2
  -3  -5  -6 30595.2 2409.57  10
  -3  -5  -5 26994.5 2125.49  10
  -3  -5  -5 26601.1 1975.30   2
  -3  -5  -5 23820.9 1996.06  11
  -3  -5  -4 17640.1 1649.74  11
  -3  -5  -4 16829.1 1566.11  10
  -3  -5  -4 16993.3 1518.53   2
  -3  -5  -3 38571.8 2305.43  10
  -3  -5  -3 35927.9 2236.88   2
  -3  -5  -3 38839.8 2435.20  11
  -3  -5  -2 87837.4 3784.62  11
  -3  -5  -2 87877.7 3272.47  16
  -3  -5  -2 87305.7 3557.24   2
  -3  -5  -1 72522.6 2887.50   9
  -3  -5  -1 66073.4 2631.90  16
  -3  -5  -1 63587.4 3071.08  11
  -3  -5  -1 72505.2 3048.91   2
  -3  -5   0 16994.2 1338.02   9
  -3  -5   0 19305.3 1493.39   2
  -3  -5   0 18242.2 1233.55  16
  -3  -5   0 22375.8 1658.90  11
  -3  -5   1 30563.2 1864.50   2
  -3  -5   1 35619.3 2050.43  11
  -3  -5   1 32417.3 1822.68   9
  -3  -5   1 35339.0 1719.13  16
  -3  -5   1 34338.7 1442.91  19
  -3  -5   1 32616.5 1988.55   1
  -3  -5   2 144713. 4534.60  11
  -3  -5   2 141403. 4280.54   9
  -3  -5   2 135228. 4345.63   1
  -3  -5   2 136821. 3975.04  16
  -3  -5   2 129593. 3829.52  19
  -3  -5   3 68914.1 2807.32  11
  -3  -5   3 62490.5 2578.94   1
  -3  -5   3 61928.7 2482.87  19
  -3  -5   3 64674.5 2464.43  16
  -3  -5   3 64362.2 2663.73   9
  -3  -5   4 2294.78 673.466   9
  -3  -5   4 2175.70 513.041   1
  -3  -5   4 2211.68 536.649  11
  -3  -5   4 2375.78 573.353  19
  -3  -5   4 2298.46 525.102  16
  -3  -5   5 64801.3 2583.81  16
  -3  -5   5 68090.6 2912.85  19
  -3  -5   5 64673.0 2343.53   1
  -3  -5   5 65580.3 2795.36   9
  -3  -5   6 128327. 4341.83   9
  -3  -5   6 121647. 4404.87  19
  -3  -5   6 123447. 4029.75  16
  -3  -5   7 47030.7 2535.13   9
  -3  -5   7 49521.6 2397.44  16
  -3  -5   7 47131.8 2626.81  19
  -3  -5   8 17707.4 1489.58  16
  -3  -5   8 15743.9 1560.36  19
  -3  -5   8 17265.9 1591.14   9
  -3  -5   9 14781.0 1446.42  16
  -3  -5   9 15388.2 1592.10  19
  -3  -5   9 16324.7 1631.03   9
  -3  -5  10 49067.9 2935.64   9
  -3  -5  10 41474.1 2652.26  16
  -3  -5  10 47955.0 3055.84  19
  -3  -5  11 24306.0 2113.84   9
  -3  -5  11 20326.7 2042.46  19
  -3  -5  11 20294.9 1921.94  16
  -3  -5  12 8946.10 1257.82  16
  -3  -5  12 6156.86 1233.58   9
  -3  -4  -8 4026.38 981.212  10
  -3  -4  -8 2652.05 794.038   4
  -3  -4  -7 27116.9 2284.06   4
  -3  -4  -7 27951.3 2360.48  10
  -3  -4  -7 32224.8 2318.18  11
  -3  -4  -6 53685.4 2787.80   2
  -3  -4  -6 54414.8 3090.98   4
  -3  -4  -6 55451.5 3179.90  10
  -3  -4  -6 58734.8 3051.27  11
  -3  -4  -5 11293.4 1322.83   4
  -3  -4  -5 11682.8 1210.34   2
  -3  -4  -5 11898.4 1288.32  11
  -3  -4  -5 9828.74 1271.21  10
  -3  -4  -4 24815.8 1729.65   2
  -3  -4  -4 24565.8 1861.27  11
  -3  -4  -4 26954.8 1882.42   4
  -3  -4  -4 21897.1 1750.93  10
  -3  -4  -3 53668.7 2539.94   2
  -3  -4  -3 49565.2 2629.13  11
  -3  -4  -3 51402.8 2557.18  10
  -3  -4  -2 85017.7 3034.47   9
  -3  -4  -2 81933.3 3445.67   1
  -3  -4  -2 80108.2 3169.00  10
  -3  -4  -2 82413.8 3383.82  11
  -3  -4  -2 82352.8 3174.81   2
  -3  -4  -2 78004.4 2982.98  16
  -3  -4  -1 165397. 5194.94   1
  -3  -4  -1 168787. 4720.51  16
  -3  -4  -1 155063. 5077.77  11
  -3  -4  -1 170511. 4744.97   9
  -3  -4  -1 169284. 4948.93   2
  -3  -4   0 42422.0 1907.63   9
  -3  -4   0 37407.4 2075.06   1
  -3  -4   0 37179.8 1963.00   2
  -3  -4   0 37617.0 1806.18  16
  -3  -4   0 42934.8 2217.15  11
  -3  -4   1 16133.9 865.181  19
  -3  -4   1 16917.9 1191.30   9
  -3  -4   1 15232.2 1238.65   2
  -3  -4   1 16671.1 1335.72  11
  -3  -4   1 15949.0 1301.33   1
  -3  -4   1 15195.8 1107.35  16
  -3  -4   2 68851.8 2592.63   9
  -3  -4   2 69411.2 2782.71  11
  -3  -4   2 75540.9 1812.89   6
  -3  -4   2 65712.8 2301.97  19
  -3  -4   2 68022.8 2658.22   1
  -3  -4   2 67502.4 2498.13  16
  -3  -4   3 50204.2 2090.01  19
  -3  -4   3 49525.7 2095.79   1
  -3  -4   3 51244.4 2098.96  16
  -3  -4   3 50367.9 2258.31  11
  -3  -4   3 51959.3 2199.35   9
  -3  -4   4 16370.2 1238.94   9
  -3  -4   4 16260.7 1182.64  16
  -3  -4   4 17085.8 1273.86  19
  -3  -4   4 16031.9 1094.91   1
  -3  -4   5 15682.2 1308.31  19
  -3  -4   5 12809.0 1106.93  16
  -3  -4   5 14497.0 966.024   1
  -3  -4   5 14740.8 1246.10   9
  -3  -4   6 133256. 4486.43  19
  -3  -4   6 124633. 4235.69   9
  -3  -4   6 136515. 3487.06   1
  -3  -4   6 124184. 4104.65  16
  -3  -4   7 122555. 4488.24  19
  -3  -4   7 129255. 4372.15   9
  -3  -4   7 125359. 4226.86  16
  -3  -4   8 12479.7 1400.94  19
  -3  -4   8 10431.8 1193.94   9
  -3  -4   8 9296.17 1110.01  16
  -3  -4   9 14684.8 1453.67  16
  -3  -4   9 18988.7 1645.87   9
  -3  -4   9 18015.9 1695.42  19
  -3  -4  10 58000.1 3180.12   9
  -3  -4  11 44690.0 2885.24   9
  -3  -4  12 11924.2 1602.68  12
  -3  -4  12 8184.46 1384.22   9
  -3  -3  -9 10619.1 1542.70  10
  -3  -3  -9 12163.5 1725.15   4
  -3  -3  -8 811.680 532.761   4
  -3  -3  -8 1137.05 550.635  10
  -3  -3  -7 23295.4 2101.96   4
  -3  -3  -7 25188.9 2133.50  10
  -3  -3  -7 29925.1 2005.82  11
  -3  -3  -6 60481.6 3167.80  10
  -3  -3  -6 62320.0 3172.83   4
  -3  -3  -6 68207.5 2886.75   2
  -3  -3  -6 60878.3 2973.38  11
  -3  -3  -5 16528.0 1315.61   2
  -3  -3  -5 15665.7 1479.72   4
  -3  -3  -5 17295.3 1546.99  10
  -3  -3  -5 17268.2 1512.47  11
  -3  -3  -4 8889.03 930.093   2
  -3  -3  -4 10275.1 1289.74   1
  -3  -3  -4 8312.45 1008.48  11
  -3  -3  -4 9983.22 1140.69  10
  -3  -3  -4 10352.1 1123.02   4
  -3  -3  -3 68188.5 3051.04   1
  -3  -3  -3 61860.3 2747.71  10
  -3  -3  -3 66602.5 2737.30   4
  -3  -3  -3 70872.7 2733.20   2
  -3  -3  -3 67821.6 2764.18  16
  -3  -3  -3 60351.3 2804.69  11
  -3  -3  -2 112141. 3672.02   2
  -3  -3  -2 122978. 4131.45   1
  -3  -3  -2 110836. 3753.67  10
  -3  -3  -2 115892. 3966.35  11
  -3  -3  -2 118611. 3766.97  16
  -3  -3  -2 114307. 3460.69   9
  -3  -3  -1 96489.3 3299.08   2
  -3  -3  -1 102496. 2399.55   6
  -3  -3  -1 94979.5 3505.17   1
  -3  -3  -1 106527. 3148.44   9
  -3  -3  -1 98332.8 3516.31  11
  -3  -3  -1 97508.8 3243.17  16
  -3  -3   0 44075.1 1823.59   9
  -3  -3   0 44958.9 1170.82  12
  -3  -3   0 47138.4 1202.02  12
  -3  -3   0 44867.3 1191.92  15
  -3  -3   0 43484.8 2097.23   1
  -3  -3   0 45550.8 1180.19  13
  -3  -3   0 46681.3 1260.07   6
  -3  -3   0 45828.9 1191.23  14
  -3  -3   0 46548.9 2170.48  11
  -3  -3   0 48744.3 2016.80  16
  -3  -3   1 17062.4 1300.74  11
  -3  -3   1 16978.4 1142.25  16
  -3  -3   1 17924.9 1114.08   9
  -3  -3   1 16458.3 758.150  12
  -3  -3   1 16062.4 764.027  13
  -3  -3   1 17458.4 702.264   6
  -3  -3   1 17144.4 831.375  12
  -3  -3   1 18267.8 1239.76   1
  -3  -3   2 52173.7 2112.54   1
  -3  -3   2 53621.3 2262.55  11
  -3  -3   2 51868.8 2036.37   9
  -3  -3   2 53235.6 1591.14   6
  -3  -3   2 54660.5 2113.39  16
  -3  -3   3 87472.2 2772.57   1
  -3  -3   3 81695.0 2735.26  19
  -3  -3   3 84199.1 2803.03   9
  -3  -3   3 83486.7 2822.75  16
  -3  -3   4 54460.9 2202.75   9
  -3  -3   4 50751.5 2146.34  16
  -3  -3   4 51264.3 2201.82  19
  -3  -3   4 54051.9 1979.83   1
  -3  -3   5 25557.5 1539.59  16
  -3  -3   5 22916.8 1194.20   1
  -3  -3   5 24089.0 1510.02   9
  -3  -3   5 25932.5 1624.56  19
  -3  -3   5 26588.5 1005.64   8
  -3  -3   6 63963.1 2668.04  16
  -3  -3   6 60728.0 2682.16   9
  -3  -3   6 61682.2 2789.33  19
  -3  -3   6 67146.0 2083.72   8
  -3  -3   6 62507.9 2055.10   1
  -3  -3   7 164428. 4357.83   8
  -3  -3   7 158667. 4980.40  16
  -3  -3   7 162080. 5048.40   9
  -3  -3   8 39069.7 2266.20  16
  -3  -3   8 39333.9 1916.06   8
  -3  -3   8 37616.2 2244.74   9
  -3  -3   9 21110.4 1479.87   8
  -3  -3   9 17118.1 1679.91   9
  -3  -3  10 74835.0 3704.11   9
  -3  -3  10 84371.5 3958.40  12
  -3  -3  10 79286.2 3379.76   8
  -3  -3  11 56554.3 3390.14  12
  -3  -3  11 62861.8 3467.31   9
  -3  -3  12 17717.0 1827.86  12
  -3  -3  12 19512.5 2061.55   9
  -3  -2  -9 15409.9 1781.30   4
  -3  -2  -9 11218.6 1504.80  10
  -3  -2  -8 448.282 330.246   4
  -3  -2  -8 124.021 353.594  10
  -3  -2  -7 31690.2 2334.66  10
  -3  -2  -7 34208.7 2060.49  11
  -3  -2  -7 31580.0 2283.65   4
  -3  -2  -6 78447.0 3594.87   1
  -3  -2  -6 73839.2 3423.87   4
  -3  -2  -6 74263.1 3152.18  11
  -3  -2  -6 79025.0 2936.74   2
  -3  -2  -6 82786.8 3595.03  10
  -3  -2  -5 29286.8 1991.53   1
  -3  -2  -5 27676.5 1575.60   2
  -3  -2  -5 28464.2 1796.48  11
  -3  -2  -5 27108.2 1890.58  10
  -3  -2  -5 29638.2 1897.78   4
  -3  -2  -4 3602.14 715.983   4
  -3  -2  -4 5114.60 663.298   2
  -3  -2  -4 5652.03 800.892  11
  -3  -2  -4 7177.92 1047.94   1
  -3  -2  -4 6008.97 870.161  10
  -3  -2  -3 12048.1 1073.09   4
  -3  -2  -3 10209.9 919.762   2
  -3  -2  -3 11836.4 1219.10   1
  -3  -2  -3 10383.9 1079.95  11
  -3  -2  -3 10945.6 1064.88  10
  -3  -2  -3 10877.6 1072.34  16
  -3  -2  -2 152281. 4548.36  16
  -3  -2  -2 164539. 4815.15   1
  -3  -2  -2 164665. 4430.04   4
  -3  -2  -2 161601. 3898.98   6
  -3  -2  -2 152878. 4677.69  11
  -3  -2  -2 160912. 4549.08  10
  -3  -2  -2 159704. 4419.95   2
  -3  -2  -2 169315. 4167.72   9
  -3  -2  -1 155132. 3923.67   9
  -3  -2  -1 150245. 4466.85   1
  -3  -2  -1 154072. 4528.80  11
  -3  -2  -1 150318. 4296.91  16
  -3  -2  -1 157153. 3621.32   6
  -3  -2  -1 152423. 4239.78  10
  -3  -2   0 50627.8 1782.20   9
  -3  -2   0 48638.7 2166.75  11
  -3  -2   0 51771.9 1354.10  15
  -3  -2   0 50951.4 1320.19  13
  -3  -2   0 51879.6 1328.94  13
  -3  -2   0 48705.7 2118.54   1
  -3  -2   0 48211.5 2022.30  16
  -3  -2   0 50050.9 1311.64  12
  -3  -2   0 49687.6 1531.15   6
  -3  -2   0 51109.9 1361.95  20
  -3  -2   0 49676.6 1298.00  12
  -3  -2   0 50149.7 1333.66  14
  -3  -2   1 135403. 3832.48  16
  -3  -2   1 139388. 3590.70   9
  -3  -2   1 138310. 3288.82   6
  -3  -2   1 137758. 3271.51  12
  -3  -2   1 136060. 3304.26  13
  -3  -2   1 134825. 3298.26  12
  -3  -2   1 130677. 3850.63   1
  -3  -2   2 95558.3 2976.45   1
  -3  -2   2 97045.3 2765.23  12
  -3  -2   2 91317.2 2978.16  16
  -3  -2   2 99661.1 2613.04   6
  -3  -2   2 97596.4 2847.08   9
  -3  -2   3 104526. 3287.73  16
  -3  -2   3 108802. 3169.57   1
  -3  -2   3 110614. 3217.83   9
  -3  -2   3 111600. 3271.18  12
  -3  -2   3 110139. 2705.58   7
  -3  -2   4 69393.2 2520.34  16
  -3  -2   4 65063.6 2223.49   1
  -3  -2   4 67648.7 2439.18   9
  -3  -2   4 66564.7 1917.16   8
  -3  -2   4 68346.5 2557.27  12
  -3  -2   5 15420.7 1181.95  16
  -3  -2   5 13341.6 1192.95  12
  -3  -2   5 16683.0 912.969   8
  -3  -2   5 14318.7 916.507   1
  -3  -2   5 14840.4 1143.04   9
  -3  -2   6 72722.2 2319.64   1
  -3  -2   6 73286.7 2423.59   8
  -3  -2   6 72222.6 2862.95  16
  -3  -2   6 72546.9 3049.80  12
  -3  -2   6 72472.1 2864.82   9
  -3  -2   7 131646. 4457.98   9
  -3  -2   7 144731. 4788.27  12
  -3  -2   7 137214. 4047.57   8
  -3  -2   7 143037. 4560.11  16
  -3  -2   7 139368. 3628.79   1
  -3  -2   8 72579.5 2891.62   8
  -3  -2   8 73792.0 3362.18  12
  -3  -2   9 30250.9 1907.26   8
  -3  -2   9 25984.2 2120.70  12
  -3  -2  10 37618.6 2332.91   8
  -3  -2  10 40073.9 2649.10  12
  -3  -2  11 51264.6 2915.84   8
  -3  -2  11 52437.7 3208.03  12
  -3  -2  12 14212.4 1532.72   8
  -3  -2  12 16770.6 1820.38  12
  -3  -1 -10 47649.4 3250.59  10
  -3  -1 -10 46458.8 3168.65   4
  -3  -1  -9 12834.8 1571.34   4
  -3  -1  -9 13669.1 1502.78  10
  -3  -1  -8 3782.43 748.835   4
  -3  -1  -8 4449.86 862.508  10
  -3  -1  -7 22836.8 1859.17  10
  -3  -1  -7 22778.4 1956.62   1
  -3  -1  -7 22877.1 1874.77   4
  -3  -1  -6 78601.3 3410.96   4
  -3  -1  -6 79978.7 3453.31   1
  -3  -1  -6 78498.1 3041.58  11
  -3  -1  -6 77014.7 3398.31  10
  -3  -1  -6 78845.0 2663.90   2
  -3  -1  -5 40770.3 2076.14  11
  -3  -1  -5 41265.7 1768.54   2
  -3  -1  -5 40553.6 2198.78   4
  -3  -1  -5 38412.3 2169.90  10
  -3  -1  -5 43682.0 2335.26   1
  -3  -1  -4 1228.09 493.853  11
  -3  -1  -4 1505.95 519.000   4
  -3  -1  -4 1369.08 437.164   6
  -3  -1  -4 858.270 605.397   1
  -3  -1  -4 1399.96 513.900  10
  -3  -1  -3 15648.2 1289.87   1
  -3  -1  -3 16127.7 1153.03   4
  -3  -1  -3 17135.8 1036.10   6
  -3  -1  -3 18869.1 1282.79  10
  -3  -1  -3 16055.0 1257.93  16
  -3  -1  -2 238523. 5523.14   6
  -3  -1  -2 239369. 6191.01   1
  -3  -1  -2 236771. 5940.50  10
  -3  -1  -2 244915. 6146.14  16
  -3  -1  -2 237480. 5771.70   4
  -3  -1  -1 302997. 7099.64  10
  -3  -1  -1 311317. 6903.31   4
  -3  -1  -1 311244. 6172.46  12
  -3  -1  -1 317931. 6183.29  13
  -3  -1  -1 313987. 6299.28  20
  -3  -1  -1 320151. 6831.28   6
  -3  -1  -1 308416. 6239.94  13
  -3  -1  -1 310554. 6279.05  15
  -3  -1  -1 300270. 6295.12  17
  -3  -1  -1 316162. 7477.92   1
  -3  -1  -1 320163. 6199.17  14
  -3  -1  -1 305624. 6250.55  14
  -3  -1  -1 314289. 6662.44   9
  -3  -1  -1 312338. 7369.00  16
  -3  -1   0 105160. 3289.19   1
  -3  -1   0 108815. 2570.15  13
  -3  -1   0 108161. 2687.78  17
  -3  -1   0 110343. 2667.51  13
  -3  -1   0 105021. 2759.49   9
  -3  -1   0 106719. 2854.48   6
  -3  -1   0 108095. 2665.86  14
  -3  -1   0 109464. 2692.37  20
  -3  -1   0 105900. 3253.62  16
  -3  -1   0 110702. 2569.05  12
  -3  -1   0 111074. 2694.15  15
  -3  -1   1 77349.6 2153.92  12
  -3  -1   1 75921.4 2203.19   9
  -3  -1   1 76097.1 2567.66  16
  -3  -1   1 76221.6 2556.79   1
  -3  -1   1 79092.3 2266.96   6
  -3  -1   2 121777. 3542.05  16
  -3  -1   2 124562. 3297.65  12
  -3  -1   2 126201. 3267.98   6
  -3  -1   2 122277. 3481.05   1
  -3  -1   2 121148. 3236.62   9
  -3  -1   3 119923. 3545.55  16
  -3  -1   3 119767. 3392.21   1
  -3  -1   3 123545. 3496.45  12
  -3  -1   3 122506. 3369.65   9
  -3  -1   4 105023. 3359.20  12
  -3  -1   4 102094. 2866.97   8
  -3  -1   4 108232. 2408.23   7
  -3  -1   4 103180. 3042.50   1
  -3  -1   4 99581.2 3256.28  16
  -3  -1   4 106290. 3219.35   9
  -3  -1   5 19132.7 1093.04   1
  -3  -1   5 17840.1 1047.68   8
  -3  -1   5 17598.7 1263.19  16
  -3  -1   5 18209.3 788.074   7
  -3  -1   5 20115.2 1402.89  12
  -3  -1   6 42574.5 1738.97   1
  -3  -1   6 46231.7 1949.49   8
  -3  -1   6 47742.2 2247.12  16
  -3  -1   6 44236.2 2266.86  12
  -3  -1   7 99106.9 3825.06  12
  -3  -1   7 96994.3 2972.13   1
  -3  -1   7 101026. 3419.27   8
  -3  -1   7 96589.7 3605.19  16
  -3  -1   8 42414.8 1770.61   1
  -3  -1   8 44360.6 2286.42   8
  -3  -1   8 44962.2 2575.00  12
  -3  -1   9 19602.1 1806.83  12
  -3  -1   9 22126.9 1710.50   8
  -3  -1  10 18711.3 1828.17  12
  -3  -1  10 19347.5 1745.04   8
  -3  -1  11 51497.5 3043.09   8
  -3  -1  11 51499.5 3163.88  12
  -3  -1  12 28444.8 2340.27   8
  -3  -1  12 32485.1 2535.96  12
  -3  -1  13 2582.29 1016.33   8
  -3   0 -10 62585.8 3675.52   4
  -3   0 -10 58711.1 3600.36  10
  -3   0  -9 16260.1 1684.44   4
  -3   0  -9 17430.2 1733.50  10
  -3   0  -8 4621.08 975.832   1
  -3   0  -8 3942.06 750.753  10
  -3   0  -8 3080.47 815.431   4
  -3   0  -7 34353.1 2210.22   1
  -3   0  -7 32585.0 2235.94  10
  -3   0  -7 32691.2 2203.02   4
  -3   0  -6 88268.0 3629.91   4
  -3   0  -6 98340.5 3713.83   1
  -3   0  -6 92574.8 3677.56  10
  -3   0  -5 111803. 3977.05   4
  -3   0  -5 117760. 4038.74  10
  -3   0  -5 126097. 3906.22   6
  -3   0  -5 123331. 4104.37   1
  -3   0  -4 7442.84 475.477  14
  -3   0  -4 7997.57 486.744  13
  -3   0  -4 6956.94 898.619   1
  -3   0  -4 5984.71 803.142   4
  -3   0  -4 8667.26 909.467  10
  -3   0  -4 7830.77 497.812  20
  -3   0  -4 7581.20 491.798  15
  -3   0  -4 7639.75 770.562   6
  -3   0  -3 9272.47 878.300  10
  -3   0  -3 7064.36 747.040   4
  -3   0  -3 7620.78 739.828   6
  -3   0  -3 7886.90 477.058  17
  -3   0  -3 9179.56 496.105  20
  -3   0  -3 9105.09 994.749   1
  -3   0  -3 10112.9 514.056  12
  -3   0  -3 8487.91 494.841  20
  -3   0  -3 9173.06 486.573  13
  -3   0  -3 9406.91 490.829  14
  -3   0  -3 8768.35 490.046  15
  -3   0  -3 9191.35 515.146  19
  -3   0  -3 9980.01 514.987  15
  -3   0  -3 8144.95 907.876  16
  -3   0  -3 9452.38 519.636  18
  -3   0  -2 265098. 5543.08  15
  -3   0  -2 265102. 5564.22  17
  -3   0  -2 266809. 5475.13  15
  -3   0  -2 251851. 6060.82   4
  -3   0  -2 265596. 5550.92  20
  -3   0  -2 261391. 5559.91  18
  -3   0  -2 264826. 5456.93  14
  -3   0  -2 252167. 6072.43   6
  -3   0  -2 255096. 6170.97  10
  -3   0  -2 263214. 5448.40  13
  -3   0  -2 249180. 6449.75  16
  -3   0  -2 245147. 6424.51   1
  -3   0  -2 266655. 5457.26  12
  -3   0  -1 194693. 4314.31  15
  -3   0  -1 195610. 4314.74  14
  -3   0  -1 184272. 4980.87   1
  -3   0  -1 196662. 4247.33  14
  -3   0  -1 191294. 4676.08   6
  -3   0  -1 198904. 4228.39  12
  -3   0  -1 190175. 4329.72  20
  -3   0  -1 194950. 4225.36  13
  -3   0  -1 190573. 4966.36  16
  -3   0  -1 189713. 4450.50   4
  -3   0  -1 194521. 4330.65  18
  -3   0  -1 193715. 4326.29  17
  -3   0  -1 181115. 4059.53   9
  -3   0  -1 187824. 4610.16  10
  -3   0   0 79768.2 1981.77   9
  -3   0   0 78434.8 2141.65  13
  -3   0   0 76417.4 2134.52  12
  -3   0   0 80692.8 1983.15   4
  -3   0   0 74591.6 2347.20   6
  -3   0   0 75001.7 2559.80  16
  -3   0   0 74471.0 2584.85   1
  -3   0   1 46927.5 1486.40   9
  -3   0   1 47182.5 1629.85  12
  -3   0   1 48830.8 1653.56  13
  -3   0   1 47303.2 1887.57  16
  -3   0   1 49670.6 1762.94   6
  -3   0   1 47999.1 1903.02   1
  -3   0   2 125352. 3411.69  12
  -3   0   2 128390. 3445.25   6
  -3   0   2 126500. 3575.33  16
  -3   0   2 123264. 3205.48   9
  -3   0   2 127515. 3556.49   1
  -3   0   3 221265. 5371.61   1
  -3   0   3 221419. 5468.42  16
  -3   0   3 210866. 5316.52   6
  -3   0   3 216390. 5421.98  12
  -3   0   4 57041.8 2257.96  12
  -3   0   4 53639.5 2165.07  16
  -3   0   4 50925.4 1992.13   1
  -3   0   4 51952.6 1951.54   8
  -3   0   5 9251.85 836.291   8
  -3   0   5 11011.9 869.321   1
  -3   0   5 9066.26 483.413   7
  -3   0   5 8483.47 960.026  12
  -3   0   5 10577.1 1018.00  16
  -3   0   6 17185.7 1353.87  16
  -3   0   6 18395.6 1300.11   8
  -3   0   6 18809.4 1438.50  12
  -3   0   7 43264.2 2262.08  16
  -3   0   7 41020.0 2122.07   8
  -3   0   7 38521.3 2255.09  12
  -3   0   8 69432.7 3060.27   8
  -3   0   8 68982.2 3230.56  12
  -3   0   9 26998.1 1974.30   8
  -3   0   9 28063.4 2157.19  12
  -3   0  10 17871.1 1799.75  12
  -3   0  10 18524.2 1700.29   8
  -3   0  11 61639.3 3461.85   8
  -3   0  11 61568.8 3568.90  12
  -3   0  12 35366.5 2719.53  12
  -3   0  12 38152.4 2817.35   8
  -3   0  13 4145.50 1007.83   8
  -3   1 -10 47520.0 3135.40   4
  -3   1 -10 48733.7 3147.82  10
  -3   1  -9 25211.8 2049.50   1
  -3   1  -9 24734.3 2082.92  10
  -3   1  -8 18015.0 1612.62   1
  -3   1  -8 15847.9 1602.61   4
  -3   1  -8 15972.7 1575.87  10
  -3   1  -7 39887.2 2417.98  10
  -3   1  -7 39569.3 2283.52   1
  -3   1  -7 39128.4 2423.38   4
  -3   1  -6 141128. 3774.76  15
  -3   1  -6 139199. 4538.48   6
  -3   1  -6 142621. 3766.19  14
  -3   1  -6 137108. 4462.17   1
  -3   1  -6 127910. 4518.30  10
  -3   1  -6 140791. 3776.49  13
  -3   1  -6 134116. 4656.08   4
  -3   1  -6 138157. 3764.29  20
  -3   1  -5 120233. 3270.56  15
  -3   1  -5 123265. 3301.15  12
  -3   1  -5 115734. 4037.93   4
  -3   1  -5 120947. 3270.72  13
  -3   1  -5 121977. 3991.80   1
  -3   1  -5 115236. 3965.80  10
  -3   1  -5 121458. 3937.08   6
  -3   1  -5 127382. 3324.46  20
  -3   1  -5 127501. 3311.03  14
  -3   1  -4 4034.62 610.889  10
  -3   1  -4 4271.70 460.290  14
  -3   1  -4 3941.68 700.504   1
  -3   1  -4 4117.50 446.185  20
  -3   1  -4 3173.09 398.778  12
  -3   1  -4 3269.51 633.333   4
  -3   1  -4 4356.04 447.402  13
  -3   1  -4 4125.94 662.871   6
  -3   1  -4 3853.57 415.841  15
  -3   1  -3 968.270 377.215   4
  -3   1  -3 613.885 187.921  15
  -3   1  -3 562.528 454.694   1
  -3   1  -3 1004.47 412.367   6
  -3   1  -3 594.185 233.544  13
  -3   1  -3 1037.79 266.811  12
  -3   1  -3 1363.04 502.513  16
  -3   1  -3 644.967 212.356  14
  -3   1  -3 854.893 336.874  10
  -3   1  -2 104890. 2727.42  14
  -3   1  -2 104315. 2996.51   4
  -3   1  -2 105986. 2729.44  12
  -3   1  -2 103046. 3278.38   1
  -3   1  -2 105881. 3162.67   6
  -3   1  -2 107711. 2756.22  15
  -3   1  -2 102212. 2718.99  13
  -3   1  -2 105388. 2966.96  10
  -3   1  -2 103682. 3294.60  16
  -3   1  -1 275895. 5961.63  13
  -3   1  -1 268502. 5878.72   4
  -3   1  -1 268596. 5957.05  14
  -3   1  -1 268209. 6308.84   6
  -3   1  -1 263939. 6472.14   1
  -3   1  -1 272456. 5963.42  12
  -3   1  -1 267181. 5904.35  10
  -3   1  -1 263408. 6420.00  16
  -3   1   0 77204.2 1806.73   4
  -3   1   0 72892.9 2216.54  12
  -3   1   0 74760.1 2232.04  13
  -3   1   0 74196.8 2401.26   6
  -3   1   0 73208.8 2520.19   1
  -3   1   0 72206.9 1745.04   9
  -3   1   0 70637.6 2433.49  16
  -3   1   1 17821.5 1076.68  16
  -3   1   1 18827.7 1089.31   6
  -3   1   1 18479.7 1013.38  13
  -3   1   1 15548.2 1070.17   1
  -3   1   1 17752.3 989.984  12
  -3   1   2 125279. 3596.26   1
  -3   1   2 125669. 3508.67  13
  -3   1   2 124579. 3505.32  12
  -3   1   2 124597. 3534.34   6
  -3   1   2 123283. 3501.09  16
  -3   1   3 225896. 5733.57   6
  -3   1   3 231711. 5816.75  13
  -3   1   3 234640. 5658.78   8
  -3   1   3 236213. 5729.07  16
  -3   1   3 235664. 5820.15  12
  -3   1   3 227815. 5715.25   1
  -3   1   4 42532.7 1843.12  16
  -3   1   4 41972.0 1919.57  12
  -3   1   4 43233.8 1809.93   8
  -3   1   4 42410.1 881.538   7
  -3   1   5 5730.34 733.107   8
  -3   1   5 5885.62 783.055  16
  -3   1   5 6097.66 817.084  12
  -3   1   6 48429.6 2443.01  12
  -3   1   6 48763.0 2260.24   8
  -3   1   6 48473.8 2270.36  16
  -3   1   7 51430.0 2659.48  12
  -3   1   7 54485.2 2584.07   8
  -3   1   8 77107.6 3474.55  12
  -3   1   8 70867.8 3242.44   8
  -3   1   9 46999.8 2705.77   8
  -3   1   9 41835.4 2688.11  12
  -3   1  10 16309.4 1728.03  12
  -3   1  10 14413.2 1597.56   8
  -3   1  11 42799.3 2895.11   8
  -3   1  11 41745.9 2870.41  12
  -3   1  12 43617.7 3073.96  12
  -3   1  12 32854.6 2613.58   8
  -3   2 -11 28526.1 2505.98   4
  -3   2 -11 25258.2 2312.02  10
  -3   2 -10 58143.8 3471.81  10
  -3   2 -10 60909.9 3611.00   4
  -3   2  -9 17223.5 1596.90   1
  -3   2  -9 18787.4 1817.68  10
  -3   2  -9 16793.6 1823.22   4
  -3   2  -8 20327.1 1629.59   1
  -3   2  -8 18569.9 1706.89  10
  -3   2  -8 22858.2 1888.58   4
  -3   2  -7 32492.9 1666.14  14
  -3   2  -7 34040.6 1715.63  20
  -3   2  -7 31909.2 1649.40  13
  -3   2  -7 28924.6 2046.36   4
  -3   2  -7 29075.7 1565.03  15
  -3   2  -7 30411.0 2075.03   6
  -3   2  -7 31757.4 2074.82  10
  -3   2  -7 29692.2 1886.13   1
  -3   2  -6 89908.3 2962.61  12
  -3   2  -6 89703.7 2939.19  15
  -3   2  -6 88974.8 3561.75   4
  -3   2  -6 87744.6 3463.09   6
  -3   2  -6 93173.8 2970.47  20
  -3   2  -6 80422.1 3374.76  10
  -3   2  -6 90057.9 3320.93   1
  -3   2  -6 90742.6 2946.46  13
  -3   2  -6 90913.4 2926.25  14
  -3   2  -5 82238.2 3142.08  10
  -3   2  -5 85966.6 3225.91   6
  -3   2  -5 86725.0 3264.02   4
  -3   2  -5 86149.3 2758.47  12
  -3   2  -5 89538.2 2772.35  13
  -3   2  -5 87479.5 3150.85   1
  -3   2  -5 85878.4 2746.09  15
  -3   2  -5 84677.9 2716.86  14
  -3   2  -5 88098.4 2792.89  20
  -3   2  -4 3866.04 632.700   6
  -3   2  -4 4737.83 544.629  12
  -3   2  -4 4744.62 670.087  10
  -3   2  -4 4125.63 671.278   1
  -3   2  -4 4490.65 544.062  15
  -3   2  -4 6249.39 800.458   4
  -3   2  -4 4214.04 551.293  14
  -3   2  -4 5268.34 556.342  13
  -3   2  -3 9084.33 712.098  15
  -3   2  -3 8413.57 843.729   1
  -3   2  -3 7818.02 817.512   4
  -3   2  -3 8980.83 727.971  12
  -3   2  -3 8146.72 671.585  14
  -3   2  -3 7595.06 655.710  13
  -3   2  -3 8496.69 759.331  10
  -3   2  -3 8449.89 904.097  16
  -3   2  -3 8319.32 839.405   6
  -3   2  -2 54946.4 1907.57  14
  -3   2  -2 52722.4 1947.07   4
  -3   2  -2 55350.9 2163.97   6
  -3   2  -2 55231.0 2184.15   1
  -3   2  -2 54693.8 1906.55  13
  -3   2  -2 55535.7 1909.08  12
  -3   2  -2 55374.1 1820.84  10
  -3   2  -2 53155.0 2138.95  16
  -3   2  -1 264467. 6403.09   1
  -3   2  -1 269925. 6072.07  13
  -3   2  -1 249535. 5736.05   4
  -3   2  -1 263343. 6260.50  16
  -3   2  -1 261563. 6052.95  12
  -3   2  -1 264776. 5584.87  10
  -3   2  -1 267715. 6358.18   6
  -3   2  -1 256523. 6035.59  14
  -3   2   0 175913. 4451.99  16
  -3   2   0 172220. 4371.51  13
  -3   2   0 166756. 3743.61   4
  -3   2   0 178707. 4407.15  12
  -3   2   0 174764. 4634.49   1
  -3   2   0 171705. 4368.84  14
  -3   2   0 169507. 4524.43   6
  -3   2   1 462.497 323.374  12
  -3   2   1 990.982 409.842  13
  -3   2   1 953.874 406.556   6
  -3   2   1 966.491 454.693   1
  -3   2   1 889.089 336.533  16
  -3   2   2 91313.2 2976.76  12
  -3   2   2 93370.2 2995.52  13
  -3   2   2 93573.2 3021.31   6
  -3   2   2 94515.2 3039.95   1
  -3   2   2 93496.1 2856.80  16
  -3   2   3 376615. 8364.55  16
  -3   2   3 370849. 7231.83   7
  -3   2   3 380570. 8655.53  13
  -3   2   3 369519. 8612.42  12
  -3   2   3 372174. 8512.04   8
  -3   2   3 363612. 8530.50   6
  -3   2   3 362653. 7277.02   4
  -3   2   4 131388. 3804.08  16
  -3   2   4 125534. 3889.78   8
  -3   2   4 134745. 2924.20   7
  -3   2   4 128809. 4057.29  13
  -3   2   4 124688. 3919.47   6
  -3   2   4 125525. 3033.40   4
  -3   2   4 124153. 4011.13  12
  -3   2   5 21346.2 911.834   7
  -3   2   5 19332.4 1470.68  13
  -3   2   5 22175.4 1477.99   8
  -3   2   5 19185.1 1434.76  12
  -3   2   5 20083.7 1357.08  16
  -3   2   6 32501.0 2004.42  12
  -3   2   6 30986.1 1335.30   7
  -3   2   6 29927.6 1771.58  16
  -3   2   6 32625.5 1940.40   8
  -3   2   7 75670.5 3379.39  12
  -3   2   7 77891.0 2577.50   7
  -3   2   7 72330.7 3108.09  16
  -3   2   7 78777.1 3352.22   8
  -3   2   8 46393.1 2653.37   8
  -3   2   8 46143.2 2692.65  12
  -3   2   9 9482.83 1257.91   8
  -3   2   9 10802.8 1352.98  12
  -3   2  10 16160.3 1714.01   8
  -3   2  10 16646.7 1798.40  12
  -3   2  11 30648.8 2551.88   8
  -3   2  11 27950.4 2363.09  12
  -3   3 -11 11584.8 1572.57   4
  -3   3 -11 16109.5 1852.10  10
  -3   3 -10 48599.7 3079.81  10
  -3   3 -10 45488.6 3036.86   4
  -3   3  -9 20236.6 1835.16  10
  -3   3  -9 21700.8 1946.68   4
  -3   3  -8 398.979 464.261   4
  -3   3  -8 1335.79 399.074  20
  -3   3  -8 824.007 496.564   1
  -3   3  -8 438.937 409.796  10
  -3   3  -7 29523.7 1718.93  13
  -3   3  -7 30194.6 1818.13   1
  -3   3  -7 29189.3 1735.81  12
  -3   3  -7 32124.3 2131.83   4
  -3   3  -7 30174.5 1710.35  20
  -3   3  -7 29043.0 1985.64  10
  -3   3  -7 30649.9 1720.47  14
  -3   3  -7 29518.4 1714.57  15
  -3   3  -7 28514.6 2054.88   6
  -3   3  -6 144802. 4778.75   4
  -3   3  -6 142976. 4755.87   6
  -3   3  -6 144014. 4279.92  12
  -3   3  -6 142961. 4274.75  20
  -3   3  -6 147421. 4282.79  15
  -3   3  -6 144601. 4448.74   1
  -3   3  -6 143380. 4261.98  13
  -3   3  -6 146784. 4287.80  14
  -3   3  -6 134713. 4597.64  10
  -3   3  -5 87079.3 3329.39   4
  -3   3  -5 93065.4 3067.26  15
  -3   3  -5 90217.1 3002.41  14
  -3   3  -5 87266.1 3154.22   1
  -3   3  -5 91331.4 3412.99   6
  -3   3  -5 92829.1 3062.64  12
  -3   3  -5 93904.6 3042.05  13
  -3   3  -5 85194.7 3196.89  10
  -3   3  -4 19808.4 1271.94  10
  -3   3  -4 21211.1 1258.94  15
  -3   3  -4 21221.7 1255.68  14
  -3   3  -4 20028.1 1372.81   1
  -3   3  -4 20264.9 1415.69   6
  -3   3  -4 21460.5 1266.37  12
  -3   3  -4 21139.4 1236.67  13
  -3   3  -4 22330.7 1442.53   4
  -3   3  -3 28808.1 1434.30  15
  -3   3  -3 27576.1 1463.96   4
  -3   3  -3 27040.6 1509.28   1
  -3   3  -3 25403.8 1512.84  16
  -3   3  -3 26070.1 1372.73  12
  -3   3  -3 28835.6 1413.59  14
  -3   3  -3 27536.0 1600.02   6
  -3   3  -3 26147.2 1314.79  10
  -3   3  -3 27148.4 1406.19  13
  -3   3  -2 67299.8 2454.26  16
  -3   3  -2 68779.0 2274.74   4
  -3   3  -2 69945.9 2554.28   1
  -3   3  -2 64113.2 2547.48   6
  -3   3  -2 70257.5 2400.47  14
  -3   3  -2 70220.9 2052.29  10
  -3   3  -2 65633.1 2363.54  12
  -3   3  -2 72178.7 2443.19  13
  -3   3  -1 129245. 3860.19   6
  -3   3  -1 124425. 3280.88   4
  -3   3  -1 134527. 3711.17  13
  -3   3  -1 124288. 3648.14  14
  -3   3  -1 130931. 2897.38  10
  -3   3  -1 127393. 3667.18  12
  -3   3  -1 132091. 3632.34  16
  -3   3  -1 127181. 3820.37   1
  -3   3   0 138770. 4088.89   6
  -3   3   0 144371. 4043.28  12
  -3   3   0 146646. 4046.64  13
  -3   3   0 138989. 4104.27   1
  -3   3   0 142182. 4016.34  14
  -3   3   0 146553. 3286.78   9
  -3   3   0 149086. 3407.40   4
  -3   3   0 145428. 3866.82  16
  -3   3   1 28459.7 1041.26   7
  -3   3   1 26430.6 1470.39   6
  -3   3   1 30383.9 955.650   4
  -3   3   1 27595.7 1484.95  13
  -3   3   1 28205.0 1522.75  12
  -3   3   1 26478.6 1311.31  16
  -3   3   2 59482.0 1641.48   7
  -3   3   2 60316.1 2386.98  13
  -3   3   2 59394.0 2120.34  16
  -3   3   2 62334.3 1617.47   4
  -3   3   2 54423.9 2290.67   6
  -3   3   2 57285.3 2352.18  12
  -3   3   3 321559. 7285.50  16
  -3   3   3 317238. 6558.67   7
  -3   3   3 294383. 7556.85   6
  -3   3   3 308396. 7704.29  13
  -3   3   3 305509. 7602.18   8
  -3   3   3 321857. 7772.45  12
  -3   3   3 315472. 6642.67   4
  -3   3   4 195193. 4307.02   7
  -3   3   4 188078. 4953.89  16
  -3   3   4 183818. 5289.93   8
  -3   3   4 180974. 5352.07  13
  -3   3   4 181904. 5230.74   6
  -3   3   4 176532. 5310.02  12
  -3   3   5 10262.1 1121.34  12
  -3   3   5 8449.42 1004.18   6
  -3   3   5 7740.13 953.004   8
  -3   3   5 9658.12 677.889   7
  -3   3   5 9063.65 941.758  16
  -3   3   5 10458.2 1153.02  13
  -3   3   6 1701.61 547.205  16
  -3   3   6 1298.77 583.027  13
  -3   3   6 2107.71 408.385   7
  -3   3   6 892.495 439.870   8
  -3   3   6 1544.59 655.847  12
  -3   3   7 49630.6 2759.43  12
  -3   3   7 55835.5 2883.06  13
  -3   3   7 55025.0 2821.90   8
  -3   3   7 52049.4 2565.31  16
  -3   3   8 56369.1 3094.60  13
  -3   3   8 58749.9 3121.61  12
  -3   3   8 61592.2 3177.30   8
  -3   3   9 2381.26 817.444   8
  -3   3   9 3327.56 979.475  13
  -3   3   9 4279.42 983.233  12
  -3   3  10 5785.82 1153.84  13
  -3   3  10 7757.21 1218.90  12
  -3   3  11 31737.8 2612.74  13
  -3   3  11 28648.9 2541.45   8
  -3   3  11 26222.3 2396.63  12
  -3   4 -11 7429.37 1267.41  10
  -3   4 -11 7084.73 1199.48   4
  -3   4 -10 24473.0 2087.73  10
  -3   4 -10 26994.1 2294.29   4
  -3   4  -9 47906.9 2950.37   4
  -3   4  -9 43437.0 2784.79  10
  -3   4  -8 9394.64 1058.41  13
  -3   4  -8 9556.57 1205.95   6
  -3   4  -8 10601.6 1121.19  14
  -3   4  -8 9319.70 1022.72  12
  -3   4  -8 8977.36 1247.81   4
  -3   4  -8 9437.45 1030.37  20
  -3   4  -8 8369.89 1003.28  15
  -3   4  -8 10934.5 1215.66  10
  -3   4  -8 9513.88 1098.93   1
  -3   4  -7 14648.5 1289.81   1
  -3   4  -7 15910.8 1328.52  20
  -3   4  -7 13691.8 1247.92  12
  -3   4  -7 15259.2 1413.48  10
  -3   4  -7 16234.6 1568.00   6
  -3   4  -7 15320.0 1488.58   4
  -3   4  -7 14793.2 1267.55  14
  -3   4  -7 14848.1 1268.65  15
  -3   4  -7 16037.5 1290.31  13
  -3   4  -6 213891. 5720.57   1
  -3   4  -6 194828. 6021.07   4
  -3   4  -6 203032. 6166.68   6
  -3   4  -6 204745. 5741.22  12
  -3   4  -6 203234. 5735.57  20
  -3   4  -6 209739. 5773.30  15
  -3   4  -6 209722. 5758.23  13
  -3   4  -6 217741. 5813.53  14
  -3   4  -6 195632. 5931.08  10
  -3   4  -5 125521. 3988.96   1
  -3   4  -5 131973. 4282.31   4
  -3   4  -5 133179. 4115.22  15
  -3   4  -5 121416. 4042.64  10
  -3   4  -5 129262. 4033.41  14
  -3   4  -5 127651. 4367.59   6
  -3   4  -5 130723. 4081.92  12
  -3   4  -5 135639. 4098.41  13
  -3   4  -4 10738.8 978.531  14
  -3   4  -4 9532.96 940.764  12
  -3   4  -4 9810.54 971.478  15
  -3   4  -4 10775.3 1028.28   1
  -3   4  -4 10501.5 959.387  13
  -3   4  -4 10440.7 1101.96   6
  -3   4  -4 10187.4 996.975   4
  -3   4  -4 8579.55 820.383  10
  -3   4  -3 20878.0 1345.99  16
  -3   4  -3 23945.7 1411.84  14
  -3   4  -3 21528.2 1379.80  12
  -3   4  -3 22012.2 1401.68   1
  -3   4  -3 23522.8 1363.80   4
  -3   4  -3 22540.7 1180.10  10
  -3   4  -3 21823.1 1372.29  15
  -3   4  -3 26087.2 1623.06   6
  -3   4  -3 21505.5 1359.32  13
  -3   4  -2 79941.2 2700.09  16
  -3   4  -2 84758.3 3045.38   6
  -3   4  -2 81513.9 2876.03  13
  -3   4  -2 86588.3 2973.86   1
  -3   4  -2 81995.1 2866.87  14
  -3   4  -2 78624.5 2605.64   4
  -3   4  -2 81944.4 2865.95  12
  -3   4  -2 84095.9 2305.03  10
  -3   4  -1 166345. 4637.95  12
  -3   4  -1 168487. 3505.08  10
  -3   4  -1 160309. 4278.97  16
  -3   4  -1 169976. 4668.19  13
  -3   4  -1 160869. 4139.69   4
  -3   4  -1 162871. 4648.35   1
  -3   4  -1 169370. 4667.14  14
  -3   4  -1 164203. 4736.37   6
  -3   4  -1 163189. 3651.23   9
  -3   4  -1 164932. 4236.97   7
  -3   4   0 41874.2 1970.48  13
  -3   4   0 42591.1 1614.20   7
  -3   4   0 43772.4 2002.36  12
  -3   4   0 43890.9 2043.24   6
  -3   4   0 45424.3 2027.81  14
  -3   4   0 44010.2 1721.14  16
  -3   4   1 24927.3 1235.04  16
  -3   4   1 26688.7 1138.10   7
  -3   4   1 21604.7 1437.48  14
  -3   4   1 23626.1 1481.73  13
  -3   4   1 26137.8 1529.41  12
  -3   4   1 22095.2 1437.19   6
  -3   4   2 52538.7 1957.77  16
  -3   4   2 53875.3 2401.81  13
  -3   4   2 56826.6 1789.75   7
  -3   4   2 56824.0 2450.33  12
  -3   4   2 52730.3 2339.09   6
  -3   4   3 80868.8 3197.02  13
  -3   4   3 83739.0 3245.31  12
  -3   4   3 88889.8 2779.47  16
  -3   4   3 83952.3 3142.04   6
  -3   4   3 87404.5 3217.59   8
  -3   4   3 87292.1 2469.95   7
  -3   4   4 125337. 4275.23   8
  -3   4   4 140835. 3562.41   7
  -3   4   4 130254. 4415.87  13
  -3   4   4 128855. 4393.44  12
  -3   4   4 128711. 4257.44   6
  -3   4   4 136934. 3897.28  16
  -3   4   5 22017.6 1702.26  13
  -3   4   5 21836.1 1641.37   8
  -3   4   5 24616.7 1258.35   7
  -3   4   5 21972.0 1614.15   6
  -3   4   5 21444.2 1681.99  12
  -3   4   5 25383.1 1503.34  16
  -3   4   6-13.1661 370.477  16
  -3   4   6 173.098 356.873  13
  -3   4   6-214.009 404.583   6
  -3   4   6 28.2373 408.684  12
  -3   4   6 307.272 421.861   8
  -3   4   6 277.986 183.159   7
  -3   4   7 46366.9 2379.14  16
  -3   4   7 41203.5 2614.04  13
  -3   4   7 50627.9 2817.09  12
  -3   4   7 45915.4 2693.28   8
  -3   4   7 42040.7 2532.42   6
  -3   4   8 63291.9 3399.83  13
  -3   4   8 71500.3 3202.51  16
  -3   4   8 64806.2 3395.54   8
  -3   4   8 60358.0 3346.75  12
  -3   4   9 7749.47 1215.00  13
  -3   4   9 9580.84 1396.96  12
  -3   4   9 8284.67 1317.02   8
  -3   4  10 1892.73 591.638  13
  -3   4  10 894.950 474.599  12
  -3   5 -11 6989.65 1205.94  10
  -3   5 -10 32658.3 2500.66  10
  -3   5 -10 27095.1 2358.51   4
  -3   5  -9 52923.4 2848.21  20
  -3   5  -9 54206.2 2895.01  12
  -3   5  -9 51176.4 2779.15  14
  -3   5  -9 51024.5 3127.68   4
  -3   5  -9 52232.2 3040.29  10
  -3   5  -9 55527.9 2923.44  15
  -3   5  -9 53091.7 2828.23  13
  -3   5  -8 21238.0 1666.32  13
  -3   5  -8 21004.0 1706.86  12
  -3   5  -8 20734.4 1699.70  15
  -3   5  -8 22210.6 1884.53   4
  -3   5  -8 22343.0 1714.27  20
  -3   5  -8 19648.6 1771.02  10
  -3   5  -8 20067.3 1620.21  14
  -3   5  -8 19352.1 1864.31   6
  -3   5  -7 13818.4 1288.35  14
  -3   5  -7 12279.4 1210.59  13
  -3   5  -7 12941.0 1268.32  12
  -3   5  -7 13071.2 1444.11   6
  -3   5  -7 11355.7 1220.13  10
  -3   5  -7 12191.0 1327.37   4
  -3   5  -7 12229.2 1243.10  15
  -3   5  -7 11009.3 1090.32   1
  -3   5  -7 12097.5 1211.24  20
  -3   5  -6 78814.5 3199.92  12
  -3   5  -6 81673.9 3264.14  15
  -3   5  -6 75191.2 3405.83   6
  -3   5  -6 80946.5 3226.46  14
  -3   5  -6 80949.4 3379.72   4
  -3   5  -6 74478.9 3130.49  13
  -3   5  -6 78820.4 2993.75   1
  -3   5  -6 76130.3 3213.56  10
  -3   5  -5 156073. 4806.94  13
  -3   5  -5 157024. 4628.99   1
  -3   5  -5 152857. 4825.91  12
  -3   5  -5 156920. 5112.45   6
  -3   5  -5 164289. 4924.59  15
  -3   5  -5 155778. 4687.64  10
  -3   5  -5 152083. 4767.74  14
  -3   5  -5 155013. 4893.39   4
  -3   5  -4 33431.5 1860.27  15
  -3   5  -4 32425.4 1854.81  14
  -3   5  -4 30011.1 1748.15   4
  -3   5  -4 30868.8 1922.67   6
  -3   5  -4 31662.7 1620.26  10
  -3   5  -4 32407.8 1780.14   1
  -3   5  -4 31220.3 1786.82  13
  -3   5  -4 31452.2 1807.79  12
  -3   5  -3 3827.02 651.090  14
  -3   5  -3 5444.66 800.507  15
  -3   5  -3 4621.70 697.935  13
  -3   5  -3 3542.73 657.961  12
  -3   5  -3 4202.25 613.065   4
  -3   5  -3 4882.94 713.055   1
  -3   5  -3 4904.30 821.377   6
  -3   5  -3 3016.83 458.306  10
  -3   5  -2 78370.5 2255.81  10
  -3   5  -2 81630.9 2786.83   7
  -3   5  -2 78859.2 2993.66  12
  -3   5  -2 75673.0 2877.63   1
  -3   5  -2 78097.0 2692.86   4
  -3   5  -2 77644.4 2961.70  13
  -3   5  -2 79282.4 2971.96  14
  -3   5  -2 73323.4 3002.55   6
  -3   5  -2 81368.4 2655.29  16
  -3   5  -1 146147. 4519.05   6
  -3   5  -1 148417. 4487.32  13
  -3   5  -1 144844. 4058.97   7
  -3   5  -1 150572. 4533.43  12
  -3   5  -1 142107. 4445.22  14
  -3   5  -1 147701. 4451.29   1
  -3   5  -1 152182. 3959.45  16
  -3   5   0 19435.1 1429.32  12
  -3   5   0 18976.6 1428.23  13
  -3   5   0 20066.9 1163.54   7
  -3   5   0 19413.1 1418.57   6
  -3   5   0 22626.4 1148.36  16
  -3   5   0 18381.0 1395.87  14
  -3   5   1 742.382 293.653  16
  -3   5   1 800.840 394.742  14
  -3   5   1 579.616 477.288  13
  -3   5   1 366.600 246.262   7
  -3   5   1 435.016 356.340   6
  -3   5   1 551.510 436.490  12
  -3   5   2 39511.6 1601.09  16
  -3   5   2 37800.3 1592.45   7
  -3   5   2 37234.4 2078.89  13
  -3   5   2 38101.6 2024.40   6
  -3   5   2 38034.4 2094.22  14
  -3   5   2 41700.0 2171.31  12
  -3   5   3 103171. 3805.19  13
  -3   5   3 102080. 3818.69  12
  -3   5   3 111799. 3157.74  16
  -3   5   3 99793.6 3050.60   7
  -3   5   3 96001.2 3678.83   8
  -3   5   3 106415. 3732.99   6
  -3   5   4 97602.0 3712.50   8
  -3   5   4 85442.4 3594.66  13
  -3   5   4 90237.2 3529.37   6
  -3   5   4 95763.2 2988.64   7
  -3   5   4 98143.2 3066.30  16
  -3   5   4 93958.6 3732.54  12
  -3   5   5 46612.1 2075.31  16
  -3   5   5 46937.0 1980.59   7
  -3   5   5 41313.9 2469.73  13
  -3   5   5 41171.5 2345.92   6
  -3   5   5 44169.3 2517.09   8
  -3   5   5 40440.6 2463.67  12
  -3   5   6 7152.24 913.129  16
  -3   5   6 6030.14 1073.35   8
  -3   5   6 7713.33 1009.29   6
  -3   5   6 5924.68 1069.40  13
  -3   5   6 7575.66 1110.12  12
  -3   5   7 29617.5 2283.57  13
  -3   5   7 32167.7 1963.61  16
  -3   5   7 29194.1 2270.57  12
  -3   5   7 30705.6 2308.44   8
  -3   5   7 27528.6 2097.39   6
  -3   5   8 47777.7 2631.22  16
  -3   5   8 43361.1 2755.16   6
  -3   5   8 45252.2 2966.66  13
  -3   5   8 50008.7 3084.37   8
  -3   5   8 50141.0 3038.64  12
  -3   5   9 15438.0 1743.43   8
  -3   5   9 16570.7 1822.48  12
  -3   5   9 16358.6 1729.54   6
  -3   5   9 14818.6 1818.57  13
  -3   5  10 2953.90 853.427  13
  -3   5  10 4439.75 987.692  12
  -3   5  10 4179.08 893.946   6
  -3   6 -11 18512.9 1907.48  10
  -3   6 -10 18222.6 1730.75  20
  -3   6 -10 18243.1 1739.20  12
  -3   6 -10 20312.3 2078.43   4
  -3   6 -10 18976.6 1758.46  13
  -3   6 -10 19092.0 1762.41  15
  -3   6 -10 17761.8 1699.69  14
  -3   6 -10 18741.1 1830.44  10
  -3   6  -9 33183.3 2319.48  12
  -3   6  -9 36437.7 2558.54   4
  -3   6  -9 32280.0 2302.34  14
  -3   6  -9 27926.5 2218.68  10
  -3   6  -9 32980.3 2293.07  20
  -3   6  -9 31122.0 2259.60  15
  -3   6  -9 26685.1 2189.09  13
  -3   6  -9 31116.0 2519.29   6
  -3   6  -8 8993.79 1185.74  15
  -3   6  -8 7231.59 1030.24  13
  -3   6  -8 9996.83 1246.37   4
  -3   6  -8 8960.18 1124.41  10
  -3   6  -8 7667.84 1078.29  12
  -3   6  -8 8683.16 1135.28  14
  -3   6  -8 9268.67 1211.42  20
  -3   6  -8 10878.2 1396.21   6
  -3   6  -7 14721.6 1551.16   6
  -3   6  -7 14287.6 1434.59  15
  -3   6  -7 15269.4 1464.50  10
  -3   6  -7 12744.4 1399.55  12
  -3   6  -7 15004.1 1257.09   1
  -3   6  -7 14558.9 1406.42  14
  -3   6  -7 14076.5 1378.12  13
  -3   6  -7 12996.9 1390.97   4
  -3   6  -7 12880.0 1314.24  20
  -3   6  -6 49930.4 2609.84  14
  -3   6  -6 49923.1 2652.36   4
  -3   6  -6 50546.2 2607.27  13
  -3   6  -6 49718.5 2516.42  10
  -3   6  -6 49374.3 2586.67  12
  -3   6  -6 52013.3 2382.56   1
  -3   6  -6 45931.4 2710.85   6
  -3   6  -6 51271.1 2674.00  15
  -3   6  -5 78874.0 3277.05   4
  -3   6  -5 77326.9 3274.77  13
  -3   6  -5 78383.0 3317.59  12
  -3   6  -5 80767.9 3106.22  10
  -3   6  -5 83547.9 3112.44   1
  -3   6  -5 77478.5 3471.10   6
  -3   6  -5 86482.7 3412.65  14
  -3   6  -5 78883.1 3352.02  15
  -3   6  -4 75213.2 3170.49  12
  -3   6  -4 80177.9 2837.48  10
  -3   6  -4 79070.2 3103.20   4
  -3   6  -4 77228.7 3193.52  13
  -3   6  -4 79984.8 3246.95  15
  -3   6  -4 75867.8 3287.81   6
  -3   6  -4 76676.8 2979.03   1
  -3   6  -4 77565.3 3182.96  14
  -3   6  -3 2749.76 578.607   1
  -3   6  -3 2188.60 457.222   4
  -3   6  -3 2365.70 602.866  15
  -3   6  -3 1313.40 484.476  14
  -3   6  -3 2356.56 625.798  13
  -3   6  -3 2302.88 484.371   7
  -3   6  -3 2473.43 623.017   6
  -3   6  -3 2401.78 588.832  12
  -3   6  -2 24796.6 1498.82   7
  -3   6  -2 23334.6 1584.92   1
  -3   6  -2 25929.6 1709.45  13
  -3   6  -2 23489.7 1648.01   6
  -3   6  -2 21537.4 1587.93  12
  -3   6  -2 21733.3 1569.31  14
  -3   6  -1 124862. 4243.42  14
  -3   6  -1 121488. 4194.82  12
  -3   6  -1 124140. 4216.78  13
  -3   6  -1 120724. 4172.57   6
  -3   6  -1 123414. 3821.86   7
  -3   6  -1 134122. 3495.52  16
  -3   6   0 31847.7 1912.98  12
  -3   6   0 29993.5 1892.11  13
  -3   6   0 26221.7 1482.01   7
  -3   6   0 27373.2 1747.49   6
  -3   6   0 26041.1 1783.13  14
  -3   6   0 30414.1 1322.56  16
  -3   6   1 4238.35 767.406  12
  -3   6   1 7332.51 988.290  14
  -3   6   1 4409.91 820.560  13
  -3   6   1 4999.61 631.817   7
  -3   6   1 4551.32 755.087   6
  -3   6   1 5186.66 544.110  16
  -3   6   2 28993.2 1972.60  12
  -3   6   2 31488.8 2023.98  13
  -3   6   2 29997.3 1963.99  14
  -3   6   2 26430.1 1454.09   7
  -3   6   2 27890.2 1858.27   6
  -3   6   2 30476.3 1348.53  16
  -3   6   3 124479. 4468.83  14
  -3   6   3 125965. 3450.29  16
  -3   6   3 119871. 3717.35   7
  -3   6   3 113852. 4160.96   6
  -3   6   3 126883. 4493.62  13
  -3   6   3 121278. 4445.35  12
  -3   6   4 109317. 4037.72   6
  -3   6   4 104771. 4114.30   8
  -3   6   4 109617. 3505.17   7
  -3   6   4 104195. 4155.74  13
  -3   6   4 99304.3 4079.97  12
  -3   6   5 17623.3 1645.41   8
  -3   6   5 14618.0 1423.56   6
  -3   6   5 13104.6 1514.79  13
  -3   6   5 14751.0 1515.10  12
  -3   6   6 11506.5 1464.75  12
  -3   6   6 9539.64 1303.80  13
  -3   6   6 11778.9 1352.77   6
  -3   6   6 12463.2 1430.06   8
  -3   6   7 36824.3 2474.90   6
  -3   6   7 37826.8 2646.21   8
  -3   6   7 31648.0 2410.73  12
  -3   6   7 34244.5 2574.91  13
  -3   6   8 37160.3 2788.46   8
  -3   6   8 36753.5 2738.13  13
  -3   6   8 35202.2 2504.43   6
  -3   6   8 41531.3 2893.53  12
  -3   6   9 16744.0 1830.86   6
  -3   6   9 22458.8 2209.02  13
  -3   6   9 19188.6 2157.54  12
  -3   7 -10 22341.3 1956.20  14
  -3   7 -10 21178.3 1970.65  12
  -3   7 -10 22838.3 2135.95  15
  -3   7 -10 20616.2 1917.62  20
  -3   7 -10 22549.6 2011.84  13
  -3   7 -10 21984.6 2165.24   4
  -3   7  -9 20542.9 1824.38  15
  -3   7  -9 20040.1 1817.03  14
  -3   7  -9 18258.6 1839.27  12
  -3   7  -9 19550.0 1830.59  13
  -3   7  -9 18836.6 1826.98  20
  -3   7  -9 16988.0 1946.29   6
  -3   7  -9 17018.7 1844.29   4
  -3   7  -8 9987.45 1392.83   6
  -3   7  -8 15102.6 1518.26  15
  -3   7  -8 10505.4 1319.18   4
  -3   7  -8 9465.30 1276.80  20
  -3   7  -8 10520.8 1271.95  13
  -3   7  -8 11535.7 1332.95  14
  -3   7  -8 12618.8 1410.13  12
  -3   7  -7 9509.83 1222.77  15
  -3   7  -7 13641.1 1464.48  12
  -3   7  -7 11311.3 1282.56  20
  -3   7  -7 11651.2 1340.65  13
  -3   7  -7 8543.55 1254.59   6
  -3   7  -7 10811.9 1297.83   4
  -3   7  -7 11884.4 1359.96  14
  -3   7  -6 33684.8 1937.20   1
  -3   7  -6 34257.5 2240.93  14
  -3   7  -6 31536.0 2196.85  15
  -3   7  -6 30236.2 2135.51  12
  -3   7  -6 30754.1 2154.46  13
  -3   7  -6 31813.1 2266.28   6
  -3   7  -6 31766.5 2133.95   4
  -3   7  -5 60553.7 3116.77   6
  -3   7  -5 60515.3 2690.85   1
  -3   7  -5 61390.3 3016.57  13
  -3   7  -5 63573.9 3056.57  14
  -3   7  -5 61552.5 3049.05  15
  -3   7  -5 58922.3 2886.42   4
  -3   7  -5 62554.1 3062.44  12
  -3   7  -4 40356.9 2355.73  12
  -3   7  -4 39083.8 2319.21  15
  -3   7  -4 40474.8 2265.91   7
  -3   7  -4 35817.4 2116.47   4
  -3   7  -4 38366.3 2275.06  14
  -3   7  -4 36309.5 2049.90   1
  -3   7  -4 37262.7 2255.99  13
  -3   7  -4 39779.2 2388.54   6
  -3   7  -3 17630.5 1513.77  12
  -3   7  -3 15640.7 1466.76  15
  -3   7  -3 19170.8 1620.85  13
  -3   7  -3 17204.5 1419.50   7
  -3   7  -3 16945.7 1335.46   4
  -3   7  -3 19767.0 1518.16   1
  -3   7  -3 16733.5 1554.92   6
  -3   7  -3 17092.4 1512.88  14
  -3   7  -2 35048.9 2132.31  14
  -3   7  -2 37618.9 2208.81  12
  -3   7  -2 34471.8 2167.83   6
  -3   7  -2 37484.8 2229.24  15
  -3   7  -2 35457.9 2155.23  13
  -3   7  -2 38528.7 2053.07   7
  -3   7  -1 113060. 3761.65   7
  -3   7  -1 109535. 4038.31   6
  -3   7  -1 112516. 4155.24  12
  -3   7  -1 109995. 4135.73  13
  -3   7  -1 109385. 4114.17  14
  -3   7   0 65596.1 3070.40  13
  -3   7   0 67552.4 2983.41   6
  -3   7   0 68618.5 2730.43   7
  -3   7   0 66302.3 3061.86  14
  -3   7   0 66954.1 3088.46  12
  -3   7   1 10058.9 1193.58  14
  -3   7   1 9005.49 1126.34  13
  -3   7   1 8681.27 858.617   7
  -3   7   1 9818.52 1090.92   6
  -3   7   1 10011.8 1157.13  12
  -3   7   2 10787.2 1255.51  13
  -3   7   2 10451.5 1233.19  12
  -3   7   2 11733.3 1006.11   7
  -3   7   2 11658.9 1301.95  14
  -3   7   2 11768.3 1192.95   6
  -3   7   3 56038.3 2956.76  14
  -3   7   3 56489.5 2804.61   6
  -3   7   3 56471.5 2975.85  13
  -3   7   3 52558.6 2410.98   7
  -3   7   3 52764.7 2903.54  12
  -3   7   4 75644.8 3632.14  14
  -3   7   4 76937.6 3602.88  13
  -3   7   4 75578.0 3397.24   6
  -3   7   4 75416.3 3601.95  12
  -3   7   4 74983.5 3594.98   8
  -3   7   5 15614.7 1681.89  12
  -3   7   5 17611.2 1749.50   8
  -3   7   5 13897.5 1662.45  13
  -3   7   5 13283.8 1385.95   6
  -3   7   5 14963.9 1666.86  14
  -3   7   6 9066.62 1278.87   8
  -3   7   6 5816.85 1138.58  13
  -3   7   6 8980.88 1238.79   6
  -3   7   6 6072.41 1162.47  12
  -3   7   6 6082.72 1099.35  14
  -3   7   7 28946.6 2425.03   8
  -3   7   7 32411.1 2529.79  12
  -3   7   7 29367.8 2521.99  13
  -3   7   7 28298.3 2325.49   6
  -3   7   8 26262.0 2352.28  13
  -3   7   8 26802.4 2313.25   6
  -3   7   8 28631.8 2503.89  12
  -3   8  -9 35622.7 2670.10  14
  -3   8  -9 34293.7 2609.25   4
  -3   8  -9 33243.9 2533.03  12
  -3   8  -9 29647.0 2491.69  15
  -3   8  -9 32297.1 2620.02  20
  -3   8  -9 36666.4 2645.90  13
  -3   8  -8 9379.47 1246.92  12
  -3   8  -8 9849.51 1391.68  13
  -3   8  -8 9779.06 1373.60  15
  -3   8  -8 11643.2 1418.72  14
  -3   8  -8 8404.94 1352.38   6
  -3   8  -8 10859.2 1432.42   4
  -3   8  -8 10852.5 1367.36  20
  -3   8  -7 9971.66 1254.46  15
  -3   8  -7 11918.3 1449.22  14
  -3   8  -7 14037.2 1470.38   4
  -3   8  -7 12353.3 1528.15  13
  -3   8  -7 12800.0 1519.27  12
  -3   8  -7 11333.6 1408.16  20
  -3   8  -7 12238.8 1480.13   6
  -3   8  -6 18504.5 1782.02   6
  -3   8  -6 15228.6 1545.36   4
  -3   8  -6 17956.6 1683.80  12
  -3   8  -6 17289.9 1711.56  15
  -3   8  -6 17801.3 1684.59  14
  -3   8  -6 18346.4 1716.89  13
  -3   8  -5 63657.9 3294.02  15
  -3   8  -5 65526.3 3181.49   4
  -3   8  -5 67211.8 3375.11  12
  -3   8  -5 65034.2 3294.31  13
  -3   8  -5 68164.4 2965.58   1
  -3   8  -5 66378.5 3349.22   6
  -3   8  -5 66430.4 3320.08  14
  -3   8  -5 68763.6 3269.46   7
  -3   8  -4 61870.8 3190.28  15
  -3   8  -4 68492.1 3072.83   4
  -3   8  -4 59854.2 3139.37  13
  -3   8  -4 62343.4 3186.71  12
  -3   8  -4 64974.9 2920.71   1
  -3   8  -4 64297.4 3235.43  14
  -3   8  -4 62187.3 3171.75   6
  -3   8  -4 60557.0 2984.27   7
  -3   8  -3 22103.1 1704.73   1
  -3   8  -3 19868.8 1712.51  14
  -3   8  -3 19690.9 1712.87  12
  -3   8  -3 19330.7 1700.16  15
  -3   8  -3 19498.5 1727.27  13
  -3   8  -3 19915.1 1692.37   6
  -3   8  -3 18962.9 1543.44   7
  -3   8  -2 50681.7 2764.51   6
  -3   8  -2 50497.4 2779.50  13
  -3   8  -2 55996.1 2867.24  14
  -3   8  -2 52292.3 2583.38   7
  -3   8  -2 48617.3 2738.35  15
  -3   8  -2 48811.8 2716.05  12
  -3   8  -1 62492.6 3113.05  14
  -3   8  -1 56640.9 2979.05  13
  -3   8  -1 62753.4 3022.68   6
  -3   8  -1 62951.6 3096.25  12
  -3   8  -1 60397.6 2771.93   7
  -3   8   0 38762.7 2289.11   6
  -3   8   0 36722.3 2375.13  14
  -3   8   0 33636.0 2281.61  12
  -3   8   0 34941.3 2316.25  13
  -3   8   0 36592.0 2061.86   7
  -3   8   1 6996.26 1031.38  12
  -3   8   1 5518.63 998.417  14
  -3   8   1 5961.32 984.356  13
  -3   8   1 5931.61 768.119   7
  -3   8   1 4252.24 863.798   6
  -3   8   2 678.178 524.106   6
  -3   8   2 1154.04 573.860  14
  -3   8   2 1698.89 624.766  13
  -3   8   2 2434.95 517.068   7
  -3   8   2 2266.47 642.334  12
  -3   8   3 41202.9 2696.51  13
  -3   8   3 38440.2 2438.13   6
  -3   8   3 44479.5 2736.60  12
  -3   8   3 42115.0 2669.32  14
  -3   8   4 47619.1 2963.88  12
  -3   8   4 47787.2 2930.63  13
  -3   8   4 48211.4 2967.90  14
  -3   8   4 47878.2 2743.26   6
  -3   8   5 9927.24 1452.57   8
  -3   8   5 8399.38 1317.86  13
  -3   8   5 9147.26 1440.30  14
  -3   8   5 8904.81 1414.22  12
  -3   8   5 10555.5 1379.16   6
  -3   8   6 3119.45 910.979  12
  -3   8   6 6859.79 1320.83   8
  -3   8   6 4373.11 912.959  14
  -3   8   6 3703.65 888.744   6
  -3   8   6 5592.46 1093.71  13
  -3   8   7 9436.03 1461.80   6
  -3   9  -8 18919.5 1975.98  14
  -3   9  -8 21902.2 2049.69   4
  -3   9  -8 18759.9 1974.48  12
  -3   9  -8 20816.6 2054.51  15
  -3   9  -8 21673.5 2019.60  20
  -3   9  -8 24232.7 2206.89  13
  -3   9  -7 9695.68 1298.42  15
  -3   9  -7 6845.62 1240.78  14
  -3   9  -7 9794.40 1338.83   4
  -3   9  -7 7540.67 1138.15  12
  -3   9  -7 10192.3 1346.36  13
  -3   9  -7 9877.66 1460.42   6
  -3   9  -7 6822.90 1203.55  20
  -3   9  -6 20485.9 1901.73  13
  -3   9  -6 23224.2 1942.98   4
  -3   9  -6 22725.7 2000.16  12
  -3   9  -6 22434.0 2046.35  14
  -3   9  -6 23136.4 2051.38   6
  -3   9  -6 24151.3 2202.19  15
  -3   9  -5 40889.2 2720.83   6
  -3   9  -5 41176.1 2593.18   7
  -3   9  -5 42996.3 2830.55  13
  -3   9  -5 44842.9 2622.71   4
  -3   9  -5 39431.0 2716.61  14
  -3   9  -5 43031.5 2837.69  15
  -3   9  -5 40597.0 2713.46  12
  -3   9  -4 38750.1 2637.86  12
  -3   9  -4 39779.2 2359.78   1
  -3   9  -4 40428.0 2717.68  13
  -3   9  -4 41646.5 2761.29  15
  -3   9  -4 43596.5 2550.72   4
  -3   9  -4 36957.7 2616.38  14
  -3   9  -4 42240.7 2551.44   7
  -3   9  -4 44582.7 2729.22   6
  -3   9  -3 18254.4 1764.96  14
  -3   9  -3 16671.7 1592.64   6
  -3   9  -3 15042.3 1616.86  15
  -3   9  -3 15969.2 1639.65  12
  -3   9  -3 16932.2 1564.98   7
  -3   9  -3 16697.3 1606.42   1
  -3   9  -3 17855.4 1764.04  13
  -3   9  -2 10176.2 1312.28   6
  -3   9  -2 10730.3 1344.12  13
  -3   9  -2 11335.6 1291.55  15
  -3   9  -2 10045.8 1225.54   7
  -3   9  -2 13119.0 1462.48  12
  -3   9  -2 12664.4 1432.85  14
  -3   9  -1 33812.8 2443.44  14
  -3   9  -1 31911.0 2082.48   7
  -3   9  -1 31233.2 2327.25  15
  -3   9  -1 35382.4 2323.36   6
  -3   9  -1 29217.4 2274.40  12
  -3   9  -1 31301.6 2323.74  13
  -3   9   0 36577.0 2351.20   6
  -3   9   0 32756.5 2098.48   7
  -3   9   0 28748.5 2331.00  13
  -3   9   0 36813.7 2530.19  14
  -3   9   0 37534.0 2513.56  12
  -3   9   1 11141.4 1469.59  14
  -3   9   1 7395.56 1127.79   6
  -3   9   1 9149.59 1031.96   7
  -3   9   1 8171.94 1116.57  12
  -3   9   1 8661.53 1306.90  13
  -3   9   2 3869.41 809.915   6
  -3   9   2 3111.29 784.882  12
  -3   9   2 2794.51 679.114  14
  -3   9   2 2911.61 796.921  13
  -3   9   3 21680.7 1890.40   6
  -3   9   3 21809.3 2062.10  12
  -3   9   3 21082.7 2019.33  14
  -3   9   3 20927.6 2041.52  13
  -3   9   4 31734.1 2569.10  13
  -3   9   4 31996.9 2417.49   6
  -3   9   4 33948.9 2635.12  12
  -3   9   4 31844.6 2576.11  14
  -3   9   5 6170.79 1219.65  14
  -3   9   5 6387.36 961.285   6
  -3   9   6 5237.23 1076.06   6
  -3  10  -7 5619.67 1144.72   4
  -3  10  -6 7668.48 1402.26   6
  -3  10  -6 5333.17 966.032   4
  -3  10  -5 29288.0 2476.85  15
  -3  10  -5 26649.5 2081.78   4
  -3  10  -5 25041.1 2207.94   6
  -3  10  -5 24532.4 2176.42  14
  -3  10  -5 28069.1 2421.23  13
  -3  10  -5 25109.4 2249.70  12
  -3  10  -5 24030.5 2029.20   7
  -3  10  -4 12055.8 1383.08   4
  -3  10  -4 11504.0 1513.19  13
  -3  10  -4 10862.2 1359.09   7
  -3  10  -4 11445.2 1498.99   6
  -3  10  -4 10455.4 1430.82  15
  -3  10  -4 13020.0 1486.07  12
  -3  10  -4 11581.3 1468.24  14
  -3  10  -3 13360.0 1495.05   1
  -3  10  -3 14414.6 1643.14  14
  -3  10  -3 15194.7 1715.87  15
  -3  10  -3 14698.4 1645.76  12
  -3  10  -3 12483.2 1442.85   7
  -3  10  -3 13416.4 1521.89   6
  -3  10  -3 15763.3 1709.80  13
  -3  10  -2 21576.4 1965.13  14
  -3  10  -2 22900.3 2024.27  12
  -3  10  -2 18461.7 1710.70   7
  -3  10  -2 20078.4 1983.97  13
  -3  10  -2 21838.5 1999.80   6
  -3  10  -2 20479.5 2058.43  15
  -3  10  -1 20746.1 2048.73  14
  -3  10  -1 23576.0 1851.64   7
  -3  10  -1 21541.9 1999.08  15
  -3  10  -1 18886.0 1838.37   6
  -3  10  -1 20709.0 2003.14  13
  -3  10  -1 20415.7 2011.09  12
  -3  10   0 44473.3 2927.99  12
  -3  10   0 44120.6 2876.50  15
  -3  10   0 40359.9 2832.05  14
  -3  10   0 39370.4 2683.08   6
  -3  10   0 40572.9 2540.07   7
  -3  10   0 38112.1 2811.69  13
  -3  10   1 14164.5 1795.66  14
  -3  10   1 11976.2 1587.85  13
  -3  10   1 15129.2 1641.48   6
  -3  10   1 14420.7 1759.78  12
  -3  10   2 3197.12 740.310  12
  -3  10   2 1432.15 810.677  14
  -3  10   2 3269.93 922.185  13
  -3  10   2 1563.49 740.300   6
  -3  10   3 13510.8 1667.58   6
  -3  10   4 18794.0 1933.54   6
  -3  11  -5 21394.4 1988.73   4
  -3  11  -4 27387.0 2336.06   7
  -3  11  -4 27320.8 2298.16   6
  -3  11  -3 10226.9 1452.79   6
  -3  11  -3 12892.6 1433.96   7
  -3  11  -2 14800.2 1723.28   6
  -3  11  -2 20229.4 1884.48   7
  -3  11  -1 24990.0 2091.30   6
  -3  11   0 18881.8 1929.12   6
  -2 -11   1 1211.60 553.487  11
  -2 -11   2 5927.79 1082.97   2
  -2 -11   2 4654.02 968.905  11
  -2 -11   3 38274.7 2735.81   2
  -2 -11   3 31483.5 2601.97  11
  -2 -11   3 33828.4 2631.91   9
  -2 -11   4 34465.9 2647.51   9
  -2 -11   4 29065.3 2428.14  11
  -2 -11   4 28042.2 2335.54   2
  -2 -11   5 8363.39 1257.33   9
  -2 -11   5 7206.75 1140.50  18
  -2 -11   5 9667.30 1276.41   2
  -2 -11   6 3280.33 872.141  18
  -2 -11   6 3163.13 761.406  19
  -2 -11   7 32692.7 2570.05  19
  -2 -11   7 32541.7 2621.56  18
  -2 -10  -1 35984.3 2966.71  11
  -2 -10  -1 44097.3 3036.35   2
  -2 -10   0 17065.1 1864.07   2
  -2 -10   0 13994.7 1766.91  11
  -2 -10   0 16359.7 1806.84   9
  -2 -10   1 4259.73 1032.14  11
  -2 -10   1 5373.85 933.307   2
  -2 -10   1 6748.17 1141.79   9
  -2 -10   2 5306.89 1046.95   9
  -2 -10   2 3152.96 933.286  11
  -2 -10   2 3801.77 783.588   2
  -2 -10   3 21922.8 2093.99   9
  -2 -10   3 23628.4 2055.32   2
  -2 -10   3 21984.0 1998.44  11
  -2 -10   4 69281.7 3561.34   9
  -2 -10   4 62703.2 3251.19  19
  -2 -10   4 60868.9 3242.60   2
  -2 -10   4 63405.2 3426.77  11
  -2 -10   4 66136.0 3318.12  18
  -2 -10   5 17188.1 1722.10  11
  -2 -10   5 20073.1 1881.95  18
  -2 -10   5 19833.3 1740.61  19
  -2 -10   5 16851.3 1695.39   2
  -2 -10   5 18304.8 1829.25   9
  -2 -10   6 12228.1 1394.56  18
  -2 -10   6 10960.2 1506.42   9
  -2 -10   6 12693.1 1451.76  19
  -2 -10   7 42677.4 2840.65   9
  -2 -10   7 41845.8 2874.91  18
  -2 -10   7 37292.6 2816.34  19
  -2 -10   8 56575.5 3379.60   9
  -2 -10   8 46489.8 3187.64  19
  -2 -10   9 16194.5 1936.44  19
  -2  -9  -4 15229.5 1833.84   2
  -2  -9  -4 12364.7 1624.59  11
  -2  -9  -3 4967.83 1050.21  11
  -2  -9  -3 5759.56 1034.43   2
  -2  -9  -2 22993.8 2134.78   2
  -2  -9  -2 21845.6 2219.44  11
  -2  -9  -1 55226.3 3447.41  11
  -2  -9  -1 64271.1 3500.08   9
  -2  -9  -1 64522.7 3531.25   2
  -2  -9   0 26707.4 2121.01   9
  -2  -9   0 22143.0 2025.82   2
  -2  -9   0 24555.3 2208.36  11
  -2  -9   1 4609.46 990.227   9
  -2  -9   1 3017.30 828.445  11
  -2  -9   1 4488.18 916.582   2
  -2  -9   2 9059.97 1250.90   9
  -2  -9   2 11058.8 1108.57  19
  -2  -9   2 11805.8 1187.42  18
  -2  -9   2 10327.8 1343.99  11
  -2  -9   2 11530.6 1367.75   2
  -2  -9   3 41248.9 2526.90   2
  -2  -9   3 43027.8 2431.94  18
  -2  -9   3 43506.6 2617.43   9
  -2  -9   3 40690.2 2582.20  11
  -2  -9   3 36663.0 2272.43  19
  -2  -9   4 80149.3 3663.97   9
  -2  -9   4 74718.4 3495.71  11
  -2  -9   4 73292.6 3435.40   2
  -2  -9   4 76063.8 3437.90  18
  -2  -9   4 77448.7 3462.73  19
  -2  -9   5 26340.3 2029.33  19
  -2  -9   5 30289.3 2093.71  18
  -2  -9   5 26726.8 1985.10   2
  -2  -9   5 27628.5 2102.17   9
  -2  -9   5 28718.8 2019.13  11
  -2  -9   6 2977.14 712.911  18
  -2  -9   6 2629.84 738.489   9
  -2  -9   6 3547.45 814.994  19
  -2  -9   6 4532.32 817.695  11
  -2  -9   7 32275.9 2402.57  18
  -2  -9   7 34204.1 2482.36  19
  -2  -9   7 36597.2 2504.45   9
  -2  -9   8 50731.1 3043.87   9
  -2  -9   8 54460.7 3254.13  19
  -2  -9   9 21674.0 2026.18   9
  -2  -9   9 24691.5 2192.60  19
  -2  -9  10 4940.47 1103.68  19
  -2  -9  10 5263.11 1054.44   9
  -2  -8  -6 9489.44 1420.50   2
  -2  -8  -6 15014.5 1826.57  11
  -2  -8  -5 36695.0 2848.77   2
  -2  -8  -5 39831.4 2982.15  11
  -2  -8  -4 24750.7 2210.47   2
  -2  -8  -4 31018.0 2537.20  11
  -2  -8  -3 3424.24 755.740  11
  -2  -8  -3 2888.52 760.434   2
  -2  -8  -2 29021.8 2355.08  11
  -2  -8  -2 23329.7 2020.40   2
  -2  -8  -1 75958.7 3623.85   2
  -2  -8  -1 82655.6 3674.70   9
  -2  -8   0 49911.4 2728.92   9
  -2  -8   0 51203.0 2843.77   2
  -2  -8   0 46071.3 2862.31  11
  -2  -8   1 17445.4 1603.34   2
  -2  -8   1 18152.7 1347.22  18
  -2  -8   1 17453.9 1295.76  19
  -2  -8   1 18285.4 1612.77   9
  -2  -8   1 17668.1 1728.36  11
  -2  -8   2 3535.29 837.686   2
  -2  -8   2 3437.78 589.341  19
  -2  -8   2 1785.34 701.101   9
  -2  -8   2 4090.62 609.053  18
  -2  -8   2 3137.38 772.804  11
  -2  -8   3 47232.6 2384.28  19
  -2  -8   3 44592.0 2474.37   2
  -2  -8   3 41829.6 2260.05  18
  -2  -8   3 44938.4 2515.41   9
  -2  -8   3 43729.0 2489.36  11
  -2  -8   4 56239.3 2885.33   9
  -2  -8   4 58685.7 2822.44   2
  -2  -8   4 59776.2 2840.55  18
  -2  -8   4 64089.4 2957.46  11
  -2  -8   4 58985.8 2824.50  19
  -2  -8   5 13627.7 1412.63   9
  -2  -8   5 11085.7 1256.41   2
  -2  -8   5 12914.3 1315.49  19
  -2  -8   5 13763.4 1277.61  11
  -2  -8   5 11540.2 1281.87  18
  -2  -8   6 7128.42 1081.67  18
  -2  -8   6 7720.53 1111.52   9
  -2  -8   6 6727.94 1035.33  19
  -2  -8   6 8039.06 950.114  11
  -2  -8   7 23941.3 1926.53   9
  -2  -8   7 24489.4 1975.31  19
  -2  -8   8 90692.3 4187.17  19
  -2  -8   8 93497.7 4063.54   9
  -2  -8   9 45984.3 2876.15   9
  -2  -8   9 45944.6 2993.68  19
  -2  -8  10 3499.27 825.260  19
  -2  -8  10 1418.32 690.638   9
  -2  -8  11 7491.59 1253.68  19
  -2  -8  11 10717.5 1581.45   9
  -2  -7  -8 13923.6 1670.52  11
  -2  -7  -8 14869.3 1818.67   2
  -2  -7  -7 3840.29 923.727   2
  -2  -7  -7 4473.05 912.406  11
  -2  -7  -7 5165.30 1093.34  10
  -2  -7  -6 9076.41 1336.38   2
  -2  -7  -6 9869.10 1510.38  10
  -2  -7  -6 12477.3 1594.11  11
  -2  -7  -5 34145.6 2520.04  10
  -2  -7  -5 31099.6 2463.28  11
  -2  -7  -5 30504.6 2399.22   2
  -2  -7  -4 21263.3 1940.05   2
  -2  -7  -4 21505.8 1948.06  11
  -2  -7  -3 3526.08 834.274   2
  -2  -7  -3 3758.72 924.634  11
  -2  -7  -2 31522.6 2186.14   9
  -2  -7  -2 33118.5 2248.89   2
  -2  -7  -2 27352.6 2177.96  11
  -2  -7  -1 114971. 4179.32   9
  -2  -7  -1 102062. 4305.32  11
  -2  -7  -1 104375. 4167.16   2
  -2  -7   0 62341.6 2376.57  18
  -2  -7   0 63790.6 2381.26  19
  -2  -7   0 64997.8 2956.88   9
  -2  -7   0 63803.4 3157.84  11
  -2  -7   0 63421.7 3009.12   2
  -2  -7   1 7250.03 956.014   2
  -2  -7   1 8550.84 1071.74   9
  -2  -7   1 7009.62 769.140  19
  -2  -7   1 7854.86 825.545  18
  -2  -7   1 7164.63 1048.16  11
  -2  -7   1 6602.35 612.919  16
  -2  -7   2 2445.02 338.230  16
  -2  -7   2 1234.07 469.411   2
  -2  -7   2 1468.65 594.971  11
  -2  -7   2 2628.23 533.406  19
  -2  -7   2 2931.44 716.404   9
  -2  -7   2 2595.09 538.047  18
  -2  -7   3 37059.4 2125.04   2
  -2  -7   3 37149.5 1534.66  16
  -2  -7   3 40290.7 2233.13  11
  -2  -7   3 38303.8 2005.35  18
  -2  -7   3 37836.3 1990.30  19
  -2  -7   3 35000.4 2069.30   9
  -2  -7   4 87914.4 3411.79   9
  -2  -7   4 88268.6 3383.40  18
  -2  -7   4 85010.6 2681.32  16
  -2  -7   4 85907.2 3300.62  11
  -2  -7   4 81246.7 3239.55  19
  -2  -7   4 79515.7 3200.68   2
  -2  -7   5 28159.5 1449.01  16
  -2  -7   5 29447.2 1932.19   9
  -2  -7   5 28838.3 1743.93  11
  -2  -7   5 27442.3 1871.77  19
  -2  -7   5 28887.8 1890.42  18
  -2  -7   6 16627.7 1173.75  16
  -2  -7   6 15113.6 1431.00  19
  -2  -7   6 15940.9 1477.86  18
  -2  -7   6 14218.9 1377.85   9
  -2  -7   6 13770.9 1154.61  11
  -2  -7   7 35128.2 1845.61  16
  -2  -7   7 35212.0 2284.61  19
  -2  -7   7 34960.5 2216.86   9
  -2  -7   7 33344.8 1743.84  11
  -2  -7   8 83938.9 3283.03  16
  -2  -7   8 89949.8 3836.88   9
  -2  -7   8 81373.3 3858.56  19
  -2  -7   9 92573.2 3645.55  16
  -2  -7   9 93229.0 4263.94  19
  -2  -7   9 97073.4 4098.53   9
  -2  -7  10 6668.18 1186.34  19
  -2  -7  10 4947.35 1134.42   9
  -2  -7  11 7073.99 1377.99  19
  -2  -7  11 6236.80 1218.18   9
  -2  -7  12 50382.3 3311.79   9
  -2  -6  -8 10131.9 1484.07  10
  -2  -6  -8 12759.6 1474.25  11
  -2  -6  -8 13198.0 1585.39   2
  -2  -6  -7 3556.94 828.792   2
  -2  -6  -7 3950.12 864.607  11
  -2  -6  -7 4289.04 868.807  10
  -2  -6  -6 2814.11 704.257   2
  -2  -6  -6 5848.93 1037.93  11
  -2  -6  -6 5020.98 937.241  10
  -2  -6  -5 44012.2 2689.08  10
  -2  -6  -5 43347.7 2666.54   2
  -2  -6  -5 47983.6 2880.90  11
  -2  -6  -4 33198.5 2184.94  10
  -2  -6  -4 30146.3 2150.00   2
  -2  -6  -4 27344.4 2159.80  11
  -2  -6  -3 4964.21 914.195  10
  -2  -6  -3 5117.81 963.933  11
  -2  -6  -3 5806.97 917.357   2
  -2  -6  -2 21131.0 1669.62   2
  -2  -6  -2 18772.8 1592.39   9
  -2  -6  -2 22466.5 1853.37  11
  -2  -6  -1 76996.6 3144.33   9
  -2  -6  -1 80594.8 2462.60  19
  -2  -6  -1 82693.4 2479.16  18
  -2  -6  -1 82435.7 3338.52   2
  -2  -6  -1 74795.4 2577.95  16
  -2  -6  -1 78243.3 3426.52  11
  -2  -6   0 133676. 3719.26  18
  -2  -6   0 139582. 4729.29  11
  -2  -6   0 151205. 4526.08   9
  -2  -6   0 136614. 4502.19   2
  -2  -6   0 139455. 3713.30  16
  -2  -6   0 134130. 3720.53  19
  -2  -6   1 12384.2 927.673  18
  -2  -6   1 12281.7 1199.17   2
  -2  -6   1 12849.5 830.154  16
  -2  -6   1 10004.0 1138.59  11
  -2  -6   1 14240.1 1208.48   9
  -2  -6   1 11598.2 902.590  19
  -2  -6   2 7601.32 652.267  16
  -2  -6   2 8618.91 1029.09   9
  -2  -6   2 7931.50 835.018  18
  -2  -6   2 8785.58 1011.29  11
  -2  -6   2 9152.69 1037.44   2
  -2  -6   2 8760.73 852.368  19
  -2  -6   3 143832. 3827.69  16
  -2  -6   3 143545. 4456.91   9
  -2  -6   3 146780. 4314.95  18
  -2  -6   3 145833. 4484.45  11
  -2  -6   3 145429. 4291.74  19
  -2  -6   3 146580. 4455.37   2
  -2  -6   4 100732. 3037.56  16
  -2  -6   4 99141.8 3435.90   2
  -2  -6   4 98851.9 3495.54  18
  -2  -6   4 105209. 3573.96  19
  -2  -6   4 99832.0 3406.10  11
  -2  -6   4 99954.4 3548.61   9
  -2  -6   5 36610.7 1710.34  16
  -2  -6   5 39901.4 2126.33  19
  -2  -6   5 36975.6 1830.08  11
  -2  -6   5 41568.0 2174.98  18
  -2  -6   5 37505.8 2064.74   9
  -2  -6   6 14645.4 1344.54   9
  -2  -6   6 14367.5 1355.74  19
  -2  -6   6 14451.6 1075.27  11
  -2  -6   6 14886.3 1099.83  16
  -2  -6   7 35463.4 2098.60   9
  -2  -6   7 31506.8 1770.24  16
  -2  -6   7 31234.0 2093.86  19
  -2  -6   8 104837. 4275.00  19
  -2  -6   8 102413. 4081.17   9
  -2  -6   8 106797. 3783.82  16
  -2  -6   9 88003.0 3825.71   9
  -2  -6   9 85861.0 3996.85  19
  -2  -6  10 26199.3 2105.84   9
  -2  -6  10 22947.6 2068.54  19
  -2  -6  11 5474.92 1151.31   9
  -2  -6  11 4376.42 1075.94  19
  -2  -6  12 21689.1 2154.98   9
  -2  -6  12 21282.0 2185.56  19
  -2  -5  -8 16170.6 1778.38  10
  -2  -5  -8 21666.7 2062.34   4
  -2  -5  -8 19474.8 1738.78  11
  -2  -5  -8 17941.2 1643.55   2
  -2  -5  -7 9067.16 1382.20   4
  -2  -5  -7 12048.6 1491.34  10
  -2  -5  -7 11122.4 1357.80  11
  -2  -5  -7 11151.6 1295.90   2
  -2  -5  -6 15516.9 1446.26   2
  -2  -5  -6 15547.4 1632.64   4
  -2  -5  -6 16814.5 1639.37  11
  -2  -5  -6 15661.7 1645.01  10
  -2  -5  -5 32067.2 2225.47   4
  -2  -5  -5 30876.9 2120.14   2
  -2  -5  -5 32336.2 2188.11  11
  -2  -5  -5 35311.7 2250.38  10
  -2  -5  -4 33039.4 2075.78   2
  -2  -5  -4 32075.7 2145.31  11
  -2  -5  -4 35909.5 2116.71  10
  -2  -5  -3 11762.0 1283.90  11
  -2  -5  -3 14713.9 1336.06   2
  -2  -5  -3 13527.7 1266.24  10
  -2  -5  -2 19860.0 884.522  18
  -2  -5  -2 19512.3 1453.85  10
  -2  -5  -2 20531.4 895.763  17
  -2  -5  -2 19117.8 1417.78   9
  -2  -5  -2 21390.0 1657.72  11
  -2  -5  -2 19915.5 886.698  19
  -2  -5  -2 18339.4 1465.88   2
  -2  -5  -1 115799. 4088.09  11
  -2  -5  -1 118524. 3001.99  19
  -2  -5  -1 113582. 3884.78   2
  -2  -5  -1 108098. 3292.13  16
  -2  -5  -1 120298. 3012.75  18
  -2  -5   0 270968. 7064.71   2
  -2  -5   0 276102. 7294.96  11
  -2  -5   0 282301. 6243.06  19
  -2  -5   0 278868. 6967.15   9
  -2  -5   0 282123. 6414.00  16
  -2  -5   0 280012. 6249.40  18
  -2  -5   1 89464.1 3201.91   2
  -2  -5   1 94353.2 2796.45  18
  -2  -5   1 100999. 3448.33  11
  -2  -5   1 95640.2 3201.14   9
  -2  -5   1 96088.8 2749.46  16
  -2  -5   1 92913.3 2782.55  19
  -2  -5   2 8784.52 699.376  16
  -2  -5   2 8022.44 895.002   9
  -2  -5   2 8123.78 365.759   6
  -2  -5   2 8259.41 901.888   2
  -2  -5   2 8614.59 785.234  18
  -2  -5   2 10612.1 825.941  19
  -2  -5   2 8514.67 913.112  11
  -2  -5   3 126994. 3436.24  16
  -2  -5   3 127856. 3884.66   9
  -2  -5   3 124976. 3821.80   2
  -2  -5   3 135518. 3836.94  19
  -2  -5   3 126780. 3849.63  11
  -2  -5   3 120363. 2996.63   6
  -2  -5   3 128405. 3781.27  18
  -2  -5   4 194893. 4861.05  16
  -2  -5   4 189752. 5275.98   9
  -2  -5   4 200182. 5123.63  11
  -2  -5   4 189971. 5285.99  19
  -2  -5   4 188258. 5270.38  18
  -2  -5   5 17935.1 1330.81   9
  -2  -5   5 19085.9 1199.99  16
  -2  -5   5 19594.1 780.480   8
  -2  -5   5 16862.2 1139.00  11
  -2  -5   5 18685.8 1408.03  19
  -2  -5   6 3811.19 616.709  16
  -2  -5   6 3429.25 720.164   9
  -2  -5   6 2368.80 684.235  19
  -2  -5   6 3037.83 428.743   8
  -2  -5   7 38570.1 2260.23  19
  -2  -5   7 36876.1 2118.28   9
  -2  -5   7 38635.8 1692.65   8
  -2  -5   8 139264. 4679.57   9
  -2  -5   8 131286. 4041.63   8
  -2  -5   8 129674. 4799.68  19
  -2  -5   9 64025.3 3354.15  19
  -2  -5   9 62782.0 3124.08   9
  -2  -5  10 13826.8 1568.02  19
  -2  -5  10 10956.0 1430.47   9
  -2  -5  11 10189.6 1415.45  19
  -2  -5  11 12922.5 1500.32   9
  -2  -5  12 9912.52 1466.49   9
  -2  -5  12 13629.1 1607.20  19
  -2  -4  -9 40903.2 2859.71  10
  -2  -4  -9 36527.2 2798.94   4
  -2  -4  -8 41833.4 2426.39   2
  -2  -4  -8 39734.4 2770.88   4
  -2  -4  -8 38413.8 2727.79  10
  -2  -4  -8 40925.9 2499.62  11
  -2  -4  -7 6518.10 885.076   2
  -2  -4  -7 6333.27 1169.59   4
  -2  -4  -7 7780.59 1014.58  11
  -2  -4  -7 4591.33 1014.68  10
  -2  -4  -6 28847.8 1959.78  11
  -2  -4  -6 31716.8 2164.84   4
  -2  -4  -6 26410.7 2040.55  10
  -2  -4  -5 55868.0 2757.18   4
  -2  -4  -5 59036.9 2795.23  11
  -2  -4  -5 55194.7 2768.43  10
  -2  -4  -4 22986.2 1670.26   4
  -2  -4  -4 24456.0 1716.94  11
  -2  -4  -4 19789.2 1574.72  10
  -2  -4  -4 20700.5 1523.07   2
  -2  -4  -3 54051.6 2481.11   4
  -2  -4  -3 61493.1 2586.71   2
  -2  -4  -3 61299.1 1539.32  18
  -2  -4  -3 56764.4 2661.23  11
  -2  -4  -3 60702.3 2612.57  10
  -2  -4  -3 61157.4 1538.75  17
  -2  -4  -3 58901.6 1530.40  19
  -2  -4  -2 55720.4 2552.22  11
  -2  -4  -2 55845.6 2322.85   9
  -2  -4  -2 60065.5 1521.67  19
  -2  -4  -2 60325.3 2227.97  16
  -2  -4  -2 58042.5 2450.17   2
  -2  -4  -2 59100.7 1560.83  12
  -2  -4  -2 55587.3 2387.54  10
  -2  -4  -2 59408.4 1521.77  18
  -2  -4  -1 116247. 3506.09   9
  -2  -4  -1 115727. 2693.89  13
  -2  -4  -1 116764. 2697.98  19
  -2  -4  -1 114784. 2696.74  18
  -2  -4  -1 105877. 3534.86   2
  -2  -4  -1 108679. 3716.57  11
  -2  -4  -1 114675. 2686.38  12
  -2  -4  -1 112305. 3239.46  16
  -2  -4   0 267099. 6496.71   9
  -2  -4   0 264033. 6161.82  16
  -2  -4   0 267997. 5777.49  14
  -2  -4   0 270824. 6676.61   2
  -2  -4   0 282713. 6892.82  11
  -2  -4   0 273585. 5773.50  12
  -2  -4   0 275805. 5860.26  18
  -2  -4   0 270836. 5772.18  13
  -2  -4   0 267084. 5838.91  19
  -2  -4   1 87821.4 2845.02   9
  -2  -4   1 85781.9 2498.23  19
  -2  -4   1 85595.5 2906.71   2
  -2  -4   1 88740.9 3019.34  11
  -2  -4   1 88484.2 2584.57  16
  -2  -4   1 89745.4 2971.10   1
  -2  -4   1 92648.8 2557.66  18
  -2  -4   2 27447.7 1236.36  16
  -2  -4   2 26253.6 1395.91   9
  -2  -4   2 27511.5 1466.68  11
  -2  -4   2 26549.1 1416.04   2
  -2  -4   2 27136.3 1304.49  18
  -2  -4   2 27142.7 864.707   6
  -2  -4   2 29328.3 1434.42   1
  -2  -4   2 27714.3 1312.53  19
  -2  -4   3 43335.5 1683.09  16
  -2  -4   3 43735.8 1835.02  11
  -2  -4   3 45078.2 1911.90   9
  -2  -4   3 45867.9 1722.09   1
  -2  -4   3 42689.5 1823.03  19
  -2  -4   4 214185. 5554.04   9
  -2  -4   4 210893. 5269.70  16
  -2  -4   4 216167. 5334.16  11
  -2  -4   4 213364. 4996.77   1
  -2  -4   4 217707. 4383.82   8
  -2  -4   4 227099. 5720.82  19
  -2  -4   5 106505. 3476.96   9
  -2  -4   5 105278. 3269.53  16
  -2  -4   5 113342. 3684.76  19
  -2  -4   5 108161. 2731.80   8
  -2  -4   6 5277.91 782.029   9
  -2  -4   6 4661.58 555.851   8
  -2  -4   6 4065.41 686.816  19
  -2  -4   7 16365.7 1458.38  19
  -2  -4   7 15470.1 1094.24   8
  -2  -4   7 16877.5 1386.08   9
  -2  -4   8 138311. 4295.15   8
  -2  -4   8 147510. 5024.60  19
  -2  -4   8 140839. 4713.22   9
  -2  -4   9 64443.4 2818.11   8
  -2  -4   9 62808.2 3202.77  19
  -2  -4   9 61619.2 2993.27   9
  -2  -4  10 12932.7 1486.93  19
  -2  -4  10 12959.8 1338.22   8
  -2  -4  10 11626.1 1396.88   9
  -2  -4  11 17355.7 1786.19  19
  -2  -4  11 13859.4 1413.22   8
  -2  -4  11 15459.0 1656.04   9
  -2  -4  12 45595.7 2803.56   8
  -2  -4  12 42410.6 2907.10   9
  -2  -4  13 42791.3 3108.22   9
  -2  -3 -10 5139.16 1121.39   4
  -2  -3 -10 3354.48 870.088  10
  -2  -3  -9 43732.4 2972.13   4
  -2  -3  -9 43211.8 2920.83  10
  -2  -3  -8 53522.8 3125.74   4
  -2  -3  -8 51003.3 3065.21  10
  -2  -3  -8 61563.3 2829.62  11
  -2  -3  -7 14996.3 1292.55   2
  -2  -3  -7 15369.8 1377.61  11
  -2  -3  -7 14138.8 1554.95   4
  -2  -3  -7 14900.0 1590.19  10
  -2  -3  -6 24491.2 1635.62   2
  -2  -3  -6 29010.3 2000.25   4
  -2  -3  -6 26815.0 1777.30  11
  -2  -3  -6 27002.6 1918.65  10
  -2  -3  -5 93176.6 3667.03   4
  -2  -3  -5 105909. 3698.90  11
  -2  -3  -5 98914.6 3737.51  10
  -2  -3  -5 101777. 3501.71   2
  -2  -3  -4 64750.0 1592.67  18
  -2  -3  -4 61179.8 2515.30   2
  -2  -3  -4 64355.1 2712.01   4
  -2  -3  -4 66012.0 1580.01  17
  -2  -3  -4 65651.3 2728.32  11
  -2  -3  -4 66823.0 2795.51  10
  -2  -3  -4 68505.5 1624.50  19
  -2  -3  -4 64424.2 1580.93  20
  -2  -3  -3 19051.8 1321.08   4
  -2  -3  -3 19900.4 1390.47  11
  -2  -3  -3 20121.7 1384.47  10
  -2  -3  -3 19397.7 1290.25   2
  -2  -3  -2 36234.7 1900.12   1
  -2  -3  -2 35488.3 1818.14  11
  -2  -3  -2 37026.0 1640.61   9
  -2  -3  -2 33027.0 1666.00   4
  -2  -3  -2 37276.4 1640.22  16
  -2  -3  -2 38990.4 1795.95  10
  -2  -3  -2 37392.9 1725.76   2
  -2  -3  -1 73580.8 2495.91   2
  -2  -3  -1 68572.3 2611.11   1
  -2  -3  -1 73848.0 1612.82  13
  -2  -3  -1 70164.6 2449.42  10
  -2  -3  -1 74308.7 2389.36   9
  -2  -3  -1 73733.9 2646.04  11
  -2  -3  -1 75199.3 1612.39  12
  -2  -3  -1 72294.9 2309.45  16
  -2  -3   0 83820.7 2504.91  16
  -2  -3   0 88399.1 2056.18  14
  -2  -3   0 80175.9 2677.31   2
  -2  -3   0 81896.7 2094.88  19
  -2  -3   0 82158.3 2794.87   1
  -2  -3   0 87022.0 2042.74  12
  -2  -3   0 87919.3 2053.72  13
  -2  -3   0 86467.4 2605.52   9
  -2  -3   0 89860.5 2897.34  11
  -2  -3   1 100983. 2814.36  16
  -2  -3   1 100301. 2920.12   9
  -2  -3   1 101510. 2528.87  14
  -2  -3   1 107542. 2570.48  15
  -2  -3   1 104808. 2531.53  12
  -2  -3   1 99089.9 2998.54   1
  -2  -3   1 100714. 3027.05   2
  -2  -3   1 101396. 2175.70   6
  -2  -3   1 104762. 3133.31  11
  -2  -3   1 103312. 2538.43  13
  -2  -3   1 98573.9 2636.04  19
  -2  -3   2 117853. 3120.27  16
  -2  -3   2 115418. 3154.35   1
  -2  -3   2 117445. 3239.71   9
  -2  -3   2 120669. 3344.79  11
  -2  -3   2 109952. 3103.51  19
  -2  -3   3 118486. 3205.70  16
  -2  -3   3 114285. 3012.89   1
  -2  -3   3 116603. 3350.64  19
  -2  -3   3 115954. 3313.32   9
  -2  -3   3 117063. 3270.04  11
  -2  -3   4 121013. 3585.58   9
  -2  -3   4 119914. 3459.46  16
  -2  -3   4 117908. 3669.97  19
  -2  -3   4 124081. 3059.27   1
  -2  -3   5 146650. 4104.26  16
  -2  -3   5 149549. 4419.92  19
  -2  -3   5 146026. 3368.35   1
  -2  -3   5 149229. 3661.49   8
  -2  -3   5 152700. 4269.35   9
  -2  -3   6 1939.32 216.615   1
  -2  -3   6 1134.46 362.449   8
  -2  -3   6 1483.53 590.258  19
  -2  -3   6 1717.25 601.126   9
  -2  -3   7 1078.52 425.871   8
  -2  -3   7 1258.10 595.045   9
  -2  -3   7 1089.34 583.266  19
  -2  -3   8 152474. 5059.33  19
  -2  -3   8 141036. 4501.76   8
  -2  -3   8 153585. 4863.75   9
  -2  -3   9 129467. 4631.80   9
  -2  -3   9 129544. 4798.74  19
  -2  -3   9 132478. 4479.13   8
  -2  -3  10 22678.6 1989.83  19
  -2  -3  10 22257.3 1765.72   8
  -2  -3  11 8667.23 1174.13   8
  -2  -3  12 50740.1 3189.52   9
  -2  -3  12 48926.8 3021.79   8
  -2  -3  13 60330.9 3770.37  12
  -2  -3  13 63336.5 3656.50   8
  -2  -3  13 67695.6 3851.39   9
  -2  -2 -10 174.649 527.133   4
  -2  -2 -10 1510.53 775.912  10
  -2  -2  -9 37922.0 2686.22   4
  -2  -2  -9 42634.3 2804.16  10
  -2  -2  -8 84659.6 3938.11  10
  -2  -2  -8 97527.5 3441.45  11
  -2  -2  -8 86467.3 3966.32   4
  -2  -2  -7 31558.3 2219.72   4
  -2  -2  -7 37988.9 1870.74   2
  -2  -2  -7 34868.3 1910.89  11
  -2  -2  -7 33761.2 2240.21  10
  -2  -2  -6 25897.7 1810.82   4
  -2  -2  -6 25064.3 1794.91  10
  -2  -2  -6 21575.6 1381.23   2
  -2  -2  -6 25760.0 1568.88  11
  -2  -2  -5 43446.7 2226.57   4
  -2  -2  -5 45050.0 1380.37  15
  -2  -2  -5 42079.9 2219.11  10
  -2  -2  -5 46978.1 1390.79  17
  -2  -2  -5 40188.6 1883.28   2
  -2  -2  -5 44902.6 1393.36  18
  -2  -2  -5 41425.0 2019.34  11
  -2  -2  -5 44735.0 1369.54  20
  -2  -2  -4 99170.3 2185.35  15
  -2  -2  -4 95890.3 3449.50   1
  -2  -2  -4 99179.7 2180.38  17
  -2  -2  -4 100005. 2181.91  20
  -2  -2  -4 97478.2 3341.96   4
  -2  -2  -4 91475.8 3185.93  11
  -2  -2  -4 95064.7 2201.13  18
  -2  -2  -4 92667.8 2176.40  17
  -2  -2  -4 97789.5 2220.92  19
  -2  -2  -4 93797.5 3317.83  10
  -2  -2  -4 94189.6 3016.98   2
  -2  -2  -4 96155.3 2226.34  19
  -2  -2  -4 98630.8 2198.94  18
  -2  -2  -3 15701.2 1017.96   2
  -2  -2  -3 12417.6 1012.16  11
  -2  -2  -3 12706.6 1026.95   4
  -2  -2  -3 13714.1 1169.49   1
  -2  -2  -3 15344.2 1128.31  10
  -2  -2  -2 1292.27 394.273  16
  -2  -2  -2 1398.94 360.153   9
  -2  -2  -2 723.726 459.424   1
  -2  -2  -2 1488.26 411.082   4
  -2  -2  -2 1034.64 375.185  11
  -2  -2  -2 1441.44 394.547  10
  -2  -2  -2 1313.66 369.463   2
  -2  -2  -1 212135. 5354.21  11
  -2  -2  -1 213765. 5098.13   4
  -2  -2  -1 216728. 5187.47   2
  -2  -2  -1 219397. 4520.64   6
  -2  -2  -1 214066. 4980.36   9
  -2  -2  -1 223567. 5420.22   1
  -2  -2  -1 213633. 5205.86  10
  -2  -2  -1 218063. 5150.99  16
  -2  -2   0 187770. 4385.06   9
  -2  -2   0 190169. 3879.31  15
  -2  -2   0 176669. 4522.81   2
  -2  -2   0 191288. 3866.76  14
  -2  -2   0 189375. 3849.24  12
  -2  -2   0 183230. 3879.20   6
  -2  -2   0 189719. 4727.65  11
  -2  -2   0 179998. 4624.75   1
  -2  -2   0 187050. 4494.30  16
  -2  -2   0 189765. 3855.91  13
  -2  -2   1 87198.5 2561.10  16
  -2  -2   1 99388.8 2357.51  15
  -2  -2   1 95768.0 2327.71  14
  -2  -2   1 94640.7 2339.15  20
  -2  -2   1 88267.5 2611.07   1
  -2  -2   1 95712.9 2321.96  12
  -2  -2   1 96499.1 2333.09  13
  -2  -2   1 88926.8 2509.80   9
  -2  -2   1 87829.5 2335.56  19
  -2  -2   1 90744.7 2149.78   6
  -2  -2   1 93324.6 2754.35  11
  -2  -2   2 224977. 5110.47   9
  -2  -2   2 219947. 5106.04  16
  -2  -2   2 210099. 5051.28  19
  -2  -2   2 221039. 4802.15   7
  -2  -2   2 222656. 5234.91  11
  -2  -2   2 222457. 5023.86   1
  -2  -2   3 137012. 3780.01  19
  -2  -2   3 143853. 3128.98   8
  -2  -2   3 142967. 3423.88   1
  -2  -2   3 143308. 3709.28  16
  -2  -2   3 146756. 3747.33   9
  -2  -2   4 206951. 4558.18   8
  -2  -2   4 193896. 4988.67   9
  -2  -2   4 204225. 5201.86  19
  -2  -2   4 199546. 4466.16   1
  -2  -2   4 199390. 4969.07  16
  -2  -2   5 121967. 3232.98   8
  -2  -2   5 118313. 2823.82   1
  -2  -2   5 114603. 3676.42  19
  -2  -2   5 114010. 3522.36   9
  -2  -2   6 32326.4 1560.68   8
  -2  -2   6 31076.3 1804.68  19
  -2  -2   6 30771.4 1076.49   1
  -2  -2   7 29415.3 1049.17   1
  -2  -2   7 27724.9 1811.49  19
  -2  -2   7 27902.8 1611.31   8
  -2  -2   8 65118.5 2829.69   8
  -2  -2   8 66056.0 3021.95  19
  -2  -2   9 127112. 4484.20   8
  -2  -2  10 28804.2 2061.18   8
  -2  -2  11 2232.70 661.781   8
  -2  -2  11 2662.62 693.735  12
  -2  -2  12 36328.7 2659.55   8
  -2  -2  12 32916.6 2619.99  12
  -2  -2  13 66331.9 3798.62   8
  -2  -2  13 63297.6 3781.22  12
  -2  -1 -11 4926.95 1032.34   4
  -2  -1 -11 3948.09 871.554  10
  -2  -1 -10 4855.41 1046.51   4
  -2  -1 -10 2982.74 947.418  10
  -2  -1  -9 27642.6 2210.40  10
  -2  -1  -9 27428.9 2233.62   4
  -2  -1  -8 64312.0 3243.93   4
  -2  -1  -8 63701.0 3221.75  10
  -2  -1  -7 53598.7 2774.22   4
  -2  -1  -7 55491.8 2116.51   2
  -2  -1  -7 54494.6 2229.03  11
  -2  -1  -7 54393.8 2793.38  10
  -2  -1  -6 11998.3 1222.54   4
  -2  -1  -6 12075.6 760.619  15
  -2  -1  -6 11739.0 773.842  17
  -2  -1  -6 11335.3 750.084  14
  -2  -1  -6 11385.8 1223.46   1
  -2  -1  -6 10440.3 829.156   2
  -2  -1  -6 11716.9 974.983  11
  -2  -1  -6 11658.4 776.027  18
  -2  -1  -6 9303.75 1126.69  10
  -2  -1  -6 10852.9 748.804  20
  -2  -1  -5 30348.1 1380.48   2
  -2  -1  -5 30537.2 1128.11  15
  -2  -1  -5 32956.1 1183.09  18
  -2  -1  -5 29832.3 1134.84  14
  -2  -1  -5 26843.3 1699.25   4
  -2  -1  -5 30233.8 1132.81  17
  -2  -1  -5 28129.7 1725.73   1
  -2  -1  -5 28793.8 1763.46  10
  -2  -1  -5 27704.7 1461.70  11
  -2  -1  -5 25477.3 1044.19  17
  -2  -1  -5 31338.4 1141.10  20
  -2  -1  -4 160148. 4649.81   4
  -2  -1  -4 166435. 3649.92  19
  -2  -1  -4 170918. 3663.97  15
  -2  -1  -4 170316. 3646.88  18
  -2  -1  -4 173177. 4758.21   1
  -2  -1  -4 165790. 3666.85  17
  -2  -1  -4 166686. 3686.34  18
  -2  -1  -4 154400. 4353.39  11
  -2  -1  -4 163809. 3624.16  17
  -2  -1  -4 168354. 4190.46   2
  -2  -1  -4 166286. 4704.20  10
  -2  -1  -4 163811. 3649.65  14
  -2  -1  -4 169874. 3669.89  20
  -2  -1  -3 117236. 2406.12  15
  -2  -1  -3 123552. 2459.28  18
  -2  -1  -3 123145. 2414.20  14
  -2  -1  -3 125334. 3456.50   4
  -2  -1  -3 124747. 3488.13  10
  -2  -1  -3 123397. 2437.97  17
  -2  -1  -3 124298. 2422.98  20
  -2  -1  -3 126189. 3499.90  16
  -2  -1  -3 126789. 3387.92  11
  -2  -1  -3 126303. 2440.29  19
  -2  -1  -3 128599. 2429.46  18
  -2  -1  -3 122686. 3119.02   2
  -2  -1  -3 125886. 3136.78   6
  -2  -1  -3 126690. 3561.45   1
  -2  -1  -2 22023.2 1047.53   2
  -2  -1  -2 24857.3 994.278   6
  -2  -1  -2 21706.6 1126.94   4
  -2  -1  -2 23416.7 1251.88   1
  -2  -1  -2 22517.5 1176.61  10
  -2  -1  -2 24127.1 1213.72  11
  -2  -1  -2 23223.7 1222.98  16
  -2  -1  -1 130081. 3048.47   9
  -2  -1  -1 131566. 3227.77   4
  -2  -1  -1 130167. 3009.72   6
  -2  -1  -1 129940. 3280.38   2
  -2  -1  -1 124769. 3453.84  11
  -2  -1  -1 128428. 3480.23   1
  -2  -1  -1 127799. 3323.03  10
  -2  -1  -1 130162. 3392.16  16
  -2  -1   0 308895. 6531.20  16
  -2  -1   0 292039. 6526.58   1
  -2  -1   0 289926. 6147.37   9
  -2  -1   0 291675. 5975.81  20
  -2  -1   0 296277. 5964.91  14
  -2  -1   0 291843. 5883.41  12
  -2  -1   0 293277. 5977.47  17
  -2  -1   0 301607. 6085.01   6
  -2  -1   0 294406. 6610.06  11
  -2  -1   0 274551. 6308.43  10
  -2  -1   0 296438. 5974.61  15
  -2  -1   0 294902. 5954.61  13
  -2  -1   1 106477. 2865.31  16
  -2  -1   1 107947. 2672.88   9
  -2  -1   1 112101. 2709.26  15
  -2  -1   1 106293. 2839.31   1
  -2  -1   1 113209. 2701.28  13
  -2  -1   1 110558. 2699.79  17
  -2  -1   1 111223. 2700.74  20
  -2  -1   1 105772. 2616.25  12
  -2  -1   1 102209. 2576.47   6
  -2  -1   1 109411. 2684.72  14
  -2  -1   2 125493. 3333.00  16
  -2  -1   2 134362. 3334.21  12
  -2  -1   2 126998. 3217.03   1
  -2  -1   2 134415. 2842.19   7
  -2  -1   2 132294. 3252.14   9
  -2  -1   3 261997. 5728.07   1
  -2  -1   3 273085. 5440.09   7
  -2  -1   3 260577. 6011.57  16
  -2  -1   3 253709. 5619.55   8
  -2  -1   4 331862. 7753.20  16
  -2  -1   4 336060. 7297.83   1
  -2  -1   4 347077. 7499.21   8
  -2  -1   5 180181. 4529.01   8
  -2  -1   5 173060. 4067.42   1
  -2  -1   6 17112.0 1183.38   8
  -2  -1   7 25988.3 1763.80  12
  -2  -1   7 23943.5 1564.15   8
  -2  -1   8 34866.8 2045.56   8
  -2  -1   8 35108.5 2147.67  12
  -2  -1   9 51176.7 2731.67   8
  -2  -1   9 57731.5 2959.09  12
  -2  -1  10 36000.0 2446.71  12
  -2  -1  10 33111.4 2306.84   8
  -2  -1  11 2942.86 724.169   8
  -2  -1  11 2486.17 775.387  12
  -2  -1  12 23534.3 2185.82  12
  -2  -1  12 25395.3 2299.34   8
  -2  -1  13 56983.9 3569.48  12
  -2  -1  13 53166.6 3528.83   8
  -2   0 -11 2098.69 812.641  10
  -2   0 -11 2736.58 761.921   4
  -2   0 -10 803.003 497.552   4
  -2   0 -10 2410.61 671.098  10
  -2   0  -9 32755.6 2370.67   4
  -2   0  -9 28779.5 2239.10  10
  -2   0  -8 45447.2 2742.61   4
  -2   0  -8 46598.4 2680.16  10
  -2   0  -7 85144.1 2759.47  15
  -2   0  -7 87105.1 2783.64  17
  -2   0  -7 79280.4 3457.23   4
  -2   0  -7 82703.6 3260.55   1
  -2   0  -7 86026.2 2773.29  14
  -2   0  -7 85107.4 2756.47  20
  -2   0  -6 49731.3 1645.13   2
  -2   0  -6 45118.8 1781.37  14
  -2   0  -6 46611.3 2367.75   4
  -2   0  -6 49588.0 1843.85  17
  -2   0  -6 46144.4 1792.99  13
  -2   0  -6 48529.1 2259.13   1
  -2   0  -6 47257.9 1786.50  20
  -2   0  -6 48946.5 1804.46  15
  -2   0  -6 48703.7 1884.10  11
  -2   0  -6 46041.6 2370.75  10
  -2   0  -5 60700.7 1915.48  15
  -2   0  -5 61505.3 1935.80  14
  -2   0  -5 59460.1 2538.53   4
  -2   0  -5 60149.5 1822.79   2
  -2   0  -5 56518.8 1892.24  20
  -2   0  -5 59913.4 2401.07   1
  -2   0  -5 57843.8 2498.55  10
  -2   0  -5 58698.9 1926.29  17
  -2   0  -5 60097.4 2097.10  11
  -2   0  -5 59634.2 1913.32  13
  -2   0  -4 279576. 7124.33   4
  -2   0  -4 303245. 6309.82  18
  -2   0  -4 301272. 7065.78   1
  -2   0  -4 298059. 6341.69  15
  -2   0  -4 295022. 6338.44  14
  -2   0  -4 298883. 6370.59   2
  -2   0  -4 298273. 6344.21  20
  -2   0  -4 289469. 6742.25  11
  -2   0  -4 308245. 6363.12  13
  -2   0  -4 287626. 7159.79  10
  -2   0  -4 298490. 6913.49   6
  -2   0  -4 289289. 6306.89  19
  -2   0  -4 291423. 6294.14  17
  -2   0  -4 313727. 6394.41  17
  -2   0  -3 172621. 3767.65  20
  -2   0  -3 173329. 3791.75  15
  -2   0  -3 176159. 3816.40  12
  -2   0  -3 172208. 4493.81  10
  -2   0  -3 174871. 3791.38  14
  -2   0  -3 174507. 3802.43  13
  -2   0  -3 175044. 3796.45  18
  -2   0  -3 172590. 3784.59  17
  -2   0  -3 171872. 4510.29   4
  -2   0  -3 174694. 4494.76   1
  -2   0  -3 176753. 3806.98  19
  -2   0  -3 168268. 4254.70   6
  -2   0  -3 178586. 3813.97  20
  -2   0  -3 170121. 4544.81  16
  -2   0  -2 38445.8 1393.62   6
  -2   0  -2 39348.2 1076.74  15
  -2   0  -2 39390.8 1108.66  19
  -2   0  -2 35427.4 1517.82   1
  -2   0  -2 36941.5 1053.35  13
  -2   0  -2 37937.5 1067.38  12
  -2   0  -2 37627.1 1470.17  10
  -2   0  -2 40034.7 1102.82  17
  -2   0  -2 40128.1 1100.64  20
  -2   0  -2 38332.7 1061.44  14
  -2   0  -2 39186.6 1499.76   4
  -2   0  -2 40963.9 1118.51  18
  -2   0  -2 35126.3 1525.87  16
  -2   0  -1 30793.9 1138.66   5
  -2   0  -1 27304.0 1258.65   1
  -2   0  -1 27700.7 883.039  14
  -2   0  -1 28031.9 1076.31   4
  -2   0  -1 30825.6 903.044  13
  -2   0  -1 29429.7 1122.74   6
  -2   0  -1 32593.8 955.776  20
  -2   0  -1 28755.1 928.665  19
  -2   0  -1 29223.4 1129.27  10
  -2   0  -1 29306.7 845.572   9
  -2   0  -1 32039.0 956.038  18
  -2   0  -1 32848.3 949.763  15
  -2   0  -1 31542.1 943.181  17
  -2   0  -1 28426.2 885.328  12
  -2   0  -1 29378.5 1253.93  16
  -2   0   0 66524.9 2023.55  16
  -2   0   0 66851.9 1617.85   9
  -2   0   0 66229.6 1625.53   4
  -2   0   0 72739.1 1814.24  15
  -2   0   0 72790.2 1810.65  14
  -2   0   0 64100.9 1765.18  10
  -2   0   0 61009.9 1997.70   1
  -2   0   0 66807.3 1726.73  12
  -2   0   0 70501.7 1801.02  17
  -2   0   0 66378.7 1732.18  13
  -2   0   0 66256.6 1882.89   6
  -2   0   0 65445.3 1780.03  18
  -2   0   0 68475.9 1796.74  20
  -2   0   1 369710. 7993.03  16
  -2   0   1 378306. 7934.80  20
  -2   0   1 402456. 7949.61  14
  -2   0   1 362963. 7977.94   1
  -2   0   1 367075. 7814.75  12
  -2   0   1 393801. 7945.20  15
  -2   0   1 364900. 7861.13   6
  -2   0   1 391644. 7947.70  17
  -2   0   1 388771. 7949.32  18
  -2   0   1 370945. 7670.12   9
  -2   0   2 110681. 2882.10  16
  -2   0   2 105563. 2785.45   1
  -2   0   2 108061. 2856.91  12
  -2   0   2 104800. 2675.02   8
  -2   0   3 151515. 3941.18  16
  -2   0   3 154885. 3814.27   8
  -2   0   3 155102. 4052.51  12
  -2   0   3 162313. 3303.54   7
  -2   0   4 302487. 6313.73   4
  -2   0   4 283126. 6954.91  12
  -2   0   4 299255. 6194.11   7
  -2   0   4 291023. 6698.06   8
  -2   0   5 79440.9 2895.14  12
  -2   0   5 86768.3 2803.77   8
  -2   0   6 21826.3 1507.12  12
  -2   0   6 23146.8 1450.41   8
  -2   0   7 17004.0 1360.72   8
  -2   0   7 15714.1 1370.43  12
  -2   0   8 33974.6 2130.14   8
  -2   0   8 35747.8 2191.41  12
  -2   0   9 74592.2 3465.89   8
  -2   0   9 80851.2 3582.41  12
  -2   0  10 21716.0 1950.20   8
  -2   0  10 22893.0 1915.20  12
  -2   0  11 5676.58 991.130   8
  -2   0  11 5589.67 1008.68  12
  -2   0  12 23548.6 2156.18  12
  -2   0  12 24027.4 2214.10   8
  -2   0  13 39679.3 3044.05   8
  -2   0  13 50220.5 3265.56  12
  -2   1 -11 4604.12 1055.79   4
  -2   1 -11 4021.05 882.144  10
  -2   1 -10 701.225 572.587   4
  -2   1 -10 1186.51 753.556  10
  -2   1  -9 27968.6 2197.38   4
  -2   1  -9 32421.2 2312.12  10
  -2   1  -8 116401. 3829.47  13
  -2   1  -8 126211. 4694.73   4
  -2   1  -8 118023. 3835.67  17
  -2   1  -8 124494. 3878.78  14
  -2   1  -8 122948. 3858.19  15
  -2   1  -8 119689. 4560.89  10
  -2   1  -8 121971. 3847.02  20
  -2   1  -7 103170. 3293.37  14
  -2   1  -7 111277. 4070.89   4
  -2   1  -7 104795. 3584.19   1
  -2   1  -7 107022. 3370.61  17
  -2   1  -7 101039. 3286.08  20
  -2   1  -7 106916. 3357.20  13
  -2   1  -7 94551.2 3800.53  10
  -2   1  -7 105812. 3326.69  15
  -2   1  -6 38793.9 1698.56  13
  -2   1  -6 41852.7 1748.79  20
  -2   1  -6 41817.0 1965.13   1
  -2   1  -6 40243.3 1723.28  14
  -2   1  -6 39777.8 2152.34   4
  -2   1  -6 40108.9 2143.67  10
  -2   1  -6 41368.1 1744.36  17
  -2   1  -6 42352.2 1745.84  15
  -2   1  -5 58326.3 1963.01  15
  -2   1  -5 55595.6 1935.28  14
  -2   1  -5 54311.0 2259.27   6
  -2   1  -5 57558.5 1967.57  20
  -2   1  -5 55548.5 2400.73  10
  -2   1  -5 56085.8 2418.95   4
  -2   1  -5 57999.4 2218.75   1
  -2   1  -5 58640.4 1975.45  13
  -2   1  -4 164228. 4381.94   6
  -2   1  -4 163471. 3977.11  12
  -2   1  -4 167895. 3962.60  15
  -2   1  -4 161237. 3968.82  20
  -2   1  -4 165595. 4316.47   1
  -2   1  -4 168799. 3974.25  13
  -2   1  -4 166482. 4552.95   4
  -2   1  -4 159388. 4459.22  10
  -2   1  -4 161435. 3939.19  14
  -2   1  -3 198840. 4865.94   1
  -2   1  -3 203640. 4229.50   5
  -2   1  -3 200923. 4498.30  15
  -2   1  -3 188907. 4871.57  10
  -2   1  -3 194511. 4936.56   4
  -2   1  -3 202762. 4487.80  12
  -2   1  -3 194364. 4978.14  16
  -2   1  -3 197221. 4853.09   6
  -2   1  -3 204201. 4482.93  14
  -2   1  -3 194648. 4463.59  13
  -2   1  -2 55906.8 1644.16  19
  -2   1  -2 59429.0 1624.14   5
  -2   1  -2 57845.5 1618.16  15
  -2   1  -2 59940.2 1655.68  20
  -2   1  -2 53944.4 1587.92  14
  -2   1  -2 52174.2 1851.77   1
  -2   1  -2 57266.3 1643.50  18
  -2   1  -2 53009.0 1798.09   4
  -2   1  -2 52224.7 1812.65   6
  -2   1  -2 55133.1 1587.96  13
  -2   1  -2 55947.8 1629.92  17
  -2   1  -2 53624.4 1769.83  10
  -2   1  -2 53216.2 1590.14  12
  -2   1  -2 48501.4 1841.76  16
  -2   1  -1 12070.8 659.875  15
  -2   1  -1 13275.3 676.822  20
  -2   1  -1 12505.6 644.218  12
  -2   1  -1 11661.8 634.834  14
  -2   1  -1 11992.6 646.812   4
  -2   1  -1 12953.6 667.531  17
  -2   1  -1 11897.3 632.228  13
  -2   1  -1 9829.83 739.388   1
  -2   1  -1 12241.9 652.406  19
  -2   1  -1 13024.5 680.810  18
  -2   1  -1 12182.4 751.909   6
  -2   1  -1 10151.4 576.497  10
  -2   1  -1 11381.9 744.181  16
  -2   1   0 88854.4 2402.43   6
  -2   1   0 85199.7 2356.23  16
  -2   1   0 83080.1 1939.83   4
  -2   1   0 87180.6 2278.01  13
  -2   1   0 83753.2 2424.80   1
  -2   1   0 86442.9 2283.71  12
  -2   1   0 85311.1 1944.37  10
  -2   1   1 167694. 3953.62  16
  -2   1   1 164376. 3955.27  13
  -2   1   1 166873. 4035.97   1
  -2   1   1 169502. 3976.64  12
  -2   1   1 166386. 4010.25   6
  -2   1   2 39946.0 1458.97  16
  -2   1   2 41905.6 1497.25   8
  -2   1   2 38957.3 1514.46  13
  -2   1   2 39838.2 1522.03   6
  -2   1   2 41195.6 1542.60  12
  -2   1   3 33713.5 1438.89   8
  -2   1   3 36034.9 1104.13   4
  -2   1   3 34226.6 1412.23  16
  -2   1   3 34800.6 1529.38  12
  -2   1   4 218234. 5491.12  12
  -2   1   4 212670. 5322.43   8
  -2   1   5 147350. 4202.48   8
  -2   1   5 138839. 4204.47  12
  -2   1   6 59419.5 2559.98  12
  -2   1   6 60219.3 2558.22   8
  -2   1   7 47047.6 2381.18   8
  -2   1   7 40293.9 2224.33  12
  -2   1   8 36122.9 2209.05  12
  -2   1   8 33603.4 2184.84   8
  -2   1   9 61829.4 3219.07   8
  -2   1   9 70347.6 3324.14  12
  -2   1  10 22905.8 1988.47   8
  -2   1  10 23924.6 1990.45  12
  -2   1  11 7357.04 1274.59   8
  -2   1  11 5189.68 881.642  12
  -2   1  12 17823.3 2007.91   8
  -2   1  12 23125.9 2169.14  12
  -2   2 -11 12889.1 1626.09  10
  -2   2 -11 9186.54 1430.30   4
  -2   2 -10 4809.77 1006.62   4
  -2   2 -10 6747.88 1188.82  10
  -2   2  -9 25591.8 1710.81  13
  -2   2  -9 27312.9 1771.87  17
  -2   2  -9 29583.4 1822.67  15
  -2   2  -9 27398.9 1753.41  14
  -2   2  -9 21972.8 1967.38  10
  -2   2  -9 28791.9 1789.81  20
  -2   2  -9 26163.1 2098.81   4
  -2   2  -8 81072.3 3617.16   4
  -2   2  -8 81086.5 3111.08  13
  -2   2  -8 81332.2 3128.68  17
  -2   2  -8 81403.0 3080.97   1
  -2   2  -8 78180.6 3521.66  10
  -2   2  -8 84814.1 3119.91  14
  -2   2  -8 80830.9 3052.46  20
  -2   2  -8 84125.7 3130.04  15
  -2   2  -7 83220.5 2893.42   1
  -2   2  -7 77317.9 2802.07  15
  -2   2  -7 75148.5 2762.97  14
  -2   2  -7 76185.5 2789.31  20
  -2   2  -7 76483.2 2798.06  13
  -2   2  -7 78852.5 3324.43   4
  -2   2  -7 75005.1 3269.72  10
  -2   2  -6 8739.71 826.815   1
  -2   2  -6 8322.23 789.768  14
  -2   2  -6 7802.63 986.632  10
  -2   2  -6 7539.23 774.631  13
  -2   2  -6 7041.70 909.939   6
  -2   2  -6 6959.40 733.952  12
  -2   2  -6 8003.32 789.880  20
  -2   2  -6 7592.27 986.114   4
  -2   2  -6 8332.37 780.014  15
  -2   2  -5 49623.5 2231.23   4
  -2   2  -5 50771.2 1927.66  15
  -2   2  -5 51197.1 1943.46  13
  -2   2  -5 51794.3 2212.69   6
  -2   2  -5 52124.1 1933.69  14
  -2   2  -5 50231.5 1938.06  12
  -2   2  -5 48202.1 2191.02  10
  -2   2  -5 49143.6 1947.54   1
  -2   2  -5 49885.6 1918.18  20
  -2   2  -4 172369. 4387.88   1
  -2   2  -4 163522. 4580.08  10
  -2   2  -4 173880. 4295.39  15
  -2   2  -4 172330. 4276.99  14
  -2   2  -4 169186. 4636.77   4
  -2   2  -4 173326. 4282.64  13
  -2   2  -4 174679. 4309.06  12
  -2   2  -4 168815. 4587.01   6
  -2   2  -4 175312. 3696.15   5
  -2   2  -3 236988. 5629.38   4
  -2   2  -3 240562. 5405.63  12
  -2   2  -3 233909. 5368.90  14
  -2   2  -3 250322. 5146.25   5
  -2   2  -3 229756. 5499.62   1
  -2   2  -3 234872. 5379.88  13
  -2   2  -3 231586. 5372.76  15
  -2   2  -3 230998. 5660.11   6
  -2   2  -3 218858. 5527.19  10
  -2   2  -2 189476. 4530.35   6
  -2   2  -2 183911. 4265.15  14
  -2   2  -2 174576. 4268.34   4
  -2   2  -2 181975. 4416.39   1
  -2   2  -2 178145. 4253.26  12
  -2   2  -2 182983. 4267.55  13
  -2   2  -2 176313. 4194.39  10
  -2   2  -2 176451. 4240.97  15
  -2   2  -2 175127. 4380.89  16
  -2   2  -1 7459.54 659.566   6
  -2   2  -1 7863.39 610.938  12
  -2   2  -1 7211.83 659.361   1
  -2   2  -1 8762.77 651.716  13
  -2   2  -1 8854.56 639.278  14
  -2   2  -1 7072.23 505.733   4
  -2   2  -1 8015.41 467.844  10
  -2   2  -1 8680.26 634.112  16
  -2   2   0 42062.5 1426.04  16
  -2   2   0 42669.6 1160.15   9
  -2   2   0 39506.8 1546.48   1
  -2   2   0 43815.1 1545.40  13
  -2   2   0 40102.4 1553.24   6
  -2   2   0 39664.7 1217.04   7
  -2   2   0 39587.4 1485.75  14
  -2   2   0 41886.8 1522.12  12
  -2   2   1 232746. 4583.03   4
  -2   2   1 219484. 4608.47   7
  -2   2   1 218944. 5213.92  12
  -2   2   1 215059. 5196.18   6
  -2   2   1 218598. 4972.64  16
  -2   2   1 219133. 5219.02  13
  -2   2   2 48653.0 1319.00   7
  -2   2   2 46948.2 1766.94   8
  -2   2   2 49842.4 1353.78   4
  -2   2   2 44299.0 1737.39   6
  -2   2   2 48628.1 1831.27  12
  -2   2   2 51702.2 1874.97  13
  -2   2   2 47697.6 1613.54  16
  -2   2   3 84005.1 2461.40  16
  -2   2   3 74146.5 2630.00  13
  -2   2   3 82309.5 2111.45   7
  -2   2   3 82812.3 2663.80   8
  -2   2   3 79396.5 2686.71  12
  -2   2   3 89264.1 2270.36   4
  -2   2   4 175936. 4786.98   8
  -2   2   4 178651. 4864.83  12
  -2   2   4 181345. 4202.34   7
  -2   2   5 209387. 5709.74  12
  -2   2   5 215353. 5728.78   8
  -2   2   6 93392.1 3461.13   8
  -2   2   6 91531.1 3391.67  12
  -2   2   7 18272.9 1569.58   8
  -2   2   7 17971.7 1517.25  12
  -2   2   8 42053.7 2423.86  12
  -2   2   8 45648.7 2625.17   8
  -2   2   9 44809.2 2850.64   8
  -2   2   9 54166.0 2875.62  12
  -2   2  10 17314.9 1868.94   8
  -2   2  10 20000.7 1866.32  12
  -2   2  11 9045.50 1352.46   8
  -2   2  11 11171.5 1487.18  12
  -2   2  12 12767.6 1689.35   8
  -2   2  12 11738.9 1557.60  12
  -2   3 -12 59397.3 3751.67  10
  -2   3 -11 18535.9 1976.76   4
  -2   3 -11 18787.8 1950.66  10
  -2   3 -10 810.630 485.253  14
  -2   3 -10 337.384 454.633  10
  -2   3 -10 744.652 460.276  17
  -2   3 -10-210.713 334.928  13
  -2   3 -10 521.221 354.730  15
  -2   3 -10 164.134 493.507   4
  -2   3 -10 518.285 490.378  20
  -2   3  -9 10641.9 1153.29  14
  -2   3  -9 13681.7 1257.45  13
  -2   3  -9 10812.6 1298.81  10
  -2   3  -9 13624.6 1272.45  15
  -2   3  -9 11335.5 1363.05   4
  -2   3  -9 8850.57 1031.21  20
  -2   3  -9 12083.4 1202.97  17
  -2   3  -8 86041.1 3292.75  14
  -2   3  -8 92327.5 3849.00   4
  -2   3  -8 89113.2 3339.01  13
  -2   3  -8 87930.4 3080.32   1
  -2   3  -8 84599.1 3697.10  10
  -2   3  -8 86447.9 3310.87  20
  -2   3  -8 83857.6 3272.15  15
  -2   3  -7 42355.2 2055.13  14
  -2   3  -7 46668.4 2153.42  15
  -2   3  -7 43911.5 1934.19   1
  -2   3  -7 45707.6 2423.90   4
  -2   3  -7 42967.6 2076.65  13
  -2   3  -7 41384.6 2091.26  12
  -2   3  -7 43085.5 2370.75   6
  -2   3  -7 43363.5 2085.74  20
  -2   3  -7 42063.6 2363.86  10
  -2   3  -6 14839.3 1137.76  15
  -2   3  -6 14435.8 1118.55  14
  -2   3  -6 14721.7 1144.37  13
  -2   3  -6 15308.8 1155.79  12
  -2   3  -6 14114.1 1034.58   1
  -2   3  -6 13603.5 1100.97  20
  -2   3  -6 13632.9 1223.42   4
  -2   3  -6 13457.2 1256.56   6
  -2   3  -6 13500.3 1274.09  10
  -2   3  -5 54327.3 2099.88  20
  -2   3  -5 51218.8 1926.71   1
  -2   3  -5 49460.1 2014.90  15
  -2   3  -5 49250.9 2019.82  14
  -2   3  -5 47967.7 2200.35   4
  -2   3  -5 49226.8 2021.78  12
  -2   3  -5 49443.7 2222.12   6
  -2   3  -5 53356.4 2061.83  13
  -2   3  -5 47301.1 1434.02   5
  -2   3  -5 50133.9 2247.64  10
  -2   3  -4 159228. 4208.22  15
  -2   3  -4 155511. 4150.67  14
  -2   3  -4 157338. 4358.22   4
  -2   3  -4 160170. 4090.15   1
  -2   3  -4 151723. 3741.82   5
  -2   3  -4 156986. 4410.92   6
  -2   3  -4 154288. 4159.52  13
  -2   3  -4 155638. 4321.51  10
  -2   3  -4 161218. 4207.25  12
  -2   3  -3 230192. 5512.49  12
  -2   3  -3 239313. 5545.74  15
  -2   3  -3 226256. 5483.24  14
  -2   3  -3 230917. 5446.55   1
  -2   3  -3 228750. 5526.19   4
  -2   3  -3 231441. 5500.02  13
  -2   3  -3 227253. 5696.96   6
  -2   3  -3 221695. 5450.39  10
  -2   3  -2 153881. 3974.03   1
  -2   3  -2 154339. 3920.30   7
  -2   3  -2 152924. 3991.14  14
  -2   3  -2 153220. 3877.47  16
  -2   3  -2 161585. 4038.69  13
  -2   3  -2 157654. 3891.34   4
  -2   3  -2 152872. 4135.37   6
  -2   3  -2 148574. 3720.23  10
  -2   3  -2 154040. 4004.57  12
  -2   3  -2 158895. 3304.81   9
  -2   3  -1 24116.7 799.172   9
  -2   3  -1 21489.5 1138.69  14
  -2   3  -1 22237.3 1016.06   7
  -2   3  -1 19426.4 1100.34  13
  -2   3  -1 20535.3 1128.36  12
  -2   3  -1 21841.0 821.375  10
  -2   3  -1 23071.7 1208.50   6
  -2   3  -1 21428.5 986.594  16
  -2   3   0 24498.2 1014.82  16
  -2   3   0 25768.6 968.570   9
  -2   3   0 25180.6 1251.35  13
  -2   3   0 23917.0 1238.41  12
  -2   3   0 26306.4 1033.06   7
  -2   3   0 23747.5 1242.01   6
  -2   3   0 26403.4 1284.21  14
  -2   3   1 276814. 6524.59  12
  -2   3   1 275938. 5948.60   7
  -2   3   1 283358. 6536.61  13
  -2   3   1 273866. 6440.55   6
  -2   3   1 284405. 6038.00  16
  -2   3   2 196065. 4575.45  16
  -2   3   2 196210. 5022.63   8
  -2   3   2 199164. 5091.47  13
  -2   3   2 199873. 4483.95   7
  -2   3   2 202724. 5007.71   6
  -2   3   2 197265. 5079.56  12
  -2   3   3 35891.4 1644.95   6
  -2   3   3 31515.4 1251.50   7
  -2   3   3 31456.6 1639.08  13
  -2   3   3 32426.8 1353.48  16
  -2   3   3 33181.2 1621.55   8
  -2   3   4 63158.5 2472.83   8
  -2   3   4 62126.3 2462.87  13
  -2   3   4 58386.0 1976.88   7
  -2   3   5 154386. 4701.77   8
  -2   3   5 153823. 4668.71  13
  -2   3   5 153707. 4124.77   7
  -2   3   5 154450. 4684.54  12
  -2   3   6 106843. 3854.10   8
  -2   3   6 102429. 3752.52  13
  -2   3   6 102281. 3295.15   7
  -2   3   6 101563. 3743.80  12
  -2   3   7 12716.6 1301.97  13
  -2   3   7 13357.7 1398.26   8
  -2   3   7 12633.3 1318.82  12
  -2   3   8 31297.6 2219.28   8
  -2   3   8 29124.6 2086.41  13
  -2   3   8 30353.2 2142.23  12
  -2   3   9 48968.0 3049.48   8
  -2   3   9 56567.8 3111.26  13
  -2   3   9 59602.7 3151.11  12
  -2   3  10 8174.50 1357.18   8
  -2   3  10 9663.25 1356.91  13
  -2   3  10 8602.30 1284.63  12
  -2   3  11 6134.30 1135.41   8
  -2   3  11 4453.47 1094.79  13
  -2   3  11 3844.50 1001.96  12
  -2   3  12 4678.71 1082.47  13
  -2   3  12 4731.29 1120.53  12
  -2   4 -12 41748.6 3077.34  10
  -2   4 -11 25455.5 1954.71  14
  -2   4 -11 27667.6 2426.43   4
  -2   4 -11 22742.7 1884.96  13
  -2   4 -11 24139.0 1926.21  17
  -2   4 -11 30759.6 2452.72  10
  -2   4 -11 23879.9 1947.62  15
  -2   4 -11 23208.8 1908.60  20
  -2   4 -10 1147.75 378.711  15
  -2   4 -10 1149.72 525.989  13
  -2   4 -10 1208.39 573.178   4
  -2   4 -10 813.190 407.487  14
  -2   4 -10-4.65536 287.888  20
  -2   4 -10 495.190 385.505  10
  -2   4 -10 368.392 385.572  17
  -2   4  -9 4568.08 789.040  15
  -2   4  -9 5819.90 822.358  13
  -2   4  -9 5224.84 873.810   4
  -2   4  -9 4735.45 868.245  14
  -2   4  -9 4238.65 706.152  20
  -2   4  -9 4513.18 873.364  10
  -2   4  -8 135159. 4557.17  15
  -2   4  -8 134394. 4522.59  14
  -2   4  -8 133102. 4535.66  13
  -2   4  -8 131912. 4546.59  12
  -2   4  -8 132640. 4869.64   4
  -2   4  -8 137872. 4954.53  10
  -2   4  -8 135703. 4553.60  20
  -2   4  -7 75842.4 3296.51   6
  -2   4  -7 79375.8 2685.86   1
  -2   4  -7 74266.7 3040.79  12
  -2   4  -7 74589.4 3288.27  10
  -2   4  -7 73509.5 3252.29   4
  -2   4  -7 76871.3 3074.34  13
  -2   4  -7 83008.6 3149.64  20
  -2   4  -7 80213.0 3102.51  15
  -2   4  -7 75247.2 3027.66  14
  -2   4  -6 909.930 519.217   6
  -2   4  -6 1096.36 394.870   1
  -2   4  -6 1190.67 521.246  15
  -2   4  -6 943.676 371.577  12
  -2   4  -6 1858.99 504.141  13
  -2   4  -6 1019.85 452.908  14
  -2   4  -6 1208.71 585.845   4
  -2   4  -6 1799.13 526.447  20
  -2   4  -6 1025.04 431.214  10
  -2   4  -5 40181.5 1991.06  10
  -2   4  -5 44386.6 2015.63  15
  -2   4  -5 41617.0 1954.02  13
  -2   4  -5 41703.1 1951.28  14
  -2   4  -5 43219.3 1753.10   1
  -2   4  -5 42714.5 2094.43   6
  -2   4  -5 39457.0 1980.95   4
  -2   4  -5 39887.1 1943.78  12
  -2   4  -4 164270. 4540.83  14
  -2   4  -4 169605. 4576.72  13
  -2   4  -4 166571. 4720.17   6
  -2   4  -4 166691. 4305.52   1
  -2   4  -4 162479. 4563.08   4
  -2   4  -4 165160. 4528.08  10
  -2   4  -4 158688. 4519.33  12
  -2   4  -4 169985. 4602.59  15
  -2   4  -3 268336. 6457.50  15
  -2   4  -3 280051. 6286.25   1
  -2   4  -3 267179. 6461.41  12
  -2   4  -3 257290. 6347.07   7
  -2   4  -3 266395. 6438.44  13
  -2   4  -3 260956. 6331.32   4
  -2   4  -3 262410. 6552.36   6
  -2   4  -3 262659. 6203.15  10
  -2   4  -3 262887. 6422.67  14
  -2   4  -2 123179. 2892.62   9
  -2   4  -2 116366. 3073.48  10
  -2   4  -2 120446. 3552.91   6
  -2   4  -2 118395. 3477.32  14
  -2   4  -2 114062. 3303.06   7
  -2   4  -2 116963. 3478.03  13
  -2   4  -2 121403. 3158.80  16
  -2   4  -2 120418. 3516.41  12
  -2   4  -2 114604. 3322.74   1
  -2   4  -1 71062.5 2450.46  12
  -2   4  -1 65610.6 2163.54   7
  -2   4  -1 67629.1 2407.56   6
  -2   4  -1 68764.1 2428.29  13
  -2   4  -1 70982.6 2452.96  14
  -2   4  -1 69779.4 2009.39  16
  -2   4   0 110547. 3059.38   7
  -2   4   0 113568. 3442.70  12
  -2   4   0 114076. 3450.39  13
  -2   4   0 112399. 3359.95   6
  -2   4   0 121188. 2555.22  10
  -2   4   0 112238. 3432.78  14
  -2   4   0 115548. 2854.04  16
  -2   4   1 58653.8 1717.38  16
  -2   4   1 56384.1 2226.39  13
  -2   4   1 55534.2 2227.78  14
  -2   4   1 55616.1 1870.47   7
  -2   4   1 59125.7 1450.65  10
  -2   4   1 52804.2 2178.63  12
  -2   4   1 56546.4 2145.00   6
  -2   4   2 111261. 2861.99  16
  -2   4   2 111015. 3513.95  12
  -2   4   2 109016. 3028.58   7
  -2   4   2 110127. 3501.89  13
  -2   4   2 114720. 2679.62  10
  -2   4   2 109224. 3359.99   6
  -2   4   2 110114. 3448.49   8
  -2   4   3 27478.0 1212.03  16
  -2   4   3 23942.5 1513.75   8
  -2   4   3 28374.1 1308.92   7
  -2   4   3 27324.6 1604.91  13
  -2   4   3 26592.4 1475.00   6
  -2   4   3 28625.5 1623.07  12
  -2   4   4 2783.85 512.113  16
  -2   4   4 2775.54 661.541   8
  -2   4   4 2522.21 671.758  13
  -2   4   4 3377.95 501.206   7
  -2   4   4 2997.22 659.590  12
  -2   4   4 3641.93 688.004   6
  -2   4   5 111782. 3971.34   8
  -2   4   5 113235. 3954.85  13
  -2   4   5 115915. 3987.50  12
  -2   4   5 115052. 3509.59   7
  -2   4   6 119242. 4268.46   8
  -2   4   6 117569. 4181.75  13
  -2   4   6 117078. 4171.21  12
  -2   4   6 107630. 3654.43   7
  -2   4   7 12322.9 1429.71   8
  -2   4   7 14922.0 1264.58   7
  -2   4   7 12423.1 1382.59  13
  -2   4   7 14897.9 1460.59  12
  -2   4   8 13133.4 1285.66   7
  -2   4   8 13046.1 1466.56  13
  -2   4   8 14462.4 1553.67   8
  -2   4   8 12419.2 1379.48  12
  -2   4   9 29063.9 2218.42  13
  -2   4   9 28097.3 2034.70   7
  -2   4   9 28108.6 2307.21   8
  -2   4   9 29798.0 2238.42  12
  -2   4  10 22946.5 1854.77   7
  -2   4  10 22398.7 2147.84   8
  -2   4  10 22260.9 2129.04  13
  -2   4  10 26416.0 2206.60  12
  -2   4  11 2132.18 799.626  12
  -2   4  11 3456.59 1085.74  13
  -2   5 -11 44984.7 3096.66   4
  -2   5 -11 46202.3 2853.25  15
  -2   5 -11 47588.6 2911.64  13
  -2   5 -11 49845.9 2931.68  20
  -2   5 -11 50830.6 3238.48  10
  -2   5 -11 42660.2 2762.90  14
  -2   5 -11 40085.8 2707.21  17
  -2   5 -10 7970.88 1122.86  15
  -2   5 -10 9853.90 1215.56  14
  -2   5 -10 7805.20 1042.59  13
  -2   5 -10 7829.75 1290.49   4
  -2   5 -10 8184.45 1088.37  20
  -2   5 -10 10166.8 1372.18  10
  -2   5  -9 13938.9 1360.47  14
  -2   5  -9 11733.6 1399.02   4
  -2   5  -9 11760.2 1304.54  13
  -2   5  -9 12347.8 1398.88  12
  -2   5  -9 12563.5 1327.89  20
  -2   5  -9 13810.9 1408.05  15
  -2   5  -9 12646.3 1441.14  10
  -2   5  -8 74657.7 3549.60   6
  -2   5  -8 70106.2 3193.26  14
  -2   5  -8 79091.1 3565.98  10
  -2   5  -8 77156.4 3324.09  15
  -2   5  -8 73104.6 3457.21   4
  -2   5  -8 76170.0 3333.19  12
  -2   5  -8 79978.5 3375.00  20
  -2   5  -8 68546.8 3191.53  13
  -2   5  -7 105486. 4073.71   4
  -2   5  -7 107295. 3927.21  12
  -2   5  -7 108271. 3944.30  15
  -2   5  -7 99550.5 3833.94  14
  -2   5  -7 107467. 3936.19  20
  -2   5  -7 113247. 3966.08  13
  -2   5  -7 104095. 4023.42  10
  -2   5  -7 113443. 3334.16   1
  -2   5  -7 110399. 4184.05   6
  -2   5  -6 8388.69 1002.91  15
  -2   5  -6 9134.83 822.651   1
  -2   5  -6 6914.82 901.072  13
  -2   5  -6 7704.65 973.770  12
  -2   5  -6 9653.06 1114.16   6
  -2   5  -6 7632.89 963.761  10
  -2   5  -6 8199.45 982.230   4
  -2   5  -6 7933.78 997.088  20
  -2   5  -6 7511.58 944.627  14
  -2   5  -5 2849.19 628.241  12
  -2   5  -5 3089.73 687.606  15
  -2   5  -5 2690.66 631.951  14
  -2   5  -5 4076.94 686.624  13
  -2   5  -5 2072.45 489.621   1
  -2   5  -5 2448.67 596.413   4
  -2   5  -5 1798.81 633.814   6
  -2   5  -5 2495.27 606.670  10
  -2   5  -4 200000. 5112.03   1
  -2   5  -4 205847. 5541.65  12
  -2   5  -4 209941. 5583.52  15
  -2   5  -4 207846. 5565.16  14
  -2   5  -4 199506. 5467.47   7
  -2   5  -4 205801. 5559.39  13
  -2   5  -4 195166. 5403.97   4
  -2   5  -4 204009. 5327.74  10
  -2   5  -4 202178. 5610.79   6
  -2   5  -3 297538. 7406.08  15
  -2   5  -3 300389. 7435.05  12
  -2   5  -3 299729. 7276.94   7
  -2   5  -3 308291. 7461.84  13
  -2   5  -3 301844. 7071.66   1
  -2   5  -3 306815. 7430.94  14
  -2   5  -3 310419. 7500.02   6
  -2   5  -2 60556.5 2364.97  12
  -2   5  -2 54850.6 2298.64  14
  -2   5  -2 53938.6 2120.08   7
  -2   5  -2 56435.8 2314.88  13
  -2   5  -2 53916.0 2294.76  15
  -2   5  -2 58194.8 2341.72   6
  -2   5  -1 7230.72 724.997   7
  -2   5  -1 6343.14 800.964  12
  -2   5  -1 6710.31 806.823  14
  -2   5  -1 7846.98 559.641  16
  -2   5  -1 7273.09 853.248  13
  -2   5  -1 8366.96 843.229   6
  -2   5   0 68500.0 2628.76  13
  -2   5   0 68853.8 2633.56  14
  -2   5   0 67219.2 2502.60   6
  -2   5   0 65966.2 2295.27   7
  -2   5   0 68912.6 2624.78  12
  -2   5   0 68546.1 1835.50  10
  -2   5   0 70978.0 1888.06  16
  -2   5   1 77711.0 2011.27  16
  -2   5   1 68690.9 2391.50   7
  -2   5   1 76218.3 2814.05  12
  -2   5   1 74211.8 2804.42  14
  -2   5   1 75253.8 2677.57   6
  -2   5   1 76545.8 2828.39  13
  -2   5   1 72424.7 1968.57  10
  -2   5   2 33577.6 1228.48  16
  -2   5   2 30072.7 1717.65   8
  -2   5   2 32550.3 1820.63  14
  -2   5   2 33989.9 1552.90   7
  -2   5   2 32665.9 1797.91  13
  -2   5   2 31857.2 1677.77   6
  -2   5   2 33038.4 1815.79  12
  -2   5   3 33188.9 1332.06  16
  -2   5   3 32691.8 1862.67   8
  -2   5   3 31566.7 1857.60  12
  -2   5   3 29792.0 1546.68   7
  -2   5   3 34282.1 1920.49  13
  -2   5   3 30655.7 1685.18   6
  -2   5   4 14982.9 977.485  16
  -2   5   4 15284.0 1335.82  12
  -2   5   4 14827.5 1119.81   7
  -2   5   4 14546.6 1346.60  13
  -2   5   4 15748.8 1369.65   8
  -2   5   4 14774.2 1208.83   6
  -2   5   5 49365.7 2399.81   6
  -2   5   5 48427.4 2515.79  13
  -2   5   5 48459.9 2570.39   8
  -2   5   5 45624.9 2139.66   7
  -2   5   5 49702.1 2547.86  12
  -2   5   6 79427.5 3532.79   8
  -2   5   6 80202.9 3298.30   6
  -2   5   6 77809.9 3425.38  13
  -2   5   6 78084.4 3109.27   7
  -2   5   6 80469.6 3474.98  12
  -2   5   7 23136.4 2003.71   8
  -2   5   7 28287.4 2126.78  13
  -2   5   7 23565.7 1682.48   7
  -2   5   7 25457.5 1972.70  12
  -2   5   8 11481.2 1448.21   8
  -2   5   8 12416.3 1477.77  13
  -2   5   8 11759.5 1181.76   7
  -2   5   8 12544.2 1448.54  12
  -2   5   9 23616.1 2024.49  12
  -2   5   9 21317.6 2059.89   8
  -2   5   9 24752.2 2144.58  13
  -2   5   9 22077.7 1832.16   7
  -2   5  10 36173.6 2884.32   8
  -2   5  10 39963.2 2888.50  13
  -2   5  10 40500.0 2878.52  12
  -2   6 -12 29330.3 2436.26  14
  -2   6 -12 37278.2 2663.14  20
  -2   6 -12 37938.6 2716.55  13
  -2   6 -12 33718.9 2654.42  15
  -2   6 -12 32623.0 2581.24  17
  -2   6 -11 32082.6 2457.08  13
  -2   6 -11 36968.5 2596.73  14
  -2   6 -11 36049.4 2796.41   4
  -2   6 -11 37193.9 2864.11  10
  -2   6 -11 34670.7 2597.01  15
  -2   6 -11 35498.8 2588.46  20
  -2   6 -10 13654.5 1451.01  15
  -2   6 -10 10441.2 1386.36   4
  -2   6 -10 10324.2 1268.81  13
  -2   6 -10 11154.6 1316.13  14
  -2   6 -10 12933.8 1417.87  20
  -2   6 -10 8839.82 1292.48  10
  -2   6  -9 16535.8 1721.43   4
  -2   6  -9 16033.5 1588.70  20
  -2   6  -9 14943.6 1541.98  14
  -2   6  -9 15782.4 1581.09  12
  -2   6  -9 15673.4 1568.07  13
  -2   6  -9 13409.3 1495.29  15
  -2   6  -9 12999.2 1487.75  10
  -2   6  -8 57040.0 2927.35  14
  -2   6  -8 57769.9 3066.78   4
  -2   6  -8 59103.7 2979.35  13
  -2   6  -8 56023.6 2936.06  15
  -2   6  -8 57281.4 3110.36   6
  -2   6  -8 54281.6 2903.39  12
  -2   6  -8 57178.5 2982.89  20
  -2   6  -8 55144.4 2989.12  10
  -2   6  -7 63560.9 3002.85  10
  -2   6  -7 59921.8 2968.60   4
  -2   6  -7 63164.3 2988.93  12
  -2   6  -7 60273.7 2936.38  15
  -2   6  -7 60410.8 3106.73   6
  -2   6  -7 60946.6 2948.35  13
  -2   6  -7 62920.6 2995.09  20
  -2   6  -7 60577.1 2942.94  14
  -2   6  -6 37075.9 2166.74  12
  -2   6  -6 37459.2 2219.99   6
  -2   6  -6 41166.1 1788.31   1
  -2   6  -6 36920.7 2172.95   4
  -2   6  -6 39161.6 2211.44  15
  -2   6  -6 36905.3 2154.67  13
  -2   6  -6 35640.7 2129.39  14
  -2   6  -6 36075.1 2098.89  10
  -2   6  -5 68.5875 331.236   4
  -2   6  -5 235.762 294.929  12
  -2   6  -5 20.0694 372.168   1
  -2   6  -5 387.048 386.823  14
  -2   6  -5 285.270 452.214  13
  -2   6  -5 710.705 608.605   6
  -2   6  -5 224.943 379.435   7
  -2   6  -5 444.695 307.461  10
  -2   6  -5 336.373 304.401  15
  -2   6  -4 39030.8 2052.19  15
  -2   6  -4 37594.4 2010.36  12
  -2   6  -4 34283.4 1920.83   7
  -2   6  -4 33940.1 1686.71   1
  -2   6  -4 35403.7 1972.35  13
  -2   6  -4 36620.2 1926.49   4
  -2   6  -4 35280.0 1985.62   6
  -2   6  -4 35317.1 1970.47  14
  -2   6  -3 254782. 6856.68  12
  -2   6  -3 261137. 6835.55   6
  -2   6  -3 268815. 6928.20  15
  -2   6  -3 261070. 6892.61  13
  -2   6  -3 263614. 6700.51   7
  -2   6  -3 263687. 6884.55  14
  -2   6  -2 42764.5 2098.46  15
  -2   6  -2 38187.4 1989.16  14
  -2   6  -2 39637.4 1891.83   7
  -2   6  -2 37095.4 1978.48  13
  -2   6  -2 36742.3 1934.90   6
  -2   6  -2 40769.0 2061.85  12
  -2   6  -1 3289.63 640.899   6
  -2   6  -1 1635.71 558.476  14
  -2   6  -1 2570.58 644.098  13
  -2   6  -1 2093.67 506.990   7
  -2   6  -1 1967.47 549.359  12
  -2   6   0 55705.3 2328.82   6
  -2   6   0 57485.1 2518.28  14
  -2   6   0 55306.8 2492.96  13
  -2   6   0 52351.6 2414.12  12
  -2   6   0 56520.7 1504.17  16
  -2   6   0 53199.2 2207.93   7
  -2   6   1 158980. 4828.44  12
  -2   6   1 153003. 4402.48   7
  -2   6   1 152226. 4794.01  14
  -2   6   1 153208. 4783.95  13
  -2   6   1 160059. 4607.77   6
  -2   6   1 161650. 3504.93  16
  -2   6   2 91594.9 2246.17  16
  -2   6   2 77268.6 3106.11   8
  -2   6   2 86194.9 3299.44  14
  -2   6   2 78388.9 2872.75   7
  -2   6   2 88615.2 3328.00  13
  -2   6   2 82157.6 3249.66  12
  -2   6   2 76053.8 2968.21   6
  -2   6   3 2979.40 710.560  12
  -2   6   3 2281.05 702.358   8
  -2   6   3 3786.38 768.057  14
  -2   6   3 2800.11 683.589  13
  -2   6   3 3687.88 616.343   7
  -2   6   3 3084.08 620.431   6
  -2   6   3 3473.92 439.843  16
  -2   6   4 19118.5 1070.64  16
  -2   6   4 14903.4 1409.03   8
  -2   6   4 14631.3 1211.30   7
  -2   6   4 15756.8 1415.58  13
  -2   6   4 15696.3 1479.24  12
  -2   6   4 14372.5 1273.93   6
  -2   6   5 59934.4 2234.85  16
  -2   6   5 55448.4 2621.12   6
  -2   6   5 56962.2 2896.00  12
  -2   6   5 52323.8 2500.30   7
  -2   6   5 55108.6 2821.27  13
  -2   6   5 55839.0 2882.60   8
  -2   6   6 44572.8 2467.04   6
  -2   6   6 40979.7 2633.08   8
  -2   6   6 41678.6 2331.37   7
  -2   6   6 45880.7 2688.68  12
  -2   6   6 38871.7 2520.95  13
  -2   6   7 43886.1 2813.70   8
  -2   6   7 42273.4 2581.58   6
  -2   6   7 42806.0 2716.06  13
  -2   6   7 47448.8 2532.92   7
  -2   6   7 43597.7 2723.44  12
  -2   6   8 19067.8 1776.56   6
  -2   6   8 14931.5 1762.97   8
  -2   6   8 18959.0 1935.25  13
  -2   6   8 18438.5 1635.34   7
  -2   6   8 22602.4 2029.43  12
  -2   6   9 14183.6 1721.04   8
  -2   6   9 14207.7 1674.67   6
  -2   6   9 15589.3 1918.00  13
  -2   6   9 17219.4 1881.53  12
  -2   6  10 24568.2 2343.39  12
  -2   6  10 27506.0 2333.35   6
  -2   6  10 24803.6 2409.06  13
  -2   7 -11 18967.9 1890.15  15
  -2   7 -11 20238.9 1954.61  14
  -2   7 -11 20076.5 1971.58  10
  -2   7 -11 17447.0 1847.36  20
  -2   7 -11 17783.1 1819.55  13
  -2   7 -10 7493.82 1154.32  15
  -2   7 -10 5473.34 1052.21  14
  -2   7 -10 5222.77 965.260  13
  -2   7 -10 4584.58 965.710   4
  -2   7 -10 6958.84 1058.66  12
  -2   7 -10 6713.83 1163.83  20
  -2   7 -10 7303.02 1260.74  10
  -2   7  -9 25001.6 2073.08  20
  -2   7  -9 23299.7 2027.80  13
  -2   7  -9 26882.2 2090.02  10
  -2   7  -9 26611.9 2100.46  15
  -2   7  -9 24021.7 2121.49   4
  -2   7  -9 25880.3 2104.70  12
  -2   7  -9 29826.7 2273.65  14
  -2   7  -8 48943.8 2822.70  15
  -2   7  -8 47720.4 2782.55  14
  -2   7  -8 44950.3 2716.96  10
  -2   7  -8 43969.7 2738.73  12
  -2   7  -8 45410.8 2776.02   4
  -2   7  -8 46051.5 2744.26  13
  -2   7  -8 48226.7 2804.38  20
  -2   7  -8 50213.0 2960.20   6
  -2   7  -7 43755.8 2703.53   6
  -2   7  -7 44182.9 2586.97  14
  -2   7  -7 43548.7 2482.89  10
  -2   7  -7 43884.1 2589.19  13
  -2   7  -7 40372.8 2511.67  12
  -2   7  -7 42621.5 2560.01   4
  -2   7  -7 40809.3 2542.22  20
  -2   7  -7 45877.7 2621.65  15
  -2   7  -6 9578.33 1134.06  15
  -2   7  -6 6614.96 1040.24  12
  -2   7  -6 10053.8 1087.34   7
  -2   7  -6 10918.5 1259.00   6
  -2   7  -6 8230.31 1124.52  14
  -2   7  -6 10510.5 1230.51  13
  -2   7  -6 8158.78 856.174   1
  -2   7  -6 7141.78 1009.63   4
  -2   7  -6 8696.85 996.209  10
  -2   7  -5 2070.45 602.834  14
  -2   7  -5 2377.60 619.353  15
  -2   7  -5 1968.82 508.432   1
  -2   7  -5 3188.78 752.056   6
  -2   7  -5 2300.74 656.848  13
  -2   7  -5 1758.17 573.798   7
  -2   7  -5 3574.05 748.921  12
  -2   7  -5 2734.18 644.724   4
  -2   7  -4 20595.1 1543.25   7
  -2   7  -4 22209.7 1642.75  14
  -2   7  -4 20792.0 1621.31  13
  -2   7  -4 20275.3 1613.09  12
  -2   7  -4 20131.0 1358.19   1
  -2   7  -4 23814.7 1675.14   6
  -2   7  -4 20220.9 1602.72  15
  -2   7  -3 124667. 4312.19  15
  -2   7  -3 123060. 4115.08   7
  -2   7  -3 123984. 4290.64  13
  -2   7  -3 128062. 4336.18  14
  -2   7  -3 124429. 4178.35   6
  -2   7  -3 125091. 4292.53  12
  -2   7  -2 127229. 4266.08  15
  -2   7  -2 116646. 4157.61  14
  -2   7  -2 118006. 4154.82  13
  -2   7  -2 125334. 4097.56   6
  -2   7  -2 124660. 4005.70   7
  -2   7  -2 119524. 4183.87  12
  -2   7  -1 15346.4 1387.47  14
  -2   7  -1 17856.7 1341.02   7
  -2   7  -1 18661.1 1488.21  13
  -2   7  -1 17152.6 1337.36   6
  -2   7  -1 17555.6 1444.37  12
  -2   7   0 31449.7 1964.13  13
  -2   7   0 36905.0 2109.48  14
  -2   7   0 34432.1 1837.58   7
  -2   7   0 35741.3 2079.55  12
  -2   7   0 31600.9 1844.53   6
  -2   7   1 134972. 4257.77   6
  -2   7   1 132403. 4514.84  13
  -2   7   1 133954. 4535.77  14
  -2   7   1 128696. 4150.21   7
  -2   7   1 132572. 4517.95  12
  -2   7   2 82754.1 3473.09  14
  -2   7   2 92119.8 3600.09  13
  -2   7   2 83537.6 3197.44   7
  -2   7   2 84067.8 3225.37   6
  -2   7   2 87801.4 3550.46  12
  -2   7   3 3628.17 766.949  14
  -2   7   3 3469.04 810.200   8
  -2   7   3 5083.13 888.110  13
  -2   7   3 3440.57 672.540   7
  -2   7   3 4003.81 761.196  12
  -2   7   3 3646.59 681.006   6
  -2   7   4 3655.67 866.084  12
  -2   7   4 5830.57 1009.67   8
  -2   7   4 4513.75 886.714  13
  -2   7   4 4712.98 730.804   7
  -2   7   4 5688.74 1013.74  14
  -2   7   4 5447.12 770.354   6
  -2   7   5 54859.0 3002.88   8
  -2   7   5 55319.0 3029.98  12
  -2   7   5 57135.3 3028.04  14
  -2   7   5 54411.8 2715.61   7
  -2   7   5 62729.6 3140.20  13
  -2   7   5 58399.3 2825.92   6
  -2   7   6 49892.2 3025.31   8
  -2   7   6 42713.2 2699.59  14
  -2   7   6 48568.4 2672.47   7
  -2   7   6 51749.8 2952.44  13
  -2   7   6 45337.6 2623.82   6
  -2   7   6 50091.1 2969.18  12
  -2   7   7 14353.8 1803.60   8
  -2   7   7 16291.0 1631.51   6
  -2   7   7 18816.4 1805.03  12
  -2   7   7 18025.0 1824.31  13
  -2   7   7 16397.2 1531.57   7
  -2   7   8 8729.88 1292.16   8
  -2   7   8 5116.31 994.657   6
  -2   7   8 7760.78 1098.68   7
  -2   7   8 7343.17 1202.63  12
  -2   7   8 8431.09 1316.55  13
  -2   7   9 7127.86 1332.21  12
  -2   7   9 11229.1 1542.76  13
  -2   7   9 8107.38 1260.98   6
  -2   8 -11 32133.5 2681.83  10
  -2   8 -10 2032.58 800.085   4
  -2   8 -10 2909.74 737.412  15
  -2   8 -10 2571.10 710.335  14
  -2   8 -10 3492.56 858.997  13
  -2   8 -10 3322.06 749.576  20
  -2   8 -10 4255.25 1048.57  12
  -2   8 -10 2975.33 992.382  10
  -2   8  -9 12998.4 1571.72  15
  -2   8  -9 13225.5 1602.33  14
  -2   8  -9 14030.9 1620.03  12
  -2   8  -9 17871.4 1744.30  13
  -2   8  -9 14884.3 1685.03   4
  -2   8  -9 13128.4 1637.80  20
  -2   8  -9 14026.2 1598.65  10
  -2   8  -8 46911.9 2971.46  15
  -2   8  -8 46781.7 2912.07  14
  -2   8  -8 50556.3 2885.46  10
  -2   8  -8 48689.2 2992.37  12
  -2   8  -8 46447.9 2904.57  20
  -2   8  -8 43767.0 2818.52   4
  -2   8  -8 40957.6 2782.04  13
  -2   8  -8 49067.0 3039.22   6
  -2   8  -7 47262.3 2822.77  14
  -2   8  -7 47597.6 2839.48  12
  -2   8  -7 46539.0 2801.51  13
  -2   8  -7 44818.1 2730.61   4
  -2   8  -7 47172.7 2806.30  15
  -2   8  -7 45004.3 2731.59  20
  -2   8  -7 46043.2 2817.43   6
  -2   8  -7 45851.5 2627.34  10
  -2   8  -6 14780.4 1465.13   7
  -2   8  -6 13031.4 1524.04  13
  -2   8  -6 12793.4 1387.47   4
  -2   8  -6 14788.1 1505.38  12
  -2   8  -6 14050.6 1473.21   6
  -2   8  -6 17588.3 1624.99  15
  -2   8  -6 16072.7 1558.82  14
  -2   8  -5 3942.05 817.613  15
  -2   8  -5 3638.95 787.236   4
  -2   8  -5 3630.30 791.297  14
  -2   8  -5 3656.97 804.075  13
  -2   8  -5 4113.71 859.630   7
  -2   8  -5 5347.55 954.642   6
  -2   8  -5 4514.19 712.029   1
  -2   8  -5 4488.40 860.261  12
  -2   8  -4 66249.7 3168.26  15
  -2   8  -4 69421.1 3251.98  12
  -2   8  -4 68617.9 3225.58  14
  -2   8  -4 66363.8 3061.48   7
  -2   8  -4 66449.4 3052.96   6
  -2   8  -4 67034.2 3216.17  13
  -2   8  -3 95515.4 3839.40  15
  -2   8  -3 99020.0 3865.67  14
  -2   8  -3 91163.7 3596.66   7
  -2   8  -3 93225.0 3774.01  13
  -2   8  -3 89136.9 3572.55   6
  -2   8  -3 87950.1 3723.95  12
  -2   8  -2 54450.0 2816.53  15
  -2   8  -2 61241.8 2750.18   6
  -2   8  -2 57307.3 2863.19  14
  -2   8  -2 55152.8 2656.03   7
  -2   8  -2 55505.4 2861.25  13
  -2   8  -2 60768.0 2948.46  12
  -2   8  -1 27408.9 1989.35  15
  -2   8  -1 31454.4 1867.54   7
  -2   8  -1 27638.5 1915.39  13
  -2   8  -1 29768.5 1863.18   6
  -2   8  -1 27026.4 1944.40  12
  -2   8  -1 27818.2 1988.91  14
  -2   8   0 9087.43 1052.45   6
  -2   8   0 6520.55 1094.45  14
  -2   8   0 10142.6 1065.47   7
  -2   8   0 7975.82 1105.42  12
  -2   8   0 9022.22 1193.38  13
  -2   8   1 78997.7 3214.51   6
  -2   8   1 83958.7 3580.78  12
  -2   8   1 82041.0 3540.16  14
  -2   8   1 82219.1 3547.32  13
  -2   8   1 73957.6 3159.23   7
  -2   8   2 85585.1 3724.38  12
  -2   8   2 94224.8 3899.31  14
  -2   8   2 83038.2 3396.57   7
  -2   8   2 85962.2 3745.32  13
  -2   8   2 85585.9 3400.65   6
  -2   8   3 7836.11 1214.49  12
  -2   8   3 8177.93 1165.58   8
  -2   8   3 6141.36 1081.62  14
  -2   8   3 9419.44 1059.29   6
  -2   8   3 6130.75 960.616  13
  -2   8   3 6512.74 914.265   7
  -2   8   4 1514.85 684.953   8
  -2   8   4 3400.66 844.129  14
  -2   8   4 1997.36 730.479  13
  -2   8   4 1788.29 634.970   7
  -2   8   4 2264.47 705.934  12
  -2   8   4 1428.95 596.186   6
  -2   8   5 15416.7 1481.67   6
  -2   8   5 13710.0 1605.79   8
  -2   8   5 14814.5 1707.53  12
  -2   8   5 15350.7 1696.87  14
  -2   8   5 13189.1 1394.33   7
  -2   8   5 14780.1 1645.78  13
  -2   8   6 28592.4 2339.80  13
  -2   8   6 28536.9 2393.66   8
  -2   8   6 30162.8 2356.34  14
  -2   8   6 28236.6 2118.06   7
  -2   8   6 31338.9 2238.61   6
  -2   8   6 30098.0 2368.07  12
  -2   8   7 9760.30 1438.44  14
  -2   8   7 11402.7 1574.99  13
  -2   8   7 12832.4 1469.83   7
  -2   8   7 12692.5 1588.50   8
  -2   8   7 9790.45 1451.43  12
  -2   8   7 11270.4 1403.72   6
  -2   8   8 1001.25 446.217  14
  -2   8   8 656.397 573.489  13
  -2   9  -9 7927.50 1319.12  12
  -2   9  -9 7413.60 1201.03  15
  -2   9  -9 5927.85 1118.24   6
  -2   9  -9 7720.15 1273.80  20
  -2   9  -9 6075.22 1100.03  14
  -2   9  -9 8083.70 1230.68  13
  -2   9  -9 4982.55 959.577   4
  -2   9  -8 48374.5 3163.47  14
  -2   9  -8 50911.6 3216.25  15
  -2   9  -8 48259.4 3144.55  12
  -2   9  -8 51826.1 3262.52   6
  -2   9  -8 46539.7 3096.32  13
  -2   9  -8 52242.2 3193.46   4
  -2   9  -8 49579.2 3168.30  20
  -2   9  -7 80370.7 3999.26  14
  -2   9  -7 82997.9 3952.24   7
  -2   9  -7 86010.1 4102.01  13
  -2   9  -7 75874.5 3957.79  15
  -2   9  -7 76794.9 3802.74   4
  -2   9  -7 72246.7 3877.27  12
  -2   9  -7 79972.0 4048.18  20
  -2   9  -7 84158.2 4031.07   6
  -2   9  -6 21177.6 1883.94   6
  -2   9  -6 20554.2 1949.91  15
  -2   9  -6 20017.3 1814.18   7
  -2   9  -6 18185.2 1854.67  14
  -2   9  -6 22615.4 1953.83  13
  -2   9  -6 19498.6 1764.00   4
  -2   9  -6 20049.7 1910.68  12
  -2   9  -5 3957.58 918.858  12
  -2   9  -5 7129.46 1077.30   6
  -2   9  -5 5052.38 986.931  15
  -2   9  -5 6507.31 1150.79  13
  -2   9  -5 6665.49 1071.63  14
  -2   9  -5 5944.27 1043.22   7
  -2   9  -4 20144.9 1850.50  12
  -2   9  -4 18709.2 1782.49  15
  -2   9  -4 24498.8 1984.91  14
  -2   9  -4 22030.0 1772.06   7
  -2   9  -4 18723.5 1807.92  13
  -2   9  -4 24324.6 1872.88   6
  -2   9  -3 58439.0 3131.79  15
  -2   9  -3 63051.6 3184.89  14
  -2   9  -3 54782.7 2886.32   7
  -2   9  -3 60975.1 2972.73   6
  -2   9  -3 58893.4 3126.95  13
  -2   9  -3 57049.1 3108.71  12
  -2   9  -2 34420.7 2284.82  13
  -2   9  -2 27785.6 2076.46  15
  -2   9  -2 27845.0 2070.04  14
  -2   9  -2 28029.0 1967.06   6
  -2   9  -2 27046.3 2077.35  12
  -2   9  -2 30595.6 2030.81   7
  -2   9  -1 8885.00 1159.64  15
  -2   9  -1 7138.58 1089.73  12
  -2   9  -1 9596.26 1110.74   7
  -2   9  -1 10356.6 1219.61  13
  -2   9  -1 8189.88 1045.71   6
  -2   9  -1 7221.91 1165.33  14
  -2   9   0 19699.3 1595.55   6
  -2   9   0 19029.0 1543.11   7
  -2   9   0 15288.0 1610.98  13
  -2   9   0 16866.3 1643.72  14
  -2   9   0 18542.4 1668.46  12
  -2   9   1 55402.7 3075.76  14
  -2   9   1 53609.7 2993.78  13
  -2   9   1 52045.7 2769.84   7
  -2   9   1 50637.9 2676.50   6
  -2   9   1 57566.4 3057.65  12
  -2   9   2 52726.1 3002.24  13
  -2   9   2 49563.9 2860.99  14
  -2   9   2 47847.8 2657.19   7
  -2   9   2 45954.3 2820.32  12
  -2   9   2 47596.7 2590.74   6
  -2   9   3 5294.62 964.178  12
  -2   9   3 6309.75 974.190   6
  -2   9   3 5432.76 990.128  14
  -2   9   3 5321.07 975.199  13
  -2   9   3 5441.59 904.788   7
  -2   9   4 1034.33 524.468  14
  -2   9   4 968.953 456.685   8
  -2   9   4 703.189 714.211  13
  -2   9   4 1297.80 429.470   7
  -2   9   4 410.427 553.723  12
  -2   9   4 919.748 431.539   6
  -2   9   5 8020.14 1405.32   8
  -2   9   5 9809.89 1445.52  14
  -2   9   5 8604.44 1153.34   7
  -2   9   5 9437.22 1348.85  13
  -2   9   5 9254.35 1425.67  12
  -2   9   6 20616.3 1937.94   7
  -2   9   6 25623.2 2381.16   8
  -2   9   6 24407.9 2339.97  14
  -2   9   6 23621.7 2217.53  13
  -2   9   6 23334.9 2172.19  12
  -2  10  -8 22459.0 2155.23   4
  -2  10  -8 24383.5 2282.22   6
  -2  10  -7 59615.2 3643.83  15
  -2  10  -7 57152.7 3495.10   6
  -2  10  -7 59325.6 3556.18  14
  -2  10  -7 58273.6 3435.56   4
  -2  10  -7 58305.0 3563.95  12
  -2  10  -7 53850.8 3432.89  13
  -2  10  -7 56635.3 3368.32   7
  -2  10  -7 58864.2 3633.95  20
  -2  10  -6 14479.8 1592.17   7
  -2  10  -6 13567.6 1616.24  15
  -2  10  -6 12488.0 1511.05  14
  -2  10  -6 12707.1 1496.64  13
  -2  10  -6 12446.2 1451.73   4
  -2  10  -6 13034.5 1605.06  12
  -2  10  -6 13126.6 1571.67   6
  -2  10  -5 1010.30 459.490  12
  -2  10  -5 415.475 600.053  15
  -2  10  -5 976.235 458.752  14
  -2  10  -5 1045.81 571.831  13
  -2  10  -5 890.137 595.472   7
  -2  10  -5 467.729 554.055   6
  -2  10  -4 14950.1 1681.73  12
  -2  10  -4 15233.1 1686.89  15
  -2  10  -4 13483.6 1544.52  14
  -2  10  -4 13304.3 1501.38   7
  -2  10  -4 14404.8 1637.41  13
  -2  10  -4 14151.8 1529.15   6
  -2  10  -3 24612.7 2133.11  12
  -2  10  -3 26826.7 2060.76   6
  -2  10  -3 30895.2 2368.16  15
  -2  10  -3 29018.6 2266.79  13
  -2  10  -3 29205.2 2275.97  14
  -2  10  -3 28303.5 2161.02   7
  -2  10  -2 34141.0 2444.38  14
  -2  10  -2 33024.2 2281.81   7
  -2  10  -2 32086.0 2406.25  13
  -2  10  -2 36577.5 2580.50  15
  -2  10  -2 34895.1 2341.77   6
  -2  10  -2 36882.2 2514.30  12
  -2  10  -1 5998.54 1081.88  15
  -2  10  -1 6513.93 1097.40  12
  -2  10  -1 6199.74 1050.14  13
  -2  10  -1 5810.75 996.664   7
  -2  10  -1 5960.59 1109.83  14
  -2  10  -1 6685.01 1052.66   6
  -2  10   0 4120.88 970.760  13
  -2  10   0 5558.67 878.813   7
  -2  10   0 4062.38 995.942  15
  -2  10   0 6059.08 1078.08  12
  -2  10   0 7002.39 1090.09   6
  -2  10   0 4795.05 1026.65  14
  -2  10   1 41541.9 2747.58  14
  -2  10   1 40411.1 2748.96  13
  -2  10   1 42768.4 2816.78  12
  -2  10   1 42066.0 2551.54   6
  -2  10   1 41775.3 2595.36   7
  -2  10   2 30294.0 2418.24  14
  -2  10   2 32542.0 2341.88   7
  -2  10   2 32739.4 2523.37  13
  -2  10   2 31163.7 2452.42  12
  -2  10   3 13172.9 1549.16  14
  -2  10   3 11402.4 1299.48   7
  -2  10   3 13168.4 1687.32  13
  -2  10   3 11092.8 1444.32  12
  -2  10   4 4608.02 936.318  14
  -2  10   4 4419.88 897.733  13
  -2  10   4 3187.25 845.193   7
  -2  10   4 2713.97 880.289  12
  -2  10   5 10970.7 1454.48   7
  -2  11  -7 30837.6 2637.59   6
  -2  11  -6 15385.1 1772.90   4
  -2  11  -6 16169.4 1897.28   6
  -2  11  -5 2830.28 995.684   6
  -2  11  -5 4582.62 1004.49   7
  -2  11  -4 11705.2 1501.61  14
  -2  11  -4 11684.7 1618.02  13
  -2  11  -4 8441.28 1290.31   7
  -2  11  -4 11811.0 1490.23  12
  -2  11  -4 10850.7 1599.25  15
  -2  11  -4 9018.47 1288.37   6
  -2  11  -3 33622.2 2690.91  12
  -2  11  -3 35211.0 2675.77  14
  -2  11  -3 30247.1 2345.07   6
  -2  11  -3 33833.2 2630.06  13
  -2  11  -3 28087.2 2438.43  15
  -2  11  -3 30636.2 2310.43   7
  -2  11  -2 19208.0 1946.51  14
  -2  11  -2 16611.2 1937.14  13
  -2  11  -2 16508.0 1812.88  15
  -2  11  -2 15911.5 1605.20   7
  -2  11  -2 16639.5 1852.60  12
  -2  11  -1 8044.70 1270.64  14
  -2  11  -1 5100.12 1000.98  12
  -2  11  -1 7098.96 1258.77  15
  -2  11  -1 6624.46 1178.84  13
  -2  11  -1 5561.24 918.156   7
  -2  11   0 8589.59 1332.64  15
  -2  11   0 7288.04 1271.99  13
  -2  11   0 6964.85 1052.61   7
  -2  11   0 8990.69 1391.07  12
  -2  11   0 9282.16 1332.50  14
  -2  11   1 31981.9 2592.48  15
  -2  11   1 29507.9 2511.08  14
  -2  11   1 30673.6 2384.20   7
  -2  11   1 33213.7 2611.53  13
  -2  11   1 28076.5 2476.90  12
  -2  11   2 39344.3 2724.90   7
  -1 -12   3 3070.58 979.069  11
  -1 -12   4 11161.1 1603.16   2
  -1 -12   4 11074.1 1667.07  11
  -1 -12   4 11809.8 1488.21  18
  -1 -12   4 14859.3 1774.81  19
  -1 -12   5 24239.9 2248.28  18
  -1 -12   5 24039.7 2133.18   2
  -1 -12   5 20858.9 1998.66  19
  -1 -11   0 12657.5 1605.80   9
  -1 -11   0 10852.8 1770.46  11
  -1 -11   0 13999.7 1805.87   2
  -1 -11   1 32776.2 2537.66   2
  -1 -11   1 35165.7 2815.24  11
  -1 -11   1 40051.9 2821.74   9
  -1 -11   2 18563.9 1864.45   9
  -1 -11   2 15359.5 1517.51  18
  -1 -11   2 15935.1 1750.52   2
  -1 -11   2 16926.1 1906.62  11
  -1 -11   2 13708.3 1518.74  19
  -1 -11   3 486.247 338.296  19
  -1 -11   3 903.770 721.112   9
  -1 -11   3 144.071 168.517  18
  -1 -11   3 621.968 565.220  11
  -1 -11   4 4209.07 900.760   2
  -1 -11   4 4736.08 942.664  18
  -1 -11   4 2830.81 902.839   9
  -1 -11   4 3588.81 829.958  19
  -1 -11   4 3423.16 908.334  11
  -1 -11   5 31288.6 2443.88   9
  -1 -11   5 28995.7 2196.22   2
  -1 -11   5 29224.2 2333.41  19
  -1 -11   5 31140.0 2386.01  18
  -1 -11   5 30103.9 2328.78  11
  -1 -11   6 19497.1 1993.97  19
  -1 -11   6 23473.7 2231.30  18
  -1 -11   6 27197.9 2031.25   2
  -1 -11   6 25499.1 2206.20   9
  -1 -11   7 2479.50 924.228   9
  -1 -11   7 4340.41 999.083  18
  -1 -11   7 3646.62 1002.97  19
  -1 -10  -3 25345.2 2538.74  11
  -1 -10  -3 24296.6 2360.81   2
  -1 -10  -2 11225.2 1699.13  11
  -1 -10  -2 9025.75 1395.96   2
  -1 -10  -1 13398.2 1593.03   2
  -1 -10  -1 16027.9 1763.86  11
  -1 -10   0 17964.4 1795.95   2
  -1 -10   0 15251.9 1818.17  11
  -1 -10   0 17711.9 1804.24   9
  -1 -10   1 18405.6 1568.02  18
  -1 -10   1 20549.8 1961.42   2
  -1 -10   1 20356.5 1597.81  19
  -1 -10   1 18744.3 1957.97  11
  -1 -10   1 20210.4 1874.02   9
  -1 -10   1 19285.1 1612.91  17
  -1 -10   2 42798.3 2657.45   9
  -1 -10   2 44278.8 2759.11   2
  -1 -10   2 41548.4 2477.35  18
  -1 -10   2 38073.8 2726.14  11
  -1 -10   2 43001.4 2532.94  19
  -1 -10   3 7717.32 1188.32   9
  -1 -10   3 5739.32 1002.55  11
  -1 -10   3 5474.26 936.539  18
  -1 -10   3 6702.78 1093.80   2
  -1 -10   3 7558.06 1026.69  19
  -1 -10   4 4571.33 1001.67   2
  -1 -10   4 6684.54 1016.34  19
  -1 -10   4 3942.24 837.908  11
  -1 -10   4 5130.05 871.992  18
  -1 -10   5 52102.1 2994.82  19
  -1 -10   5 48984.6 2710.02   2
  -1 -10   5 45521.3 2892.82  18
  -1 -10   5 50967.6 2824.08  11
  -1 -10   5 49866.2 2951.54   9
  -1 -10   6 48843.3 2963.45   9
  -1 -10   6 48877.5 2652.03   2
  -1 -10   6 48185.5 2973.18  18
  -1 -10   6 50441.4 3026.06  19
  -1 -10   7 17226.5 1741.83  19
  -1 -10   7 14817.5 1676.37  18
  -1 -10   7 16479.7 1711.92   9
  -1 -10   8 9391.31 1325.39   9
  -1 -10   8 7998.28 1288.39  19
  -1 -10   8 9125.92 1273.97  18
  -1 -10   9 50574.6 3166.60   9
  -1 -10   9 50637.6 3355.21  18
  -1 -10   9 47393.7 3247.10  19
  -1  -9  -5-384.567 584.660   2
  -1  -9  -5 1832.97 747.552  11
  -1  -9  -4 19862.5 2101.98  11
  -1  -9  -4 19759.6 2047.15   2
  -1  -9  -3 46013.0 3080.44   2
  -1  -9  -3 44318.5 3134.83  11
  -1  -9  -2 14830.4 1665.41   2
  -1  -9  -2 16025.2 1855.14  11
  -1  -9  -1 5104.74 942.776   2
  -1  -9  -1 5387.50 1045.23   9
  -1  -9  -1 5495.00 1158.60  11
  -1  -9  -1 7331.79 924.731  17
  -1  -9  -1 5743.73 754.500  18
  -1  -9   0 31908.4 1966.78  18
  -1  -9   0 29907.5 2203.35   9
  -1  -9   0 32010.8 1954.30  19
  -1  -9   0 30587.7 2410.48  11
  -1  -9   0 31008.6 2268.48   2
  -1  -9   0 32366.3 1940.50  17
  -1  -9   1 55805.6 3274.99  11
  -1  -9   1 58939.6 3089.31   2
  -1  -9   1 59880.5 2789.67  18
  -1  -9   1 63004.3 2833.27  19
  -1  -9   1 56604.5 2754.32  17
  -1  -9   1 65151.3 3188.37   9
  -1  -9   2 61600.3 2917.93  18
  -1  -9   2 68301.0 3044.22  19
  -1  -9   2 65437.7 3193.59   9
  -1  -9   2 67165.7 3233.50   2
  -1  -9   2 65527.3 3339.70  11
  -1  -9   3 40207.1 2391.27   9
  -1  -9   3 35927.1 2219.11  19
  -1  -9   3 38759.5 2318.16   2
  -1  -9   3 35966.0 2214.33  18
  -1  -9   3 31356.1 2224.40  11
  -1  -9   4 10970.4 1242.42  18
  -1  -9   4 11402.5 1283.06   9
  -1  -9   4 9977.80 1146.03   2
  -1  -9   4 9511.89 1162.72  19
  -1  -9   4 12494.6 1344.53  11
  -1  -9   5 31984.1 2138.53   9
  -1  -9   5 29292.9 1940.54   2
  -1  -9   5 27602.5 2078.89  19
  -1  -9   5 29035.1 2109.87  18
  -1  -9   5 31818.9 1985.03  11
  -1  -9   6 42145.1 2650.73  18
  -1  -9   6 42580.1 2301.22   2
  -1  -9   6 41185.7 2620.92  19
  -1  -9   6 44197.9 2292.07  11
  -1  -9   6 41155.2 2502.06   9
  -1  -9   7 20396.0 1783.39   9
  -1  -9   7 20975.8 1907.58  19
  -1  -9   7 18659.8 1827.34  18
  -1  -9   8 12123.7 1444.74   9
  -1  -9   8 14051.0 1607.98  19
  -1  -9   8 10769.3 1371.55  18
  -1  -9   9 26308.2 2161.73   9
  -1  -9   9 27489.6 2399.39  19
  -1  -9   9 25463.2 2275.58  18
  -1  -9  10 64494.9 3631.12   9
  -1  -9  10 67557.8 3865.32  19
  -1  -9  11 13590.4 1610.13   9
  -1  -8  -7 31701.1 2758.66  11
  -1  -8  -7 31980.2 2780.18   2
  -1  -8  -7 34643.4 2630.27  10
  -1  -8  -6 17606.3 1927.30   2
  -1  -8  -6 22416.7 2214.20  11
  -1  -8  -5-560.817 410.184   2
  -1  -8  -5 238.079 509.306  11
  -1  -8  -4 17064.8 1793.05   2
  -1  -8  -4 15933.3 1836.95  11
  -1  -8  -3 62880.5 3401.62   2
  -1  -8  -3 63856.7 3555.96  11
  -1  -8  -2 29008.5 2197.75   2
  -1  -8  -2 29591.8 1729.00  18
  -1  -8  -2 31202.8 1760.39  19
  -1  -8  -2 33353.4 1812.53  17
  -1  -8  -1 17093.1 1612.80   9
  -1  -8  -1 19255.1 1369.30  17
  -1  -8  -1 20160.3 1417.53  18
  -1  -8  -1 19940.9 1746.57   2
  -1  -8  -1 20695.1 1857.43  11
  -1  -8  -1 18174.4 1348.04  19
  -1  -8   0 30951.4 2269.51  11
  -1  -8   0 31341.6 2144.29   2
  -1  -8   0 30586.4 1764.90  18
  -1  -8   0 32887.9 2136.68   9
  -1  -8   0 32013.8 1827.87  19
  -1  -8   0 34410.7 1857.50  17
  -1  -8   1 123548. 4674.25  11
  -1  -8   1 119138. 4004.17  19
  -1  -8   1 115010. 4350.57   2
  -1  -8   1 120682. 4004.81  18
  -1  -8   1 123703. 4378.10   9
  -1  -8   1 124952. 4061.26  17
  -1  -8   2 93321.0 3585.08   9
  -1  -8   2 84959.4 3478.64   2
  -1  -8   2 79839.8 3234.92  19
  -1  -8   2 90369.8 3725.47  11
  -1  -8   2 88017.2 3341.39  18
  -1  -8   3 11528.4 1282.40  11
  -1  -8   3 7689.58 1073.09   9
  -1  -8   3 10425.1 1100.02  18
  -1  -8   3 9454.78 1067.03   2
  -1  -8   3 8973.23 1053.42  19
  -1  -8   4 16846.4 1422.99  11
  -1  -8   4 17468.6 1498.21  19
  -1  -8   4 14566.1 1394.24  18
  -1  -8   4 19067.9 1551.93   9
  -1  -8   4 16326.8 1387.11   2
  -1  -8   5 21873.9 1695.00  19
  -1  -8   5 23094.7 1558.22  11
  -1  -8   5 19404.3 1455.47   2
  -1  -8   5 18708.0 1594.81  18
  -1  -8   5 19042.5 1596.91   9
  -1  -8   6 44072.7 2453.89   9
  -1  -8   6 38679.0 2409.10  19
  -1  -8   6 45271.0 2132.79  11
  -1  -8   6 38737.4 2401.05  18
  -1  -8   7 32262.2 2154.49   9
  -1  -8   7 30104.5 2197.97  19
  -1  -8   7 34719.6 2342.22  18
  -1  -8   8 6802.84 1076.64   9
  -1  -8   8 8085.89 1185.14  18
  -1  -8   8 9127.12 1257.70  19
  -1  -8   9 26061.3 2081.61   9
  -1  -8   9 26824.3 2244.91  19
  -1  -8  10 44903.2 2841.46   9
  -1  -8  10 43283.9 3005.98  19
  -1  -8  11 30703.7 2418.24   9
  -1  -8  11 25664.8 2468.52  19
  -1  -8  12 9621.14 1400.12   9
  -1  -7  -8 24720.0 2281.34   2
  -1  -7  -8 29562.1 2398.20  11
  -1  -7  -8 21685.5 2154.87  10
  -1  -7  -7 46577.3 2981.48  10
  -1  -7  -7 46725.5 3121.85  11
  -1  -7  -7 45728.6 3127.17   2
  -1  -7  -6 16700.1 1746.71   2
  -1  -7  -6 19185.0 1944.69  11
  -1  -7  -6 14611.1 1600.14  10
  -1  -7  -5 3570.64 855.456   2
  -1  -7  -5 2909.20 829.695  11
  -1  -7  -5 2025.15 605.381  10
  -1  -7  -4 19164.5 1663.26  10
  -1  -7  -4 16707.3 1673.17   2
  -1  -7  -4 18899.8 1852.77  11
  -1  -7  -3 84843.5 2966.40  19
  -1  -7  -3 76939.5 3807.32  11
  -1  -7  -3 79363.3 3688.69   2
  -1  -7  -3 85303.1 2959.80  18
  -1  -7  -3 88227.8 3013.51  17
  -1  -7  -2 62225.7 2444.08  18
  -1  -7  -2 61024.3 3204.18  11
  -1  -7  -2 59765.5 3030.67   2
  -1  -7  -2 63639.6 2460.04  19
  -1  -7  -2 65917.6 2486.07  17
  -1  -7  -1 6162.90 947.698   9
  -1  -7  -1 4983.92 657.946  19
  -1  -7  -1 6125.15 707.551  18
  -1  -7  -1 6092.35 725.704  17
  -1  -7  -1 8709.74 1153.55  11
  -1  -7  -1 6991.08 1020.52   2
  -1  -7   0 7286.20 799.510  18
  -1  -7   0 7275.35 1040.52   9
  -1  -7   0 10003.4 1125.38   2
  -1  -7   0 8355.00 824.848  19
  -1  -7   0 7477.12 1097.84  11
  -1  -7   0 8613.63 855.986  17
  -1  -7   1 89228.8 3141.19  18
  -1  -7   1 93781.5 3507.73   2
  -1  -7   1 97173.2 3500.59   9
  -1  -7   1 91894.4 3687.06  11
  -1  -7   1 93923.9 3192.17  17
  -1  -7   1 91226.2 3149.86  19
  -1  -7   2 116541. 3953.31   2
  -1  -7   2 117904. 4150.15  11
  -1  -7   2 123332. 4031.46   9
  -1  -7   2 115693. 3762.90  18
  -1  -7   2 115957. 3767.35  19
  -1  -7   3 24895.2 975.420  16
  -1  -7   3 23502.3 1561.52  19
  -1  -7   3 21122.8 1514.73   2
  -1  -7   3 23715.3 1551.34  18
  -1  -7   3 23906.1 1619.25  11
  -1  -7   3 22354.0 1586.63   9
  -1  -7   4 17547.4 889.537  16
  -1  -7   4 15709.5 1233.17   2
  -1  -7   4 14456.4 1295.99  18
  -1  -7   4 17028.8 1390.84   9
  -1  -7   4 14478.9 1284.68  19
  -1  -7   4 16355.3 1285.35  11
  -1  -7   5 50445.6 1844.80  16
  -1  -7   5 52545.7 2473.92   9
  -1  -7   5 51996.0 2216.47  11
  -1  -7   5 53724.4 2293.84   2
  -1  -7   5 48913.8 2483.40  18
  -1  -7   5 49596.6 2491.89  19
  -1  -7   6 56193.8 2131.00  16
  -1  -7   6 54093.6 2615.24   9
  -1  -7   6 51868.8 2672.68  19
  -1  -7   6 55477.1 2751.91  18
  -1  -7   6 59989.2 2266.31  11
  -1  -7   7 37872.3 2207.19   9
  -1  -7   7 39897.8 2433.71  19
  -1  -7   7 38482.4 2401.80  18
  -1  -7   8 5153.53 893.806   9
  -1  -7   8 5919.44 1021.43  19
  -1  -7   8 5950.66 1023.80  18
  -1  -7   9 21843.0 1836.03   9
  -1  -7   9 21187.2 1923.96  19
  -1  -7  10 83525.0 3814.92   9
  -1  -7  10 77761.1 3930.26  19
  -1  -7  11 41199.3 2750.74   9
  -1  -7  11 40406.1 2863.88  19
  -1  -7  12 20218.1 2020.65   9
  -1  -7  12 18225.3 2107.80  19
  -1  -6  -9 3347.47 821.058   2
  -1  -6  -9 4282.03 995.157  10
  -1  -6  -8 18989.8 1870.72   2
  -1  -6  -8 18627.5 1847.88  11
  -1  -6  -8 17325.2 1898.06  10
  -1  -6  -7 70749.8 3642.14   2
  -1  -6  -7 74550.0 3714.36  11
  -1  -6  -7 69288.5 3528.88  10
  -1  -6  -6 26154.0 2134.32  11
  -1  -6  -6 22808.9 1982.79   2
  -1  -6  -6 27175.6 2049.14  10
  -1  -6  -5 3418.92 810.639  10
  -1  -6  -5 3854.51 833.936   2
  -1  -6  -5 4170.13 856.159  11
  -1  -6  -4 28286.6 2100.18  11
  -1  -6  -4 30483.2 1521.46  19
  -1  -6  -4 28837.1 2068.23   2
  -1  -6  -4 26505.0 1457.07  20
  -1  -6  -4 27593.2 1844.67  10
  -1  -6  -4 27302.9 1443.56  18
  -1  -6  -4 30410.9 1511.22  17
  -1  -6  -3 48065.6 1974.28  20
  -1  -6  -3 47511.3 2373.11  10
  -1  -6  -3 51412.3 2678.02   2
  -1  -6  -3 50507.8 2005.05  18
  -1  -6  -3 51066.2 2004.38  19
  -1  -6  -3 55080.5 2072.73  17
  -1  -6  -3 54605.7 2925.18  11
  -1  -6  -2 58362.1 2680.43   9
  -1  -6  -2 56801.0 2737.56   2
  -1  -6  -2 53076.4 2798.16  11
  -1  -6  -2 56213.9 2112.08  19
  -1  -6  -2 54923.1 2095.75  17
  -1  -6  -2 56697.5 2119.22  18
  -1  -6  -1 682.884 481.427   2
  -1  -6  -1 921.263 458.529   9
  -1  -6  -1 456.265 298.483  19
  -1  -6  -1 868.265 278.648  18
  -1  -6  -1 946.388 567.013  11
  -1  -6  -1 1101.23 386.451  17
  -1  -6   0 1169.88 635.626  11
  -1  -6   0 1455.31 609.381   9
  -1  -6   0 736.521 265.570  17
  -1  -6   0 799.004 291.660  19
  -1  -6   0 333.960 272.114  18
  -1  -6   0 426.999 463.822   2
  -1  -6   1 194193. 4999.72  18
  -1  -6   1 199024. 5341.34   9
  -1  -6   1 187400. 5331.96   2
  -1  -6   1 191217. 5567.74  11
  -1  -6   1 193422. 4195.31   6
  -1  -6   1 186370. 4940.85  19
  -1  -6   1 195346. 5014.15  17
  -1  -6   1 192694. 4219.18  16
  -1  -6   2 208245. 4482.53  16
  -1  -6   2 206664. 5490.50   2
  -1  -6   2 198881. 5273.61  18
  -1  -6   2 200037. 5273.32  19
  -1  -6   2 206786. 5516.82   9
  -1  -6   2 194679. 5587.47  11
  -1  -6   3 79276.5 2868.92  18
  -1  -6   3 79583.3 2931.63   9
  -1  -6   3 83095.3 2229.07  16
  -1  -6   3 82550.8 2876.89   2
  -1  -6   3 75824.8 2824.37  19
  -1  -6   3 83644.2 2954.17  11
  -1  -6   4 26707.0 1177.35  16
  -1  -6   4 27028.3 1601.32   9
  -1  -6   4 26563.2 1476.56  11
  -1  -6   4 26724.7 1490.77   2
  -1  -6   4 27175.1 1611.55  19
  -1  -6   4 25213.8 1583.07  18
  -1  -6   5 44748.1 2141.71   9
  -1  -6   5 42718.4 1697.17  16
  -1  -6   5 43458.9 1887.56   2
  -1  -6   5 41979.8 2164.11  18
  -1  -6   5 44914.3 2230.28  19
  -1  -6   5 41330.4 1799.24  11
  -1  -6   6 121219. 4031.56   9
  -1  -6   6 121450. 4209.77  19
  -1  -6   6 121743. 4212.12  18
  -1  -6   6 123667. 3408.82  11
  -1  -6   7 46601.5 2363.77   9
  -1  -6   7 45837.2 2491.44  19
  -1  -6   7 49522.7 2585.44  18
  -1  -6   7 47763.4 1693.99  11
  -1  -6   8 18144.5 1548.50   9
  -1  -6   8 17644.0 1642.09  19
  -1  -6   8 19051.1 1402.58   8
  -1  -6   9 33631.3 2183.83   9
  -1  -6   9 31623.6 1950.16   8
  -1  -6   9 33379.1 2299.79  19
  -1  -6  10 54404.8 3007.95   9
  -1  -6  10 62057.4 3004.45   8
  -1  -6  10 57730.1 3222.79  19
  -1  -6  11 65272.6 3437.42   9
  -1  -6  11 60695.3 3539.40  19
  -1  -6  12 12444.1 1681.46   9
  -1  -6  12 16004.2 1796.68  19
  -1  -6  13 8128.80 1240.73   9
  -1  -5  -9 3572.04 842.880   2
  -1  -5  -9 1286.35 808.100   4
  -1  -5  -9 1574.29 643.584  10
  -1  -5  -8 27760.2 2337.19   4
  -1  -5  -8 34750.1 2428.32   2
  -1  -5  -8 33403.6 2430.29  10
  -1  -5  -8 31528.6 2254.43  11
  -1  -5  -7 71152.8 3511.87   4
  -1  -5  -7 65510.5 3283.52   2
  -1  -5  -7 63916.0 3296.27  10
  -1  -5  -7 66149.0 3303.39  11
  -1  -5  -6 33390.3 2272.01   4
  -1  -5  -6 27580.4 2018.79   2
  -1  -5  -6 32715.8 2238.82  11
  -1  -5  -6 30301.0 2129.33  10
  -1  -5  -5 6247.31 991.761   4
  -1  -5  -5 6253.66 942.167   2
  -1  -5  -5 5716.78 644.931  20
  -1  -5  -5 6720.49 674.294  18
  -1  -5  -5 4999.96 588.501  19
  -1  -5  -5 4636.49 901.765  11
  -1  -5  -5 5986.33 630.576  17
  -1  -5  -5 5534.11 854.417  10
  -1  -5  -4 14578.4 930.401  18
  -1  -5  -4 13750.5 1377.94  11
  -1  -5  -4 11945.8 1296.80   2
  -1  -5  -4 12394.7 1208.68  10
  -1  -5  -4 13998.6 928.020  17
  -1  -5  -4 13183.5 901.727  19
  -1  -5  -4 12585.2 883.194  20
  -1  -5  -3 79109.0 2468.44  20
  -1  -5  -3 80300.7 2482.71  18
  -1  -5  -3 77565.4 3124.97   2
  -1  -5  -3 78105.6 2960.59  10
  -1  -5  -3 81560.2 2476.98  17
  -1  -5  -3 77409.3 2441.94  19
  -1  -5  -3 75218.5 3246.38  11
  -1  -5  -2 114237. 3714.19   9
  -1  -5  -2 107754. 3070.61  18
  -1  -5  -2 114358. 3847.48   2
  -1  -5  -2 113721. 3109.96  19
  -1  -5  -2 106859. 3922.66  11
  -1  -5  -2 114622. 3593.89  10
  -1  -5  -2 111833. 3090.97  20
  -1  -5  -2 120208. 3149.95  17
  -1  -5  -1 21089.4 1088.01  18
  -1  -5  -1 22074.7 1446.46   2
  -1  -5  -1 21928.1 1589.72  11
  -1  -5  -1 20536.1 1073.98  19
  -1  -5  -1 21096.2 1359.01   9
  -1  -5  -1 23434.9 1118.61  17
  -1  -5   0 10719.2 935.675   9
  -1  -5   0 8783.93 682.075  19
  -1  -5   0 8914.02 690.954  18
  -1  -5   0 6442.37 805.026   2
  -1  -5   0 9029.47 975.027  11
  -1  -5   0 7579.00 651.657  17
  -1  -5   0 8623.18 533.939  16
  -1  -5   1 207211. 5133.84  19
  -1  -5   1 221707. 5533.27   9
  -1  -5   1 215450. 5529.03   2
  -1  -5   1 219599. 4799.61   8
  -1  -5   1 207368. 5139.00  18
  -1  -5   1 208604. 5667.23  11
  -1  -5   1 220156. 4517.88   6
  -1  -5   1 206673. 5139.82  17
  -1  -5   1 215466. 4638.11  16
  -1  -5   2 374560. 7659.78  16
  -1  -5   2 364064. 8276.72  19
  -1  -5   2 356227. 8396.15   2
  -1  -5   2 378450. 7603.20   8
  -1  -5   2 381415. 7634.93   6
  -1  -5   2 365826. 8559.57  11
  -1  -5   2 356328. 8258.16  18
  -1  -5   2 362858. 8445.15   9
  -1  -5   3 84366.7 2294.06  16
  -1  -5   3 85125.7 2133.94   8
  -1  -5   3 84114.4 2722.79   2
  -1  -5   3 78461.4 2727.53  19
  -1  -5   3 89270.2 2802.21  11
  -1  -5   3 82003.4 2781.19  18
  -1  -5   3 83664.2 2815.36   9
  -1  -5   4 27422.7 1491.44   9
  -1  -5   4 25614.5 1172.46  16
  -1  -5   4 26618.3 1303.11  11
  -1  -5   4 26287.2 1328.61   2
  -1  -5   4 27274.0 1540.63  19
  -1  -5   4 25374.8 1486.15  18
  -1  -5   5 86429.6 2985.29   9
  -1  -5   5 86189.1 3110.79  18
  -1  -5   5 81284.8 3040.21  19
  -1  -5   5 86171.3 2546.59  11
  -1  -5   6 172074. 5002.31   9
  -1  -5   6 173948. 5225.55  19
  -1  -5   6 175299. 5237.37  18
  -1  -5   6 181808. 4228.27  11
  -1  -5   7 60465.2 2629.13   9
  -1  -5   7 62835.8 2504.47   8
  -1  -5   7 60211.4 2797.69  19
  -1  -5   8 5518.39 876.013   9
  -1  -5   8 5718.85 840.006   8
  -1  -5   8 5019.66 938.210  19
  -1  -5   9 19905.9 1702.17  19
  -1  -5   9 20676.5 1578.80   8
  -1  -5   9 19770.5 1620.83   9
  -1  -5  10 29806.2 2065.72   8
  -1  -5  10 29136.3 2246.00  19
  -1  -5  10 29875.7 2117.25   9
  -1  -5  11 42823.7 2659.42   8
  -1  -5  11 42940.4 2921.10  19
  -1  -5  11 44554.1 2762.39   9
  -1  -5  12 28142.2 2267.73   8
  -1  -5  12 26116.3 2347.63  19
  -1  -5  12 26860.8 2202.03   9
  -1  -5  13 6638.63 1223.66   9
  -1  -5  13 5454.79 1013.16   8
  -1  -4 -10 10700.6 1565.65   4
  -1  -4 -10 7924.20 1300.57  10
  -1  -4  -9 763.198 543.875   2
  -1  -4  -9 294.931 388.705  10
  -1  -4  -9 1527.20 656.209   4
  -1  -4  -8 24395.4 2119.74   4
  -1  -4  -8 27905.7 1974.34  11
  -1  -4  -8 31130.1 2120.91   2
  -1  -4  -8 25822.2 2096.22  10
  -1  -4  -7 79218.6 3621.27   4
  -1  -4  -7 83841.3 3479.02  11
  -1  -4  -7 74814.4 3370.99   2
  -1  -4  -7 81216.3 3591.97  10
  -1  -4  -6 24153.7 1357.89  15
  -1  -4  -6 24165.2 1769.50  11
  -1  -4  -6 24183.7 1714.05   2
  -1  -4  -6 24364.6 1827.47   4
  -1  -4  -6 25674.3 1377.99  20
  -1  -4  -6 23405.6 1770.95  10
  -1  -4  -6 26768.3 1400.85  19
  -1  -4  -6 21771.6 1298.05  18
  -1  -4  -6 26914.5 1389.61  17
  -1  -4  -5 36017.1 1565.60  15
  -1  -4  -5 33703.5 2022.22   4
  -1  -4  -5 31952.6 1985.81  11
  -1  -4  -5 36142.2 1555.81  19
  -1  -4  -5 33665.3 1993.73   2
  -1  -4  -5 36248.5 1560.03  20
  -1  -4  -5 35854.3 1537.18  17
  -1  -4  -5 36835.8 1566.67  18
  -1  -4  -5 34323.4 1990.35  10
  -1  -4  -4 64665.9 2812.03  11
  -1  -4  -4 61604.9 2681.96   4
  -1  -4  -4 65335.7 2733.82   2
  -1  -4  -4 65013.5 2132.62  20
  -1  -4  -4 65577.3 2133.92  19
  -1  -4  -4 66092.4 2138.92  18
  -1  -4  -4 66469.1 2682.07  10
  -1  -4  -4 68851.4 2143.58  17
  -1  -4  -3 147207. 4422.29   4
  -1  -4  -3 147457. 4492.68   2
  -1  -4  -3 142140. 4601.25  11
  -1  -4  -3 152782. 3774.21  17
  -1  -4  -3 160395. 4466.62  10
  -1  -4  -3 156871. 3779.01  19
  -1  -4  -3 157487. 3781.70  20
  -1  -4  -3 154871. 3761.10  18
  -1  -4  -2 241699. 5989.84   9
  -1  -4  -2 240020. 5925.45  10
  -1  -4  -2 233289. 6079.18   2
  -1  -4  -2 222345. 6198.50  11
  -1  -4  -2 238955. 5306.71  20
  -1  -4  -2 235937. 5303.62  18
  -1  -4  -2 244411. 5319.92  17
  -1  -4  -2 240480. 5309.00  19
  -1  -4  -1 18098.8 1159.43   9
  -1  -4  -1 19284.5 1233.13   2
  -1  -4  -1 18907.9 883.187  18
  -1  -4  -1 17973.2 1277.29  11
  -1  -4  -1 19396.1 890.300  19
  -1  -4  -1 19846.6 899.023  17
  -1  -4  -1 19768.6 1152.29  10
  -1  -4  -1 19439.1 900.359  16
  -1  -4   0 6633.83 672.195   9
  -1  -4   0 5114.65 423.114  16
  -1  -4   0 6216.62 508.066  18
  -1  -4   0 6611.77 699.335   2
  -1  -4   0 5216.14 488.126  19
  -1  -4   0 5117.30 471.795  17
  -1  -4   0 5154.80 720.966  11
  -1  -4   0 6442.62 508.328   8
  -1  -4   1 97003.1 2399.78  16
  -1  -4   1 93326.1 2898.44   2
  -1  -4   1 103306. 2366.57   8
  -1  -4   1 105207. 2213.14   6
  -1  -4   1 95382.8 3026.35  11
  -1  -4   1 95135.3 2662.75  19
  -1  -4   1 96208.3 2675.06  18
  -1  -4   1 91086.5 2855.82   9
  -1  -4   1 95786.2 2669.90  17
  -1  -4   2 382394. 7955.38  16
  -1  -4   2 371948. 8479.88   9
  -1  -4   2 384679. 8472.41   2
  -1  -4   2 390988. 7865.43   6
  -1  -4   2 387378. 8392.64  18
  -1  -4   2 375254. 8513.97  11
  -1  -4   2 405373. 7711.84   8
  -1  -4   2 367756. 8345.99  19
  -1  -4   3 287074. 6795.43   9
  -1  -4   3 294622. 6379.53  16
  -1  -4   3 296059. 6691.65   2
  -1  -4   3 293330. 6827.73  19
  -1  -4   3 296613. 6855.29  18
  -1  -4   3 309608. 6696.11  11
  -1  -4   4 326.336 243.200  11
  -1  -4   4 1048.77 374.615  19
  -1  -4   4 528.056 410.683   9
  -1  -4   4 639.789 387.517  18
  -1  -4   5 87904.0 2949.53   9
  -1  -4   5 87734.7 3098.46  18
  -1  -4   5 95991.8 2465.44  11
  -1  -4   5 88046.1 3101.58  19
  -1  -4   6 246366. 6126.92   8
  -1  -4   6 249284. 6595.98  19
  -1  -4   6 253478. 6364.05   9
  -1  -4   7 41097.7 1983.39   8
  -1  -4   7 36571.6 2086.17  19
  -1  -4   7 39316.0 2019.97   9
  -1  -4   8 1208.87 583.747   9
  -1  -4   8 959.482 474.952   8
  -1  -4   8 1321.73 625.670  19
  -1  -4   9 7820.35 1010.33   8
  -1  -4   9 8097.85 1163.97  19
  -1  -4   9 9512.37 1123.21   9
  -1  -4  10 54444.8 2861.37   8
  -1  -4  10 50137.6 2927.03  19
  -1  -4  10 49886.4 2746.90   9
  -1  -4  11 57094.1 3127.39   8
  -1  -4  11 50529.9 3067.92  19
  -1  -4  11 55077.3 3129.61   9
  -1  -4  12 19363.6 2014.49  19
  -1  -4  12 21624.8 2050.18   9
  -1  -4  12 21333.5 1977.35   8
  -1  -4  13 20636.2 1964.37   8
  -1  -4  13 17361.9 1916.05  19
  -1  -4  13 17714.9 2008.47   9
  -1  -3 -11 32347.7 2690.77   4
  -1  -3 -11 36023.5 2869.00  10
  -1  -3 -10 9302.31 1463.88   4
  -1  -3 -10 8745.91 1347.01  10
  -1  -3  -9 1147.84 467.807   2
  -1  -3  -9 995.176 596.187   4
  -1  -3  -9 822.050 567.280  10
  -1  -3  -8 29072.0 2200.20   4
  -1  -3  -8 28570.7 1888.81   2
  -1  -3  -8 29260.3 1847.32  11
  -1  -3  -8 29307.1 2111.25  10
  -1  -3  -7 116715. 4374.30   4
  -1  -3  -7 117569. 4097.01   2
  -1  -3  -7 120237. 3640.26  20
  -1  -3  -7 120876. 3621.35  17
  -1  -3  -7 116957. 3620.84  15
  -1  -3  -7 118901. 3648.04  19
  -1  -3  -7 120529. 4085.87  11
  -1  -3  -7 120974. 4427.21  10
  -1  -3  -7 117873. 3625.94  18
  -1  -3  -6 89854.3 2793.95  15
  -1  -3  -6 87290.9 2753.85  20
  -1  -3  -6 81216.7 3394.49   4
  -1  -3  -6 80488.3 3173.45   2
  -1  -3  -6 85498.2 2749.33  18
  -1  -3  -6 95077.5 3377.78  11
  -1  -3  -6 86209.1 2743.99  17
  -1  -3  -6 84546.2 2757.59  19
  -1  -3  -6 83811.0 3383.74  10
  -1  -3  -5 30866.5 1829.68  10
  -1  -3  -5 33190.7 1404.77  20
  -1  -3  -5 30727.5 1838.75   4
  -1  -3  -5 31488.3 1401.16  19
  -1  -3  -5 30713.9 1754.25  11
  -1  -3  -5 31057.6 1366.13  18
  -1  -3  -5 34718.3 1438.25  15
  -1  -3  -5 31781.0 1361.64  17
  -1  -3  -5 29241.1 1722.96   2
  -1  -3  -4 109097. 2906.79  15
  -1  -3  -4 112114. 3528.87   2
  -1  -3  -4 105350. 3551.27   4
  -1  -3  -4 110143. 2917.44  19
  -1  -3  -4 114271. 2920.93  18
  -1  -3  -4 112387. 3586.96  10
  -1  -3  -4 108136. 2894.20  17
  -1  -3  -4 109880. 2893.60  20
  -1  -3  -4 112050. 3628.30  11
  -1  -3  -3 222609. 5724.13   4
  -1  -3  -3 210694. 5794.12  11
  -1  -3  -3 219818. 5704.52   2
  -1  -3  -3 230612. 5024.95  18
  -1  -3  -3 231363. 5034.26  20
  -1  -3  -3 226716. 5723.32  10
  -1  -3  -3 231905. 5031.97  19
  -1  -3  -3 233486. 5016.96  17
  -1  -3  -2 100040. 2385.37  20
  -1  -3  -2 93543.8 2868.72   9
  -1  -3  -2 94643.3 2355.18  18
  -1  -3  -2 92005.1 2901.95   4
  -1  -3  -2 99198.0 2996.05   2
  -1  -3  -2 100750. 2421.26  12
  -1  -3  -2 97853.8 2373.19  19
  -1  -3  -2 96354.1 2934.87  10
  -1  -3  -2 91292.5 3059.58  11
  -1  -3  -2 97840.7 2376.25  17
  -1  -3  -1 1843.45 297.835  16
  -1  -3  -1 1435.05 225.092  19
  -1  -3  -1 1152.17 413.477   2
  -1  -3  -1 1017.15 386.022   9
  -1  -3  -1 1499.86 316.492   8
  -1  -3  -1 1465.99 456.922  11
  -1  -3  -1 1037.39 208.984  17
  -1  -3  -1 1330.57 224.402  13
  -1  -3  -1 1464.15 211.443  18
  -1  -3  -1 1497.47 225.162  12
  -1  -3  -1 1970.36 398.103  10
  -1  -3   0 7498.09 622.930   9
  -1  -3   0 7036.91 450.106   8
  -1  -3   0 6787.32 454.158  14
  -1  -3   0 6568.43 445.535  18
  -1  -3   0 7547.49 662.014   2
  -1  -3   0 8442.51 484.765  13
  -1  -3   0 7607.16 460.273  12
  -1  -3   0 6785.10 457.921  17
  -1  -3   0 6911.48 683.753  11
  -1  -3   0 6252.40 433.959  19
  -1  -3   0 6445.85 441.997  16
  -1  -3   1 90361.8 2266.35  16
  -1  -3   1 92686.7 2582.82   9
  -1  -3   1 91760.7 2371.19  13
  -1  -3   1 97926.2 2048.82   8
  -1  -3   1 92842.3 2621.34   2
  -1  -3   1 96010.5 2383.36  15
  -1  -3   1 92980.2 2409.09  18
  -1  -3   1 91609.2 2397.10  19
  -1  -3   1 89899.6 1999.16   6
  -1  -3   1 92606.9 2679.71  11
  -1  -3   1 94735.5 2369.36  14
  -1  -3   1 96664.5 2384.60  12
  -1  -3   2 258841. 5155.91   9
  -1  -3   2 276787. 4708.46   6
  -1  -3   2 268648. 5141.12   2
  -1  -3   2 264490. 5105.59  19
  -1  -3   2 257257. 5091.11  18
  -1  -3   2 262685. 5115.37  11
  -1  -3   2 262572. 4798.35  16
  -1  -3   3 326039. 7285.59   9
  -1  -3   3 331326. 7363.58  19
  -1  -3   3 332184. 7368.56  18
  -1  -3   3 334029. 7042.03  11
  -1  -3   4 19442.0 1098.18   9
  -1  -3   4 19365.8 1169.10  19
  -1  -3   4 20071.5 953.522   8
  -1  -3   4 18877.1 834.996  11
  -1  -3   4 18654.2 1154.19  18
  -1  -3   5 5626.61 695.157   9
  -1  -3   5 7117.16 676.052   8
  -1  -3   5 5795.20 754.286  19
  -1  -3   6 303783. 7453.16  19
  -1  -3   6 288465. 7125.00   9
  -1  -3   6 295191. 7084.09   8
  -1  -3   7 156815. 4672.58   8
  -1  -3   7 159747. 4902.03  19
  -1  -3   7 160703. 4681.44   9
  -1  -3   8 5820.31 933.992  19
  -1  -3   8 4280.52 796.610   8
  -1  -3   9 9401.15 1143.50   8
  -1  -3   9 6821.04 1024.22  19
  -1  -3  10 67914.1 3266.90   8
  -1  -3  10 62805.3 3252.70  19
  -1  -3  11 75544.2 3748.36   8
  -1  -3  11 78903.0 3762.58  19
  -1  -3  12 11229.6 1410.39   8
  -1  -3  13 10559.7 1426.24   8
  -1  -2 -11 31944.5 2584.00   4
  -1  -2 -11 28041.7 2413.93  10
  -1  -2 -10 35553.6 2586.32  10
  -1  -2 -10 33634.2 2540.43   4
  -1  -2  -9 5293.36 1059.64   4
  -1  -2  -9 5994.93 1036.99  10
  -1  -2  -8 30951.9 1652.89  15
  -1  -2  -8 29099.0 1633.43  14
  -1  -2  -8 26799.5 2036.12   4
  -1  -2  -8 28690.7 1622.81  17
  -1  -2  -8 26042.8 1670.68   2
  -1  -2  -8 27712.2 1601.04  20
  -1  -2  -8 28746.6 1643.79  11
  -1  -2  -8 25470.4 1979.80  10
  -1  -2  -8 28107.7 1615.47  18
  -1  -2  -7 88390.1 2942.34  15
  -1  -2  -7 87952.8 3600.44   4
  -1  -2  -7 90946.0 2970.35  20
  -1  -2  -7 87606.1 2937.55  17
  -1  -2  -7 88806.3 3582.50  10
  -1  -2  -7 86220.8 2944.03  14
  -1  -2  -7 91972.5 3145.18  11
  -1  -2  -7 89680.4 2956.75  18
  -1  -2  -7 86146.8 3160.08   2
  -1  -2  -6 115351. 3310.66  15
  -1  -2  -6 116954. 3326.91  18
  -1  -2  -6 108126. 3554.51   2
  -1  -2  -6 118788. 3333.05  20
  -1  -2  -6 112008. 3290.98  14
  -1  -2  -6 113524. 3971.30   4
  -1  -2  -6 112186. 3291.48  17
  -1  -2  -6 118984. 3648.88  11
  -1  -2  -6 115548. 3970.10  10
  -1  -2  -5 22432.9 1086.83  20
  -1  -2  -5 21630.3 1073.23  15
  -1  -2  -5 21168.5 1286.62   2
  -1  -2  -5 21748.6 1086.39  14
  -1  -2  -5 20382.8 1435.02   4
  -1  -2  -5 20158.7 1269.32  11
  -1  -2  -5 20082.8 1058.61  18
  -1  -2  -5 21084.3 1445.08  10
  -1  -2  -5 21843.5 1075.16  17
  -1  -2  -4 7894.62 550.305  15
  -1  -2  -4 8034.70 860.363   4
  -1  -2  -4 6964.62 537.181  17
  -1  -2  -4 7080.14 722.396   2
  -1  -2  -4 7243.68 546.090  20
  -1  -2  -4 7465.14 762.685  11
  -1  -2  -4 7332.16 552.820  18
  -1  -2  -4 7313.15 837.208  10
  -1  -2  -3 406900. 8130.42  15
  -1  -2  -3 378756. 8822.37   4
  -1  -2  -3 369909. 8762.45  11
  -1  -2  -3 389554. 8700.64   2
  -1  -2  -3 408632. 8120.84  20
  -1  -2  -3 410413. 8198.40  19
  -1  -2  -3 400639. 8126.59  19
  -1  -2  -3 403295. 8124.72  18
  -1  -2  -3 396896. 8886.91  10
  -1  -2  -3 399245. 8109.89  17
  -1  -2  -2 200937. 4175.50  12
  -1  -2  -2 190596. 4743.55   4
  -1  -2  -2 191406. 4710.80   2
  -1  -2  -2 196618. 4853.16  11
  -1  -2  -2 198848. 4138.17  19
  -1  -2  -2 200250. 4130.87  20
  -1  -2  -2 203855. 4136.22  18
  -1  -2  -2 193307. 4770.08  10
  -1  -2  -2 200964. 4125.32  17
  -1  -2  -1 6579.74 547.649   9
  -1  -2  -1 6444.27 561.801   4
  -1  -2  -1 6739.11 681.239   1
  -1  -2  -1 6693.52 588.717   2
  -1  -2  -1 7065.05 338.905  13
  -1  -2  -1 7213.32 325.417  19
  -1  -2  -1 6646.93 314.634  18
  -1  -2  -1 6868.94 331.218  12
  -1  -2  -1 6418.96 637.443  11
  -1  -2  -1 6288.18 572.117  10
  -1  -2  -1 7197.20 327.160  17
  -1  -2  -1 7859.35 539.154  16
  -1  -2   0 100168. 2529.96   9
  -1  -2   0 97387.6 2650.67   1
  -1  -2   0 99068.4 2217.49  19
  -1  -2   0 104587. 2221.47  14
  -1  -2   0 100806. 2605.78   2
  -1  -2   0 101430. 2219.58  13
  -1  -2   0 98822.7 2218.66  18
  -1  -2   0 100187. 2683.26  11
  -1  -2   0 100917. 2219.82  12
  -1  -2   0 90642.7 2350.61  16
  -1  -2   1 64149.0 1676.61  16
  -1  -2   1 62399.4 1798.24   9
  -1  -2   1 66481.7 1695.35  15
  -1  -2   1 64540.0 1672.32  14
  -1  -2   1 60733.8 1818.13   2
  -1  -2   1 64737.1 1715.06  18
  -1  -2   1 69374.2 1773.25   7
  -1  -2   1 62061.7 1772.69   1
  -1  -2   1 63605.7 1662.99  12
  -1  -2   1 64396.9 1705.08  19
  -1  -2   1 58203.4 1817.74  11
  -1  -2   1 65326.0 1673.02  13
  -1  -2   2 206486. 4753.09   9
  -1  -2   2 204976. 4611.50  16
  -1  -2   2 231380. 4812.15  20
  -1  -2   2 208453. 4784.97  19
  -1  -2   2 227606. 4792.54  14
  -1  -2   2 229179. 4798.22  13
  -1  -2   2 216988. 4641.83   7
  -1  -2   2 232538. 4812.77  15
  -1  -2   2 222424. 4781.04  12
  -1  -2   2 208777. 4470.34   1
  -1  -2   2 206387. 4653.54  11
  -1  -2   2 211282. 4796.35  18
  -1  -2   2 201816. 4281.12   8
  -1  -2   3 112781. 2756.61   8
  -1  -2   3 117862. 2740.88  11
  -1  -2   3 114473. 3120.06  19
  -1  -2   3 116024. 2452.74   1
  -1  -2   3 112156. 2987.16   9
  -1  -2   4 59701.2 1942.16   8
  -1  -2   4 64818.2 2233.04  19
  -1  -2   5 141276. 4034.36  19
  -1  -2   5 135339. 3765.21   8
  -1  -2   6 215180. 5647.29   8
  -1  -2   6 216475. 5823.65  19
  -1  -2   6 218547. 4464.32   1
  -1  -2   7 290078. 7283.75  19
  -1  -2   7 281823. 7158.63   8
  -1  -2   7 272552. 5694.76   1
  -1  -2   8 44244.7 2355.51   8
  -1  -2   8 43814.5 2329.68  19
  -1  -2   9 582.993 500.156   8
  -1  -2   9 1286.49 599.775  19
  -1  -2  10 47191.9 2768.27   8
  -1  -2  10 47245.2 2755.44  19
  -1  -2  11 91671.2 4137.94   8
  -1  -2  12 14022.0 1654.13   8
  -1  -2  12 14324.8 1684.91  12
  -1  -2  13 4124.49 899.096   8
  -1  -2  13 6005.85 1095.90  12
  -1  -1 -11 33481.5 2589.84   4
  -1  -1 -11 30358.5 2569.68  10
  -1  -1 -10 28252.5 2228.08   4
  -1  -1 -10 28821.8 2273.84  10
  -1  -1  -9 18632.9 1777.03  10
  -1  -1  -9 20404.2 1481.36  14
  -1  -1  -9 19417.9 1796.59   4
  -1  -1  -9 21162.7 1479.28  20
  -1  -1  -9 22257.0 1510.21  17
  -1  -1  -9 21182.1 1472.44  18
  -1  -1  -9 20874.4 1472.97  15
  -1  -1  -8 4965.44 643.670   2
  -1  -1  -8 6104.60 736.369  20
  -1  -1  -8 6012.95 714.251  14
  -1  -1  -8 5107.04 956.811   4
  -1  -1  -8 5082.96 687.544  17
  -1  -1  -8 5837.14 656.426  11
  -1  -1  -8 4722.00 690.529  18
  -1  -1  -8 5413.92 910.928  10
  -1  -1  -8 5411.66 706.201  15
  -1  -1  -7 28936.8 1529.02  20
  -1  -1  -7 29144.6 1530.10  17
  -1  -1  -7 25360.4 1465.03  18
  -1  -1  -7 27290.6 1866.25   4
  -1  -1  -7 28108.9 1513.73  15
  -1  -1  -7 28562.0 1432.51  11
  -1  -1  -7 28031.0 1887.84  10
  -1  -1  -7 25618.1 1442.40   2
  -1  -1  -7 29015.6 1519.49  14
  -1  -1  -6 101732. 3057.30  15
  -1  -1  -6 108698. 3122.11  14
  -1  -1  -6 104703. 3676.58   4
  -1  -1  -6 104411. 3066.89  11
  -1  -1  -6 101076. 3061.97  17
  -1  -1  -6 106540. 3120.34  18
  -1  -1  -6 98122.6 3590.24  10
  -1  -1  -6 106355. 3104.79  20
  -1  -1  -5 59894.9 1930.65  15
  -1  -1  -5 55151.8 1896.02  20
  -1  -1  -5 53103.1 1860.13  14
  -1  -1  -5 54041.7 2319.26   4
  -1  -1  -5 54543.0 1960.59  11
  -1  -1  -5 50028.2 1919.94   2
  -1  -1  -5 53079.1 2296.72  10
  -1  -1  -5 55544.8 1892.97  18
  -1  -1  -5 60310.3 1951.62  17
  -1  -1  -4 34421.2 1669.02   4
  -1  -1  -4 37205.0 1323.16  18
  -1  -1  -4 38641.0 1335.87  14
  -1  -1  -4 37267.3 1359.13  19
  -1  -1  -4 36452.9 1433.15   2
  -1  -1  -4 37044.2 1323.46  17
  -1  -1  -4 36430.1 1473.87  11
  -1  -1  -4 38562.5 1359.09  18
  -1  -1  -4 36479.6 1306.57  15
  -1  -1  -4 37651.4 1729.89  10
  -1  -1  -4 35918.6 1305.97  20
  -1  -1  -3 407598. 8179.96  15
  -1  -1  -3 402361. 8182.56  18
  -1  -1  -3 400643. 8185.52  14
  -1  -1  -3 397894. 8829.97   4
  -1  -1  -3 405209. 8849.12   1
  -1  -1  -3 404774. 8485.22   2
  -1  -1  -3 410758. 8233.53  19
  -1  -1  -3 394027. 8567.72  11
  -1  -1  -3 411864. 8220.40  18
  -1  -1  -3 404842. 8838.00  10
  -1  -1  -3 403036. 8185.19  20
  -1  -1  -3 408576. 8187.63  17
  -1  -1  -2 600163. 12254.0   2
  -1  -1  -2 624908. 11837.6  14
  -1  -1  -2 613400. 11866.5  19
  -1  -1  -2 600266. 12537.4   1
  -1  -1  -2 613358. 11829.9  17
  -1  -1  -2 587343. 12464.0  10
  -1  -1  -2 609167. 11853.5  18
  -1  -1  -2 609189. 12391.8  11
  -1  -1  -2 617473. 11838.4  18
  -1  -1  -2 621608. 12492.0   4
  -1  -1  -1 12047.4 703.581   1
  -1  -1  -1 12061.7 618.283   2
  -1  -1  -1 11745.6 666.265  11
  -1  -1  -1 11670.3 633.610   4
  -1  -1  -1 10696.1 558.677   9
  -1  -1  -1 11418.0 657.187  10
  -1  -1  -1 11589.5 470.193   6
  -1  -1  -1 12002.6 627.473  16
  -1  -1   0 17440.2 679.655  16
  -1  -1   0 16457.7 690.554   2
  -1  -1   0 16631.9 632.244   9
  -1  -1   0 17050.5 733.192   1
  -1  -1   0 17701.2 467.255   6
  -1  -1   0 15999.9 739.720  11
  -1  -1   0 17803.2 706.517  10
  -1  -1   1 255898. 5311.54   9
  -1  -1   1 249281. 5311.32  16
  -1  -1   1 242522. 5382.77  11
  -1  -1   1 261879. 5300.59  20
  -1  -1   1 259463. 5265.31   1
  -1  -1   1 259274. 5301.25  14
  -1  -1   1 264847. 5308.05  15
  -1  -1   1 256554. 5158.06   7
  -1  -1   1 244115. 5296.38  19
  -1  -1   1 266840. 5305.45  13
  -1  -1   2 585624. 11326.2  15
  -1  -1   2 523348. 10928.8   8
  -1  -1   2 594173. 11331.2  14
  -1  -1   2 583688. 11319.1  13
  -1  -1   2 564251. 10963.4   7
  -1  -1   2 530215. 11282.5  19
  -1  -1   2 585820. 11321.3  20
  -1  -1   2 556816. 10896.7   1
  -1  -1   3 191640. 4418.97   8
  -1  -1   3 205856. 4334.01   7
  -1  -1   3 191847. 4667.07  19
  -1  -1   4 40364.6 1664.44  19
  -1  -1   4 38722.9 1539.34   8
  -1  -1   5 197315. 5126.86   8
  -1  -1   5 209115. 5282.98  19
  -1  -1   6 219378. 5750.12   8
  -1  -1   6 216844. 5760.47  19
  -1  -1   7 138498. 4317.43   8
  -1  -1   7 125400. 4166.84  19
  -1  -1   8 54393.1 2661.60   8
  -1  -1   9 713.106 637.699   8
  -1  -1  10 21200.4 1809.57  12
  -1  -1  10 21525.0 1904.51   8
  -1  -1  11 66664.4 3605.43   8
  -1  -1  11 75819.8 3639.61  12
  -1  -1  12 17380.4 1850.63   8
  -1  -1  12 16475.0 1766.10  12
  -1  -1  13 1733.14 577.773   8
  -1  -1  13 1655.25 623.256  12
  -1   0 -12 12009.8 1601.50  10
  -1   0 -12 16119.5 1812.20   4
  -1   0 -11 42618.6 2921.53   4
  -1   0 -11 45574.0 3017.80  10
  -1   0 -10 16780.8 1415.79  15
  -1   0 -10 16120.8 1353.33  14
  -1   0 -10 18220.7 1479.91  20
  -1   0 -10 14686.6 1642.17  10
  -1   0 -10 17004.5 1416.20  18
  -1   0 -10 15713.3 1364.61  17
  -1   0 -10 13884.3 1672.04   4
  -1   0  -9 13567.2 1234.81  20
  -1   0  -9 12214.0 1152.90  15
  -1   0  -9 11947.1 1439.58   4
  -1   0  -9 12781.5 1193.72  17
  -1   0  -9 10498.8 1030.10  18
  -1   0  -9 13907.6 1204.49  14
  -1   0  -9 12990.6 1453.54  10
  -1   0  -8 22324.5 1437.59  14
  -1   0  -8 20978.1 1726.63   4
  -1   0  -8 22326.5 1194.77   2
  -1   0  -8 21594.1 1444.93  20
  -1   0  -8 24020.3 1825.57  10
  -1   0  -8 20597.7 1390.19  17
  -1   0  -8 23421.0 1487.20  15
  -1   0  -7 27985.9 1529.50  20
  -1   0  -7 25061.1 1464.55  15
  -1   0  -7 28879.3 1561.15  14
  -1   0  -7 26431.0 1828.02   4
  -1   0  -7 25144.8 1251.81   2
  -1   0  -7 28820.4 1858.29  10
  -1   0  -7 27047.6 1510.08  17
  -1   0  -7 29259.4 1207.35  11
  -1   0  -6 136939. 3706.63  15
  -1   0  -6 131055. 3684.19  14
  -1   0  -6 134643. 4237.67   4
  -1   0  -6 129350. 3688.99  13
  -1   0  -6 135959. 3727.70  17
  -1   0  -6 130771. 3319.79  11
  -1   0  -6 130513. 4201.79  10
  -1   0  -6 122714. 3347.78   2
  -1   0  -6 132825. 3700.90  20
  -1   0  -5 103750. 2689.65  11
  -1   0  -5 98779.2 3341.52   4
  -1   0  -5 106485. 2939.82  14
  -1   0  -5 103853. 2931.09  13
  -1   0  -5 107664. 3158.62   1
  -1   0  -5 97665.6 2642.66   2
  -1   0  -5 104663. 2925.55  15
  -1   0  -5 105177. 2929.67  20
  -1   0  -5 98567.4 3324.93  10
  -1   0  -5 102802. 2940.99  17
  -1   0  -4 96326.3 2642.44  15
  -1   0  -4 97534.6 2865.07   1
  -1   0  -4 101909. 2676.97  20
  -1   0  -4 103359. 2682.14  14
  -1   0  -4 101167. 2682.24  17
  -1   0  -4 100261. 3099.19   4
  -1   0  -4 98210.3 2663.48  13
  -1   0  -4 101582. 2485.02   2
  -1   0  -4 93586.5 3030.78  10
  -1   0  -4 102235. 2573.97  11
  -1   0  -3 310184. 6371.60  14
  -1   0  -3 295451. 6841.76   4
  -1   0  -3 303247. 6367.43  13
  -1   0  -3 296684. 6834.46  10
  -1   0  -3 300640. 6649.97   1
  -1   0  -3 303525. 6251.65   2
  -1   0  -3 308641. 6388.49  17
  -1   0  -3 318219. 6388.19  19
  -1   0  -3 293553. 6386.49  11
  -1   0  -3 322715. 6387.23  18
  -1   0  -3 303345. 6364.60  15
  -1   0  -3 302983. 6354.49  20
  -1   0  -3 299074. 6658.99   6
  -1   0  -2 301010. 6213.29   3
  -1   0  -2 288399. 6203.07   1
  -1   0  -2 291820. 5850.20  18
  -1   0  -2 295592. 5856.65  15
  -1   0  -2 297875. 5856.98  14
  -1   0  -2 270944. 6255.74   4
  -1   0  -2 292019. 5868.58   2
  -1   0  -2 292156. 5865.82  12
  -1   0  -2 293257. 5859.03  13
  -1   0  -2 283246. 6100.58   6
  -1   0  -2 293510. 5853.97  19
  -1   0  -2 288759. 5855.32  20
  -1   0  -2 287124. 6043.46  11
  -1   0  -2 289968. 5846.34  17
  -1   0  -2 283657. 6281.12  10
  -1   0  -1 519276. 10447.0  11
  -1   0  -1 535659. 10489.8   1
  -1   0  -1 523688. 10341.8   6
  -1   0  -1 511609. 10258.9   2
  -1   0  -1 528977. 10438.7   4
  -1   0  -1 532549. 10443.2  10
  -1   0  -1 538979. 10495.9  16
  -1   0   0 11383.0 522.513  16
  -1   0   0 10985.4 371.982   9
  -1   0   0 12423.4 539.549   5
  -1   0   0 12039.1 443.189  15
  -1   0   0 11757.3 441.257  18
  -1   0   0 11315.7 431.028  14
  -1   0   0 11420.8 388.160   4
  -1   0   0 11495.7 436.431  20
  -1   0   0 11053.7 419.404  13
  -1   0   0 11724.8 545.983   1
  -1   0   0 11556.4 441.997  10
  -1   0   0 11901.3 427.171  12
  -1   0   0 11707.4 482.508   6
  -1   0   0 11029.6 432.088  17
  -1   0   1 108174. 2530.85   5
  -1   0   1 105654. 2457.28  18
  -1   0   1 110747. 2469.31  15
  -1   0   1 100901. 2326.31   8
  -1   0   1 107369. 2457.92  17
  -1   0   1 108162. 2460.80  14
  -1   0   1 109689. 2468.76  20
  -1   0   1 100357. 2366.14   1
  -1   0   1 100538. 2406.82  12
  -1   0   1 102111. 2410.90  16
  -1   0   2 995333. 18897.2   5
  -1   0   2 920633. 18861.6  12
  -1   0   2 997940. 18916.7  15
  -1   0   2 991703. 18915.9  14
  -1   0   2 990590. 18918.6  13
  -1   0   2 995470. 18914.8  20
  -1   0   2 999999. 18929.6  17
  -1   0   3 44554.0 1552.56   8
  -1   0   3 46975.9 1421.22   4
  -1   0   3 43678.8 1603.24  12
  -1   0   4 494.561 345.629   8
  -1   0   5 73645.1 2572.04  12
  -1   0   5 73389.9 2602.41   8
  -1   0   6 196299. 5435.88   8
  -1   0   6 199588. 5366.26  12
  -1   0   7 185926. 5281.98  12
  -1   0   7 176761. 5358.52   8
  -1   0   8 27513.5 1824.49  12
  -1   0   8 30469.0 2004.19   8
  -1   0   9 6600.30 1065.92   8
  -1   0   9 7649.95 1067.21  12
  -1   0  10 26826.5 2176.80   8
  -1   0  10 24740.6 1984.79  12
  -1   0  11 33713.6 2395.67  12
  -1   0  11 34711.2 2604.46   8
  -1   0  12 21945.4 2114.65   8
  -1   0  12 24453.2 2154.05  12
  -1   0  13 3764.46 1022.88   8
  -1   0  13 2858.10 739.400  12
  -1   1 -12 11332.6 1569.17   4
  -1   1 -12 8120.92 1386.74  10
  -1   1 -11 42462.1 2479.23  20
  -1   1 -11 40681.9 2429.42  14
  -1   1 -11 41534.7 2867.06   4
  -1   1 -11 41034.2 2440.32  17
  -1   1 -11 41760.3 2457.25  15
  -1   1 -11 42333.6 2881.22  10
  -1   1 -10 74337.7 3137.65  15
  -1   1 -10 64419.1 3449.85   4
  -1   1 -10 68574.5 3079.18  14
  -1   1 -10 60686.9 2941.14  20
  -1   1 -10 67141.8 3514.12  10
  -1   1 -10 69604.6 3073.18  17
  -1   1  -9 29527.0 1820.32  15
  -1   1  -9 26456.9 1711.14  17
  -1   1  -9 24183.8 1666.41  13
  -1   1  -9 25230.2 2051.29  10
  -1   1  -9 27392.8 1748.30  20
  -1   1  -9 27334.9 1758.07  14
  -1   1  -8 20850.8 1440.33  15
  -1   1  -8 21960.3 1482.26  14
  -1   1  -8 22386.3 1494.44  17
  -1   1  -8 24129.4 1809.47  10
  -1   1  -8 21677.0 1757.40   4
  -1   1  -8 22224.9 1504.41  13
  -1   1  -8 19629.8 1427.69  20
  -1   1  -7 79276.6 2839.82  15
  -1   1  -7 83217.6 2908.41  14
  -1   1  -7 77253.2 3188.70   4
  -1   1  -7 79517.4 2856.90  13
  -1   1  -7 80650.1 2888.10  17
  -1   1  -7 79278.8 2146.91   2
  -1   1  -7 77974.7 2837.77  20
  -1   1  -7 76919.9 3202.76  10
  -1   1  -6 65047.8 2345.66  14
  -1   1  -6 66582.6 2692.24   4
  -1   1  -6 64226.3 2346.40  13
  -1   1  -6 67177.1 2292.86   1
  -1   1  -6 62562.9 1718.36   2
  -1   1  -6 65429.0 2359.55  20
  -1   1  -6 66736.4 2371.57  15
  -1   1  -6 62162.7 2644.42  10
  -1   1  -6 64852.2 2367.42  17
  -1   1  -5 63111.6 2178.71  14
  -1   1  -5 68524.0 1660.44   2
  -1   1  -5 66188.3 2540.29   4
  -1   1  -5 72402.1 2227.52   1
  -1   1  -5 64804.9 2529.20  10
  -1   1  -5 66014.5 2223.11  15
  -1   1  -5 66095.3 2214.41  13
  -1   1  -5 72742.4 2277.09  20
  -1   1  -4 156962. 3889.11  14
  -1   1  -4 164844. 4278.05   4
  -1   1  -4 159373. 3902.89  13
  -1   1  -4 159715. 3271.33   2
  -1   1  -4 161360. 3926.60  12
  -1   1  -4 161533. 3905.89  20
  -1   1  -4 162651. 3875.56   1
  -1   1  -4 166970. 3937.19  15
  -1   1  -4 155888. 4150.10   6
  -1   1  -4 158970. 4274.75  10
  -1   1  -3 242072. 5201.14  15
  -1   1  -3 244265. 5216.12  17
  -1   1  -3 239628. 5196.68  14
  -1   1  -3 236435. 5496.22   4
  -1   1  -3 248188. 5227.47  18
  -1   1  -3 244534. 5216.46  12
  -1   1  -3 246682. 5219.23  19
  -1   1  -3 226526. 5167.72  13
  -1   1  -3 230279. 5179.18  20
  -1   1  -3 237881. 5205.68   1
  -1   1  -3 228852. 5481.78  10
  -1   1  -3 230885. 5402.83   6
  -1   1  -2 402988. 7768.06   5
  -1   1  -2 391471. 8007.32  13
  -1   1  -2 398077. 8025.31  15
  -1   1  -2 396480. 8030.79  18
  -1   1  -2 397598. 8011.38  14
  -1   1  -2 398006. 8077.12   1
  -1   1  -2 398811. 8195.69   6
  -1   1  -2 395585. 8014.91  12
  -1   1  -2 391357. 8217.61   4
  -1   1  -2 396292. 8021.11  17
  -1   1  -2 378834. 8204.90  10
  -1   1  -2 401392. 8037.93  19
  -1   1  -1 408463. 7953.31  20
  -1   1  -1 371546. 7896.12  10
  -1   1  -1 405828. 7949.20  14
  -1   1  -1 394594. 7940.42   4
  -1   1  -1 396786. 7937.98  13
  -1   1  -1 407425. 7960.20  17
  -1   1  -1 396705. 8062.25   6
  -1   1  -1 395831. 7955.13  18
  -1   1  -1 399737. 7940.79  12
  -1   1  -1 401878. 7963.71  19
  -1   1  -1 397826. 7927.93   5
  -1   1  -1 407346. 8219.64   3
  -1   1  -1 375762. 7981.89  16
  -1   1  -1 402851. 8020.03   1
  -1   1   0 80209.7 1977.65  16
  -1   1   0 85485.1 2080.26  18
  -1   1   0 87939.2 2079.19  20
  -1   1   0 82120.5 1854.42   7
  -1   1   0 85170.6 2057.96  13
  -1   1   0 84499.1 2060.49  12
  -1   1   0 81527.1 2074.81   6
  -1   1   0 88021.9 2085.51  19
  -1   1   0 90845.0 2099.25  15
  -1   1   0 88962.9 2087.94  17
  -1   1   0 84307.4 2145.96   5
  -1   1   0 89367.8 2165.19   3
  -1   1   1 1832.81 273.688  16
  -1   1   1 1567.41 305.064   6
  -1   1   1 2003.03 365.874   5
  -1   1   1 2177.83 317.240  15
  -1   1   1 2484.78 342.270   8
  -1   1   1 1878.13 186.835   7
  -1   1   1 2101.14 340.774  13
  -1   1   1 1857.12 182.236   4
  -1   1   1 1921.74 311.282  18
  -1   1   1 2330.60 330.431  20
  -1   1   1 1899.71 317.437  12
  -1   1   1 2204.72 320.042  17
  -1   1   2 151900. 3624.06  12
  -1   1   2 151888. 3604.30   8
  -1   1   2 153618. 3380.69   4
  -1   1   3 83317.5 2290.20   4
  -1   1   3 85490.5 2492.43   8
  -1   1   3 82998.3 2455.01  12
  -1   1   4 443.436 323.563   8
  -1   1   4 1559.62 425.386  12
  -1   1   5 41307.3 1899.85   8
  -1   1   5 38861.2 1770.83  12
  -1   1   6 194068. 5531.66   8
  -1   1   6 198637. 5352.92  12
  -1   1   7 199862. 5931.15   8
  -1   1   7 205392. 5722.24  12
  -1   1   8 26249.8 1939.53   8
  -1   1   8 26911.8 1807.91  12
  -1   1   9 3117.47 826.300   8
  -1   1   9 2506.96 682.799  12
  -1   1  10 48982.1 2944.45   8
  -1   1  10 41731.5 2561.16  12
  -1   1  11 45873.8 3044.76   8
  -1   1  11 49805.0 2932.36  12
  -1   1  12 25345.1 2429.10   8
  -1   1  12 25333.7 2153.53  12
  -1   1  13 4303.67 1063.45  12
  -1   2 -12 10009.5 1442.39  10
  -1   2 -12 11394.3 1295.77  17
  -1   2 -12 11430.2 1571.93   4
  -1   2 -11 50411.1 2796.97  15
  -1   2 -11 52715.5 2855.63  14
  -1   2 -11 56350.2 3319.76   4
  -1   2 -11 53498.7 2929.52  13
  -1   2 -11 49127.3 2757.79  17
  -1   2 -11 53148.1 3231.88  10
  -1   2 -11 52844.3 2828.49  20
  -1   2 -10 95491.2 3776.28  15
  -1   2 -10 95637.3 3782.58  14
  -1   2 -10 93404.0 3762.95  20
  -1   2 -10 92840.3 4167.64   4
  -1   2 -10 93487.0 3782.16  13
  -1   2 -10 88347.6 3732.51  17
  -1   2 -10 94422.6 4253.42  10
  -1   2  -9 56845.0 3023.34   4
  -1   2  -9 52646.5 2592.42  15
  -1   2  -9 55608.8 2687.32  13
  -1   2  -9 52730.2 2618.84  17
  -1   2  -9 51793.2 2592.37  20
  -1   2  -9 58582.8 2696.77  14
  -1   2  -9 59631.6 3053.16  10
  -1   2  -8 4438.72 746.268  15
  -1   2  -8 5177.71 775.526  14
  -1   2  -8 4518.49 775.746  13
  -1   2  -8 4622.91 854.861   4
  -1   2  -8 4554.81 755.684  20
  -1   2  -8 3647.87 665.921  17
  -1   2  -8 4071.35 854.732  10
  -1   2  -7 47575.9 2176.13  15
  -1   2  -7 50792.4 2248.77  20
  -1   2  -7 53773.8 2565.72  10
  -1   2  -7 53070.0 2512.65   4
  -1   2  -7 51530.3 2241.55  13
  -1   2  -7 51653.3 2223.01  14
  -1   2  -7 49630.3 2241.78  17
  -1   2  -7 52571.9 1974.67   1
  -1   2  -6 111922. 3400.24  15
  -1   2  -6 113203. 3415.06  14
  -1   2  -6 110756. 3698.00   4
  -1   2  -6 114049. 3425.02  13
  -1   2  -6 108719. 3063.94   1
  -1   2  -6 112364. 3746.82  10
  -1   2  -6 112585. 3425.12  20
  -1   2  -5 37676.6 1372.91   1
  -1   2  -5 37340.4 1584.32  15
  -1   2  -5 37114.7 1606.68  14
  -1   2  -5 40087.4 1820.17   4
  -1   2  -5 35473.8 1741.86  10
  -1   2  -5 35987.4 1572.59  13
  -1   2  -5 35267.4 1581.12  12
  -1   2  -5 35430.9 1584.11  20
  -1   2  -5 35444.9 1734.38   6
  -1   2  -4 150573. 3837.42  15
  -1   2  -4 150199. 3820.59  14
  -1   2  -4 152271. 4041.52   4
  -1   2  -4 149860. 3838.52  13
  -1   2  -4 155017. 3862.18  12
  -1   2  -4 152126. 4027.07   6
  -1   2  -4 146076. 3221.27   5
  -1   2  -4 155260. 3860.42  20
  -1   2  -4 143875. 4014.60  10
  -1   2  -4 159910. 3592.97   1
  -1   2  -3 147495. 3571.04  14
  -1   2  -3 147473. 3705.41  10
  -1   2  -3 147937. 3576.38  13
  -1   2  -3 140912. 3345.07   1
  -1   2  -3 152530. 3613.43  15
  -1   2  -3 144180. 3569.21  12
  -1   2  -3 142091. 3672.50   6
  -1   2  -3 141449. 3219.48   5
  -1   2  -3 147359. 3688.61   4
  -1   2  -2 176368. 4042.63  14
  -1   2  -2 175474. 4051.38  15
  -1   2  -2 177299. 3926.20   1
  -1   2  -2 172502. 4070.27   7
  -1   2  -2 177853. 4058.91  13
  -1   2  -2 177068. 4073.63   4
  -1   2  -2 173058. 4129.09   6
  -1   2  -2 182461. 4070.76  12
  -1   2  -2 175037. 3951.69   5
  -1   2  -1 234833. 4686.48   9
  -1   2  -1 226270. 5019.61  14
  -1   2  -1 234507. 4928.32   7
  -1   2  -1 232472. 5034.68  13
  -1   2  -1 229609. 5039.57   6
  -1   2  -1 230306. 5023.05  12
  -1   2  -1 223062. 5040.84   5
  -1   2  -1 223244. 4791.10  16
  -1   2   0 386.443 158.268  16
  -1   2   0 258.567 270.300   5
  -1   2   0 409.885 180.721   9
  -1   2   0 220.775 232.217   3
  -1   2   0 258.425 243.191  12
  -1   2   0 245.098 255.002  14
  -1   2   0 604.484 261.487  13
  -1   2   0 511.695 214.166   7
  -1   2   0 209.102 269.079   6
  -1   2   1 154966. 3376.78  16
  -1   2   1 166772. 3509.19   4
  -1   2   1 156053. 3710.76   8
  -1   2   1 152300. 3635.80   6
  -1   2   1 153357. 3457.31   7
  -1   2   1 151897. 3725.78  13
  -1   2   1 154234. 3734.41  12
  -1   2   1 159502. 3286.05  10
  -1   2   1 166758. 3561.41   3
  -1   2   2 180077. 4341.03   8
  -1   2   2 189922. 4141.40   4
  -1   2   2 173440. 4324.19  13
  -1   2   2 175410. 4046.95   7
  -1   2   2 196735. 4054.10  10
  -1   2   2 173616. 4319.24  12
  -1   2   3 123298. 3415.95   8
  -1   2   3 119485. 3321.71  13
  -1   2   3 126467. 3369.83  12
  -1   2   4 54392.5 2158.14   8
  -1   2   4 53590.4 2036.11  12
  -1   2   5 5401.70 765.991   8
  -1   2   5 5609.53 726.170  12
  -1   2   6 137397. 4396.16   8
  -1   2   6 129582. 4083.22  12
  -1   2   7 195340. 5808.98   8
  -1   2   7 177523. 5336.25  12
  -1   2   8 33109.4 2256.57   8
  -1   2   8 36421.5 2118.70  12
  -1   2   9 16779.5 1727.20   8
  -1   2   9 16596.4 1544.60  12
  -1   2  10 32152.0 2434.17   8
  -1   2  10 33469.2 2294.80  12
  -1   2  11 50641.0 3291.43   8
  -1   2  11 52496.2 3049.51  12
  -1   2  12 25524.1 2343.52   8
  -1   2  12 23697.9 2197.77  12
  -1   2  13-713.332 668.957  12
  -1   3 -12 8667.05 1128.48  15
  -1   3 -12 6868.47 1087.24  14
  -1   3 -12 7461.42 1119.95  20
  -1   3 -12 4224.40 927.850  13
  -1   3 -12 5446.22 1144.32   4
  -1   3 -12 6418.85 1069.20  17
  -1   3 -12 8329.44 1314.05  10
  -1   3 -11 27838.2 2143.57  15
  -1   3 -11 28764.5 2131.93  14
  -1   3 -11 29250.7 2293.22   4
  -1   3 -11 26078.4 2056.40  13
  -1   3 -11 26453.7 1985.88  20
  -1   3 -11 26492.5 2042.96  17
  -1   3 -11 24624.5 2217.81  10
  -1   3 -10 93725.4 3917.26  15
  -1   3 -10 98315.6 3956.60  20
  -1   3 -10 100168. 3980.28  14
  -1   3 -10 95461.3 4277.61   4
  -1   3 -10 105170. 4088.14  13
  -1   3 -10 96962.1 4351.00  10
  -1   3 -10 94810.6 3933.84  17
  -1   3  -9 35042.9 2157.94  17
  -1   3  -9 41410.5 2297.39  15
  -1   3  -9 37152.0 2195.38  14
  -1   3  -9 42781.8 2590.39  10
  -1   3  -9 40637.6 2459.23   4
  -1   3  -9 36789.4 2201.30  13
  -1   3  -9 39518.7 2294.31  20
  -1   3  -8 10289.4 1097.15  15
  -1   3  -8 10755.6 1066.77  14
  -1   3  -8 14317.4 1362.69   4
  -1   3  -8 11514.8 1112.05  13
  -1   3  -8 11174.9 1134.37  20
  -1   3  -8 9504.42 1218.40  10
  -1   3  -7 37580.6 1935.80  15
  -1   3  -7 38616.9 1983.41  14
  -1   3  -7 35047.2 2032.04   4
  -1   3  -7 37888.2 1935.36  13
  -1   3  -7 42541.8 1581.68   1
  -1   3  -7 36946.6 1939.38  12
  -1   3  -7 39956.8 1994.30  20
  -1   3  -7 36139.8 2124.74  10
  -1   3  -6 83851.8 2017.40   5
  -1   3  -6 80549.6 2857.32  14
  -1   3  -6 78403.3 2995.30   4
  -1   3  -6 80619.1 2879.63  13
  -1   3  -6 82906.2 2911.67  12
  -1   3  -6 82029.6 2878.64  15
  -1   3  -6 84679.3 2375.93   1
  -1   3  -6 79262.1 3040.36  10
  -1   3  -6 84998.3 3095.59   6
  -1   3  -6 82039.4 2887.89  20
  -1   3  -5 70092.8 2417.24  15
  -1   3  -5 62588.6 2444.94   6
  -1   3  -5 65960.9 2345.55  14
  -1   3  -5 62101.9 2315.15  13
  -1   3  -5 65788.5 2456.78   4
  -1   3  -5 64586.5 2348.20  12
  -1   3  -5 64006.7 2339.01  20
  -1   3  -5 61574.7 2419.24  10
  -1   3  -5 64727.1 1904.11   1
  -1   3  -4 18163.9 1062.18  15
  -1   3  -4 18488.4 1066.37  14
  -1   3  -4 17503.9 1046.16  13
  -1   3  -4 15747.6 1056.47   4
  -1   3  -4 18922.9 842.630   1
  -1   3  -4 18178.7 1073.39  12
  -1   3  -4 16868.9 1095.75   6
  -1   3  -3 62749.8 2063.37  15
  -1   3  -3 62949.0 1777.36   1
  -1   3  -3 62290.2 2048.01  14
  -1   3  -3 59362.4 2027.30   7
  -1   3  -3 60786.8 2029.69  13
  -1   3  -3 61578.4 2052.53   4
  -1   3  -3 58234.2 2048.73   6
  -1   3  -3 60691.3 2030.32  12
  -1   3  -2 191828. 4053.90   9
  -1   3  -2 179001. 4358.14  15
  -1   3  -2 180191. 4354.79  14
  -1   3  -2 181427. 4310.23   7
  -1   3  -2 179938. 4353.27  13
  -1   3  -2 181170. 4351.50   6
  -1   3  -2 181493. 4364.92  12
  -1   3  -2 173537. 4094.57   2
  -1   3  -1 299076. 6533.82   6
  -1   3  -1 292086. 6590.03  14
  -1   3  -1 296086. 6451.47   7
  -1   3  -1 284300. 6566.90  13
  -1   3  -1 297777. 6606.07  12
  -1   3  -1 300062. 6086.90  16
  -1   3  -1 295993. 6548.34   2
  -1   3   0 280130. 5526.36  10
  -1   3   0 257970. 6000.60  14
  -1   3   0 264575. 5803.26   7
  -1   3   0 261364. 6006.37  13
  -1   3   0 268354. 6025.45  12
  -1   3   0 261541. 5893.74   6
  -1   3   0 271512. 5382.37  16
  -1   3   1 189712. 4070.21  16
  -1   3   1 200288. 4709.99  12
  -1   3   1 188896. 4435.93   7
  -1   3   1 187563. 4610.08   8
  -1   3   1 194709. 4682.83  13
  -1   3   1 188126. 4514.61   6
  -1   3   1 205774. 4466.51   3
  -1   3   1 210079. 4238.59  10
  -1   3   2 207788. 5103.34  12
  -1   3   2 200842. 5062.32   8
  -1   3   2 208923. 5111.94  13
  -1   3   2 206574. 4860.83   7
  -1   3   2 208418. 4936.64   6
  -1   3   2 221064. 4760.23  10
  -1   3   2 224331. 4592.64   3
  -1   3   3 127442. 3650.54   8
  -1   3   3 130312. 3617.05  12
  -1   3   3 125726. 3585.43  13
  -1   3   3 130529. 3427.63   7
  -1   3   4 31578.2 1597.22  13
  -1   3   4 33524.2 1533.10   7
  -1   3   4 31446.9 1694.89   8
  -1   3   4 32426.3 1592.76  12
  -1   3   5 10146.6 1076.66   8
  -1   3   5 9282.90 943.023  13
  -1   3   5 10097.1 968.191  12
  -1   3   6 81979.1 3087.93  13
  -1   3   6 79024.9 3065.78  12
  -1   3   7 161103. 5355.19   8
  -1   3   7 161181. 4983.01  13
  -1   3   7 159584. 4968.41  12
  -1   3   8 34550.7 2346.25   8
  -1   3   8 34082.9 2164.76  13
  -1   3   8 37063.9 2187.54  12
  -1   3   9 9034.28 1270.61   8
  -1   3   9 10792.2 1271.49  13
  -1   3   9 8570.83 1206.65  12
  -1   3  10 17744.1 1888.61   8
  -1   3  10 16286.0 1675.31  13
  -1   3  10 17512.1 1698.89  12
  -1   3  11 27193.8 2548.65   8
  -1   3  11 32221.3 2473.95  13
  -1   3  11 29059.1 2324.34  12
  -1   3  12 14688.5 1820.77  12
  -1   3  12 17274.5 1960.70  13
  -1   4 -13 8144.97 1238.86  20
  -1   4 -13 7332.63 1187.46  14
  -1   4 -13 8168.31 1303.32  13
  -1   4 -13 6350.80 1056.59  15
  -1   4 -13 5378.92 1193.83  17
  -1   4 -12 1644.56 745.539  10
  -1   4 -12 1917.68 625.680  15
  -1   4 -12 2396.06 739.147  14
  -1   4 -12 5026.15 976.613  13
  -1   4 -12 2850.88 963.282   4
  -1   4 -12 1466.24 703.291  20
  -1   4 -12 3099.03 956.451  17
  -1   4 -11 14152.0 1506.22  17
  -1   4 -11 12962.4 1444.10  15
  -1   4 -11 12536.1 1388.98  14
  -1   4 -11 14359.1 1592.66  20
  -1   4 -11 12922.6 1440.00  13
  -1   4 -11 12344.4 1558.91   4
  -1   4 -11 15568.8 1728.71  10
  -1   4 -10 103620. 4469.39  10
  -1   4 -10 101022. 4116.56  14
  -1   4 -10 100362. 4365.51   4
  -1   4 -10 99456.0 4109.03  13
  -1   4 -10 102588. 4186.33  17
  -1   4 -10 105493. 4202.18  20
  -1   4 -10 96909.9 4100.94  15
  -1   4  -9 70253.7 3160.82  15
  -1   4  -9 70790.9 3171.18  14
  -1   4  -9 66513.6 3263.75   4
  -1   4  -9 70148.7 3178.60  13
  -1   4  -9 65931.6 3312.55  10
  -1   4  -9 69013.9 3163.39  20
  -1   4  -8 4778.44 820.017  15
  -1   4  -8 6223.93 904.250  14
  -1   4  -8 4734.63 801.264  13
  -1   4  -8 5661.31 853.473  12
  -1   4  -8 5733.19 941.083   4
  -1   4  -8 4973.90 806.326  20
  -1   4  -8 4710.19 913.275  10
  -1   4  -7 30567.8 1833.92  15
  -1   4  -7 35807.2 2092.46  10
  -1   4  -7 32086.7 1880.27  14
  -1   4  -7 36028.5 1961.44  13
  -1   4  -7 34841.1 2051.56   4
  -1   4  -7 30528.8 1858.82  12
  -1   4  -7 38018.8 1372.26   1
  -1   4  -7 33899.6 1925.99  20
  -1   4  -6 72791.4 2784.27  14
  -1   4  -6 73538.8 2779.89  13
  -1   4  -6 69851.0 2750.63  15
  -1   4  -6 70700.5 2839.76   4
  -1   4  -6 71545.1 2769.42  12
  -1   4  -6 76466.5 2121.60   1
  -1   4  -6 74878.0 2812.78  20
  -1   4  -6 68849.0 2840.69   6
  -1   4  -6 70544.4 2831.71  10
  -1   4  -5 73230.4 2655.05  15
  -1   4  -5 72529.9 2634.12  14
  -1   4  -5 68656.3 2599.16  13
  -1   4  -5 79922.3 2110.95   1
  -1   4  -5 66238.7 2612.38   4
  -1   4  -5 73047.3 2720.08   6
  -1   4  -5 70340.2 2633.16  12
  -1   4  -5 71569.6 2643.46  20
  -1   4  -4 54605.1 1720.80   1
  -1   4  -4 56895.2 2164.91  13
  -1   4  -4 57000.2 2172.27   6
  -1   4  -4 54507.2 2122.15  14
  -1   4  -4 55564.5 2146.53   7
  -1   4  -4 52027.4 2102.41   4
  -1   4  -4 56951.7 1617.08   2
  -1   4  -4 55198.7 2153.00  12
  -1   4  -4 57333.2 2196.11  15
  -1   4  -3 50736.3 1933.21   6
  -1   4  -3 56361.1 2037.33  15
  -1   4  -3 52076.2 1972.57  14
  -1   4  -3 50820.7 1938.51   7
  -1   4  -3 53622.7 2006.24  13
  -1   4  -3 48061.8 1652.22   2
  -1   4  -3 49998.1 1960.76  12
  -1   4  -2 312555. 7188.48  14
  -1   4  -2 310173. 7095.83   7
  -1   4  -2 328527. 7242.90  13
  -1   4  -2 316351. 7115.76   6
  -1   4  -2 322846. 7229.96  12
  -1   4  -2 314398. 7201.08  15
  -1   4  -1 212283. 5200.69  14
  -1   4  -1 217001. 5216.61  13
  -1   4  -1 208908. 5019.68   7
  -1   4  -1 214834. 5204.84  12
  -1   4  -1 215269. 5047.75   6
  -1   4   0 219793. 5344.45  14
  -1   4   0 212464. 5122.86   7
  -1   4   0 223020. 5340.93  13
  -1   4   0 223991. 5347.46  12
  -1   4   0 224347. 5154.88   6
  -1   4   0 231534. 4848.52  10
  -1   4   0 216385. 4371.54  16
  -1   4   1 171469. 3536.84  16
  -1   4   1 168382. 4386.69  14
  -1   4   1 161393. 4269.44   8
  -1   4   1 170096. 4399.12  13
  -1   4   1 168610. 4201.67   7
  -1   4   1 170102. 4186.89   6
  -1   4   1 168514. 4393.84  12
  -1   4   2 52715.8 1954.93   8
  -1   4   2 40470.7 1648.88   6
  -1   4   2 44207.3 1863.66  12
  -1   4   2 51231.0 1525.37   3
  -1   4   2 41051.7 1677.90   7
  -1   4   2 43220.4 1838.13  13
  -1   4   3 120598. 3781.01   8
  -1   4   3 123031. 3763.16  13
  -1   4   3 122819. 3611.69   7
  -1   4   3 121898. 3545.03   6
  -1   4   3 123660. 3762.44  12
  -1   4   4 49708.8 2235.27   8
  -1   4   4 50847.8 2190.49  13
  -1   4   4 50055.6 2048.71   7
  -1   4   4 47202.6 2125.60  12
  -1   4   5 4017.02 697.448   7
  -1   4   5 3532.24 774.531   8
  -1   4   5 4125.02 739.674  13
  -1   4   5 4223.71 722.799  12
  -1   4   6 47987.8 2542.93   8
  -1   4   6 44930.1 2281.38  13
  -1   4   6 47035.2 2286.11   7
  -1   4   6 46702.8 2355.29  12
  -1   4   7 72659.8 3428.93   8
  -1   4   7 69249.5 3012.58  13
  -1   4   7 65450.4 2964.61   7
  -1   4   7 69332.9 3041.32  12
  -1   4   8 32682.8 2344.00   8
  -1   4   8 31880.4 2110.38  13
  -1   4   8 28176.5 2001.08   7
  -1   4   8 28524.0 2013.21  12
  -1   4   9 4802.72 1123.68   8
  -1   4   9 3942.58 912.979  13
  -1   4   9 3175.72 671.644  12
  -1   4  10 11266.8 1570.16   8
  -1   4  10 9456.96 1417.97  13
  -1   4  10 11064.7 1359.93  12
  -1   4  11 43882.3 3312.53   8
  -1   4  11 43866.5 3039.04  13
  -1   4  11 43224.6 2864.87   7
  -1   4  11 48558.3 2984.38  12
  -1   5 -13 11768.1 1548.55  15
  -1   5 -13 12746.1 1571.00  14
  -1   5 -13 11963.9 1495.28  13
  -1   5 -13 11973.3 1578.11  20
  -1   5 -13 15145.3 1736.40  17
  -1   5 -12 1572.44 610.157  15
  -1   5 -12 1256.19 636.341  17
  -1   5 -12-164.133 440.963  14
  -1   5 -12-206.898 301.282  13
  -1   5 -12 1265.73 661.330   4
  -1   5 -12 2605.69 824.657  20
  -1   5 -12-429.125 508.631  10
  -1   5 -11 16581.8 1632.21  14
  -1   5 -11 17030.7 1740.38  17
  -1   5 -11 18000.9 1783.40  13
  -1   5 -11 19681.9 1957.63  10
  -1   5 -11 19870.8 1832.92  20
  -1   5 -11 17201.8 1730.87  15
  -1   5 -11 20775.1 1909.29   4
  -1   5 -10 85135.0 3855.63  15
  -1   5 -10 87842.6 3894.48  14
  -1   5 -10 85977.6 4045.80   4
  -1   5 -10 89764.0 3931.47  13
  -1   5 -10 88422.3 3914.13  17
  -1   5 -10 87770.2 3904.04  20
  -1   5 -10 87087.1 4063.24  10
  -1   5  -9 81217.2 3533.59  15
  -1   5  -9 75640.9 3437.51  14
  -1   5  -9 75042.6 3595.72   4
  -1   5  -9 81677.9 3551.81  13
  -1   5  -9 78475.8 3469.44  20
  -1   5  -9 76768.8 3623.89  10
  -1   5  -8 17697.0 1514.68  15
  -1   5  -8 18912.9 1571.08  14
  -1   5  -8 18774.6 1593.98  13
  -1   5  -8 20145.3 1639.41  12
  -1   5  -8 19042.2 1624.69   4
  -1   5  -8 20103.4 1591.04  20
  -1   5  -8 19420.3 1647.84  10
  -1   5  -7 14671.7 1312.15  15
  -1   5  -7 11567.3 1182.63  14
  -1   5  -7 11392.8 1211.55  13
  -1   5  -7 12677.3 1282.41   4
  -1   5  -7 12044.3 1224.57  12
  -1   5  -7 12611.1 1301.35   6
  -1   5  -7 14924.2 797.417   1
  -1   5  -7 12931.9 1268.14  20
  -1   5  -7 12199.8 1231.02  10
  -1   5  -6 166726. 3790.67   1
  -1   5  -6 149802. 4673.02  14
  -1   5  -6 152261. 4733.06   4
  -1   5  -6 154240. 4738.48  12
  -1   5  -6 158041. 4753.96  13
  -1   5  -6 157578. 4817.13   6
  -1   5  -6 156538. 4760.79  20
  -1   5  -5 160336. 3904.23   2
  -1   5  -5 165700. 4797.64   6
  -1   5  -5 161609. 4783.85  15
  -1   5  -5 157310. 4726.69  14
  -1   5  -5 164700. 4791.82   7
  -1   5  -5 171960. 4842.05  13
  -1   5  -5 160954. 4731.57   4
  -1   5  -5 168629. 4818.57  12
  -1   5  -5 177090. 4025.00   1
  -1   5  -4 25651.4 1500.57  15
  -1   5  -4 25442.5 1477.77  14
  -1   5  -4 21529.7 1374.37   7
  -1   5  -4 23358.8 1451.44  13
  -1   5  -4 24658.0 1469.77  12
  -1   5  -4 23497.7 1091.20   1
  -1   5  -4 23719.0 1402.31   6
  -1   5  -3 33387.9 1682.93  15
  -1   5  -3 35918.5 1720.53  14
  -1   5  -3 36058.0 1683.18   7
  -1   5  -3 36507.4 1717.74  13
  -1   5  -3 32049.0 1643.21  12
  -1   5  -3 35426.5 1638.42   6
  -1   5  -2 135055. 3893.81  15
  -1   5  -2 130974. 3862.28  12
  -1   5  -2 143921. 3965.21  14
  -1   5  -2 133356. 3789.62   7
  -1   5  -2 134772. 3889.69  13
  -1   5  -2 137368. 3763.96   6
  -1   5  -1 114479. 3281.97   7
  -1   5  -1 110064. 3368.00  13
  -1   5  -1 110961. 3373.80  12
  -1   5  -1 108565. 3165.91   6
  -1   5  -1 109765. 3358.80  14
  -1   5   0 51601.7 2101.56  14
  -1   5   0 52950.8 2121.33  13
  -1   5   0 55789.1 1964.11   6
  -1   5   0 50015.6 2085.91  12
  -1   5   1 93663.5 1979.75  16
  -1   5   1 91478.5 2937.63   8
  -1   5   1 93390.6 3052.93  12
  -1   5   1 94108.2 2816.93   6
  -1   5   1 88117.3 2997.07  14
  -1   5   1 89096.1 2884.16   7
  -1   5   1 93735.7 3052.77  13
  -1   5   2 92617.4 2219.29  16
  -1   5   2 87765.7 3009.96   8
  -1   5   2 90120.8 3063.34  14
  -1   5   2 90676.8 3070.09  13
  -1   5   2 86793.8 2898.29   7
  -1   5   2 92940.9 2856.00   6
  -1   5   2 92525.5 3087.03  12
  -1   5   3 67899.8 2659.87   8
  -1   5   3 68452.9 2664.84  13
  -1   5   3 63493.0 2498.95   7
  -1   5   3 70722.0 2699.75  12
  -1   5   3 64368.1 2401.17   6
  -1   5   4 42570.6 2129.78  12
  -1   5   4 41508.3 1930.68   6
  -1   5   4 40527.3 2120.05   8
  -1   5   4 42850.1 2120.10  13
  -1   5   4 41879.4 2013.30   7
  -1   5   5 6746.50 894.264  12
  -1   5   5 5772.43 958.977   8
  -1   5   5 7901.02 995.288  13
  -1   5   5 6030.94 856.683   7
  -1   5   6 10570.7 1258.94   8
  -1   5   6 11549.1 1226.43  13
  -1   5   6 10879.8 1211.03   7
  -1   5   6 10916.3 1211.39  12
  -1   5   7 35967.4 2237.75  13
  -1   5   7 36175.2 2237.92   7
  -1   5   7 37806.9 2255.10  12
  -1   5   7 34126.6 2407.51   8
  -1   5   8 41343.1 2788.44   8
  -1   5   8 43772.8 2617.36  13
  -1   5   8 41330.0 2553.50   7
  -1   5   8 43954.6 2585.01  12
  -1   5   9 15459.2 1761.70   8
  -1   5   9 14622.8 1608.41  13
  -1   5   9 13958.9 1493.83   7
  -1   5   9 15319.5 1606.67  12
  -1   5  10 7343.42 1358.37   8
  -1   5  10 8586.21 1325.06  13
  -1   5  10 9589.28 1265.46   7
  -1   5  10 8156.92 1241.60  12
  -1   5  11 35196.4 2679.39   7
  -1   6 -12 2747.34 736.181  15
  -1   6 -12 3194.38 875.760  14
  -1   6 -12 2577.27 771.782  17
  -1   6 -12 2951.33 780.851  13
  -1   6 -12 4069.24 1057.90  20
  -1   6 -12 3236.75 963.147  10
  -1   6 -11 13095.7 1509.32  15
  -1   6 -11 15638.0 1602.76  14
  -1   6 -11 16497.7 1792.04   4
  -1   6 -11 15536.6 1629.29  13
  -1   6 -11 14497.2 1747.92  10
  -1   6 -11 13595.3 1692.66  20
  -1   6 -11 12026.9 1497.61  17
  -1   6 -10 70546.4 3539.60  15
  -1   6 -10 67554.6 3466.37  14
  -1   6 -10 70153.5 3538.93  13
  -1   6 -10 71509.6 3747.74   4
  -1   6 -10 67994.7 3523.25  20
  -1   6 -10 67104.7 3588.41  10
  -1   6  -9 74855.0 3479.18  15
  -1   6  -9 70297.4 3433.36  14
  -1   6  -9 68680.2 3419.85  13
  -1   6  -9 71139.2 3523.89   4
  -1   6  -9 68190.6 3445.77  12
  -1   6  -9 72809.0 3469.30  20
  -1   6  -9 70796.5 3514.34  10
  -1   6  -8 49618.6 2656.81  14
  -1   6  -8 46524.8 2612.78  13
  -1   6  -8 45472.1 2584.78  12
  -1   6  -8 51568.4 2758.47  20
  -1   6  -8 48543.3 2647.81  15
  -1   6  -8 44246.2 2597.46   4
  -1   6  -8 49875.1 2724.33  10
  -1   6  -7 15038.3 1434.39  14
  -1   6  -7 19102.5 1545.21  13
  -1   6  -7 16744.5 1486.75   4
  -1   6  -7 16111.1 1477.94  12
  -1   6  -7 17490.2 1520.67  15
  -1   6  -7 18918.9 1571.21  20
  -1   6  -7 17764.9 1584.81   6
  -1   6  -6 66882.5 2879.09  13
  -1   6  -6 63055.0 2845.43  15
  -1   6  -6 64529.6 2841.73  14
  -1   6  -6 58784.0 2766.07   4
  -1   6  -6 65320.3 2882.24  12
  -1   6  -6 63122.0 2869.53  20
  -1   6  -6 62349.4 2820.98   7
  -1   6  -6 61220.9 2797.17   6
  -1   6  -6 69481.0 2066.30   1
  -1   6  -5 208779. 5885.60  15
  -1   6  -5 204573. 5818.57  14
  -1   6  -5 213883. 4927.86   1
  -1   6  -5 201222. 5737.15   7
  -1   6  -5 208871. 5846.99  13
  -1   6  -5 199286. 5779.97  12
  -1   6  -5 199037. 5689.05   6
  -1   6  -4 7716.63 950.800  14
  -1   6  -4 7795.39 934.346  15
  -1   6  -4 8394.52 1018.25   7
  -1   6  -4 7860.92 951.931  13
  -1   6  -4 7651.79 996.054  12
  -1   6  -4 8233.47 906.726   6
  -1   6  -3 1969.59 571.273  15
  -1   6  -3 2166.55 584.310  14
  -1   6  -3 1515.08 545.908  13
  -1   6  -3 2673.98 580.197   7
  -1   6  -3 1467.10 495.723   6
  -1   6  -3 2303.31 598.963  12
  -1   6  -2 70010.5 2682.12  12
  -1   6  -2 61742.5 2487.19   7
  -1   6  -2 70941.3 2683.98  15
  -1   6  -2 71421.6 2505.54   6
  -1   6  -2 66211.5 2628.22  13
  -1   6  -2 68508.1 2643.72  14
  -1   6  -1 125483. 3921.01  14
  -1   6  -1 123573. 3782.91   7
  -1   6  -1 124669. 3912.93  13
  -1   6  -1 127503. 3933.08  12
  -1   6  -1 131539. 3687.32   6
  -1   6   0 85175.0 2956.36   7
  -1   6   0 86950.5 3087.39  13
  -1   6   0 86576.8 2814.54   6
  -1   6   0 90435.4 3130.55  14
  -1   6   0 89475.0 3114.38  12
  -1   6   1 31996.5 1567.56   6
  -1   6   1 30055.2 1692.99  12
  -1   6   1 34202.5 1805.02  14
  -1   6   1 32268.7 1702.09   7
  -1   6   1 32551.1 1774.15  13
  -1   6   1 28775.3 1608.66   8
  -1   6   2 86124.0 1962.35  16
  -1   6   2 78835.3 2975.32   8
  -1   6   2 87676.8 3160.90  14
  -1   6   2 77960.2 3037.09  13
  -1   6   2 75570.3 2905.84   7
  -1   6   2 85852.0 3121.99  12
  -1   6   2 82931.3 2794.80   6
  -1   6   3 84815.8 3220.28   8
  -1   6   3 88865.2 3276.31  13
  -1   6   3 86523.3 3227.50  14
  -1   6   3 82763.1 3113.98   7
  -1   6   3 89226.2 2988.64   6
  -1   6   3 81953.3 3192.03  12
  -1   6   4 15680.1 1363.57   8
  -1   6   4 14351.1 1288.90  14
  -1   6   4 12833.1 1265.11  13
  -1   6   4 13347.1 1250.85   7
  -1   6   4 14930.4 1346.23  12
  -1   6   4 15357.2 1194.73   6
  -1   6   5 22308.7 1689.75  13
  -1   6   5 22496.3 1795.24   8
  -1   6   5 25409.3 1721.46   7
  -1   6   5 21490.8 1671.06  12
  -1   6   5 23762.9 1564.71   6
  -1   6   6 25065.8 1993.75   8
  -1   6   6 28734.6 1963.62  13
  -1   6   6 25405.7 1857.00   7
  -1   6   6 25260.1 1700.50   6
  -1   6   6 28514.0 1977.34  12
  -1   6   7 28930.3 1971.71   6
  -1   6   7 32204.5 2379.14   8
  -1   6   7 27107.5 2041.99  12
  -1   6   7 28635.2 2128.93  13
  -1   6   7 28816.4 2093.72   7
  -1   6   8 40241.9 2866.25   8
  -1   6   8 41199.7 2687.98   7
  -1   6   8 40862.4 2674.19  13
  -1   6   8 39919.2 2614.63  12
  -1   6   9 11662.1 1606.08   8
  -1   6   9 10693.8 1443.70  13
  -1   6   9 9684.09 1271.89   7
  -1   6   9 11445.6 1516.15  12
  -1   6  10 9386.14 1370.52   7
  -1   7 -11 23353.2 2181.56  20
  -1   7 -11 24116.9 2245.60  15
  -1   7 -11 28456.7 2297.68  14
  -1   7 -11 24881.2 2229.73   4
  -1   7 -11 19167.6 1935.66  13
  -1   7 -11 20421.0 2032.47  10
  -1   7 -10 47244.6 3043.99  15
  -1   7 -10 49578.8 3021.25  14
  -1   7 -10 51244.6 3077.63  13
  -1   7 -10 48618.8 3115.27   4
  -1   7 -10 49136.3 3048.69  12
  -1   7 -10 48189.0 3052.18  20
  -1   7 -10 48842.8 3079.80  10
  -1   7  -9 52955.7 3070.52  15
  -1   7  -9 53154.1 3002.42  10
  -1   7  -9 56521.4 3146.95  14
  -1   7  -9 55534.2 3143.64  13
  -1   7  -9 48453.3 2972.58   4
  -1   7  -9 53138.1 3093.98  12
  -1   7  -9 56586.6 3096.06  20
  -1   7  -8 22638.1 1866.18  14
  -1   7  -8 22526.7 1861.00  15
  -1   7  -8 18102.5 1738.92  13
  -1   7  -8 25121.8 1956.54   4
  -1   7  -8 22814.7 1953.75  12
  -1   7  -8 23759.2 1931.27  20
  -1   7  -7 9935.63 1235.46  15
  -1   7  -7 8835.74 1234.84  12
  -1   7  -7 11141.9 1313.70  14
  -1   7  -7 11370.6 1289.42   7
  -1   7  -7 10407.5 1214.34   4
  -1   7  -7 10018.3 1269.12  13
  -1   7  -7 12138.7 1336.04  20
  -1   7  -7 11079.1 1284.65   6
  -1   7  -6 33047.0 2118.16  15
  -1   7  -6 34908.0 2161.69  14
  -1   7  -6 34508.6 2165.97   7
  -1   7  -6 37190.0 2211.09  13
  -1   7  -6 35539.9 2151.40   4
  -1   7  -6 35146.2 2178.32  12
  -1   7  -6 38214.8 2267.58  20
  -1   7  -6 35873.9 2150.23   6
  -1   7  -5 77956.1 2537.43   1
  -1   7  -5 83293.8 3392.70  15
  -1   7  -5 81940.4 3191.26   6
  -1   7  -5 78463.9 3239.85   7
  -1   7  -5 79067.6 3290.28  13
  -1   7  -5 77685.6 3265.44  12
  -1   7  -5 81112.2 3328.95  14
  -1   7  -4 57034.3 2657.69  12
  -1   7  -4 55480.3 2636.70  15
  -1   7  -4 60115.5 2693.79  14
  -1   7  -4 59311.2 2534.76   6
  -1   7  -4 55593.8 2606.50   7
  -1   7  -4 61695.0 2733.77  13
  -1   7  -3 2386.43 679.574  15
  -1   7  -3 1538.29 532.736   6
  -1   7  -3 1262.52 542.323  14
  -1   7  -3 637.257 525.632  13
  -1   7  -3 1296.50 532.725   7
  -1   7  -3 1039.77 543.357  12
  -1   7  -2 18756.9 1441.40  12
  -1   7  -2 19519.4 1480.30  15
  -1   7  -2 18314.5 1473.18  14
  -1   7  -2 17659.7 1352.45   7
  -1   7  -2 20241.7 1492.93  13
  -1   7  -2 17544.3 1251.44   6
  -1   7  -1 156583. 4740.51  15
  -1   7  -1 152033. 4697.07  14
  -1   7  -1 152149. 4576.53   7
  -1   7  -1 151651. 4690.26  13
  -1   7  -1 148865. 4657.97  12
  -1   7  -1 151850. 4342.77   6
  -1   7   0 92580.3 3410.24  14
  -1   7   0 87832.0 3249.28   7
  -1   7   0 90968.0 3377.78  13
  -1   7   0 93783.2 3065.85   6
  -1   7   0 88177.1 3348.56  12
  -1   7   1 10849.3 1131.11  14
  -1   7   1 11489.2 972.808   6
  -1   7   1 10044.8 1047.56   7
  -1   7   1 12702.4 1203.96  13
  -1   7   1 12268.2 1180.45  12
  -1   7   2 38481.6 2066.07   8
  -1   7   2 43170.8 2259.57  14
  -1   7   2 39295.7 2132.43   7
  -1   7   2 36762.6 2138.65  13
  -1   7   2 38755.6 2168.90  12
  -1   7   2 44664.6 2007.36   6
  -1   7   3 116428. 4126.57   8
  -1   7   3 117852. 4208.62  14
  -1   7   3 128432. 4312.93  13
  -1   7   3 115703. 4108.98   7
  -1   7   3 121602. 4208.93  12
  -1   7   3 117550. 3803.53   6
  -1   7   4 53158.9 2645.41  12
  -1   7   4 50439.8 2647.91   8
  -1   7   4 53838.9 2682.87  14
  -1   7   4 47652.9 2596.88  13
  -1   7   4 46170.7 2520.71   7
  -1   7   4 54341.2 2418.60   6
  -1   7   5 14507.9 1495.59   8
  -1   7   5 12767.5 1359.82  14
  -1   7   5 13380.0 1406.59  13
  -1   7   5 11663.9 1317.86   7
  -1   7   5 16275.9 1357.61   6
  -1   7   5 15839.7 1486.75  12
  -1   7   6 19548.8 1793.97   8
  -1   7   6 18014.4 1679.27  12
  -1   7   6 18129.1 1659.70  14
  -1   7   6 19717.4 1717.69  13
  -1   7   6 17472.8 1636.25   7
  -1   7   6 22961.2 1649.61   6
  -1   7   7 16782.7 1760.15   8
  -1   7   7 17610.1 1745.09  14
  -1   7   7 18369.5 1583.14   6
  -1   7   7 18746.4 1776.58  13
  -1   7   7 17686.3 1753.66   7
  -1   7   7 17099.2 1712.62  12
  -1   7   8 16915.9 1811.85   8
  -1   7   8 12564.3 1478.37  14
  -1   7   8 15482.4 1677.85  13
  -1   7   8 12942.8 1527.05   7
  -1   7   8 15605.0 1744.01  12
  -1   7   9 3442.04 749.833   7
  -1   8 -11 7050.61 1221.23  14
  -1   8 -11 8607.52 1377.73  15
  -1   8 -11 6817.31 1143.58  13
  -1   8 -11 7661.04 1260.21  20
  -1   8 -11 5413.90 1011.89  10
  -1   8 -10 50218.0 3147.99  15
  -1   8 -10 49820.8 3216.86  10
  -1   8 -10 51567.8 3332.76  14
  -1   8 -10 51064.0 3299.88  13
  -1   8 -10 52518.4 3298.74   4
  -1   8 -10 54463.9 3439.15  12
  -1   8 -10 58327.5 3378.24  20
  -1   8  -9 26859.6 2263.98  15
  -1   8  -9 28167.8 2331.15  13
  -1   8  -9 29667.6 2348.04   4
  -1   8  -9 26697.8 2290.52  12
  -1   8  -9 31882.8 2418.66  20
  -1   8  -9 30725.3 2463.81  14
  -1   8  -9 27684.0 2253.88  10
  -1   8  -8 8301.89 1250.41  15
  -1   8  -8 8784.84 1187.43  14
  -1   8  -8 7849.03 1188.58  13
  -1   8  -8 8871.86 1302.18  20
  -1   8  -8 10376.5 1348.45  12
  -1   8  -8 6541.84 1079.10   4
  -1   8  -7 10467.1 1332.87  14
  -1   8  -7 11769.8 1303.56   4
  -1   8  -7 11561.5 1380.23  15
  -1   8  -7 11637.6 1397.99  13
  -1   8  -7 9106.63 1200.70   7
  -1   8  -7 10529.3 1322.21  20
  -1   8  -7 10258.3 1361.26  12
  -1   8  -7 11945.0 1333.80   6
  -1   8  -6 81736.7 3662.69  20
  -1   8  -6 83757.3 3679.37  15
  -1   8  -6 76679.2 3493.75   7
  -1   8  -6 81626.7 3617.44  13
  -1   8  -6 81122.7 3610.60  12
  -1   8  -6 83641.4 3532.13   6
  -1   8  -6 79054.1 3578.16  14
  -1   8  -5 89060.4 3801.73  15
  -1   8  -5 93138.8 3593.43   6
  -1   8  -5 91520.4 3802.32  14
  -1   8  -5 85802.8 3607.71   7
  -1   8  -5 90297.4 3770.52  13
  -1   8  -5 92097.4 3809.97  12
  -1   8  -4 36707.9 2257.38  12
  -1   8  -4 44449.6 2414.70  15
  -1   8  -4 39285.7 2272.08  14
  -1   8  -4 41007.6 2303.19   7
  -1   8  -4 35665.7 2219.63  13
  -1   8  -4 36811.4 2092.35   6
  -1   8  -3 27474.8 1817.63   7
  -1   8  -3 26368.2 1853.49  13
  -1   8  -3 28458.5 1926.20  12
  -1   8  -3 26495.0 1896.80  15
  -1   8  -3 29232.2 1748.72   6
  -1   8  -3 28014.7 1927.26  14
  -1   8  -2 4760.62 839.469  12
  -1   8  -2 4985.23 897.478  15
  -1   8  -2 6801.44 966.936  14
  -1   8  -2 4953.65 855.455  13
  -1   8  -2 5025.12 779.433   7
  -1   8  -2 5569.88 789.541   6
  -1   8  -1 62901.3 2892.02  12
  -1   8  -1 68420.8 3006.23  15
  -1   8  -1 66088.4 2955.47  14
  -1   8  -1 66159.0 2878.14   7
  -1   8  -1 63248.8 2916.98  13
  -1   8  -1 68483.6 2676.49   6
  -1   8   0 103816. 3862.57  14
  -1   8   0 94707.3 3689.86   7
  -1   8   0 103757. 3889.25  13
  -1   8   0 107201. 3490.40   6
  -1   8   0 99060.1 3833.80  12
  -1   8   1 16431.2 1242.63   6
  -1   8   1 15932.3 1469.31  12
  -1   8   1 15902.4 1473.66  14
  -1   8   1 12732.6 1311.93   7
  -1   8   1 13617.0 1384.72  13
  -1   8   2 25850.1 1881.21  12
  -1   8   2 25649.8 1831.34   8
  -1   8   2 26450.4 1935.08  14
  -1   8   2 27687.3 1928.35   7
  -1   8   2 30881.7 1720.79   6
  -1   8   2 25656.4 1902.33  13
  -1   8   3 66831.5 3137.66  12
  -1   8   3 66558.3 3075.90   8
  -1   8   3 65799.1 3140.53  14
  -1   8   3 67794.4 3142.79  13
  -1   8   3 60855.2 3020.49   7
  -1   8   3 67546.3 2773.96   6
  -1   8   4 46999.7 2699.32   8
  -1   8   4 52179.0 2795.75  14
  -1   8   4 48203.7 2733.82  13
  -1   8   4 53681.7 2851.89   7
  -1   8   4 47579.4 2693.83  12
  -1   8   4 48480.8 2409.67   6
  -1   8   5 6318.48 965.378   8
  -1   8   5 6587.85 1109.22  14
  -1   8   5 7045.79 1039.21  13
  -1   8   5 7493.23 1174.88   7
  -1   8   5 8244.48 1198.50  12
  -1   8   6 179.569 281.680   8
  -1   8   6 566.194 556.309  14
  -1   8   6 693.425 674.634  13
  -1   8   6 970.943 416.095   7
  -1   8   6 779.851 614.442  12
  -1   8   7 17339.8 1856.95   8
  -1   8   7 16121.2 1747.77  14
  -1   8   7 15982.5 1779.42  13
  -1   8   7 15980.3 1768.45   7
  -1   8   7 17791.5 1866.79  12
  -1   8   8 12561.8 1636.27   7
  -1   9 -10 34138.6 2690.01  10
  -1   9  -9 82616.7 4141.27  15
  -1   9  -9 69614.2 3835.89  14
  -1   9  -9 69506.1 3808.95   4
  -1   9  -9 76823.9 4059.89  12
  -1   9  -9 77540.9 4032.99  13
  -1   9  -9 68320.0 3874.21  20
  -1   9  -8 7851.52 1210.71   4
  -1   9  -8 4602.11 1038.78  15
  -1   9  -8 7646.43 1207.40   7
  -1   9  -8 6729.45 1296.71  14
  -1   9  -8 8515.92 1343.35  13
  -1   9  -8 7580.33 1304.90  20
  -1   9  -8 7011.32 1336.71  12
  -1   9  -7 12737.5 1530.35  14
  -1   9  -7 13423.1 1551.65  15
  -1   9  -7 13048.3 1527.95   4
  -1   9  -7 11122.9 1524.27  13
  -1   9  -7 13763.8 1662.81  12
  -1   9  -7 11842.4 1528.11  20
  -1   9  -7 12574.9 1482.72   6
  -1   9  -7 13030.1 1454.38   7
  -1   9  -6 72012.5 3653.62  15
  -1   9  -6 70922.9 3628.81  14
  -1   9  -6 77413.3 3629.78   7
  -1   9  -6 74882.0 3698.58  13
  -1   9  -6 75966.4 3709.49  12
  -1   9  -6 79668.5 3760.07  20
  -1   9  -6 75072.6 3485.59   6
  -1   9  -5 93215.4 4092.68  15
  -1   9  -5 97130.7 4080.45  14
  -1   9  -5 85216.1 3841.34   7
  -1   9  -5 95932.1 4090.99  13
  -1   9  -5 92157.8 3754.06   6
  -1   9  -5 93059.0 4048.65  12
  -1   9  -4 26150.4 2012.47  15
  -1   9  -4 26182.9 1999.53  14
  -1   9  -4 28648.6 2026.09   7
  -1   9  -4 26389.5 2039.49  13
  -1   9  -4 29998.2 1917.64   6
  -1   9  -4 29872.7 2154.78  12
  -1   9  -3 5093.01 875.560  15
  -1   9  -3 5700.58 983.863  13
  -1   9  -3 5844.35 938.365   7
  -1   9  -3 4606.58 906.784  12
  -1   9  -3 6404.17 1017.43  14
  -1   9  -3 6128.08 892.925   6
  -1   9  -2 21769.6 1790.99  15
  -1   9  -2 18232.3 1656.45  14
  -1   9  -2 19917.4 1661.40   7
  -1   9  -2 19373.5 1701.47  13
  -1   9  -2 19353.4 1475.55   6
  -1   9  -2 24077.8 1853.77  12
  -1   9  -1 43872.0 2580.39  12
  -1   9  -1 45943.5 2619.84  15
  -1   9  -1 47756.0 2633.84  14
  -1   9  -1 43029.5 2457.76   7
  -1   9  -1 51606.2 2364.21   6
  -1   9  -1 43353.2 2569.42  13
  -1   9   0 46564.8 2679.02  14
  -1   9   0 45679.2 2613.45  15
  -1   9   0 45265.1 2531.04   7
  -1   9   0 48227.7 2701.25  13
  -1   9   0 45445.6 2603.50  12
  -1   9   0 52961.4 2395.20   6
  -1   9   1 16535.4 1519.61  12
  -1   9   1 14396.9 1487.28  14
  -1   9   1 15349.4 1479.26   7
  -1   9   1 15237.6 1535.04  13
  -1   9   1 16110.8 1332.69   6
  -1   9   2 3666.01 838.352  14
  -1   9   2 4987.23 1017.81  13
  -1   9   2 4141.32 852.130   7
  -1   9   2 5222.94 902.947  12
  -1   9   3 19595.0 1752.06   8
  -1   9   3 19688.1 1746.21  14
  -1   9   3 19347.7 1743.86  13
  -1   9   3 18467.1 1687.81   7
  -1   9   3 20005.1 1769.40  12
  -1   9   4 30612.2 2361.89   8
  -1   9   4 37348.2 2479.03  14
  -1   9   4 34566.9 2454.36  13
  -1   9   4 32182.9 2347.63   7
  -1   9   4 35759.8 2456.02  12
  -1   9   5 14934.2 1668.19  12
  -1   9   5 12019.0 1456.17   8
  -1   9   5 14384.4 1659.31  14
  -1   9   5 13557.3 1561.64  13
  -1   9   5 15685.1 1632.88   7
  -1   9   6 842.513 543.223   8
  -1   9   6 2906.08 904.744  14
  -1   9   6 2895.42 690.799  13
  -1   9   6 2161.00 690.839   7
  -1   9   6 3366.53 870.644  12
  -1  10  -8 17692.6 1920.50  14
  -1  10  -8 17512.5 1912.21   7
  -1  10  -8 15088.4 1713.73  13
  -1  10  -8 15290.6 1772.98   4
  -1  10  -8 18542.2 1969.79  12
  -1  10  -8 13819.4 1641.66  15
  -1  10  -8 15945.7 1902.34  20
  -1  10  -7-707.667 629.669  15
  -1  10  -7 865.114 612.636   6
  -1  10  -7 724.715 736.529  14
  -1  10  -7-108.521 535.007  13
  -1  10  -7 336.748 507.017   7
  -1  10  -7 773.279 545.610   4
  -1  10  -7 1808.48 649.405  12
  -1  10  -7 414.671 471.879  20
  -1  10  -6 36366.0 2589.88   7
  -1  10  -6 41043.8 2802.35  15
  -1  10  -6 38890.3 2730.20  14
  -1  10  -6 32879.7 2547.86  13
  -1  10  -6 34280.6 2538.37  12
  -1  10  -6 36219.7 2638.37  20
  -1  10  -6 39401.3 2654.60   6
  -1  10  -5 69719.3 3698.27  15
  -1  10  -5 71181.6 3670.13  14
  -1  10  -5 66755.8 3456.23   7
  -1  10  -5 67899.1 3612.89  13
  -1  10  -5 68904.6 3632.44  12
  -1  10  -5 67239.8 3299.89   6
  -1  10  -4 32662.2 2423.29  15
  -1  10  -4 35210.9 2432.49   7
  -1  10  -4 34966.1 2493.32  13
  -1  10  -4 35661.5 2239.05   6
  -1  10  -4 39712.6 2589.40  12
  -1  10  -4 32880.9 2394.67  14
  -1  10  -3 2106.34 832.263  12
  -1  10  -3 3021.97 814.742  15
  -1  10  -3 2980.03 868.808  14
  -1  10  -3 3168.18 809.787  13
  -1  10  -3 3706.55 688.736   7
  -1  10  -3 2770.23 585.009   6
  -1  10  -2 4907.20 967.730  15
  -1  10  -2 7163.98 949.236   6
  -1  10  -2 7592.16 1186.90  14
  -1  10  -2 9413.72 1233.98  12
  -1  10  -2 7501.42 1199.57  13
  -1  10  -2 5367.35 966.469   7
  -1  10  -1 42307.3 2699.28  15
  -1  10  -1 44506.9 2727.39  14
  -1  10  -1 43601.1 2586.51   7
  -1  10  -1 45626.7 2798.68  13
  -1  10  -1 41183.9 2672.28  12
  -1  10   0 14234.9 1522.64  15
  -1  10   0 10473.5 1387.94  14
  -1  10   0 11509.6 1337.33   7
  -1  10   0 14480.0 1546.60  13
  -1  10   0 11535.1 1401.97  12
  -1  10   1 3838.91 917.436  12
  -1  10   1 3813.16 832.835  15
  -1  10   1 2508.32 818.232  14
  -1  10   1 4255.08 1074.96  13
  -1  10   1 2552.35 723.244   7
  -1  10   2 5935.77 1130.55  14
  -1  10   2 6846.89 1148.15  13
  -1  10   2 6763.27 1023.11   7
  -1  10   2 7342.86 1186.23  12
  -1  10   3 18289.7 1802.15  12
  -1  10   3 20065.5 1971.63  14
  -1  10   3 20572.3 1951.87   7
  -1  10   3 17671.1 1885.97  13
  -1  10   4 44830.0 2895.90   8
  -1  10   4 44800.8 2949.96  14
  -1  10   4 38900.9 2765.82  13
  -1  10   4 40824.3 2863.17   7
  -1  10   4 43040.6 2833.80  12
  -1  10   5 11696.2 1823.42   8
  -1  10   5 16034.3 1899.32  14
  -1  10   5 13818.2 1824.03  13
  -1  10   5 15911.3 1820.11  12
  -1  11  -7 3092.49 930.203   6
  -1  11  -6 12528.5 1646.54  15
  -1  11  -6 12581.2 1672.15  20
  -1  11  -6 15430.7 1817.51  14
  -1  11  -6 15661.7 1699.22   7
  -1  11  -6 12564.8 1666.07  13
  -1  11  -6 13232.9 1734.76  12
  -1  11  -5 63900.9 3736.48  15
  -1  11  -5 58212.9 3585.00  14
  -1  11  -5 63799.1 3568.72   7
  -1  11  -5 57937.3 3564.26  13
  -1  11  -5 61550.0 3650.00  12
  -1  11  -4 27578.9 2409.44  15
  -1  11  -4 26149.7 2315.72  14
  -1  11  -4 28422.9 2237.51   7
  -1  11  -4 26592.5 2377.30  13
  -1  11  -4 30874.2 2513.57  12
  -1  11  -3 2692.39 733.169  14
  -1  11  -3 304.122 524.442  12
  -1  11  -3 1171.15 608.036  13
  -1  11  -3 2184.46 704.420   7
  -1  11  -3 2286.76 672.171  15
  -1  11  -2 4038.47 849.919  15
  -1  11  -2 5207.77 938.533  13
  -1  11  -2 4439.04 855.007   7
  -1  11  -2 4941.29 947.530  14
  -1  11  -2 3363.41 853.772  12
  -1  11  -1 29802.0 2387.65  15
  -1  11  -1 25158.4 2231.54  14
  -1  11  -1 24943.4 2027.49   7
  -1  11  -1 25296.2 2237.22  13
  -1  11  -1 25678.9 2268.42  12
  -1  11   0 29579.1 2453.56  15
  -1  11   0 30036.9 2429.06  14
  -1  11   0 32563.4 2428.29   7
  -1  11   0 24426.9 2243.43  13
  -1  11   0 29123.8 2370.07  12
  -1  11   1 6319.63 1231.54  15
  -1  11   1 8987.69 1347.30  12
  -1  11   1 9639.91 1498.28  14
  -1  11   1 11123.3 1517.91  13
  -1  11   1 9053.78 1393.01   7
  -1  11   2 5839.40 1292.30  12
  -1  11   2 7811.28 1213.01  15
  -1  11   2 7208.81 1270.17  14
  -1  11   2 4551.01 1088.59  13
  -1  11   2 6477.16 1097.65   7
  -1  11   3 19159.8 1985.62  12
  -1  11   3 15589.5 1888.77  15
  -1  11   3 13965.3 1857.52  14
  -1  11   3 15179.6 1837.10  13
   0 -12   1 11733.4 1429.13  17
   0 -12   1 12459.9 1648.86  19
   0 -12   1 12843.4 1566.78  18
   0 -12   2 29337.3 2316.78  18
   0 -12   2 32233.3 2594.10   2
   0 -12   2 32298.7 2497.07  19
   0 -12   2 29853.7 2776.17  11
   0 -12   2 27254.0 2396.16  17
   0 -12   3 38027.9 2837.48  19
   0 -12   3 34675.4 2665.79   2
   0 -12   3 38010.9 2710.58  18
   0 -12   3 40262.8 3004.52  11
   0 -12   4 3780.94 993.829   2
   0 -12   4 4967.22 1219.47  18
   0 -12   4 6251.40 1167.55   9
   0 -12   4 4801.33 1022.07  19
   0 -12   4 6089.36 1219.13  11
   0 -11  -1 29481.2 2686.10   2
   0 -11  -1 25179.4 2560.90  11
   0 -11   0 11913.6 1360.50  18
   0 -11   0 13658.4 1459.21  19
   0 -11   0 13773.7 1883.49  11
   0 -11   0 12778.3 1448.83  17
   0 -11   0 13649.2 1668.58   2
   0 -11   1 8043.74 1318.64   2
   0 -11   1 8860.46 1266.94   9
   0 -11   1 6837.25 1200.21  11
   0 -11   1 6681.07 1062.87  19
   0 -11   1 6015.01 1064.51  17
   0 -11   1 7380.22 1082.43  18
   0 -11   2 27151.7 2268.69   9
   0 -11   2 24002.0 2142.03   2
   0 -11   2 24684.0 2341.56  11
   0 -11   2 27506.2 2162.79  19
   0 -11   2 22123.7 1975.23  17
   0 -11   2 24186.6 2034.78  18
   0 -11   3 41085.2 2747.04   9
   0 -11   3 34781.1 2753.97  11
   0 -11   3 39647.1 2619.37   2
   0 -11   3 43028.5 2727.77  18
   0 -11   3 37456.4 2579.29  19
   0 -11   4 9560.98 1290.96   2
   0 -11   4 12108.9 1539.16   9
   0 -11   4 10071.5 1280.21  19
   0 -11   4 8912.98 1425.35  11
   0 -11   4 9321.32 1333.63  18
   0 -11   5 78.1510 628.872   9
   0 -11   5-219.231 381.348  18
   0 -11   5-1370.56 732.211  19
   0 -11   6 19266.6 1975.04   9
   0 -11   6 18775.8 1944.59  19
   0 -11   6 18354.9 1943.34  18
   0 -11   7 46730.7 3061.56   9
   0 -11   7 43439.4 3040.82  18
   0 -11   7 49314.9 3249.08  19
   0 -11   8 9325.11 1378.39   9
   0 -11   9 4997.00 1060.68   9
   0 -10  -3 8344.73 1391.80   2
   0 -10  -3 8111.99 1450.90  11
   0 -10  -2 18076.2 1987.44   2
   0 -10  -2 19580.8 1700.58  19
   0 -10  -2 21433.0 2193.34  11
   0 -10  -2 20229.2 1707.09  17
   0 -10  -2 18211.1 1671.60  18
   0 -10  -1 9088.88 1396.27   2
   0 -10  -1 9907.55 1148.00  19
   0 -10  -1 9852.79 1464.90  11
   0 -10  -1 10263.2 1214.05  17
   0 -10  -1 9093.88 1177.76  18
   0 -10   0 15659.2 1668.27   9
   0 -10   0 15878.7 1838.94  11
   0 -10   0 16384.8 1672.94   2
   0 -10   0 16364.3 1541.58  18
   0 -10   0 14157.3 1460.44  19
   0 -10   0 17212.5 1507.20  17
   0 -10   1 6750.83 1159.19   2
   0 -10   1 5933.30 1072.68   9
   0 -10   1 4627.47 821.677  17
   0 -10   1 6358.65 965.619  18
   0 -10   1 6695.68 959.993  19
   0 -10   1 8313.24 1378.85  11
   0 -10   2 15363.7 1594.74   9
   0 -10   2 16319.1 1656.86   2
   0 -10   2 16724.7 1593.38  19
   0 -10   2 16817.9 1789.45  11
   0 -10   2 12664.4 1383.38  17
   0 -10   2 19358.7 1700.45  18
   0 -10   3 84407.1 3727.81   9
   0 -10   3 79246.6 3659.05  19
   0 -10   3 78790.3 3573.22   2
   0 -10   3 77418.1 3808.27  11
   0 -10   3 71970.0 3545.72  18
   0 -10   3 69686.6 3525.93  17
   0 -10   4 33529.0 2366.09  11
   0 -10   4 34427.9 2351.82   9
   0 -10   4 36818.4 2295.74   2
   0 -10   4 32789.9 2353.04  19
   0 -10   4 32689.9 2344.67  18
   0 -10   5 6972.90 974.103   2
   0 -10   5 7360.55 1210.94   9
   0 -10   5 7270.90 1051.51  19
   0 -10   5 7703.39 1153.15  11
   0 -10   5 5774.45 1037.76  18
   0 -10   6 13470.8 1504.85   9
   0 -10   6 15928.6 1614.80  19
   0 -10   6 15859.8 1667.59  18
   0 -10   7 51752.7 3170.26  18
   0 -10   7 53284.4 3257.63  19
   0 -10   7 54889.7 3060.51   9
   0 -10   8 36265.3 2529.69   9
   0 -10   8 31857.7 2552.38  19
   0 -10   8 39506.4 2833.62  18
   0 -10   9 34.9477 565.162   9
   0 -10   9 455.583 437.892  19
   0 -10   9 16.9186 647.530  18
   0 -10  10 13626.1 1699.09   9
   0  -9  -6 29250.8 2590.91  11
   0  -9  -5 35289.2 2803.63   2
   0  -9  -5 32024.6 2764.44  11
   0  -9  -4 5323.33 1211.45  11
   0  -9  -4 4522.63 1086.03   2
   0  -9  -3 5792.72 1171.60   2
   0  -9  -3 3416.59 993.038  11
   0  -9  -3 3345.87 638.043  19
   0  -9  -3 4233.12 697.710  18
   0  -9  -3 3977.50 715.773  17
   0  -9  -2 19754.6 1556.54  18
   0  -9  -2 19037.3 1874.14   2
   0  -9  -2 20810.6 1619.85  19
   0  -9  -2 22140.4 2203.13  11
   0  -9  -2 18271.5 1526.09  17
   0  -9  -1 22264.2 2068.03  11
   0  -9  -1 20176.7 1589.06  19
   0  -9  -1 20977.3 1629.49  18
   0  -9  -1 21944.8 1951.50   2
   0  -9  -1 21604.0 1664.58  17
   0  -9   0 17597.7 1514.07  18
   0  -9   0 15935.2 1630.16   2
   0  -9   0 13454.2 1359.86  19
   0  -9   0 16429.1 1457.20  17
   0  -9   0 14660.1 1548.75   9
   0  -9   0 17415.7 1799.73  11
   0  -9   1 33340.2 2204.16   9
   0  -9   1 35217.5 2314.26   2
   0  -9   1 33141.7 2077.42  19
   0  -9   1 30554.6 2407.56  11
   0  -9   1 28788.2 1980.76  18
   0  -9   1 34586.6 2113.13  17
   0  -9   2 54601.2 2787.24   9
   0  -9   2 52943.1 3013.94  11
   0  -9   2 49612.7 2663.96   2
   0  -9   2 51134.2 2699.98  18
   0  -9   2 51344.8 2691.70  19
   0  -9   2 50367.0 2670.43  17
   0  -9   3 71550.6 3191.37   9
   0  -9   3 73316.3 3196.01   2
   0  -9   3 75917.4 3311.05  19
   0  -9   3 68438.1 3211.45  18
   0  -9   3 67721.9 3332.79  11
   0  -9   3 67339.7 3174.17  17
   0  -9   4 61557.1 2932.25   9
   0  -9   4 64514.5 3041.56  11
   0  -9   4 61257.0 2785.15   2
   0  -9   4 56831.7 2990.54  19
   0  -9   4 52567.7 2858.71  18
   0  -9   5 18960.6 1620.32   9
   0  -9   5 18798.3 1688.80  19
   0  -9   5 19300.8 1462.11   2
   0  -9   5 16303.0 1585.55  18
   0  -9   5 18586.2 1577.52  11
   0  -9   6 16741.1 1519.72   9
   0  -9   6 13716.9 1559.24  18
   0  -9   6 15945.4 1296.97   2
   0  -9   6 14082.4 1570.87  19
   0  -9   7 39901.1 2400.18   9
   0  -9   7 37711.7 2587.23  19
   0  -9   7 38601.0 2568.27  18
   0  -9   8 61214.6 3127.37   9
   0  -9   8 56296.4 3384.01  18
   0  -9   8 58331.1 3357.95  19
   0  -9   9 7415.57 1069.63   9
   0  -9   9 5653.28 1042.57  19
   0  -9   9 5617.27 1135.60  18
   0  -9  10 690.572 769.586   9
   0  -9  10 34.8595 182.110  19
   0  -9  10-467.018 558.380  18
   0  -9  11 45830.9 2986.30   9
   0  -8  -8 7308.11 1400.95  10
   0  -8  -7 1397.88 524.545   2
   0  -8  -7 1579.59 740.732  10
   0  -8  -6 24105.3 2237.83   2
   0  -8  -6 20249.3 2150.01  11
   0  -8  -5 49135.3 3212.77   2
   0  -8  -5 56688.5 3549.04  11
   0  -8  -4 11555.0 1165.07  18
   0  -8  -4 13215.4 1602.19   2
   0  -8  -4 12889.5 1216.28  20
   0  -8  -4 13523.9 1661.81  11
   0  -8  -4 11986.0 1140.18  19
   0  -8  -4 12413.8 1222.43  17
   0  -8  -3 10056.3 1060.40  20
   0  -8  -3 10493.9 1391.62   2
   0  -8  -3 11460.8 1113.85  18
   0  -8  -3 10497.2 1400.13  11
   0  -8  -3 10717.9 1123.51  19
   0  -8  -3 11168.8 1187.83  17
   0  -8  -2 33685.0 1970.59  18
   0  -8  -2 34149.1 2417.69   2
   0  -8  -2 37178.8 2083.26  19
   0  -8  -2 36379.5 2053.71  17
   0  -8  -2 33483.4 2528.56  11
   0  -8  -1 80306.0 3902.50  11
   0  -8  -1 83886.1 3687.90   2
   0  -8  -1 81128.9 3231.41  19
   0  -8  -1 84438.5 3285.19  17
   0  -8  -1 89498.3 3349.70  18
   0  -8   0 41023.4 2278.17   9
   0  -8   0 45368.9 2477.99   2
   0  -8   0 39394.1 2130.97  18
   0  -8   0 36736.3 2069.75  19
   0  -8   0 38346.9 2115.88  17
   0  -8   0 36154.5 2462.98  11
   0  -8   1 9701.19 1159.04   2
   0  -8   1 10376.8 1145.98   9
   0  -8   1 9445.15 1018.97  17
   0  -8   1 9850.91 1043.56  18
   0  -8   1 8246.25 1194.50  11
   0  -8   1 8570.32 984.161  19
   0  -8   2 76101.0 3115.04   9
   0  -8   2 77884.1 3164.79   2
   0  -8   2 71308.7 3032.41  19
   0  -8   2 80025.6 3179.59  17
   0  -8   2 75763.9 3424.19  11
   0  -8   2 71593.7 3043.39  18
   0  -8   3 69268.5 2959.23   9
   0  -8   3 74027.8 3214.04  11
   0  -8   3 73888.3 2950.02   2
   0  -8   3 69478.0 3005.84  19
   0  -8   3 63240.6 2910.67  17
   0  -8   3 73573.5 3098.65  18
   0  -8   4 36471.9 2090.96   9
   0  -8   4 43614.2 2290.13  11
   0  -8   4 38187.9 2239.85  18
   0  -8   4 37647.8 1985.13   2
   0  -8   4 44683.3 2726.33   3
   0  -8   4 40367.6 2256.35  19
   0  -8   5 52355.5 2542.49   9
   0  -8   5 55097.2 2758.45  19
   0  -8   5 56362.5 2395.32   2
   0  -8   5 53573.2 2755.01  18
   0  -8   5 54716.0 2508.12  11
   0  -8   5 58410.0 3253.56   3
   0  -8   6 22714.0 1681.51   9
   0  -8   6 23304.1 1416.95   2
   0  -8   6 20071.4 1716.02  19
   0  -8   6 24335.7 2178.34   3
   0  -8   6 24052.0 1497.91  11
   0  -8   6 22125.2 1796.79  18
   0  -8   7 42519.6 2353.17   9
   0  -8   7 45462.3 2675.95  18
   0  -8   7 40844.0 2941.21   3
   0  -8   7 40770.0 2566.88  19
   0  -8   8 37667.3 2330.30   9
   0  -8   8 35726.8 2437.66  19
   0  -8   8 34053.4 2768.61   3
   0  -8   8 34828.3 2421.29  18
   0  -8   9 5711.83 988.489   9
   0  -8   9 5428.80 1049.75  19
   0  -8   9 5855.31 1061.26  18
   0  -8   9 5168.34 1268.63   3
   0  -8  10 2130.76 742.345   9
   0  -8  10 2292.96 852.656  19
   0  -8  10 2197.13 797.217  18
   0  -8  11 15673.4 1724.19   9
   0  -8  11 19501.5 2052.04  19
   0  -8  12 59953.5 3452.27   9
   0  -7  -9 20106.1 1940.31  11
   0  -7  -9 17992.7 2051.41  10
   0  -7  -8 8738.27 1417.09   2
   0  -7  -8 9094.50 1320.91  11
   0  -7  -8 9624.87 1437.69  10
   0  -7  -7 4080.12 965.169   2
   0  -7  -7 5731.28 1006.44  10
   0  -7  -7 4969.36 936.823  11
   0  -7  -6 26305.2 1982.09  10
   0  -7  -6 25071.8 2279.81  11
   0  -7  -6 24203.0 2216.19   2
   0  -7  -5 78216.1 3129.59  18
   0  -7  -5 74193.4 3291.90  10
   0  -7  -5 76902.6 3911.12  11
   0  -7  -5 76117.4 3117.26  20
   0  -7  -5 75358.3 3118.42  19
   0  -7  -5 74568.9 3108.92  17
   0  -7  -5 70609.5 3642.44   2
   0  -7  -4 68072.9 3477.33   2
   0  -7  -4 72085.1 2955.45  18
   0  -7  -4 80921.1 3884.27  11
   0  -7  -4 73583.8 2977.37  17
   0  -7  -4 72476.9 2979.76  19
   0  -7  -4 76379.1 3025.81  20
   0  -7  -3 16603.0 1325.27  18
   0  -7  -3 19975.1 1848.27  11
   0  -7  -3 18226.4 1359.04  19
   0  -7  -3 17811.0 1351.77  17
   0  -7  -3 19694.3 1396.84  20
   0  -7  -3 17736.7 1646.34   2
   0  -7  -2 21823.3 1476.86  18
   0  -7  -2 20762.4 1728.52   2
   0  -7  -2 24128.6 1535.68  20
   0  -7  -2 26006.9 2061.92  11
   0  -7  -2 22497.5 1483.63  19
   0  -7  -2 25570.3 1572.86  17
   0  -7  -1 85148.8 3316.27   9
   0  -7  -1 84325.9 3052.55  18
   0  -7  -1 86575.6 3490.73   2
   0  -7  -1 82411.2 3026.47  19
   0  -7  -1 78802.3 3642.18  11
   0  -7  -1 77895.9 2991.37  17
   0  -7   0 38401.0 1954.03  18
   0  -7   0 38937.9 2186.27   2
   0  -7   0 39494.2 2121.12   9
   0  -7   0 40570.7 2436.91  11
   0  -7   0 41706.4 2012.33  17
   0  -7   0 37930.4 1968.85  19
   0  -7   1 2979.99 694.723   2
   0  -7   1 2790.69 691.066   9
   0  -7   1 3660.68 646.923  19
   0  -7   1 2842.52 822.114  11
   0  -7   1 2671.11 636.101  18
   0  -7   1 3339.02 661.204  17
   0  -7   2 37991.0 1946.28   9
   0  -7   2 36957.9 1948.63   2
   0  -7   2 40464.0 2259.13   3
   0  -7   2 35638.4 1907.30  19
   0  -7   2 34354.0 1892.30  18
   0  -7   2 38499.0 2182.32  11
   0  -7   2 34475.2 1905.74  17
   0  -7   3 132953. 4042.91   2
   0  -7   3 127676. 4180.38  19
   0  -7   3 146890. 4877.59   3
   0  -7   3 132775. 4145.34   9
   0  -7   3 130805. 4222.82  18
   0  -7   3 134927. 4373.53  11
   0  -7   3 127305. 4190.01  17
   0  -7   4 70691.1 1879.48  16
   0  -7   4 66322.1 2710.80   9
   0  -7   4 63464.1 2792.86  19
   0  -7   4 64605.5 2502.55   2
   0  -7   4 71229.2 3376.85   3
   0  -7   4 64203.5 2817.73  18
   0  -7   4 69561.8 2747.45  11
   0  -7   5 29743.9 1735.18   9
   0  -7   5 28718.6 1844.91  19
   0  -7   5 28845.1 1515.93   2
   0  -7   5 31283.4 2293.05   3
   0  -7   5 27805.7 1829.47  18
   0  -7   5 27080.7 1561.12  11
   0  -7   6 35899.2 1976.28   9
   0  -7   6 33931.7 2138.81  19
   0  -7   6 37954.0 1707.70   2
   0  -7   6 41518.1 1736.97  11
   0  -7   6 34847.0 2197.23  18
   0  -7   6 36179.5 2574.18   3
   0  -7   7 47198.1 2358.83   9
   0  -7   7 47337.1 3004.84   3
   0  -7   7 43681.4 2546.08  19
   0  -7   7 48255.9 2641.32  18
   0  -7   8 48562.4 2481.01   9
   0  -7   8 44294.2 2657.93  19
   0  -7   8 43238.0 2662.73  18
   0  -7   8 43575.9 2935.57   3
   0  -7   9 13935.3 1764.67   3
   0  -7   9 10026.2 1218.14   9
   0  -7   9 10990.0 1376.64  19
   0  -7   9 9724.43 1343.71  18
   0  -7  10 14428.1 1516.40   9
   0  -7  10 13381.2 1463.22   8
   0  -7  10 12656.1 1768.96   3
   0  -7  10 11935.9 1549.46  19
   0  -7  11 32462.7 2326.26   9
   0  -7  11 26671.8 2201.08   8
   0  -7  11 27454.1 2373.15  19
   0  -7  12 42929.8 2877.70   9
   0  -7  12 46177.3 3208.95  19
   0  -6 -10 15246.9 1687.97   2
   0  -6 -10 17765.8 1848.51  10
   0  -6  -9 29058.5 2451.05   2
   0  -6  -9 30460.2 2362.14  11
   0  -6  -9 29021.2 2407.43  10
   0  -6  -8 7966.86 1278.60   2
   0  -6  -8 7447.14 1174.16  10
   0  -6  -8 8601.69 1203.70  11
   0  -6  -7 4947.36 961.581   2
   0  -6  -7 7032.99 1022.32  10
   0  -6  -7 4749.03 826.045  20
   0  -6  -7 7245.62 871.527  19
   0  -6  -7 7094.86 886.837  18
   0  -6  -7 7167.86 1174.41  11
   0  -6  -7 5812.98 804.040  17
   0  -6  -6 51478.7 2982.64   2
   0  -6  -6 55459.2 2531.64  20
   0  -6  -6 51529.6 2677.02  10
   0  -6  -6 53806.1 2517.50  19
   0  -6  -6 48883.7 2938.93  11
   0  -6  -6 53704.4 2518.94  18
   0  -6  -6 50634.1 2462.92  17
   0  -6  -5 74362.0 3559.78  11
   0  -6  -5 67180.1 2770.83  18
   0  -6  -5 65571.7 2767.19  20
   0  -6  -5 71549.5 3435.00   2
   0  -6  -5 66959.1 2790.72  19
   0  -6  -5 72004.4 3008.85  10
   0  -6  -5 66124.6 2758.63  17
   0  -6  -4 76283.7 2849.54  18
   0  -6  -4 73727.5 2817.77  19
   0  -6  -4 72179.0 3326.54   2
   0  -6  -4 75465.6 2855.17  17
   0  -6  -4 74999.4 3521.12  11
   0  -6  -4 70966.7 2907.88  10
   0  -6  -4 73606.9 2831.89  20
   0  -6  -3 17572.1 1621.72  11
   0  -6  -3 18354.2 1270.95  18
   0  -6  -3 19305.4 1296.55  20
   0  -6  -3 19872.7 1647.14   2
   0  -6  -3 17722.3 1256.10  17
   0  -6  -3 17964.6 1256.43  19
   0  -6  -3 17889.0 1327.47  10
   0  -6  -2 3061.08 541.533  18
   0  -6  -2 2832.49 736.677   2
   0  -6  -2 2443.09 466.556  20
   0  -6  -2 2420.42 529.364  19
   0  -6  -2 2702.34 800.577  11
   0  -6  -2 2437.54 542.915  17
   0  -6  -1 99603.3 3424.09   9
   0  -6  -1 98148.7 3544.70   2
   0  -6  -1 96953.5 3140.65  18
   0  -6  -1 98473.6 3156.19  20
   0  -6  -1 95771.7 3127.44  19
   0  -6  -1 94690.9 3771.00  11
   0  -6  -1 94006.4 3129.43  17
   0  -6   0 88233.7 3012.27   9
   0  -6   0 84810.0 3107.05   2
   0  -6   0 81196.7 2798.53  18
   0  -6   0 84750.2 3389.87  11
   0  -6   0 80516.1 2788.45  17
   0  -6   0 77512.5 2762.36  19
   0  -6   1 16896.7 1204.53   9
   0  -6   1 16512.8 1163.43  18
   0  -6   1 16544.3 1401.30  11
   0  -6   1 18599.6 1296.50   2
   0  -6   1 15473.5 1134.53  19
   0  -6   1 16958.8 1165.03  17
   0  -6   1 20911.2 1417.96   3
   0  -6   2 22799.5 1366.73   2
   0  -6   2 21270.5 1573.65   3
   0  -6   2 17683.6 1233.66  19
   0  -6   2 19639.8 1286.53  18
   0  -6   2 19690.7 1441.88  11
   0  -6   2 22426.0 1353.89   9
   0  -6   2 21535.8 1341.43  17
   0  -6   3 72760.5 3123.56   3
   0  -6   3 70624.2 1765.24  16
   0  -6   3 68859.2 2549.91   9
   0  -6   3 72315.0 2493.07   2
   0  -6   3 68957.0 2641.26  19
   0  -6   3 68715.3 2641.33  17
   0  -6   3 67896.4 2626.99  18
   0  -6   3 68076.5 2639.65  11
   0  -6   4 165570. 4672.55   9
   0  -6   4 167501. 5475.52   3
   0  -6   4 181489. 4509.34   2
   0  -6   4 166907. 4883.84  18
   0  -6   4 171615. 4920.86  19
   0  -6   4 167019. 4612.67  11
   0  -6   5 36719.5 1835.72   9
   0  -6   5 39017.6 1615.16   2
   0  -6   5 37842.6 2026.88  18
   0  -6   5 36187.0 2367.03   3
   0  -6   5 38254.5 2045.69  19
   0  -6   5 40307.9 1695.67  11
   0  -6   6 42124.1 2044.89   9
   0  -6   6 38532.7 2516.45   3
   0  -6   6 38277.9 2149.89  19
   0  -6   6 43966.9 1579.77  11
   0  -6   6 40203.0 2243.37  18
   0  -6   7 133161. 4198.77   9
   0  -6   7 127012. 5009.39   3
   0  -6   7 130954. 4544.04  19
   0  -6   7 131773. 4550.57  18
   0  -6   8 73370.4 3004.98   9
   0  -6   8 66956.0 3212.65  19
   0  -6   8 66959.4 3587.13   3
   0  -6   8 70756.5 3270.38  18
   0  -6   9 32269.8 2035.91   9
   0  -6   9 32104.0 2558.43   3
   0  -6   9 27241.8 2125.25  19
   0  -6  10 10853.7 1305.36   9
   0  -6  10 8393.44 1550.66   3
   0  -6  10 10627.6 1257.83   8
   0  -6  10 10431.1 1380.02  19
   0  -6  11 20232.7 1825.65   9
   0  -6  11 17140.4 1708.03   8
   0  -6  11 21127.6 1959.82  19
   0  -6  11 18839.9 2001.64   3
   0  -6  12 47850.4 2956.40   9
   0  -6  12 44191.5 2958.75   8
   0  -6  12 48181.7 3218.81  19
   0  -6  13 20858.1 2042.24   9
   0  -6  13 17434.2 1878.52   8
   0  -5 -10 21657.4 2214.41   4
   0  -5 -10 24745.0 2168.25   2
   0  -5 -10 24788.7 2245.95  10
   0  -5  -9 51277.9 2935.11  11
   0  -5  -9 46390.1 3064.19   4
   0  -5  -9 45840.6 2928.06   2
   0  -5  -9 47438.1 2963.26  10
   0  -5  -8 6872.08 868.862  15
   0  -5  -8 6573.59 1138.49   2
   0  -5  -8 6220.89 1147.98   4
   0  -5  -8 7957.66 978.013  19
   0  -5  -8 7921.50 958.156  18
   0  -5  -8 9160.85 1160.42  11
   0  -5  -8 9010.24 1072.98  20
   0  -5  -8 6832.34 1125.54  10
   0  -5  -8 8215.03 934.621  17
   0  -5  -7 1784.55 532.127  15
   0  -5  -7 1937.88 633.631   2
   0  -5  -7 1838.89 774.993   4
   0  -5  -7 970.984 408.832  20
   0  -5  -7 1668.13 476.586  19
   0  -5  -7 709.310 559.236  11
   0  -5  -7 1179.21 421.525  18
   0  -5  -7 852.069 575.709  10
   0  -5  -7 1805.11 444.056  17
   0  -5  -6 20308.5 1452.16  15
   0  -5  -6 17967.1 1531.83  10
   0  -5  -6 19763.7 1669.46   4
   0  -5  -6 21174.3 1768.01  11
   0  -5  -6 20112.3 1418.53  20
   0  -5  -6 20081.1 1409.35  19
   0  -5  -6 21298.8 1758.41   2
   0  -5  -6 18783.7 1370.56  18
   0  -5  -6 19678.8 1412.93  17
   0  -5  -5 82897.0 3349.55   4
   0  -5  -5 84583.2 3044.06  20
   0  -5  -5 82289.1 3524.05   2
   0  -5  -5 84048.4 3024.72  19
   0  -5  -5 88705.9 3702.61  11
   0  -5  -5 85561.1 3023.51  18
   0  -5  -5 83889.7 3212.16  10
   0  -5  -5 85244.9 3035.46  17
   0  -5  -4 76868.3 2736.66  20
   0  -5  -4 73326.0 2677.99  18
   0  -5  -4 74760.1 3195.20   2
   0  -5  -4 72748.2 2678.10  19
   0  -5  -4 76709.9 2723.59  17
   0  -5  -4 80143.9 3405.29  11
   0  -5  -4 75709.7 2861.21  10
   0  -5  -3 31734.4 2059.68  11
   0  -5  -3 30955.5 1606.13  10
   0  -5  -3 31706.8 1915.65   2
   0  -5  -3 30409.1 1522.86  19
   0  -5  -3 31036.5 1561.52  17
   0  -5  -3 31797.6 1572.16  20
   0  -5  -3 32058.3 1554.80  18
   0  -5  -2 38534.1 1676.95  18
   0  -5  -2 38339.2 2177.82  11
   0  -5  -2 40569.3 1728.75  20
   0  -5  -2 36230.1 1981.48   2
   0  -5  -2 38123.8 1665.76  19
   0  -5  -2 37618.9 1698.96  10
   0  -5  -2 41987.5 1740.64  17
   0  -5  -1 135730. 4107.19   2
   0  -5  -1 136762. 3934.83   9
   0  -5  -1 136561. 3702.31  18
   0  -5  -1 129900. 4349.29  11
   0  -5  -1 135177. 3707.59  19
   0  -5  -1 128757. 3654.59  17
   0  -5  -1 132900. 3680.53  20
   0  -5   0 159303. 4807.56  11
   0  -5   0 162500. 4209.43  18
   0  -5   0 157086. 4181.90  19
   0  -5   0 158829. 4202.55  17
   0  -5   0 165263. 4372.30   9
   0  -5   0 161751. 4483.28   2
   0  -5   1 37738.8 1799.60   3
   0  -5   1 36526.9 1598.53   9
   0  -5   1 34104.8 1608.21   2
   0  -5   1 35608.0 1560.48  19
   0  -5   1 33022.9 1532.89  18
   0  -5   1 36196.4 1864.10  11
   0  -5   1 33618.5 1539.85  17
   0  -5   2 7281.27 341.211  16
   0  -5   2 7894.89 735.953   9
   0  -5   2 8743.11 764.318   2
   0  -5   2 7644.31 732.886  19
   0  -5   2 8127.50 756.046  18
   0  -5   2 8700.12 886.952  11
   0  -5   2 6545.12 687.409  17
   0  -5   3 88788.5 3367.66   3
   0  -5   3 89992.0 2799.62   9
   0  -5   3 93272.5 2686.57   2
   0  -5   3 85693.6 2872.78  18
   0  -5   3 88026.4 2845.44  11
   0  -5   3 90783.0 2925.32  17
   0  -5   3 87895.4 2894.25  19
   0  -5   4 220392. 5464.17   9
   0  -5   4 226514. 5301.51  11
   0  -5   4 222965. 5164.54   2
   0  -5   4 212752. 5653.74  18
   0  -5   4 213525. 6259.38   3
   0  -5   4 219642. 5692.47  19
   0  -5   5 134931. 3919.46   9
   0  -5   5 139697. 3502.44   2
   0  -5   5 136519. 4200.70  19
   0  -5   5 134255. 4719.82   3
   0  -5   5 136751. 4206.14  18
   0  -5   5 145434. 3505.57  11
   0  -5   6 54801.1 2249.49   9
   0  -5   6 50295.4 2782.45   3
   0  -5   6 48865.2 2353.50  19
   0  -5   6 55816.0 1585.11  11
   0  -5   6 55828.9 2485.36  18
   0  -5   7 121564. 3842.29   9
   0  -5   7 117887. 4572.36   3
   0  -5   7 113790. 4064.22  19
   0  -5   7 121146. 4144.53  18
   0  -5   8 84549.4 3244.46   9
   0  -5   8 84690.4 3521.81  18
   0  -5   8 87364.6 3559.52  19
   0  -5   8 84346.0 3898.16   3
   0  -5   9 18590.9 1515.18   9
   0  -5   9 18184.6 1597.34   8
   0  -5   9 23132.2 2013.08   3
   0  -5   9 21668.0 1793.13  19
   0  -5  10 8481.70 1428.03   3
   0  -5  10 9217.86 1268.46   8
   0  -5  10 10238.3 1323.28  19
   0  -5  10 9638.14 1148.89   9
   0  -5  11 8268.15 1250.66   8
   0  -5  11 11504.2 1653.34   3
   0  -5  11 11729.8 1546.28  19
   0  -5  11 11576.5 1310.23   9
   0  -5  12 36167.9 2763.87   8
   0  -5  12 31915.7 2646.69  19
   0  -5  13 22531.8 2246.77   8
   0  -5  13 22879.3 2256.26  19
   0  -5  13 21971.7 2095.73   9
   0  -4 -11 1970.44 833.012   4
   0  -4 -11 2697.37 873.093  10
   0  -4 -10 25449.5 2269.93   4
   0  -4 -10 23093.6 2109.54  10
   0  -4 -10 25992.5 2110.53   2
   0  -4  -9 50760.2 2655.71  15
   0  -4  -9 52562.9 3082.60   4
   0  -4  -9 51612.4 2653.54  20
   0  -4  -9 50069.7 2971.44  10
   0  -4  -9 58963.8 3116.77   2
   0  -4  -9 51649.0 2665.00  19
   0  -4  -9 51098.8 2767.75  11
   0  -4  -9 53101.7 2682.52  18
   0  -4  -9 55027.4 2680.40  17
   0  -4  -8 5203.12 920.149   2
   0  -4  -8 4497.39 673.905  15
   0  -4  -8 3847.45 966.469   4
   0  -4  -8 2829.79 638.678  11
   0  -4  -8 4023.64 635.920  19
   0  -4  -8 4215.74 660.330  17
   0  -4  -8 3358.51 608.377  18
   0  -4  -8 3637.23 676.763  20
   0  -4  -8 4112.39 814.475  10
   0  -4  -7 815.125 416.007  15
   0  -4  -7 417.164 597.428   2
   0  -4  -7 588.190 534.800   4
   0  -4  -7 1357.83 391.659  19
   0  -4  -7 814.581 358.164  11
   0  -4  -7 1090.82 382.096  18
   0  -4  -7 518.448 321.935  20
   0  -4  -7 1102.56 314.350  17
   0  -4  -7 1500.74 513.313  10
   0  -4  -6 22446.5 1455.07  15
   0  -4  -6 20632.5 1602.83   4
   0  -4  -6 21834.2 1716.61   2
   0  -4  -6 23530.7 1454.60  19
   0  -4  -6 26870.3 1835.60  11
   0  -4  -6 20974.9 1410.90  18
   0  -4  -6 22496.7 1415.71  17
   0  -4  -6 23672.0 1634.71  10
   0  -4  -6 23878.9 1472.58  20
   0  -4  -5 127289. 3753.81  15
   0  -4  -5 119787. 3897.96  10
   0  -4  -5 121033. 4009.76   4
   0  -4  -5 122849. 3695.58  20
   0  -4  -5 126023. 3721.71  18
   0  -4  -5 120718. 4182.19   2
   0  -4  -5 123367. 3708.23  19
   0  -4  -5 125325. 4280.29  11
   0  -4  -5 115522. 3615.29  17
   0  -4  -4 215746. 5373.66  15
   0  -4  -4 213157. 5655.72   4
   0  -4  -4 214733. 5358.00  20
   0  -4  -4 204120. 5856.34   2
   0  -4  -4 214486. 5354.07  19
   0  -4  -4 224063. 6135.97  11
   0  -4  -4 204294. 5483.49  10
   0  -4  -4 216806. 5339.24  17
   0  -4  -4 202149. 5278.45  18
   0  -4  -3 52397.5 1930.18  20
   0  -4  -3 47962.0 2204.95   2
   0  -4  -3 49372.1 1885.58  19
   0  -4  -3 48482.4 2347.44  11
   0  -4  -3 49553.7 1873.92  18
   0  -4  -3 49354.4 1967.05  10
   0  -4  -3 52370.8 1906.35  17
   0  -4  -2 80838.7 2439.89  20
   0  -4  -2 76505.4 2789.43   2
   0  -4  -2 78365.5 2426.69  19
   0  -4  -2 77084.1 2452.49  10
   0  -4  -2 85275.8 3083.97  11
   0  -4  -2 79458.0 2428.51  17
   0  -4  -2 80393.4 2436.21  18
   0  -4  -1 217708. 5133.73   9
   0  -4  -1 199092. 5518.76  11
   0  -4  -1 206779. 4870.80  18
   0  -4  -1 206724. 4871.06  19
   0  -4  -1 199719. 5231.07   2
   0  -4  -1 202718. 4850.57  17
   0  -4  -1 203663. 4860.93  20
   0  -4   0 190480. 4708.85   9
   0  -4   0 192488. 4598.14  18
   0  -4   0 190032. 4831.92   2
   0  -4   0 197196. 4306.30   6
   0  -4   0 186343. 5132.42  11
   0  -4   0 194814. 4624.80  17
   0  -4   0 186867. 4580.42  19
   0  -4   0 188309. 4592.30  20
   0  -4   1 191052. 4625.72   9
   0  -4   1 179861. 4903.24  11
   0  -4   1 202501. 4737.71   2
   0  -4   1 193149. 4627.61  18
   0  -4   1 198161. 4973.58   3
   0  -4   1 195198. 4634.36  19
   0  -4   1 190112. 4616.98  17
   0  -4   2 1832.11 554.964   3
   0  -4   2 1906.56 370.091   2
   0  -4   2 1969.27 379.152   9
   0  -4   2 2480.90 439.094  19
   0  -4   2 2811.07 497.267  11
   0  -4   2 1946.45 418.274  18
   0  -4   2 1960.17 414.606  17
   0  -4   3 102800. 2841.05   9
   0  -4   3 97891.1 2946.11  19
   0  -4   3 96619.2 2930.00  18
   0  -4   3 107472. 2686.23   2
   0  -4   3 99055.3 2774.00  11
   0  -4   4 305647. 6903.64   9
   0  -4   4 305207. 6516.36   2
   0  -4   4 304528. 7151.34  18
   0  -4   4 308020. 6547.53  11
   0  -4   4 312926. 7174.73  19
   0  -4   5 68018.8 2340.25   9
   0  -4   5 60572.6 2847.44   3
   0  -4   5 68031.4 2552.70  19
   0  -4   5 71013.5 1770.41  11
   0  -4   5 63104.8 2487.86  18
   0  -4   6 41144.1 2362.81   3
   0  -4   6 41156.9 2019.05  19
   0  -4   6 41117.1 2027.00  18
   0  -4   6 40980.5 1849.17   9
   0  -4   7 55134.5 2549.44  19
   0  -4   7 52885.3 2534.27  18
   0  -4   7 58729.5 2910.52   3
   0  -4   7 59118.0 2410.12   9
   0  -4   8 82717.5 3361.88   8
   0  -4   8 85088.2 3423.95  19
   0  -4   8 86389.4 3681.61   3
   0  -4   8 85703.6 3194.90   9
   0  -4   9 45319.2 2591.33   8
   0  -4   9 48813.7 2837.30   3
   0  -4   9 47905.9 2613.01  19
   0  -4   9 50150.0 2465.69   9
   0  -4  10 5229.36 1043.51   3
   0  -4  10 6004.50 1038.41   9
   0  -4  10 6279.66 950.956   8
   0  -4  10 5864.95 968.440  19
   0  -4  11 15502.0 1657.92   8
   0  -4  11 16653.0 1705.70  19
   0  -4  11 18085.6 1788.79   3
   0  -4  11 19387.9 1804.52   9
   0  -4  12 27381.7 2385.94   8
   0  -4  12 29755.8 2387.01  19
   0  -4  12 31014.7 2348.58   9
   0  -4  13 14590.3 1747.98   9
   0  -4  13 16004.8 1790.30   8
   0  -4  13 15121.8 1780.27  19
   0  -3 -11 4128.99 860.290   4
   0  -3 -11 3053.51 780.840  10
   0  -3 -10 35884.6 2241.56  15
   0  -3 -10 33051.7 2159.63  17
   0  -3 -10 35733.5 2578.36   4
   0  -3 -10 36206.6 2355.25   2
   0  -3 -10 29854.1 2072.59  18
   0  -3 -10 33522.6 2442.50  10
   0  -3 -10 30629.3 2126.72  19
   0  -3  -9 66516.5 2990.09  20
   0  -3  -9 65482.4 2957.01  15
   0  -3  -9 64177.6 3316.91   4
   0  -3  -9 64143.1 2906.78  17
   0  -3  -9 67697.9 3200.49   2
   0  -3  -9 61532.3 2876.79  19
   0  -3  -9 59772.9 3227.80  10
   0  -3  -9 62327.0 2909.64  18
   0  -3  -8 30995.1 2116.77   4
   0  -3  -8 31290.9 1885.02  11
   0  -3  -8 28540.2 1773.46  15
   0  -3  -8 26044.9 1716.45  18
   0  -3  -8 27379.8 1734.15  20
   0  -3  -8 26048.7 1922.42  10
   0  -3  -8 27086.6 1720.34  17
   0  -3  -8 29375.1 2003.97   2
   0  -3  -7 2007.49 397.588  15
   0  -3  -7 3540.35 725.075   2
   0  -3  -7 2633.02 675.570   4
   0  -3  -7 2695.99 591.111  11
   0  -3  -7 3263.31 598.003  20
   0  -3  -7 2131.53 501.827  17
   0  -3  -7 2791.89 549.049  18
   0  -3  -7 2218.45 633.865  10
   0  -3  -6 34773.3 1768.56  15
   0  -3  -6 36361.8 1796.62  20
   0  -3  -6 36740.1 2011.18   4
   0  -3  -6 40108.1 2123.94   2
   0  -3  -6 33129.2 1761.92  19
   0  -3  -6 41271.3 2087.83  11
   0  -3  -6 38319.2 1824.94  18
   0  -3  -6 35215.4 1967.07  10
   0  -3  -6 36067.8 1800.73  17
   0  -3  -5 212053. 5344.83  15
   0  -3  -5 213583. 5688.05   4
   0  -3  -5 207013. 5292.18  17
   0  -3  -5 198721. 5687.13   2
   0  -3  -5 213061. 5344.48  19
   0  -3  -5 218545. 5863.97  11
   0  -3  -5 204929. 5293.62  18
   0  -3  -5 211517. 5600.90  10
   0  -3  -5 210740. 5312.58  20
   0  -3  -4 150153. 4335.31   4
   0  -3  -4 157771. 4111.67  15
   0  -3  -4 161923. 4116.04  20
   0  -3  -4 154943. 4517.15   2
   0  -3  -4 159499. 4120.70  19
   0  -3  -4 156668. 4636.09  11
   0  -3  -4 158208. 4321.09  10
   0  -3  -4 156690. 4082.94  17
   0  -3  -4 159598. 4104.81  18
   0  -3  -3 43982.6 1638.07  20
   0  -3  -3 44317.7 1645.77  15
   0  -3  -3 44387.9 1637.78  18
   0  -3  -3 45187.1 1818.26   4
   0  -3  -3 45623.7 1958.01   2
   0  -3  -3 45387.8 1659.98  19
   0  -3  -3 47941.4 2106.14  11
   0  -3  -3 47920.2 1672.27  17
   0  -3  -3 48918.7 1813.37  10
   0  -3  -2 88047.7 2445.34  15
   0  -3  -2 82496.5 2886.54  11
   0  -3  -2 84249.6 2556.41   4
   0  -3  -2 88230.7 2436.65  20
   0  -3  -2 85085.6 2743.37   2
   0  -3  -2 89229.3 2502.14  10
   0  -3  -2 88263.9 2437.64  19
   0  -3  -2 86068.0 2411.21  17
   0  -3  -2 87662.0 2420.91  18
   0  -3  -1 281082. 6260.24   9
   0  -3  -1 283130. 6078.49  20
   0  -3  -1 275003. 6393.76   2
   0  -3  -1 286646. 6079.82  19
   0  -3  -1 262904. 6607.33  11
   0  -3  -1 274912. 6069.32  10
   0  -3  -1 288087. 6086.17  17
   0  -3  -1 285810. 6077.72  18
   0  -3   0 456652. 9441.75   9
   0  -3   0 462385. 9261.31   8
   0  -3   0 454236. 9556.15   2
   0  -3   0 478852. 9539.18   3
   0  -3   0 447591. 9321.77  19
   0  -3   0 483051. 9115.94   6
   0  -3   0 449563. 9326.87  18
   0  -3   0 449424. 9333.95  17
   0  -3   0 448167. 9330.25  20
   0  -3   1 238372. 4690.98  16
   0  -3   1 236362. 5284.27  18
   0  -3   1 244653. 5298.97   9
   0  -3   1 251786. 5109.75   8
   0  -3   1 242784. 5068.14   6
   0  -3   1 244099. 5313.15   2
   0  -3   1 226107. 5504.01  11
   0  -3   1 240710. 5634.44   3
   0  -3   1 240200. 5294.69  17
   0  -3   1 229953. 5264.63  19
   0  -3   2 1340.09 555.384   3
   0  -3   2 1017.30 268.925   2
   0  -3   2 690.296 290.841   9
   0  -3   2 777.227 319.199  17
   0  -3   2 754.932 323.536  19
   0  -3   2 732.316 317.585  11
   0  -3   2 391.827 307.161  18
   0  -3   3 1991.82 611.576   3
   0  -3   3 2192.53 374.949   9
   0  -3   3 1950.88 267.230   2
   0  -3   3 1639.13 391.610  19
   0  -3   3 2090.35 310.992  11
   0  -3   3 2876.89 479.076  18
   0  -3   4 187554. 5361.01   3
   0  -3   4 209413. 4209.89  11
   0  -3   4 201123. 5012.42  19
   0  -3   4 196396. 4994.83  18
   0  -3   4 197638. 4771.20   9
   0  -3   5 124050. 4083.07   3
   0  -3   5 128252. 3746.31  19
   0  -3   5 130595. 3771.55  18
   0  -3   5 131323. 3541.89   9
   0  -3   6 16908.0 1414.63   3
   0  -3   6 16020.6 1206.22  19
   0  -3   6 18007.1 1235.00  18
   0  -3   6 15000.2 1091.14   9
   0  -3   7 72215.7 2883.62   8
   0  -3   7 72996.4 2885.38  19
   0  -3   7 70292.3 3073.25   3
   0  -3   8 139676. 4710.95   8
   0  -3   8 140440. 4778.82   3
   0  -3   8 146578. 4695.77  19
   0  -3   9 82661.6 3586.92   8
   0  -3   9 88981.4 3667.33   3
   0  -3   9 81629.4 3523.68  19
   0  -3  10 7562.22 1183.89   3
   0  -3  10 7287.19 1065.35   8
   0  -3  10 9370.57 1261.64  19
   0  -3  11 13267.9 1546.33   8
   0  -3  11 11401.9 1376.64  19
   0  -3  12 42302.0 3000.77   8
   0  -3  12 44031.7 2872.81  19
   0  -3  13 16119.6 1868.48   8
   0  -2 -12 12663.7 1852.82   4
   0  -2 -12 13499.5 1715.55  10
   0  -2 -11 5733.26 1117.53  10
   0  -2 -11 6412.46 1180.84   4
   0  -2 -10 52030.3 2719.41  20
   0  -2 -10 51033.0 2667.13  15
   0  -2 -10 49961.0 2654.00  14
   0  -2 -10 49341.0 2978.73   4
   0  -2 -10 49828.0 2642.04  17
   0  -2 -10 48467.8 2613.19  18
   0  -2 -10 48314.1 2953.14  10
   0  -2  -9 104094. 3907.19  18
   0  -2  -9 110375. 3974.03  15
   0  -2  -9 105693. 3965.07  20
   0  -2  -9 114180. 4044.56  14
   0  -2  -9 115832. 4471.31  10
   0  -2  -9 111789. 4053.31   2
   0  -2  -9 109648. 3977.04  17
   0  -2  -9 101909. 4257.56   4
   0  -2  -8 63233.1 2692.10  15
   0  -2  -8 56266.4 2600.47  14
   0  -2  -8 67527.0 3073.36   4
   0  -2  -8 67968.7 2640.08  11
   0  -2  -8 63059.3 2707.54  20
   0  -2  -8 59335.6 2637.70  17
   0  -2  -8 65370.1 2816.48   2
   0  -2  -8 54988.1 2574.71  18
   0  -2  -8 63863.0 2999.00  10
   0  -2  -7 2086.04 488.483  15
   0  -2  -7 1973.51 552.402   2
   0  -2  -7 3850.68 630.483  14
   0  -2  -7 3054.39 656.993   4
   0  -2  -7 3090.02 581.803  11
   0  -2  -7 3202.80 595.342  18
   0  -2  -7 2629.56 622.201  10
   0  -2  -7 3841.03 630.164  20
   0  -2  -7 2875.09 608.866  17
   0  -2  -6 1546.77 443.686  15
   0  -2  -6 1111.20 500.172   2
   0  -2  -6 1688.67 431.608  14
   0  -2  -6 1950.45 528.004   4
   0  -2  -6 2048.78 486.989  20
   0  -2  -6 2262.56 549.856  11
   0  -2  -6 1842.95 451.471  18
   0  -2  -6 2927.27 543.041  17
   0  -2  -6 1653.49 535.985  10
   0  -2  -5 258747. 6114.89  15
   0  -2  -5 257453. 6119.46  14
   0  -2  -5 249607. 6392.62   4
   0  -2  -5 249346. 6060.66  20
   0  -2  -5 245932. 6333.82   2
   0  -2  -5 267963. 6388.03  11
   0  -2  -5 253257. 6077.96  18
   0  -2  -5 271718. 6491.44  10
   0  -2  -5 246019. 6047.95  17
   0  -2  -4 177361. 4317.86  15
   0  -2  -4 178965. 4572.21   4
   0  -2  -4 174091. 4288.61  18
   0  -2  -4 173339. 4281.13  20
   0  -2  -4 163441. 4522.52   2
   0  -2  -4 172377. 4616.93  11
   0  -2  -4 171545. 4511.82  10
   0  -2  -4 171491. 4280.54  17
   0  -2  -3 1310.37 304.104  18
   0  -2  -3 1255.88 292.425  15
   0  -2  -3 1370.80 425.765   2
   0  -2  -3 1014.92 341.256  10
   0  -2  -3 1287.62 403.883   4
   0  -2  -3 938.848 305.641  20
   0  -2  -3 1238.89 436.939  11
   0  -2  -3 1749.48 367.079  17
   0  -2  -2 230231. 5035.86  15
   0  -2  -2 232788. 5204.84   4
   0  -2  -2 245764. 5076.95  12
   0  -2  -2 229723. 5345.43   2
   0  -2  -2 228353. 5022.32  19
   0  -2  -2 223261. 5458.43  11
   0  -2  -2 218946. 4993.54  18
   0  -2  -2 230168. 5021.33  20
   0  -2  -2 236640. 5161.56  10
   0  -2  -2 232995. 5017.28  17
   0  -2  -1 282086. 5588.07  12
   0  -2  -1 251496. 5669.67   9
   0  -2  -1 268398. 5547.79  18
   0  -2  -1 279818. 5671.08   8
   0  -2  -1 282617. 5592.91  13
   0  -2  -1 264272. 5545.08  20
   0  -2  -1 256065. 5566.93  10
   0  -2  -1 247358. 5772.83   2
   0  -2  -1 263504. 5544.35  19
   0  -2  -1 232958. 5880.82  11
   0  -2  -1 268968. 5546.99  17
   0  -2   0 340613. 6895.95   3
   0  -2   0 331162. 6819.76   9
   0  -2   0 347242. 6717.02   8
   0  -2   0 327083. 6752.36  18
   0  -2   0 350445. 6802.07  14
   0  -2   0 320722. 6888.12   2
   0  -2   0 346793. 6797.75  13
   0  -2   0 354984. 6868.02   7
   0  -2   0 341519. 6608.68   6
   0  -2   0 323209. 6747.14  19
   0  -2   0 321117. 6744.36  17
   0  -2   0 314033. 6735.76  20
   0  -2   0 338830. 6787.03  12
   0  -2   1 124566. 2873.75   9
   0  -2   1 131415. 2929.68  15
   0  -2   1 132583. 2928.79  14
   0  -2   1 132160. 2927.58  13
   0  -2   1 132957. 2950.32   7
   0  -2   1 125206. 2858.35   2
   0  -2   1 131158. 2925.98  12
   0  -2   1 123501. 3172.06   3
   0  -2   1 128933. 2788.47   6
   0  -2   1 123406. 2904.29  19
   0  -2   1 120904. 2895.89  18
   0  -2   1 115407. 2973.93  11
   0  -2   1 123223. 2903.60  17
   0  -2   2 23926.9 896.273   9
   0  -2   2 23340.0 960.974  18
   0  -2   2 25249.5 978.346  15
   0  -2   2 24943.9 968.737  14
   0  -2   2 22439.2 764.386   2
   0  -2   2 26042.2 978.038   7
   0  -2   2 24678.9 967.318  13
   0  -2   2 24815.8 983.105  19
   0  -2   2 25914.5 973.187  12
   0  -2   2 24062.9 1223.27   3
   0  -2   2 23146.0 913.027   6
   0  -2   2 24833.2 832.481  11
   0  -2   3 40579.2 956.743  11
   0  -2   3 39175.4 1438.78  19
   0  -2   3 38702.0 1433.90  18
   0  -2   3 38050.1 1312.93   9
   0  -2   4 86517.1 2565.34  19
   0  -2   4 85055.2 2551.65  18
   0  -2   4 83493.8 1806.60   1
   0  -2   5 301528. 7004.17  19
   0  -2   5 304887. 6001.43   1
   0  -2   6 108515. 3659.07   3
   0  -2   6 112689. 3638.46   8
   0  -2   6 118775. 2691.46   1
   0  -2   6 108136. 3507.01  19
   0  -2   7 15960.8 755.648   1
   0  -2   7 13997.4 1283.01   8
   0  -2   7 17357.2 1374.45   3
   0  -2   7 14996.2 1268.13  19
   0  -2   8 151680. 4975.54   8
   0  -2   8 154751. 4853.56  19
   0  -2   8 156610. 4830.04   3
   0  -2   9 126535. 4728.79   8
   0  -2   9 125415. 4473.18  19
   0  -2  10 12903.6 1501.14   8
   0  -2  10 15941.5 1474.16   3
   0  -2  10 12778.7 1400.52  19
   0  -2  11 15102.6 1682.42   8
   0  -2  11 14354.4 1572.78  19
   0  -2  12 36308.3 2756.75   8
   0  -2  13 26079.7 2512.68   8
   0  -2  13 27445.6 2428.34  12
   0  -1 -12 13667.0 1699.55   4
   0  -1 -12 15252.7 1757.77  10
   0  -1 -11 20173.9 1744.93  15
   0  -1 -11 21108.8 1786.84  14
   0  -1 -11 21361.9 1954.33   4
   0  -1 -11 23511.0 1834.89  17
   0  -1 -11 22894.8 1840.72  20
   0  -1 -11 21281.8 1776.23  18
   0  -1 -11 19954.7 2058.57  10
   0  -1 -10 37009.8 2234.21  15
   0  -1 -10 33862.5 2129.02  14
   0  -1 -10 37411.1 2492.14   4
   0  -1 -10 33638.5 2161.26  20
   0  -1 -10 34066.7 2160.55  18
   0  -1 -10 34488.6 2457.31  10
   0  -1 -10 35181.2 2220.91  17
   0  -1  -9 74656.3 3108.79  15
   0  -1  -9 75326.6 3153.90  14
   0  -1  -9 67947.9 3336.03   4
   0  -1  -9 70579.0 3071.87  18
   0  -1  -9 65092.2 2992.37  20
   0  -1  -9 75774.9 3009.58   2
   0  -1  -9 75222.4 3467.70  10
   0  -1  -9 71839.3 3092.00  17
   0  -1  -8 85684.0 3227.02  15
   0  -1  -8 86397.9 2778.49  11
   0  -1  -8 80020.6 3133.41  17
   0  -1  -8 79475.3 3144.37  14
   0  -1  -8 81626.9 3418.02   4
   0  -1  -8 76770.7 3097.18  20
   0  -1  -8 81754.0 3179.52  18
   0  -1  -8 86840.3 3128.60   2
   0  -1  -8 85370.4 3491.94  10
   0  -1  -7 3007.30 579.469  15
   0  -1  -7 2218.85 541.501   2
   0  -1  -7 3317.70 610.025  14
   0  -1  -7 1043.03 599.686   4
   0  -1  -7 2139.33 572.124  20
   0  -1  -7 1614.42 525.794  18
   0  -1  -7 1979.60 427.005  11
   0  -1  -7 1791.08 643.632  10
   0  -1  -7 1818.94 499.568  17
   0  -1  -6 1395.87 403.994  15
   0  -1  -6 1823.24 241.825   3
   0  -1  -6 1905.80 465.000   2
   0  -1  -6 1227.29 415.547  14
   0  -1  -6 2303.42 580.162   4
   0  -1  -6 2272.92 432.631  11
   0  -1  -6 1426.21 456.844  18
   0  -1  -6 1459.49 452.970  17
   0  -1  -6 1440.64 499.238  10
   0  -1  -5 178973. 4590.53  15
   0  -1  -5 178275. 4595.59  14
   0  -1  -5 169726. 4795.71   4
   0  -1  -5 178744. 4605.51  20
   0  -1  -5 185576. 3913.45   3
   0  -1  -5 180970. 4606.62  18
   0  -1  -5 185086. 4538.94  11
   0  -1  -5 177688. 4837.28  10
   0  -1  -5 178143. 4600.37  17
   0  -1  -5 177956. 4629.44   2
   0  -1  -4 309548. 6872.14  20
   0  -1  -4 312321. 6882.61  15
   0  -1  -4 307261. 6871.32  14
   0  -1  -4 310496. 7121.78   4
   0  -1  -4 311003. 6899.75  11
   0  -1  -4 298541. 6918.79   2
   0  -1  -4 307322. 6869.72  18
   0  -1  -4 302530. 6618.88   5
   0  -1  -4 316750. 7123.62  10
   0  -1  -4 313032. 6871.29  17
   0  -1  -4 314472. 6227.18   3
   0  -1  -3 8385.10 585.417  15
   0  -1  -3 7539.86 661.109  10
   0  -1  -3 7125.93 560.052  18
   0  -1  -3 6893.04 561.058  14
   0  -1  -3 6989.04 303.649   3
   0  -1  -3 7715.52 655.760   4
   0  -1  -3 7242.54 550.487  19
   0  -1  -3 7475.94 610.920  11
   0  -1  -3 7198.10 514.825   5
   0  -1  -3 7601.52 635.052   2
   0  -1  -3 7228.75 559.415  17
   0  -1  -3 7005.59 552.798  20
   0  -1  -2 4643.27 403.400  20
   0  -1  -2 3985.38 372.772  15
   0  -1  -2 4116.94 382.685  14
   0  -1  -2 4449.07 382.520  18
   0  -1  -2 3727.10 432.390   4
   0  -1  -2 4446.39 437.667   8
   0  -1  -2 4496.54 371.411  12
   0  -1  -2 3612.60 459.540  11
   0  -1  -2 3847.47 433.025  10
   0  -1  -2 4493.36 394.799  17
   0  -1  -2 3991.01 456.410   2
   0  -1  -1 475017. 9001.74  15
   0  -1  -1 485664. 9096.22   4
   0  -1  -1 492346. 9153.79   8
   0  -1  -1 482776. 8998.40  20
   0  -1  -1 445998. 9154.87   2
   0  -1  -1 477818. 8996.74  19
   0  -1  -1 475490. 8992.10  18
   0  -1  -1 488087. 9069.83  10
   0  -1  -1 489541. 8997.99  17
   0  -1   0 234223. 5743.44  11
   0  -1   0 220513. 5303.46  20
   0  -1   1 152678. 2804.35   3
   0  -1   1 166672. 2613.56  19
   0  -1   1 166166. 2614.10  18
   0  -1   2 84958.9 2088.48  15
   0  -1   2 86622.4 2096.23  14
   0  -1   2 81918.8 2052.52   7
   0  -1   2 83596.0 2083.19  13
   0  -1   2 82226.9 2064.66   4
   0  -1   2 84698.7 2086.05  12
   0  -1   2 85279.8 2093.96  20
   0  -1   2 81032.1 2068.82  19
   0  -1   2 81140.0 2101.21   6
   0  -1   2 84750.2 2088.80  18
   0  -1   3 243599. 5451.64  19
   0  -1   3 256698. 4977.56   1
   0  -1   4 187873. 4827.94   8
   0  -1   4 180732. 4750.39   3
   0  -1   4 203651. 4784.66  19
   0  -1   4 206843. 4247.94   1
   0  -1   5 110253. 3385.84   8
   0  -1   5 106621. 3202.55  19
   0  -1   5 105331. 3204.56   3
   0  -1   5 111099. 2721.41   1
   0  -1   6 82504.2 3058.77   8
   0  -1   6 88297.1 2953.31  19
   0  -1   6 87347.1 2895.21   3
   0  -1   7 17860.9 1324.66  19
   0  -1   7 20005.1 1514.42   8
   0  -1   7 18972.1 1300.66   3
   0  -1   8 71260.3 3233.02   8
   0  -1   8 73019.8 2997.67  19
   0  -1   8 79060.2 2899.56   3
   0  -1   9 157631. 5558.33   8
   0  -1   9 161985. 5233.92  19
   0  -1  10 32343.3 2361.74   8
   0  -1  11 6381.84 1196.40   8
   0  -1  11 5651.17 978.433  12
   0  -1  12 13862.0 1705.93   8
   0  -1  12 13736.7 1538.48  12
   0  -1  13 20876.8 2254.36   8
   0  -1  13 24270.3 2228.52  12
   0   0 -12 5310.96 891.933  15
   0   0 -12 4394.80 1000.96  10
   0   0 -12 5330.27 959.005  14
   0   0 -12 7055.28 1282.90   4
   0   0 -12 5623.94 951.754  20
   0   0 -12 8378.54 1205.77  18
   0   0 -12 5715.06 1002.19  17
   0   0 -11 6654.82 1109.34  10
   0   0 -11 7227.63 1091.19  15
   0   0 -11 5976.46 917.904  14
   0   0 -11 6396.34 1116.68   4
   0   0 -11 8550.35 1119.46  20
   0   0 -11 7043.05 1019.28  18
   0   0 -11 8276.22 1087.80  17
   0   0 -10 43232.9 2455.71  15
   0   0 -10 46827.3 2553.52  14
   0   0 -10 43917.1 2698.56   4
   0   0 -10 40117.3 2377.79  20
   0   0 -10 45852.3 2728.29  10
   0   0 -10 44791.4 2496.77  18
   0   0 -10 39725.4 2360.26  17
   0   0  -9 57211.1 2741.84  14
   0   0  -9 53301.7 2688.76  15
   0   0  -9 60773.1 3047.95   4
   0   0  -9 60410.9 2783.09  17
   0   0  -9 64232.2 2880.04  20
   0   0  -9 63173.4 2501.03   2
   0   0  -9 65795.8 3132.32  10
   0   0  -9 56458.8 2726.07  18
   0   0  -8 89750.1 3339.11  15
   0   0  -8 89416.7 3347.94  14
   0   0  -8 89181.4 3585.97   4
   0   0  -8 91661.8 3401.53  20
   0   0  -8 96836.5 2596.75  11
   0   0  -8 87321.1 3027.49   2
   0   0  -8 87160.1 3585.95  10
   0   0  -8 94156.4 3408.25  17
   0   0  -7 27583.3 1599.01  15
   0   0  -7 26577.6 1582.94  14
   0   0  -7 26091.2 1717.51   4
   0   0  -7 28945.5 1181.97  11
   0   0  -7 27929.1 1604.96  20
   0   0  -7 27031.6 1446.71   2
   0   0  -7 29773.5 1199.04   5
   0   0  -7 27550.0 1744.81  10
   0   0  -7 24310.1 1543.38  17
   0   0  -6 14725.5 1085.77  15
   0   0  -6 14032.1 1068.65  14
   0   0  -6 15203.5 1010.86   2
   0   0  -6 15600.1 1218.18   4
   0   0  -6 16750.4 1147.17  20
   0   0  -6 15921.9 820.455  11
   0   0  -6 15229.1 791.721   5
   0   0  -6 15278.2 1214.56  10
   0   0  -6 14533.8 1061.60  17
   0   0  -5 127559. 3553.13  15
   0   0  -5 123320. 3529.50  14
   0   0  -5 132262. 3778.51   4
   0   0  -5 126852. 3561.83  17
   0   0  -5 128717. 3585.94  13
   0   0  -5 125999. 3367.84   2
   0   0  -5 125344. 3549.55  20
   0   0  -5 123572. 3740.06  10
   0   0  -5 129291. 3121.22  11
   0   0  -5 135573. 3263.41   3
   0   0  -5 131918. 3083.57   5
   0   0  -4 147277. 3731.89  15
   0   0  -4 147011. 3723.90  14
   0   0  -4 144456. 3858.91   4
   0   0  -4 144322. 3700.71  20
   0   0  -4 150523. 3761.26  13
   0   0  -4 150200. 3315.39   5
   0   0  -4 149426. 3464.97   3
   0   0  -4 145154. 3549.48   2
   0   0  -4 145980. 3892.47  10
   0   0  -4 145329. 3729.07  17
   0   0  -4 145536. 3372.49  11
   0   0  -3 127929. 3229.95  15
   0   0  -3 134839. 3262.61  17
   0   0  -3 131009. 3238.99  14
   0   0  -3 135817. 3366.28   4
   0   0  -3 133123. 3249.05  13
   0   0  -3 135479. 3258.94  20
   0   0  -3 142895. 3313.78  19
   0   0  -3 140507. 3077.00   3
   0   0  -3 129378. 2991.46  11
   0   0  -3 135186. 2929.01   5
   0   0  -3 130707. 3362.49  10
   0   0  -3 127008. 3096.95   2
   0   0  -2 290.838 149.252   5
   0   0  -2 302.044 193.293   3
   0   0  -2 217.770 216.515  15
   0   0  -2 308.835 213.159  14
   0   0  -2 790.209 230.823   2
   0   0  -2 415.793 245.738  20
   0   0  -2 382.559 236.861  13
   0   0  -2 510.368 227.970  19
   0   0  -2 565.988 193.664  11
   0   0  -2 558.174 243.309  17
   0   0  -2 192.143 249.737  10
   0   0   2 309.111 224.558   3
   0   0   2 191.827 207.004  15
   0   0   2 690.586 317.427   8
   0   0   2 341.978 210.956  14
   0   0   2 648.318 221.808   1
   0   0   2 309.752 209.678  13
   0   0   2 369.923 196.131   4
   0   0   2 447.400 227.754  19
   0   0   2 496.267 137.661   5
   0   0   2 416.874 217.690  20
   0   0   2 464.669 213.002  17
   0   0   2 363.859 227.230  10
   0   0   3 144662. 3397.82  15
   0   0   3 145768. 3402.91  14
   0   0   3 130857. 3510.01   8
   0   0   3 145585. 3406.99  13
   0   0   3 129730. 3228.07   1
   0   0   3 146367. 3395.84  20
   0   0   3 135638. 3350.47  19
   0   0   3 124804. 3177.36   3
   0   0   3 143433. 3391.28  17
   0   0   3 145271. 3032.83   5
   0   0   4 146536. 4008.64   8
   0   0   4 150660. 3641.41   1
   0   0   4 144123. 3760.00  19
   0   0   4 142173. 3586.22   3
   0   0   4 156937. 3343.69   5
   0   0   5 135757. 3078.55   5
   0   0   5 124574. 3850.64   8
   0   0   5 126812. 3573.00  19
   0   0   5 123570. 3358.38   3
   0   0   6 15532.0 780.272   5
   0   0   6 12273.6 1184.23   8
   0   0   6 12933.0 1057.42  19
   0   0   6 16450.7 1022.35   3
   0   0   7 22793.0 1736.00   8
   0   0   7 29785.9 1441.22   3
   0   0   8 93882.6 3824.37   8
   0   0   8 102429. 3127.99   3
   0   0   8 93645.7 3478.41  12
   0   0   9 62161.5 3197.76   8
   0   0   9 57366.6 2791.49  12
   0   0  10 46430.3 2917.07   8
   0   0  10 44511.1 2532.97  12
   0   0  11 4664.12 1055.11   8
   0   0  11 6327.61 1033.10  12
   0   0  12 4717.04 948.003   8
   0   0  12 7860.48 1222.69  12
   0   0  13 29965.4 2493.82  12
   0   1 -13 23378.9 1958.14  15
   0   1 -13 20111.7 1857.73  14
   0   1 -13 24113.4 2335.78   4
   0   1 -13 19113.0 1850.82  18
   0   1 -13 24023.3 2004.54  17
   0   1 -13 22834.2 2030.82  20
   0   1 -12 13597.7 1467.76  15
   0   1 -12 13859.4 1470.75  14
   0   1 -12 11444.8 1565.00   4
   0   1 -12 15859.9 1566.81  17
   0   1 -12 11749.4 1364.06  20
   0   1 -12 12455.5 1380.54  18
   0   1 -12 10243.7 1557.16  10
   0   1 -11 6075.95 996.332  15
   0   1 -11 5928.65 975.605  14
   0   1 -11 3550.87 813.942   4
   0   1 -11 6789.49 1038.37  20
   0   1 -11 5712.33 878.813  18
   0   1 -11 4949.31 951.876  10
   0   1 -11 5564.79 889.767  17
   0   1 -10 33454.8 2181.45  15
   0   1 -10 32027.4 2139.43  14
   0   1 -10 29211.8 2215.94   4
   0   1 -10 33241.0 2129.38  17
   0   1 -10 36637.3 2227.91  20
   0   1 -10 36101.1 2438.69  10
   0   1  -9 159976. 5154.96  14
   0   1  -9 167424. 5480.78   4
   0   1  -9 163226. 5164.13  15
   0   1  -9 176478. 4578.82   2
   0   1  -9 155269. 5396.72  10
   0   1  -9 161874. 5154.12  17
   0   1  -9 156367. 5095.38  20
   0   1  -8 73386.8 2971.67  15
   0   1  -8 68065.7 2905.07  14
   0   1  -8 72520.8 3139.15   4
   0   1  -8 74393.3 3012.64  13
   0   1  -8 75232.1 2997.74  20
   0   1  -8 76093.3 2524.43   2
   0   1  -8 79677.7 2188.70   5
   0   1  -8 69124.2 3125.71  10
   0   1  -8 74094.7 2976.90  17
   0   1  -7 18338.8 1322.72  15
   0   1  -7 19744.1 1349.74  14
   0   1  -7 16954.2 1410.38   4
   0   1  -7 18153.4 1313.63  13
   0   1  -7 18496.5 1311.69  20
   0   1  -7 18063.6 615.793  11
   0   1  -7 19956.8 1080.17   2
   0   1  -7 18993.0 880.524   5
   0   1  -7 18363.2 1433.93  10
   0   1  -7 19354.3 1349.66  17
   0   1  -6 82266.3 2903.06  20
   0   1  -6 83777.4 2908.18  14
   0   1  -6 88126.9 3056.66   4
   0   1  -6 83906.0 2918.10  13
   0   1  -6 91570.1 2537.24   2
   0   1  -6 84933.7 2911.31  15
   0   1  -6 87866.1 1948.20  11
   0   1  -6 87284.7 2274.98   5
   0   1  -6 88247.4 3098.78  10
   0   1  -6 89195.8 2971.96  17
   0   1  -5 109657. 3228.79  15
   0   1  -5 110933. 3224.83  14
   0   1  -5 106587. 3263.52   4
   0   1  -5 114081. 3268.39  13
   0   1  -5 112555. 2628.74   5
   0   1  -5 110170. 3227.37  20
   0   1  -5 106858. 2297.51  11
   0   1  -5 107256. 3331.22  10
   0   1  -5 115952. 3277.57  17
   0   1  -4 199997. 4817.42  20
   0   1  -4 200854. 4833.19  15
   0   1  -4 203357. 4825.24  14
   0   1  -4 206352. 4888.86   4
   0   1  -4 197632. 4806.25  13
   0   1  -4 200171. 4913.51  10
   0   1  -4 205616. 4851.33  17
   0   1  -4 201380. 4264.13   5
   0   1  -3 257089. 5159.92   5
   0   1  -3 248957. 5558.15  15
   0   1  -3 255235. 5576.62  14
   0   1  -3 250436. 5566.26  13
   0   1  -3 260161. 5618.53   4
   0   1  -3 255509. 5582.72  20
   0   1  -3 243476. 5638.63   3
   0   1  -2 79328.4 2157.96   3
   0   1  -2 79557.6 2025.27  15
   0   1  -2 81255.9 2031.02  14
   0   1  -2 81704.9 2043.12  19
   0   1  -2 77719.0 2015.80  13
   0   1  -2 77625.5 2017.69   4
   0   1  -2 82748.9 2046.27  12
   0   1  -2 80536.1 2034.64  20
   0   1  -2 81448.4 2046.03  18
   0   1  -1 168165. 2933.78  15
   0   1  -1 165104. 2911.02  14
   0   1  -1 161488. 2891.10   7
   0   1  -1 163971. 2913.58  13
   0   1  -1 165511. 2917.37  12
   0   1   1 498879. 8028.85   4
   0   1   1 484159. 8025.50   8
   0   1   1 479308. 7886.19  13
   0   1   1 490582. 7889.36  12
   0   1   1 412076. 8107.86  11
   0   1   1 482036. 8107.44   2
   0   1   1 489799. 7981.40  10
   0   1   2 4554.64 390.440  15
   0   1   2 5005.01 398.257  20
   0   1   2 4555.83 401.486  14
   0   1   2 4805.51 502.409   8
   0   1   2 5086.07 468.537   4
   0   1   2 5073.92 396.255  17
   0   1   2 5174.32 542.424  11
   0   1   2 3824.02 374.588  12
   0   1   2 5059.22 400.797  18
   0   1   2 4253.06 389.460   5
   0   1   2 4608.33 438.748  10
   0   1   2 4174.89 461.763   2
   0   1   3 8591.47 736.152   8
   0   1   3 8581.71 582.776  20
   0   1   3 7299.16 574.629  12
   0   1   3 7558.17 375.995   3
   0   1   3 8680.94 535.192   5
   0   1   3 7580.93 553.860  17
   0   1   4 306117. 7421.08   8
   0   1   4 307080. 6541.36   3
   0   1   4 313075. 7073.76  12
   0   1   5 183242. 5067.16   8
   0   1   5 191369. 4131.04   3
   0   1   6 2180.40 390.477   3
   0   1   6 2331.02 718.807   8
   0   1   6 1473.41 496.146  12
   0   1   7 2224.89 751.133   8
   0   1   7 1957.27 562.338  12
   0   1   7 2897.81 434.806   3
   0   1   8 77432.1 3535.00   8
   0   1   8 82644.4 3173.65  12
   0   1   9 69895.7 3477.79   8
   0   1   9 71559.9 3101.24  12
   0   1  10 38966.8 2694.14   8
   0   1  10 35670.9 2269.90  12
   0   1  11 24007.1 2176.34   8
   0   1  11 19712.2 1799.81  12
   0   1  12 11454.3 1616.25   8
   0   1  12 12397.8 1468.85  12
   0   2 -13 25701.3 2210.14  15
   0   2 -13 29567.4 2273.29  14
   0   2 -13 28405.9 2547.27   4
   0   2 -13 29028.4 2340.91  18
   0   2 -13 27066.2 2499.31  10
   0   2 -13 27909.7 2275.82  17
   0   2 -13 28321.7 2325.38  20
   0   2 -12 32425.2 2397.15  20
   0   2 -12 34486.9 2395.36  15
   0   2 -12 39164.2 2614.44  14
   0   2 -12 31699.4 2622.00   4
   0   2 -12 35563.6 2464.83  17
   0   2 -12 33163.9 2624.10  10
   0   2 -11 14007.3 1420.55  15
   0   2 -11 14196.8 1445.94  14
   0   2 -11 16915.9 1786.88   4
   0   2 -11 12640.0 1377.57  17
   0   2 -11 14425.3 1443.42  20
   0   2 -11 14109.5 1682.00  10
   0   2 -10 11489.1 1266.46  17
   0   2 -10 12854.0 1405.22  15
   0   2 -10 16368.6 1490.10  14
   0   2 -10 14151.3 1532.81   4
   0   2 -10 13738.7 1409.49  13
   0   2 -10 15692.8 1447.31  20
   0   2 -10 12169.8 1495.71  10
   0   2  -9 125477. 4429.90  14
   0   2  -9 122276. 4426.01  17
   0   2  -9 130626. 4648.78   4
   0   2  -9 129408. 4490.30  13
   0   2  -9 132173. 4485.32  20
   0   2  -9 127290. 4465.65  15
   0   2  -9 134258. 4770.32  10
   0   2  -8 155237. 4850.71  15
   0   2  -8 147995. 4786.31  14
   0   2  -8 148576. 4929.87   4
   0   2  -8 150867. 4828.38  13
   0   2  -8 154955. 4864.26  20
   0   2  -8 165735. 4046.50   2
   0   2  -8 166864. 3810.25   5
   0   2  -8 151632. 5036.81  10
   0   2  -8 145787. 4777.59  17
   0   2  -7 14712.9 1227.30  15
   0   2  -7 14004.1 1178.96  14
   0   2  -7 15289.9 1297.09   4
   0   2  -7 16599.4 1279.40  13
   0   2  -7 15521.7 1235.45  20
   0   2  -7 15824.8 1339.40  10
   0   2  -7 14441.1 1210.30  17
   0   2  -7 17204.5 830.872   5
   0   2  -7 17385.7 908.303   2
   0   2  -6 115124. 3566.76  15
   0   2  -6 116348. 3587.83  14
   0   2  -6 116576. 3589.67  13
   0   2  -6 113706. 3599.10   4
   0   2  -6 114499. 3564.53  20
   0   2  -6 115113. 3679.37  10
   0   2  -6 116155. 3605.83  17
   0   2  -6 114672. 2829.50   5
   0   2  -5 303232. 6323.55   5
   0   2  -5 302457. 7014.40  20
   0   2  -5 302932. 7016.88  15
   0   2  -5 298331. 7006.96  14
   0   2  -5 298679. 7005.76  13
   0   2  -5 296571. 7025.66   4
   0   2  -4 83462.6 2547.29  15
   0   2  -4 90671.0 2035.54   2
   0   2  -4 83230.6 2544.26  14
   0   2  -4 84851.9 2556.30  13
   0   2  -4 85300.0 1895.91   1
   0   2  -4 80895.1 2513.55   4
   0   2  -4 83470.1 2554.71  12
   0   2  -4 77843.1 2503.67  20
   0   2  -3 39760.7 1436.13  15
   0   2  -3 38117.7 889.543   1
   0   2  -3 37448.7 1404.84  14
   0   2  -3 40072.6 1079.80   2
   0   2  -3 37739.1 1374.71   7
   0   2  -3 36617.6 1395.25  13
   0   2  -3 38709.5 1389.81   4
   0   2  -3 34511.7 1377.35  12
   0   2  -3 38619.9 1446.02   6
   0   2  -3 38152.5 1411.83  20
   0   2  -2 22685.4 956.658  15
   0   2  -2 23231.6 1158.60   3
   0   2  -2 22094.2 917.774   6
   0   2  -2 22290.2 940.060  14
   0   2  -2 25055.4 967.287   7
   0   2  -2 23030.4 948.638  13
   0   2  -2 24187.9 794.593   2
   0   2  -2 24911.1 979.903  12
   0   2  -2 25222.4 979.081  17
   0   2  -2 25296.0 975.206  19
   0   2  -2 25135.7 972.203  18
   0   2  -2 23719.6 859.427  11
   0   2  -2 24000.1 901.499   9
   0   2  -1 124561. 2873.43   9
   0   2  -1 129413. 2903.14  17
   0   2  -1 123706. 2884.60  12
   0   2  -1 119445. 2876.30  15
   0   2  -1 121682. 2875.17  14
   0   2  -1 131885. 2905.03  18
   0   2  -1 118931. 2996.63  11
   0   2  -1 122092. 2888.96   7
   0   2  -1 121850. 2877.41  13
   0   2  -1 125448. 2768.86   6
   0   2  -1 130645. 3205.41   3
   0   2  -1 131887. 2906.48  19
   0   2  -1 131177. 2889.24   2
   0   2   0 327614. 6666.53   6
   0   2   0 332469. 6762.54   8
   0   2   0 340654. 7026.51   2
   0   2   0 329339. 6840.90  14
   0   2   0 329109. 6843.83  12
   0   2   0 307684. 7141.59  11
   0   2   0 332490. 6843.35  13
   0   2   0 330591. 6889.45   7
   0   2   0 332237. 6901.29   9
   0   2   0 349643. 6864.61  20
   0   2   0 325422. 7005.52   3
   0   2   0 341875. 6858.74  19
   0   2   0 348427. 6833.17  10
   0   2   0 352013. 6868.48  17
   0   2   0 360250. 6867.52  18
   0   2   1 279784. 5757.54  15
   0   2   1 282214. 5864.82   4
   0   2   1 284304. 6048.03   2
   0   2   1 265349. 5788.19   8
   0   2   1 265323. 5713.06  13
   0   2   1 261936. 5803.02   7
   0   2   1 283021. 5747.89  20
   0   2   1 295062. 5754.99  18
   0   2   1 261243. 5635.23   3
   0   2   1 280043. 5749.85  19
   0   2   1 281703. 5787.01  10
   0   2   1 259867. 6142.59  11
   0   2   1 293922. 5751.66  17
   0   2   1 250521. 5699.52  12
   0   2   2 266024. 5521.81  15
   0   2   2 258809. 5521.32  14
   0   2   2 264197. 5503.73  20
   0   2   2 239980. 5651.17   8
   0   2   2 236511. 5440.84  13
   0   2   2 233930. 5436.96  12
   0   2   2 273693. 5516.27  18
   0   2   2 265591. 5502.19  17
   0   2   3 1490.78 470.944   8
   0   2   3 1389.14 336.531  12
   0   2   4 181830. 4821.96   8
   0   2   4 177039. 4407.39  12
   0   2   5 249661. 6496.18   8
   0   2   5 249428. 5997.15  12
   0   2   6 1059.79 619.446   8
   0   2   6 2108.77 518.477  12
   0   2   7 2960.59 814.284   8
   0   2   7 3355.25 587.006  12
   0   2   8 63459.6 3176.27   8
   0   2   8 65416.9 2767.14  12
   0   2   9 108130. 4578.11   8
   0   2   9 108990. 4012.34  12
   0   2  10 50225.6 3159.91   8
   0   2  10 49343.3 2709.37  12
   0   2  11 4050.31 951.296   8
   0   2  11 7154.60 1093.27  12
   0   3 -13 15181.6 1625.77  15
   0   3 -13 15598.3 1759.68  14
   0   3 -13 15309.3 1888.53   4
   0   3 -13 16469.0 1754.90  20
   0   3 -13 20128.2 2049.80  10
   0   3 -13 13542.9 1670.15  17
   0   3 -12 36408.9 2567.38  15
   0   3 -12 42361.3 2710.21  14
   0   3 -12 42512.6 2979.41  10
   0   3 -12 35029.9 2716.50   4
   0   3 -12 38018.3 2637.68  13
   0   3 -12 41678.0 2779.26  20
   0   3 -12 41151.7 2728.76  17
   0   3 -11 10176.8 1349.26  15
   0   3 -11 13123.5 1398.26  14
   0   3 -11 12902.8 1519.38   4
   0   3 -11 12092.1 1349.94  20
   0   3 -11 11253.2 1378.48  13
   0   3 -11 13745.7 1443.20  17
   0   3 -11 12321.3 1605.06  10
   0   3 -10 8670.79 1254.76  15
   0   3 -10 8859.90 1181.95  14
   0   3 -10 6746.71 1022.17  13
   0   3 -10 7578.89 1182.52   4
   0   3 -10 8829.59 1125.40  20
   0   3 -10 6977.36 1041.12  17
   0   3 -10 6566.14 1150.25  10
   0   3  -9 86258.1 3542.99  20
   0   3  -9 87766.1 3594.19  15
   0   3  -9 84928.3 3526.58  14
   0   3  -9 88460.9 3690.04   4
   0   3  -9 83889.4 3510.42  13
   0   3  -9 83510.3 3663.70  10
   0   3  -9 86475.1 3561.47  17
   0   3  -8 145939. 4694.21  17
   0   3  -8 135713. 4712.99  10
   0   3  -8 140761. 4628.79  15
   0   3  -8 144225. 4643.09  14
   0   3  -8 141805. 4676.10   4
   0   3  -8 141239. 4622.40  13
   0   3  -8 144567. 4644.77  20
   0   3  -8 146630. 3613.95   5
   0   3  -7 69027.7 2065.41   5
   0   3  -7 72094.1 2823.76  15
   0   3  -7 73083.9 2825.37  14
   0   3  -7 60770.6 1840.44   2
   0   3  -7 71104.4 2803.66  13
   0   3  -7 70044.6 2820.66   4
   0   3  -7 70039.7 2793.06  20
   0   3  -7 66412.9 2813.25  10
   0   3  -6 16270.6 849.574   5
   0   3  -6 16481.5 1216.45  15
   0   3  -6 17962.3 1249.11  14
   0   3  -6 17159.5 755.141   2
   0   3  -6 16368.9 1225.65  13
   0   3  -6 15704.1 1191.69   4
   0   3  -6 15346.7 1193.31  12
   0   3  -6 15898.6 1199.32  20
   0   3  -5 130570. 3769.06  15
   0   3  -5 135114. 3801.44  14
   0   3  -5 132687. 3059.72   2
   0   3  -5 130296. 3781.44  13
   0   3  -5 130617. 2716.12   1
   0   3  -5 132593. 3759.50   4
   0   3  -5 127770. 3784.78  12
   0   3  -5 127376. 3752.67  20
   0   3  -4 199514. 5015.18   6
   0   3  -4 201849. 5028.66  15
   0   3  -4 202913. 5031.38  14
   0   3  -4 200259. 4070.03   1
   0   3  -4 200857. 4945.69   7
   0   3  -4 206359. 5037.86  13
   0   3  -4 216544. 4466.71   2
   0   3  -4 197359. 4947.38   4
   0   3  -4 206104. 5043.46  12
   0   3  -4 207386. 5065.46  20
   0   3  -3 1923.37 281.813   2
   0   3  -3 1870.56 417.205  15
   0   3  -3 1903.24 409.369  14
   0   3  -3 1686.56 380.617   6
   0   3  -3 2781.34 456.083  13
   0   3  -3 2036.21 410.106   7
   0   3  -3 1769.86 395.453  20
   0   3  -3 2354.49 428.210  12
   0   3  -2 661.589 220.013   2
   0   3  -2 1076.41 354.418  14
   0   3  -2 733.790 330.454  13
   0   3  -2 803.707 335.851   7
   0   3  -2 757.242 258.892   6
   0   3  -2 631.842 339.816  15
   0   3  -2 766.240 295.494  11
   0   3  -1 225877. 5173.33  15
   0   3  -1 233716. 5185.37  14
   0   3  -1 241594. 5235.90   7
   0   3  -1 236738. 5195.26  13
   0   3  -1 237636. 4967.62   6
   0   3  -1 228920. 5177.19  12
   0   3   0 436612. 9197.16   8
   0   3   0 456358. 9353.01  14
   0   3   0 451286. 9349.47  13
   0   3   0 457894. 9433.02   7
   0   3   0 447750. 9347.10  12
   0   3   0 468725. 9091.88   6
   0   3   0 469183. 9621.88   3
   0   3   1 283596. 6224.90   8
   0   3   1 291577. 6242.03  12
   0   3   1 285931. 6224.41  14
   0   3   1 284748. 6230.49  13
   0   3   1 271155. 6305.24   7
   0   3   1 293473. 6247.42   3
   0   3   1 282279. 5979.87   6
   0   3   1 302387. 5830.85  16
   0   3   2 92050.0 2650.19   8
   0   3   2 87734.4 2489.44  12
   0   3   2 86480.6 2465.32  13
   0   3   2 95739.4 2246.31   3
   0   3   2 83418.9 2585.72   7
   0   3   3 44654.8 1860.24   8
   0   3   3 47224.9 1696.14  13
   0   3   3 45086.6 1815.40   7
   0   3   3 47011.7 1697.67  12
   0   3   4 159571. 4180.10  12
   0   3   4 164687. 4601.03   8
   0   3   4 160239. 4182.62  13
   0   3   5 216303. 5874.15   8
   0   3   5 212340. 5336.04  13
   0   3   5 201394. 5280.68  12
   0   3   6 35404.2 2145.17   8
   0   3   6 37293.4 1831.77  13
   0   3   6 35214.3 1801.65  12
   0   3   7 2920.89 769.028   8
   0   3   7 3130.18 634.153  13
   0   3   7 2969.48 609.902  12
   0   3   8 29079.8 2147.16   8
   0   3   8 30336.0 1865.37  13
   0   3   8 27042.7 1765.00  12
   0   3   9 64045.8 3546.91   8
   0   3   9 70379.7 3114.31  13
   0   3   9 68092.1 3099.13  12
   0   3  10 37460.9 2750.15   8
   0   3  10 35581.9 2348.96  13
   0   3  10 31020.6 2193.27  12
   0   3  11 1815.70 692.309   8
   0   4 -13 13781.8 1651.25  15
   0   4 -13 12982.3 1577.67  14
   0   4 -13 14734.9 1722.45  13
   0   4 -13 13579.8 1903.97   4
   0   4 -13 15577.9 1665.62  20
   0   4 -13 13922.6 1619.41  17
   0   4 -12 27349.6 2312.56  15
   0   4 -12 23086.0 2107.20  14
   0   4 -12 28614.8 2473.49   4
   0   4 -12 29768.4 2380.43  13
   0   4 -12 27355.0 2300.16  20
   0   4 -12 28623.6 2439.59  10
   0   4 -12 27808.9 2246.81  17
   0   4 -11 19923.4 1834.12  15
   0   4 -11 18929.4 1779.99  14
   0   4 -11 16144.2 1824.14   4
   0   4 -11 16958.2 1701.42  13
   0   4 -11 18172.9 1735.52  20
   0   4 -11 16528.7 1781.60  10
   0   4 -11 17380.3 1679.97  17
   0   4 -10 4983.65 954.189  15
   0   4 -10 7469.52 1095.03  14
   0   4 -10 7526.17 1105.51  13
   0   4 -10 5866.08 986.303   4
   0   4 -10 4935.77 940.235  20
   0   4 -10 6374.21 1003.73  17
   0   4 -10 4425.64 904.154  10
   0   4  -9 43856.9 2501.27  15
   0   4  -9 45996.8 2543.60  14
   0   4  -9 44071.7 2545.24  13
   0   4  -9 49537.3 2668.37   4
   0   4  -9 47398.3 2579.06  20
   0   4  -9 43192.8 2563.10  10
   0   4  -9 50592.8 2661.57  17
   0   4  -8 89246.0 2613.00   5
   0   4  -8 84154.2 3387.78  15
   0   4  -8 85234.7 3402.11  14
   0   4  -8 86084.8 3413.95  13
   0   4  -8 81938.7 3377.04   4
   0   4  -8 78921.6 3307.85  20
   0   4  -8 84922.7 3475.09  10
   0   4  -7 58607.2 1982.19   5
   0   4  -7 56923.4 2551.49  15
   0   4  -7 58088.5 2555.94  14
   0   4  -7 53764.2 2494.87  13
   0   4  -7 58204.6 2584.41   4
   0   4  -7 56257.7 2557.82  12
   0   4  -7 59154.2 2606.14  20
   0   4  -6 43523.7 2078.99  15
   0   4  -6 41624.5 2022.48  14
   0   4  -6 44257.4 2085.88  13
   0   4  -6 40957.1 2004.00   4
   0   4  -6 43416.3 2090.60  12
   0   4  -6 42740.2 2056.18  20
   0   4  -5 62995.8 2453.15  15
   0   4  -5 66848.6 1508.36   1
   0   4  -5 65308.2 2487.11  14
   0   4  -5 68138.4 2464.33   7
   0   4  -5 63525.2 2453.94  13
   0   4  -5 66517.3 2468.08   4
   0   4  -5 68903.1 2534.50  12
   0   4  -5 66551.9 2517.81  20
   0   4  -4 310452. 7268.69  15
   0   4  -4 308161. 7242.10  14
   0   4  -4 311327. 7188.44   7
   0   4  -4 308408. 7234.44  13
   0   4  -4 308669. 7237.44  12
   0   4  -4 313359. 7161.68   6
   0   4  -4 309789. 7268.82  20
   0   4  -3 102534. 3040.53  15
   0   4  -3 100354. 2985.97  14
   0   4  -3 97863.3 2935.99   7
   0   4  -3 101297. 2993.98  13
   0   4  -3 106420. 2879.17   6
   0   4  -3 98785.1 2976.01  12
   0   4  -2 2066.31 442.768  15
   0   4  -2 2350.98 443.818  14
   0   4  -2 2128.15 435.612  13
   0   4  -2 1243.13 415.233   7
   0   4  -2 2022.02 344.460   6
   0   4  -2 1398.99 407.724  12
   0   4  -1 187458. 4573.23  15
   0   4  -1 190121. 4587.16  12
   0   4  -1 189750. 4571.77  14
   0   4  -1 186650. 4562.73  13
   0   4  -1 193039. 4632.01   7
   0   4  -1 193793. 4294.12   6
   0   4   0 194544. 4436.08   8
   0   4   0 188519. 4584.09  14
   0   4   0 184959. 4576.85  13
   0   4   0 186202. 4645.71   7
   0   4   0 186314. 4570.75  12
   0   4   1 202992. 4912.90   8
   0   4   1 213281. 5022.40  14
   0   4   1 206618. 4981.84  13
   0   4   1 200900. 5088.03   7
   0   4   1 207100. 4985.89  12
   0   4   1 206152. 4670.97   6
   0   4   1 223024. 4367.03  16
   0   4   2 81300.7 2569.14   8
   0   4   2 80883.9 2497.99  12
   0   4   2 77613.6 2463.11  14
   0   4   2 77191.1 2458.50  13
   0   4   2 76544.5 2225.71   6
   0   4   2 79534.8 2618.66   7
   0   4   2 82211.1 2148.03  16
   0   4   3 54857.8 2181.33   8
   0   4   3 50272.3 1947.66  13
   0   4   3 50286.9 2100.33   7
   0   4   3 52194.6 1973.86  12
   0   4   3 55894.3 1493.79   3
   0   4   4 207833. 5327.33  12
   0   4   4 211288. 5704.95   8
   0   4   4 214897. 5360.92  13
   0   4   4 208612. 5634.96   7
   0   4   5 128539. 4243.08   8
   0   4   5 124114. 3774.35  13
   0   4   5 121891. 4050.87   7
   0   4   5 123008. 3764.35  12
   0   4   6 20031.3 1633.60   8
   0   4   6 22623.2 1467.84  13
   0   4   6 23398.9 1494.53  12
   0   4   7 1558.61 707.657   8
   0   4   7 412.765 416.156  13
   0   4   7 1110.18 438.453  12
   0   4   8 3861.11 972.350   8
   0   4   8 4737.71 762.111  13
   0   4   8 3391.55 721.655  12
   0   4   9 55500.7 3298.49   8
   0   4   9 52343.1 2767.72  13
   0   4   9 54537.9 2791.60  12
   0   4  10 27940.0 2485.25   8
   0   5 -13 23934.2 2190.43  15
   0   5 -13 16695.9 1879.12  14
   0   5 -13 20415.7 1984.89  17
   0   5 -13 20404.9 1961.35  13
   0   5 -13 16458.0 1794.00  20
   0   5 -12 33960.1 2631.67  15
   0   5 -12 34292.1 2610.13  14
   0   5 -12 35368.8 2783.68   4
   0   5 -12 39639.0 2779.53  13
   0   5 -12 41232.5 2967.85  10
   0   5 -12 42819.2 2867.32  17
   0   5 -12 36523.7 2700.56  20
   0   5 -11 10840.8 1388.81  15
   0   5 -11 11776.5 1433.19  14
   0   5 -11 15262.8 1704.46   4
   0   5 -11 9353.56 1308.85  13
   0   5 -11 8542.23 1362.52  20
   0   5 -11 13233.6 1617.78  10
   0   5 -11 10235.6 1323.23  17
   0   5 -10 9738.10 1296.08  15
   0   5 -10 10241.3 1270.06  14
   0   5 -10 10806.0 1303.40  13
   0   5 -10 6592.37 1139.72   4
   0   5 -10 9587.76 1238.06  20
   0   5 -10 9949.70 1283.66  17
   0   5 -10 7368.34 1186.01  10
   0   5  -9 18941.6 1651.78  15
   0   5  -9 18231.4 1613.76  14
   0   5  -9 17042.5 1550.68  13
   0   5  -9 19168.0 1755.97   4
   0   5  -9 18787.3 1699.57  10
   0   5  -9 16417.6 1535.18  20
   0   5  -8 86913.5 2766.31   5
   0   5  -8 88761.9 3546.89  15
   0   5  -8 80296.5 3407.95  14
   0   5  -8 82116.1 3439.59  13
   0   5  -8 81121.4 3433.70   4
   0   5  -8 84315.6 3485.15  12
   0   5  -8 87101.7 3540.34  20
   0   5  -7 119171. 4094.14  15
   0   5  -7 113707. 4021.65  14
   0   5  -7 117586. 4082.51  13
   0   5  -7 112599. 3973.93   4
   0   5  -7 116564. 4071.44  12
   0   5  -7 117689. 4071.90  20
   0   5  -6 52252.4 2419.63  20
   0   5  -6 52722.1 2404.24  15
   0   5  -6 51184.6 2367.19  14
   0   5  -6 51448.3 2314.61   7
   0   5  -6 52164.2 2394.16  13
   0   5  -6 49940.8 2307.71   4
   0   5  -6 54548.0 2436.77  12
   0   5  -6 51793.0 1174.78   1
   0   5  -5 130397. 4117.88  15
   0   5  -5 134375. 4136.53  14
   0   5  -5 141460. 3035.34   1
   0   5  -5 131817. 4055.50   7
   0   5  -5 130491. 4025.34   6
   0   5  -5 133981. 4147.52  12
   0   5  -5 137443. 4186.38  20
   0   5  -5 131611. 4117.44  13
   0   5  -4 213807. 5623.72  15
   0   5  -4 217651. 5628.54  14
   0   5  -4 217121. 5563.79   7
   0   5  -4 214730. 5613.60  13
   0   5  -4 213376. 5609.73  12
   0   5  -4 221627. 5471.55   6
   0   5  -3 85794.3 2887.27  15
   0   5  -3 86205.4 2858.09  14
   0   5  -3 86204.4 2834.11   7
   0   5  -3 84358.2 2836.98  13
   0   5  -3 82782.5 2812.65  12
   0   5  -3 90205.3 2660.02   6
   0   5  -2 8541.05 805.343  15
   0   5  -2 7907.50 769.681  14
   0   5  -2 8327.27 797.280   7
   0   5  -2 7967.21 749.403  13
   0   5  -2 6367.60 721.823  12
   0   5  -2 7834.49 635.049   6
   0   5  -1 33520.1 1545.28  15
   0   5  -1 33295.0 1526.35  14
   0   5  -1 34010.2 1544.99  13
   0   5  -1 33608.4 1578.31   7
   0   5  -1 35087.8 1319.05   6
   0   5  -1 34898.9 1547.66  12
   0   5   0 162708. 4013.86   8
   0   5   0 155418. 4186.94  14
   0   5   0 153451. 4172.09  13
   0   5   0 157615. 4290.85   7
   0   5   0 166621. 3834.49   6
   0   5   0 156511. 4191.96  12
   0   5   1 147243. 2979.29  16
   0   5   1 132977. 3697.94   8
   0   5   1 136088. 3811.96  14
   0   5   1 131660. 3790.59  13
   0   5   1 137171. 3945.35   7
   0   5   1 134574. 3797.66  12
   0   5   1 138057. 3435.05   6
   0   5   2 36732.3 1705.16   8
   0   5   2 40928.2 1755.93  14
   0   5   2 38897.0 1734.38  13
   0   5   2 38443.5 1848.70   7
   0   5   2 38748.2 1721.01  12
   0   5   2 37763.5 1464.16   6
   0   5   2 44413.8 1322.66  16
   0   5   3 29934.8 1658.85   8
   0   5   3 29319.1 1550.35  14
   0   5   3 31401.5 1586.26  13
   0   5   3 33028.2 1770.26   7
   0   5   3 36109.5 1264.66   3
   0   5   3 32335.5 1411.48   6
   0   5   3 33472.5 1637.73  12
   0   5   4 76643.3 3033.40   8
   0   5   4 78157.5 2787.02  13
   0   5   4 78585.1 3030.57   7
   0   5   4 73824.3 2749.26  12
   0   5   5 87679.4 3492.50   8
   0   5   5 87530.1 3112.02  12
   0   5   5 83622.8 3074.69  13
   0   5   5 84448.7 3365.66   7
   0   5   6 21131.2 1755.75   8
   0   5   6 21570.7 1524.29  13
   0   5   6 19980.8 1634.30   7
   0   5   6 21913.1 1506.36  12
   0   5   7 1876.28 748.835   8
   0   5   7 1468.15 598.701  13
   0   5   7 1247.68 491.891  12
   0   5   7 1612.12 579.952   7
   0   5   8 7971.15 1262.20   8
   0   5   8 8430.58 1103.42  13
   0   5   8 6750.22 1074.59   7
   0   5   8 7182.04 1014.46  12
   0   5   9 52759.1 3294.99   8
   0   5   9 47051.3 3013.48   7
   0   5  10 22933.3 2323.02   8
   0   5  10 22847.5 2135.27   7
   0   6 -12 43311.8 3076.62  15
   0   6 -12 41387.4 2973.75  14
   0   6 -12 44922.6 3146.03   4
   0   6 -12 45714.9 3188.22  13
   0   6 -12 40253.4 2880.40  20
   0   6 -12 45440.7 3108.35  10
   0   6 -12 43700.2 3003.13  17
   0   6 -11 18894.7 1849.47  20
   0   6 -11 18552.6 1899.85  15
   0   6 -11 22806.1 1977.18  14
   0   6 -11 18622.8 1868.03  13
   0   6 -11 16963.7 1839.69   4
   0   6 -11 17650.6 1891.24  10
   0   6 -11 19284.6 1863.45  17
   0   6 -10 13884.2 1569.03  15
   0   6 -10 12184.3 1390.84  14
   0   6 -10 11463.5 1405.21   4
   0   6 -10 9903.78 1307.02  13
   0   6 -10 12085.2 1414.04  20
   0   6 -10 10386.4 1380.85  10
   0   6  -9 28275.9 2073.05  15
   0   6  -9 26483.8 2047.30  14
   0   6  -9 25648.0 2035.07  13
   0   6  -9 28697.4 2089.18   4
   0   6  -9 25985.6 2050.10  20
   0   6  -8 73999.5 3324.66  15
   0   6  -8 69509.0 3237.78  14
   0   6  -8 64218.3 3156.96  13
   0   6  -8 66273.0 3136.24   4
   0   6  -8 67022.4 3231.93  12
   0   6  -8 70688.9 3260.17  20
   0   6  -7 128111. 4493.68  15
   0   6  -7 130972. 4528.73  14
   0   6  -7 129258. 4406.44   7
   0   6  -7 132702. 4564.32  13
   0   6  -7 131711. 4483.71   4
   0   6  -7 127980. 4513.36  12
   0   6  -7 132829. 4570.34  20
   0   6  -6 37323.7 2160.12  15
   0   6  -6 38707.9 2178.15  14
   0   6  -6 43361.8 2201.56   7
   0   6  -6 41738.1 2244.17  13
   0   6  -6 38345.6 2105.86   4
   0   6  -6 35892.4 2132.03  12
   0   6  -6 37140.1 2178.64  20
   0   6  -6 41156.0 1172.24   1
   0   6  -5 40197.5 2089.38  15
   0   6  -5 37725.3 2031.10  14
   0   6  -5 39511.6 2031.24   7
   0   6  -5 36271.6 2002.75  13
   0   6  -5 36345.3 2005.07  12
   0   6  -5 38039.6 2036.86  20
   0   6  -5 37252.7 1925.59   6
   0   6  -4 164792. 4917.64  15
   0   6  -4 168592. 4919.95  14
   0   6  -4 176606. 4937.30   7
   0   6  -4 177558. 4989.14  13
   0   6  -4 170837. 4943.48  12
   0   6  -4 178721. 4738.68   6
   0   6  -3 69536.2 2652.47  15
   0   6  -3 68558.8 2618.67  14
   0   6  -3 62995.9 2534.08   7
   0   6  -3 62775.0 2535.68  12
   0   6  -3 65405.5 2578.02  13
   0   6  -3 68781.2 2348.16   6
   0   6  -2 20805.5 1118.30   6
   0   6  -2 20137.9 1317.44  12
   0   6  -2 21491.1 1345.91  15
   0   6  -2 19491.2 1311.38  14
   0   6  -2 19246.4 1302.11   7
   0   6  -2 21966.1 1361.81  13
   0   6  -1 16411.7 1191.77  15
   0   6  -1 16235.8 1164.16  14
   0   6  -1 16803.8 1181.50  13
   0   6  -1 16580.6 1228.87   7
   0   6  -1 17867.8 1196.81  12
   0   6  -1 17653.5 968.442   6
   0   6   0 85580.0 2476.96   6
   0   6   0 82073.6 2855.17  14
   0   6   0 87205.8 2909.17  13
   0   6   0 82909.3 2953.85   7
   0   6   0 82397.0 2864.91  12
   0   6   1 98597.6 2059.55  16
   0   6   1 98064.3 3076.52   8
   0   6   1 98765.8 3214.19  14
   0   6   1 98696.1 3223.69  13
   0   6   1 94469.9 3314.21   7
   0   6   1 100205. 2785.52   6
   0   6   1 102229. 3252.53  12
   0   6   2 3409.94 587.712   8
   0   6   2 2958.57 582.918  14
   0   6   2 2514.45 528.133  13
   0   6   2 2939.51 656.910   7
   0   6   2 2246.84 577.028  12
   0   6   2 2790.21 434.124   6
   0   6   3 18829.4 1380.46   8
   0   6   3 19162.1 1348.30  14
   0   6   3 19137.6 1328.25  13
   0   6   3 19781.2 1485.44   7
   0   6   3 17133.8 1275.75  12
   0   6   3 20556.1 1161.31   6
   0   6   4 73880.6 3052.39   8
   0   6   4 73979.9 2891.23  14
   0   6   4 75314.9 2930.43  13
   0   6   4 76284.3 3185.99   7
   0   6   4 75303.2 2912.06  12
   0   6   4 76439.2 2608.91   6
   0   6   5 69978.1 3141.40   8
   0   6   5 67363.5 2870.79  14
   0   6   5 70109.4 2879.19  13
   0   6   5 65918.6 3102.96   7
   0   6   5 69112.9 2905.72  12
   0   6   5 72760.9 2680.60   6
   0   6   6 49640.0 2783.03   8
   0   6   6 47689.7 2442.66  14
   0   6   6 51252.0 2531.21  13
   0   6   6 47672.9 2715.54   7
   0   6   6 54993.3 2573.64  12
   0   6   7 6808.95 1014.24   7
   0   6   7 8234.60 1256.84   8
   0   6   7 6094.99 881.164  13
   0   6   7 5923.59 905.346  12
   0   6   8 8068.48 1293.91   8
   0   6   8 4776.52 1080.76   7
   0   6   9 31867.2 2596.72   8
   0   6   9 34591.9 2599.36   7
   0   7 -12 48309.9 3244.65  15
   0   7 -12 38440.3 2937.09  14
   0   7 -12 41480.2 3048.83  13
   0   7 -12 35581.5 2881.56  17
   0   7 -12 44106.8 3141.23  20
   0   7 -12 43560.7 3158.05  10
   0   7 -11 27689.3 2390.30  15
   0   7 -11 32279.2 2571.38  14
   0   7 -11 28086.7 2317.41  13
   0   7 -11 25710.2 2298.38   4
   0   7 -11 26921.4 2311.22  20
   0   7 -11 26053.3 2335.72  10
   0   7 -11 30834.1 2525.47  17
   0   7 -10 14705.6 1667.05  15
   0   7 -10 12432.2 1550.02  14
   0   7 -10 12301.9 1498.90  13
   0   7 -10 13066.4 1596.56  20
   0   7 -10 10879.3 1438.32   4
   0   7  -9 10378.8 1413.18  20
   0   7  -9 7702.03 1190.33  15
   0   7  -9 10400.1 1379.98  14
   0   7  -9 11522.6 1351.85   4
   0   7  -9 7622.79 1232.95  13
   0   7  -9 8559.99 1290.44  12
   0   7  -8 45423.1 2670.86  15
   0   7  -8 39749.2 2524.96  14
   0   7  -8 42101.2 2505.41   7
   0   7  -8 44539.9 2670.17  13
   0   7  -8 42425.4 2561.34   4
   0   7  -8 45766.1 2668.69  12
   0   7  -8 43713.0 2651.01  20
   0   7  -7 43193.2 2533.43  15
   0   7  -7 44299.4 2551.96  14
   0   7  -7 40747.8 2367.08   7
   0   7  -7 45019.7 2556.15  13
   0   7  -7 44140.2 2457.36   4
   0   7  -7 41448.6 2496.53  12
   0   7  -7 40531.5 2472.86  20
   0   7  -6 31437.6 2058.54  15
   0   7  -6 34824.8 2141.64  14
   0   7  -6 33932.2 2082.22   7
   0   7  -6 32395.5 2101.81  13
   0   7  -6 36168.0 2183.24  12
   0   7  -6 38289.7 2252.80  20
   0   7  -5 29878.2 1921.72  15
   0   7  -5 33668.3 2011.33  14
   0   7  -5 33062.7 1967.91   7
   0   7  -5 32031.4 1945.11  13
   0   7  -5 30027.3 1910.25  12
   0   7  -5 28542.3 1878.01  20
   0   7  -5 29966.5 1775.43   6
   0   7  -4 67713.9 2875.49  15
   0   7  -4 69796.8 2865.44  14
   0   7  -4 65114.8 2780.04   7
   0   7  -4 63281.9 2787.50  13
   0   7  -4 65176.6 2813.28  12
   0   7  -4 65587.0 2548.20   6
   0   7  -3 129563. 4234.04  12
   0   7  -3 132224. 4271.57  15
   0   7  -3 130412. 4233.71  14
   0   7  -3 134185. 4250.11   7
   0   7  -3 134520. 4282.85  13
   0   7  -3 139647. 3903.76   6
   0   7  -2 35010.4 1928.17  15
   0   7  -2 38205.4 1988.72  14
   0   7  -2 36450.6 1972.95   7
   0   7  -2 38621.5 1984.21  13
   0   7  -2 39958.8 1703.37   6
   0   7  -2 40777.0 2031.78  12
   0   7  -1 2343.34 622.701  15
   0   7  -1 2734.80 593.378  14
   0   7  -1 2641.44 644.689  13
   0   7  -1 2652.37 690.354   7
   0   7  -1 2946.49 591.499  12
   0   7  -1 2784.01 476.323   6
   0   7   0 39656.5 2009.99  15
   0   7   0 36316.6 1945.03  14
   0   7   0 39373.9 1990.16  13
   0   7   0 40143.8 2092.78   7
   0   7   0 35468.0 1909.14  12
   0   7   0 42614.9 1668.36   6
   0   7   1 84265.9 2922.17   8
   0   7   1 86460.2 3124.29  14
   0   7   1 76352.5 3007.81  13
   0   7   1 81017.2 3202.77   7
   0   7   1 78445.4 3031.10  12
   0   7   1 88159.0 2640.16   6
   0   7   2 24998.8 1546.76   8
   0   7   2 22863.5 1548.21  14
   0   7   2 22842.3 1555.00  13
   0   7   2 21285.0 1616.92   7
   0   7   2 24020.8 1274.96   6
   0   7   2 24030.1 1568.00  12
   0   7   3 18399.2 1435.46  12
   0   7   3 18921.3 1439.87   8
   0   7   3 19967.6 1471.45  14
   0   7   3 16941.5 1386.35  13
   0   7   3 17730.0 1549.69   7
   0   7   3 20382.3 1202.90   6
   0   7   4 76804.8 3278.04   8
   0   7   4 82323.3 3232.28  14
   0   7   4 80367.3 3191.57  13
   0   7   4 73720.2 3363.94   7
   0   7   4 79200.1 2784.12   6
   0   7   4 76685.8 3121.91  12
   0   7   5 79093.4 3499.37   8
   0   7   5 78924.0 3274.20  14
   0   7   5 79478.9 3267.40  13
   0   7   5 73559.2 3460.51   7
   0   7   5 77684.3 3252.49  12
   0   7   6 23875.5 2014.14   8
   0   7   6 28815.3 1980.27  14
   0   7   6 23734.7 1809.60  13
   0   7   6 26062.9 2056.67   7
   0   7   6 24408.5 1863.74  12
   0   7   7 2556.39 869.138   8
   0   7   7 4379.23 854.787   7
   0   7   8 7805.24 1172.14   7
   0   7   8 5844.45 1101.04   8
   0   8 -11 15409.9 1803.76  15
   0   8 -11 19326.5 1924.49  14
   0   8 -11 17276.8 1886.52  13
   0   8 -11 17733.6 1988.33   4
   0   8 -11 16241.2 1743.49  20
   0   8 -11 18234.2 1929.15  10
   0   8 -10 1574.33 642.988  15
   0   8 -10 1670.23 522.492  14
   0   8 -10 1284.36 648.945  13
   0   8 -10 2038.84 712.492   4
   0   8 -10 840.435 634.254  20
   0   8  -9 6209.81 1127.85  12
   0   8  -9 4988.31 1052.78  15
   0   8  -9 6739.96 1157.34  14
   0   8  -9 4726.11 1054.62  13
   0   8  -9 5101.60 926.978   4
   0   8  -9 6087.63 1120.88  20
   0   8  -8 33676.8 2432.36  15
   0   8  -8 35595.1 2465.34  14
   0   8  -8 33469.0 2318.77   7
   0   8  -8 37134.7 2529.16  13
   0   8  -8 33900.6 2335.80   4
   0   8  -8 35518.6 2538.44  12
   0   8  -8 32702.3 2425.09  20
   0   8  -7 40625.2 2541.06  15
   0   8  -7 38767.1 2506.96  14
   0   8  -7 42070.2 2552.82   7
   0   8  -7 43456.7 2618.91  13
   0   8  -7 41923.1 2550.73   4
   0   8  -7 43770.9 2643.95  12
   0   8  -7 39578.0 2539.77  20
   0   8  -6 22532.5 1849.28  15
   0   8  -6 22603.8 1794.85  14
   0   8  -6 19773.1 1691.26   7
   0   8  -6 20496.4 1731.23  13
   0   8  -6 21270.6 1767.09  12
   0   8  -6 21260.0 1766.42  20
   0   8  -6 23718.7 1780.01   6
   0   8  -5 51276.5 2470.70   6
   0   8  -5 51475.8 2686.74  15
   0   8  -5 54884.4 2758.04  14
   0   8  -5 48905.9 2582.27   7
   0   8  -5 50070.9 2642.53  13
   0   8  -5 51745.3 2666.46  12
   0   8  -5 50463.1 2681.66  20
   0   8  -4 36422.4 2225.51  15
   0   8  -4 39609.3 2236.04  14
   0   8  -4 42177.3 2346.31   7
   0   8  -4 36121.7 2164.87  13
   0   8  -4 34291.7 2130.69  12
   0   8  -4 39849.7 2003.19   6
   0   8  -3 69488.4 3036.96  15
   0   8  -3 72336.1 2634.63   6
   0   8  -3 65235.6 2955.01  14
   0   8  -3 67056.7 2988.26   7
   0   8  -3 65389.1 2962.71  13
   0   8  -3 66964.7 2995.60  12
   0   8  -2 73446.4 3115.78  15
   0   8  -2 73492.5 3067.55  12
   0   8  -2 72922.8 3100.33  14
   0   8  -2 70403.7 3067.60   7
   0   8  -2 76206.6 3146.60  13
   0   8  -2 80505.2 2698.98   6
   0   8  -1 9095.80 1098.04  15
   0   8  -1 9337.23 1055.84  14
   0   8  -1 9256.54 1122.04   7
   0   8  -1 10055.6 1123.41  13
   0   8  -1 8649.77 1012.04  12
   0   8  -1 8110.32 773.733   6
   0   8   0 37315.8 2138.20  15
   0   8   0 39221.8 2150.92  14
   0   8   0 36647.0 2078.56  13
   0   8   0 38727.9 2217.29   7
   0   8   0 42408.7 1767.37   6
   0   8   0 38747.0 2126.85  12
   0   8   1 92547.0 2841.80   6
   0   8   1 82663.1 3107.09   8
   0   8   1 84524.1 3351.75  15
   0   8   1 85599.0 3361.40  14
   0   8   1 83987.1 3338.22  13
   0   8   1 86636.5 3532.52   7
   0   8   1 85962.1 3349.52  12
   0   8   2 33897.9 1974.14   8
   0   8   2 36059.2 2118.75  14
   0   8   2 39299.2 2166.52  13
   0   8   2 33252.2 2164.47   7
   0   8   2 36534.5 2095.82  12
   0   8   3 9442.61 1104.04   8
   0   8   3 9430.29 1122.89  14
   0   8   3 7787.98 1079.62  13
   0   8   3 9041.76 1171.03   7
   0   8   3 10923.5 1164.64  12
   0   8   4 11841.1 1256.57  12
   0   8   4 13046.6 1408.57   8
   0   8   4 12344.7 1314.85  14
   0   8   4 12020.9 1381.98   7
   0   8   4 10253.3 1218.76  13
   0   8   5 52256.8 2979.59   8
   0   8   5 57794.0 2870.95  12
   0   8   5 57535.6 2895.03  14
   0   8   5 55087.5 2820.36  13
   0   8   5 54859.0 3136.89   7
   0   8   6 22200.5 2073.61   8
   0   8   6 22048.8 2005.78   7
   0   8   7 1549.55 778.965   8
   0   8   7 2566.93 768.902   7
   0   9 -10 2192.96 744.784  20
   0   9 -10 2122.17 688.022  15
   0   9 -10 1749.06 654.103  14
   0   9 -10 817.011 635.023  13
   0   9 -10 1186.53 542.552  12
   0   9  -9 6812.49 1130.12  15
   0   9  -9 6275.68 1210.47   7
   0   9  -9 7508.51 1341.59  14
   0   9  -9 5659.34 1130.12  13
   0   9  -9 6608.31 1188.38   4
   0   9  -9 6389.52 1201.68  12
   0   9  -9 6885.85 1096.22  20
   0   9  -8 54930.4 3322.65  15
   0   9  -8 59858.7 3439.68  14
   0   9  -8 60205.6 3313.22   7
   0   9  -8 62870.6 3486.79  13
   0   9  -8 57028.5 3256.54   4
   0   9  -8 56397.4 3387.69  12
   0   9  -8 56150.5 3383.94  20
   0   9  -7 43087.2 2729.23  15
   0   9  -7 39194.7 2631.27  14
   0   9  -7 44273.0 2730.52   7
   0   9  -7 41552.2 2709.15  13
   0   9  -7 38652.2 2618.84  12
   0   9  -7 40583.0 2699.77  20
   0   9  -6 17057.8 1752.63  15
   0   9  -6 14216.6 1586.84  14
   0   9  -6 15512.4 1560.71   7
   0   9  -6 15268.5 1620.22  13
   0   9  -6 13307.2 1520.40  12
   0   9  -6 15023.9 1649.57  20
   0   9  -5 17173.0 1650.72  15
   0   9  -5 18266.4 1511.29   6
   0   9  -5 16741.2 1618.14  14
   0   9  -5 16638.0 1533.62   7
   0   9  -5 15336.2 1555.40  13
   0   9  -5 17044.1 1657.77  12
   0   9  -5 16607.7 1590.52  20
   0   9  -4 59313.9 3114.37  15
   0   9  -4 63696.1 3127.53  14
   0   9  -4 59162.0 3006.20   7
   0   9  -4 61899.3 3084.75  13
   0   9  -4 62426.0 3094.32  12
   0   9  -4 63302.7 2727.90   6
   0   9  -3 72349.0 3345.25  15
   0   9  -3 68742.4 3232.92  14
   0   9  -3 67696.0 3236.99   7
   0   9  -3 70189.4 3282.43  13
   0   9  -3 72556.4 3321.54  12
   0   9  -3 75263.4 2857.44   6
   0   9  -2 54258.1 2774.83  15
   0   9  -2 50465.2 2677.38  14
   0   9  -2 49811.7 2672.02   7
   0   9  -2 51597.4 2722.93  13
   0   9  -2 51456.6 2694.65  12
   0   9  -1 32560.8 2135.60  15
   0   9  -1 30831.0 2070.56  14
   0   9  -1 31468.3 2143.06   7
   0   9  -1 36172.4 2227.03  13
   0   9  -1 29585.1 2007.91  12
   0   9   0 14965.6 1468.08  15
   0   9   0 15455.6 1459.07  14
   0   9   0 18435.6 1577.94  13
   0   9   0 14381.2 1537.86   7
   0   9   0 17003.1 1482.70  12
   0   9   1 18764.7 1596.19  15
   0   9   1 22024.1 1716.65  12
   0   9   1 20843.7 1702.66  14
   0   9   1 23786.9 1751.28  13
   0   9   1 18917.0 1707.50   7
   0   9   2 20763.3 1623.50   8
   0   9   2 17896.6 1567.06  15
   0   9   2 17109.5 1577.95  14
   0   9   2 20722.8 1675.86  13
   0   9   2 15163.1 1594.34   7
   0   9   2 17820.1 1553.42  12
   0   9   3 5282.36 906.621   8
   0   9   3 4579.54 880.743  14
   0   9   3 4350.96 895.516  13
   0   9   3 3338.72 903.911   7
   0   9   3 4653.61 845.844  12
   0   9   4 4435.37 923.330   8
   0   9   4 4449.72 950.745  14
   0   9   4 4405.37 851.116  12
   0   9   4 5264.04 952.543  13
   0   9   4 4298.60 939.637   7
   0   9   5 29375.9 2274.21   8
   0   9   5 30492.7 2494.05   7
   0   9   6 22743.9 2227.28   8
   0   9   6 26141.8 2334.17   7
   0  10  -9 1433.76 666.151   4
   0  10  -9-2.81356 661.801  15
   0  10  -9 515.190 602.944  14
   0  10  -9 525.634 537.734  13
   0  10  -9 2386.85 670.204   7
   0  10  -9 376.840 405.745  12
   0  10  -9 1087.90 547.266  20
   0  10  -8 35033.1 2669.97  15
   0  10  -8 33280.3 2622.87  14
   0  10  -8 34314.6 2669.95   7
   0  10  -8 35062.6 2676.92  13
   0  10  -8 35292.0 2666.41   4
   0  10  -8 30722.8 2565.74  12
   0  10  -8 29806.3 2507.27  20
   0  10  -7 54853.1 3261.83  15
   0  10  -7 47758.2 3090.36  14
   0  10  -7 50932.9 3132.10   7
   0  10  -7 53341.7 3298.42  13
   0  10  -7 51958.7 3283.73  12
   0  10  -7 53859.2 3289.87  20
   0  10  -6 15143.3 1733.71  15
   0  10  -6 15403.1 1685.27  14
   0  10  -6 15158.3 1661.27   7
   0  10  -6 16064.4 1752.32  13
   0  10  -6 15261.8 1612.95  12
   0  10  -6 15930.9 1706.86  20
   0  10  -5 5382.54 1007.81  12
   0  10  -5 6479.76 1104.71  15
   0  10  -5 6556.65 1149.80  14
   0  10  -5 7743.03 1182.20  13
   0  10  -5 6247.71 1056.00   7
   0  10  -5 6019.20 1131.67  20
   0  10  -4 35990.5 2484.64  15
   0  10  -4 34802.7 2435.81  14
   0  10  -4 30929.5 2298.33   7
   0  10  -4 33961.8 2377.66  13
   0  10  -4 36596.4 2513.64  12
   0  10  -3 77754.1 3665.69  15
   0  10  -3 75071.2 3591.77  14
   0  10  -3 73916.6 3560.70   7
   0  10  -3 75125.7 3606.87  13
   0  10  -3 72280.7 3547.64  12
   0  10  -2 17349.8 1728.47  15
   0  10  -2 16972.9 1670.66  14
   0  10  -2 16893.0 1654.88   7
   0  10  -2 16571.9 1677.98  13
   0  10  -2 14365.8 1508.23  12
   0  10  -1 4682.17 1015.59  15
   0  10  -1 7268.94 1076.12  14
   0  10  -1 4391.66 889.228  13
   0  10  -1 5462.10 971.866   7
   0  10  -1 6809.43 1082.89  12
   0  10   0 14656.4 1503.35  15
   0  10   0 15555.0 1559.51  14
   0  10   0 13796.1 1548.55  13
   0  10   0 13550.3 1520.23   7
   0  10   0 16479.9 1620.06  12
   0  10   1 12171.8 1358.15  15
   0  10   1 8575.22 1187.94  12
   0  10   1 8124.24 1234.95  14
   0  10   1 9220.98 1257.34  13
   0  10   1 8125.78 1185.39   7
   0  10   2 16154.1 1632.58  15
   0  10   2 19692.0 1773.87  14
   0  10   2 18812.9 1744.81  13
   0  10   2 15670.2 1792.23   7
   0  10   2 18708.5 1786.80  12
   0  10   3 8850.65 1263.05  12
   0  10   3 8392.64 1223.17  14
   0  10   3 9704.07 1316.68  13
   0  10   3 9652.67 1382.70   7
   0  10   4 5236.84 1170.69   7
   0  11  -7 49686.4 3313.15  15
   0  11  -7 46124.5 3179.91  14
   0  11  -7 46051.1 3170.23  13
   0  11  -7 49899.9 3294.68  12
   0  11  -7 43849.2 3153.02  20
   0  11  -6 20244.3 2086.63  15
   0  11  -6 21088.9 2090.20  14
   0  11  -6 20037.3 1987.07   7
   0  11  -6 21157.8 2072.72  13
   0  11  -6 20749.8 1966.21  12
   0  11  -6 21774.2 2118.62  20
   0  11  -5 179.290 501.490  15
   0  11  -5 446.905 483.481  14
   0  11  -5-677.227 558.684  13
   0  11  -5 492.535 510.202   7
   0  11  -5 853.394 608.414  20
   0  11  -5-241.102 266.055  12
   0  11  -4 9324.70 1391.99  15
   0  11  -4 7333.15 1272.46  14
   0  11  -4 9147.54 1492.12  13
   0  11  -4 11588.4 1450.67   7
   0  11  -4 10420.7 1380.17  12
   0  11  -3 39341.1 2762.34  15
   0  11  -3 41028.2 2768.91  14
   0  11  -3 33552.7 2540.38   7
   0  11  -3 41449.5 2751.40  13
   0  11  -3 33150.6 2542.59  12
   0  11  -2 22927.1 2098.05  15
   0  11  -2 25241.2 2147.05  14
   0  11  -2 23014.4 1995.17   7
   0  11  -2 23926.5 2100.69  13
   0  11  -2 23315.1 2085.89  12
   0  11  -1 6437.43 1189.24  15
   0  11  -1 7003.92 1089.53  14
   0  11  -1 9176.39 1315.77  13
   0  11  -1 6660.66 1009.47   7
   0  11  -1 6490.24 1131.02  12
   0  11   0 12948.6 1516.31  15
   0  11   0 11131.9 1463.36  14
   0  11   0 13425.2 1496.00  13
   0  11   0 11617.6 1576.34   7
   0  11   0 13298.7 1630.30  12
   0  11   1 22969.3 2168.08  15
   0  11   1 25628.3 2162.64  14
   0  11   1 26966.9 2236.15  13
   0  11   1 28555.7 2358.46   7
   0  11   1 25722.4 2243.11  12
   0  12  -3 40537.2 2906.52  15
   0  12  -3 40222.4 2916.85  14
   0  12  -3 35706.9 2785.77  13
   0  12  -3 42650.4 2973.77  12
   0  12  -2 31464.4 2635.50  15
   0  12  -2 29281.4 2486.92  14
   0  12  -2 28322.6 2620.43  13
   0  12  -2 29895.2 2651.55  12
   0  12  -1 15432.6 1861.33  15
   0  12  -1 14193.3 1756.06  14
   0  12  -1 14372.4 1884.73  12
   0  12  -1 12720.4 1743.93  13
   0  12   0 4537.97 1267.80  15
   0  12   0 5619.46 1146.04  14
   0  12   0 5963.01 1188.99  13
   0  12   0 2966.94 1069.89  12
   1 -12   2 12521.9 1629.10   2
   1 -12   2 10537.5 1727.80  11
   1 -12   3 3998.53 975.209   9
   1 -12   3 2342.21 984.856  11
   1 -12   4 33312.3 2604.50   9
   1 -12   5 30895.2 2448.85   9
   1 -11  -3 17518.7 1735.18  19
   1 -11  -3 16109.8 1650.12  18
   1 -11  -3 17580.0 1794.53  17
   1 -11  -2 6943.27 1163.83  19
   1 -11  -2 4773.28 952.718  18
   1 -11  -2 6408.32 1104.73  17
   1 -11  -1 6899.45 1295.32   2
   1 -11  -1 9524.60 1354.06  19
   1 -11  -1 9186.29 1586.22  11
   1 -11  -1 8037.46 1126.56  18
   1 -11  -1 9607.24 1278.43  17
   1 -11   0 30175.6 2353.76  18
   1 -11   0 29430.9 2472.72   2
   1 -11   0 27371.4 2191.71  19
   1 -11   0 30470.6 2744.42  11
   1 -11   0 28900.4 2286.08  17
   1 -11   1 25342.7 2246.83   2
   1 -11   1 28310.7 2239.94  19
   1 -11   1 32399.8 2440.45  18
   1 -11   1 23973.3 2360.38  11
   1 -11   1 28082.1 2271.24  17
   1 -11   2 3929.06 850.534   2
   1 -11   2 5940.88 954.098   9
   1 -11   2 5822.08 1134.86  11
   1 -11   2 4293.90 843.309  18
   1 -11   2 5394.92 961.207  19
   1 -11   2 5052.02 1007.56  17
   1 -11   3 1967.16 624.703   2
   1 -11   3 1300.48 841.463   9
   1 -11   3 1672.69 520.624  19
   1 -11   3 1416.37 857.312  11
   1 -11   3 1582.70 724.786  18
   1 -11   3 676.133 328.197  17
   1 -11   4 32371.9 2286.38   9
   1 -11   4 27067.4 2308.60  19
   1 -11   4 25751.8 2176.21  18
   1 -11   4 30277.3 2415.68  11
   1 -11   4 29721.3 2424.32  17
   1 -11   5 64025.3 3393.53   9
   1 -11   5 62776.2 3971.08   3
   1 -11   5 63530.0 3632.22  19
   1 -11   5 60647.5 3530.82  18
   1 -11   6 14306.6 2044.52   3
   1 -11   6 11092.1 1512.12   9
   1 -11   6 13710.2 1693.88  19
   1 -11   6 14242.9 1684.21  18
   1 -10  -4 41779.5 2734.15  18
   1 -10  -4 42157.3 3183.95   2
   1 -10  -4 40158.8 2669.32  20
   1 -10  -4 39422.3 2701.47  17
   1 -10  -4 39387.5 2649.33  19
   1 -10  -3 20099.7 1793.50  19
   1 -10  -3 16561.3 1957.53   2
   1 -10  -3 16564.3 2070.27  11
   1 -10  -3 15524.6 1574.97  18
   1 -10  -3 15822.4 1625.77  17
   1 -10  -2 6624.01 1335.74   2
   1 -10  -2 7745.72 1155.65  19
   1 -10  -2 5727.99 1313.37  11
   1 -10  -2 7341.48 1035.54  18
   1 -10  -2 8291.19 1097.27  17
   1 -10  -1 4096.95 823.253  18
   1 -10  -1 4624.77 1008.65   2
   1 -10  -1 2928.72 740.692  19
   1 -10  -1 2411.76 881.685  11
   1 -10  -1 3703.15 770.437  17
   1 -10   0 16633.1 1766.84   2
   1 -10   0 14060.5 1470.98  19
   1 -10   0 13652.6 1457.78  18
   1 -10   0 16428.6 1906.66  11
   1 -10   0 12130.2 1377.10  17
   1 -10   1 46746.4 2740.15   9
   1 -10   1 50471.0 2930.61   2
   1 -10   1 48190.0 2760.89  19
   1 -10   1 49315.1 2830.31  18
   1 -10   1 47001.8 3144.07  11
   1 -10   1 40042.1 2599.83  17
   1 -10   2 8739.46 1182.46   2
   1 -10   2 9018.28 1137.69   9
   1 -10   2 6740.57 1222.53   3
   1 -10   2 4940.63 960.527  19
   1 -10   2 6603.65 1209.58  11
   1 -10   2 6892.13 1117.81  18
   1 -10   2 7419.06 1061.22  17
   1 -10   3 3196.75 874.230   3
   1 -10   3 3541.36 746.170   2
   1 -10   3 2640.74 746.495   9
   1 -10   3 4249.27 1004.66  11
   1 -10   3 2979.53 739.241  19
   1 -10   3 3143.38 732.420  18
   1 -10   3 2912.02 732.342  17
   1 -10   4 41894.6 2476.08   9
   1 -10   4 37802.7 2268.39   2
   1 -10   4 33271.4 2717.08   3
   1 -10   4 39166.9 2548.76  19
   1 -10   4 37420.1 2523.33  18
   1 -10   4 36846.5 2532.77  11
   1 -10   4 33736.6 2515.41  17
   1 -10   5 67409.3 3276.82   9
   1 -10   5 71933.5 4103.09   3
   1 -10   5 65954.2 3593.04  19
   1 -10   5 70781.2 3688.32  18
   1 -10   5 73065.0 3485.74  11
   1 -10   6 41021.3 2478.58   9
   1 -10   6 39136.7 3171.03   3
   1 -10   6 41129.8 2812.18  18
   1 -10   6 37654.2 2679.09  19
   1 -10   7 692.310 693.189   3
   1 -10   7 611.424 601.139   9
   1 -10   7-173.549 531.252  19
   1 -10   8 17107.6 2167.28   3
   1 -10   8 19591.6 2024.94  19
   1 -10   8 17233.0 1910.76  18
   1  -9  -6 2431.16 809.674  11
   1  -9  -5 16107.3 2014.28   2
   1  -9  -5 13678.3 1437.71  19
   1  -9  -5 14766.2 1468.98  20
   1  -9  -5 17363.7 1987.00  11
   1  -9  -5 13498.5 1434.59  18
   1  -9  -5 13296.5 1500.42  17
   1  -9  -4 35022.1 2739.79   2
   1  -9  -4 32569.8 2318.31  19
   1  -9  -4 37296.3 2973.39  11
   1  -9  -4 37533.3 2409.45  18
   1  -9  -4 38389.5 2442.27  17
   1  -9  -4 32950.5 2291.14  20
   1  -9  -3 18276.0 1632.28  18
   1  -9  -3 20404.9 1722.29  20
   1  -9  -3 21697.5 2052.73   2
   1  -9  -3 21525.3 1746.74  19
   1  -9  -3 19841.1 2168.94  11
   1  -9  -3 18722.8 1699.98  17
   1  -9  -2 5437.31 1123.62   2
   1  -9  -2 4856.51 838.764  18
   1  -9  -2 4263.93 808.267  19
   1  -9  -2 5312.17 1061.85  11
   1  -9  -2 4406.65 924.874  17
   1  -9  -1 16115.2 1701.04   2
   1  -9  -1 16890.0 1541.90  18
   1  -9  -1 15147.6 1460.09  19
   1  -9  -1 15050.7 1758.92  11
   1  -9  -1 16615.0 1505.99  17
   1  -9   0 47309.1 3084.92  11
   1  -9   0 50370.0 2854.19   2
   1  -9   0 45239.5 2605.22  19
   1  -9   0 45266.9 2583.20  18
   1  -9   0 49946.1 2663.88  17
   1  -9   1 46445.1 2533.26   9
   1  -9   1 44416.6 2927.27  11
   1  -9   1 47687.0 2679.87   2
   1  -9   1 41260.5 2489.60  18
   1  -9   1 50470.4 2716.47   3
   1  -9   1 46532.6 2581.00  17
   1  -9   1 42387.0 2510.36  19
   1  -9   2 19709.3 1625.83   9
   1  -9   2 23025.2 1765.79   2
   1  -9   2 24224.1 2011.12   3
   1  -9   2 17973.9 1634.61  19
   1  -9   2 20206.4 1714.17  18
   1  -9   2 19566.7 1870.05  11
   1  -9   2 21791.0 1787.74  17
   1  -9   3 7043.09 1185.78   3
   1  -9   3 6177.09 840.543   2
   1  -9   3 7533.35 1060.06   9
   1  -9   3 4940.56 848.261  19
   1  -9   3 6289.36 1099.48  11
   1  -9   3 5468.08 947.806  18
   1  -9   3 5564.31 924.881  17
   1  -9   4 30202.4 1920.18   9
   1  -9   4 25636.4 1986.43  19
   1  -9   4 30964.4 1848.94   2
   1  -9   4 26683.7 2022.26  11
   1  -9   4 25485.0 2325.83   3
   1  -9   4 25784.9 1985.68  18
   1  -9   4 25091.6 1964.10  17
   1  -9   5 96781.5 3674.44   9
   1  -9   5 90062.1 3948.11  19
   1  -9   5 88322.9 4453.12   3
   1  -9   5 83793.7 3831.31  18
   1  -9   5 95885.5 3792.97  11
   1  -9   6 82475.7 3390.95   9
   1  -9   6 77275.7 4220.66   3
   1  -9   6 72544.1 3662.40  19
   1  -9   6 73936.4 3662.92  18
   1  -9   7 16922.3 2109.10   3
   1  -9   7 13822.9 1386.44   9
   1  -9   7 11235.5 1409.36  19
   1  -9   7 16293.2 1713.02  18
   1  -9   8 8030.71 1511.49   3
   1  -9   8 7700.31 1118.44   9
   1  -9   8 7689.67 1262.72  19
   1  -9   8 8023.28 1270.64  18
   1  -9   9 73943.7 4531.49   3
   1  -9   9 73146.2 3975.45  19
   1  -9   9 78334.9 4093.52  18
   1  -8  -7 15096.2 1518.29  20
   1  -8  -7 15485.3 1892.78   2
   1  -8  -7 14320.0 1449.18  18
   1  -8  -7 15759.8 1509.81  19
   1  -8  -7 18887.6 2161.22  11
   1  -8  -7 14878.6 1520.57  17
   1  -8  -6 202.281 749.148   2
   1  -8  -6 822.473 598.028  11
   1  -8  -6 1973.19 634.176  20
   1  -8  -6 1566.30 651.460  19
   1  -8  -6 623.192 588.023  18
   1  -8  -6 1283.36 541.648  17
   1  -8  -5 7515.11 1246.98   2
   1  -8  -5 8286.97 1128.86  19
   1  -8  -5 7546.58 1051.02  20
   1  -8  -5 8966.89 1347.98  11
   1  -8  -5 8344.79 1073.84  18
   1  -8  -5 8071.62 1041.93  17
   1  -8  -4 45601.8 2581.33  17
   1  -8  -4 43605.5 2916.01   2
   1  -8  -4 45095.7 2558.02  19
   1  -8  -4 53515.6 3380.15  11
   1  -8  -4 49296.7 2620.48  18
   1  -8  -4 47197.9 2610.02  20
   1  -8  -3 67373.7 3092.00  20
   1  -8  -3 59673.7 3355.29   2
   1  -8  -3 64379.1 3021.49  19
   1  -8  -3 66945.7 3752.36  11
   1  -8  -3 64537.5 3032.81  18
   1  -8  -3 63732.2 3026.98  17
   1  -8  -2 30214.7 2437.07  11
   1  -8  -2 29832.5 1954.74  18
   1  -8  -2 26423.0 1852.53  20
   1  -8  -2 27400.2 2175.18   2
   1  -8  -2 26530.1 1857.02  17
   1  -8  -2 27461.2 1898.61  19
   1  -8  -1 13291.2 1471.70   2
   1  -8  -1 14812.1 1419.99  18
   1  -8  -1 14873.0 1359.12  19
   1  -8  -1 16478.0 1766.10  11
   1  -8  -1 16479.0 1436.26  17
   1  -8   0 100399. 3840.01  18
   1  -8   0 119308. 4087.89   3
   1  -8   0 104735. 3925.83  19
   1  -8   0 114363. 4671.12  11
   1  -8   0 104482. 4094.39   2
   1  -8   0 104938. 3917.22  17
   1  -8   1 69996.8 2945.42   9
   1  -8   1 70356.7 3505.42  11
   1  -8   1 65899.2 2992.48   2
   1  -8   1 66236.4 3140.55   3
   1  -8   1 68749.0 3015.16  19
   1  -8   1 63968.7 2950.84  18
   1  -8   1 66864.4 2996.94  17
   1  -8   2 6820.95 1119.13   3
   1  -8   2 5463.43 851.792   9
   1  -8   2 5965.67 923.362   2
   1  -8   2 5536.08 909.896  19
   1  -8   2 5433.10 1002.07  11
   1  -8   2 4177.88 803.420  18
   1  -8   2 6401.63 914.325  17
   1  -8   3 27034.1 1715.71   9
   1  -8   3 29333.4 1928.45  18
   1  -8   3 29395.8 1755.05   2
   1  -8   3 29328.3 2215.25   3
   1  -8   3 26706.9 1890.80  19
   1  -8   3 28823.2 2059.11  11
   1  -8   3 27249.8 1852.38  17
   1  -8   4 44154.1 2186.39   9
   1  -8   4 39089.1 2312.86  18
   1  -8   4 41676.2 1990.01   2
   1  -8   4 40708.6 2806.40   3
   1  -8   4 39918.8 2320.88  19
   1  -8   4 41836.9 2378.22  11
   1  -8   4 38907.3 2322.09  17
   1  -8   5 95866.7 3464.40   9
   1  -8   5 97545.0 3163.40   2
   1  -8   5 90266.7 4381.72   3
   1  -8   5 85899.7 3748.09  19
   1  -8   5 96208.2 3888.59  18
   1  -8   5 97214.9 3581.49  11
   1  -8   6 83719.6 3210.53   9
   1  -8   6 78487.8 4193.62   3
   1  -8   6 78418.3 3592.37  18
   1  -8   6 81253.0 3610.39  19
   1  -8   7 12666.3 1233.25   9
   1  -8   7 8267.06 1426.11   3
   1  -8   7 10800.0 1343.09  19
   1  -8   7 10122.3 1335.06  18
   1  -8   8 10474.7 1684.88   3
   1  -8   8 7763.24 1009.94   9
   1  -8   8 8459.14 1205.12  19
   1  -8   8 9189.31 1308.62  18
   1  -8   9 31248.5 2096.29   9
   1  -8   9 30153.7 2834.26   3
   1  -8   9 31126.4 2437.76  19
   1  -8   9 33060.2 2513.82  18
   1  -8  10 59453.9 4021.54   3
   1  -8  10 59093.3 3479.98  19
   1  -8  10 53739.3 3402.47  18
   1  -8  11 9344.51 1761.95   3
   1  -8  11 7429.45 1338.59  19
   1  -8  12-1360.38 506.441   8
   1  -7  -9 7494.29 1324.59  11
   1  -7  -8 14966.8 1493.16  18
   1  -7  -8 9614.02 1539.61   2
   1  -7  -8 12983.8 1382.00  20
   1  -7  -8 11605.1 1324.08  19
   1  -7  -8 16365.3 1828.42  11
   1  -7  -8 13430.2 1399.58  17
   1  -7  -7 17489.1 1638.15  20
   1  -7  -7 17606.0 1580.13  18
   1  -7  -7 19824.1 1696.88  10
   1  -7  -7 17636.7 1878.40   2
   1  -7  -7 16704.9 1586.29  19
   1  -7  -7 18940.7 2011.48  11
   1  -7  -7 17304.0 1612.70  17
   1  -7  -6 18465.1 1642.24  19
   1  -7  -6 19234.8 1548.71  10
   1  -7  -6 20150.1 2001.58   2
   1  -7  -6 18597.6 1962.03  11
   1  -7  -6 20523.1 1639.77  18
   1  -7  -6 21269.9 1699.80  17
   1  -7  -6 22716.3 1745.94  20
   1  -7  -5 13584.9 1329.72  18
   1  -7  -5 15086.0 1426.42  20
   1  -7  -5 12287.9 1498.47   2
   1  -7  -5 13637.1 1332.45  19
   1  -7  -5 14446.6 1744.38  11
   1  -7  -5 17337.5 1367.14  10
   1  -7  -5 13252.3 1315.52  17
   1  -7  -4 50921.2 2556.26  18
   1  -7  -4 51320.0 2943.94   2
   1  -7  -4 48827.0 2516.61  19
   1  -7  -4 49746.4 3184.81  11
   1  -7  -4 49041.5 2515.98  17
   1  -7  -4 51213.9 2568.98  20
   1  -7  -3 125645. 5029.35  11
   1  -7  -3 118674. 4140.87  20
   1  -7  -3 120166. 4612.22   2
   1  -7  -3 117623. 4126.65  19
   1  -7  -3 118276. 4117.41  17
   1  -7  -3 118676. 4130.28  18
   1  -7  -2 40273.2 2419.92   2
   1  -7  -2 42235.0 2182.13  18
   1  -7  -2 42813.9 2744.34  11
   1  -7  -2 41993.5 2190.00  17
   1  -7  -2 40360.9 2179.15  19
   1  -7  -2 37673.4 2082.97  20
   1  -7  -1 13539.2 1202.73  20
   1  -7  -1 13202.9 1134.06   3
   1  -7  -1 12114.8 1327.58   2
   1  -7  -1 12190.6 1167.25  19
   1  -7  -1 9951.31 1080.10  18
   1  -7  -1 13291.5 1524.22  11
   1  -7  -1 12293.4 1177.12  17
   1  -7   0 92370.2 3344.89   9
   1  -7   0 88784.7 3958.86  11
   1  -7   0 94641.1 3567.36   2
   1  -7   0 102382. 3598.71   3
   1  -7   0 85355.0 3303.95  18
   1  -7   0 90904.6 3383.79  17
   1  -7   0 89965.6 3347.30  19
   1  -7   1 159553. 4599.89   9
   1  -7   1 158215. 4774.76   2
   1  -7   1 165681. 5143.65   3
   1  -7   1 145583. 4627.36  19
   1  -7   1 147921. 4648.82  18
   1  -7   1 151866. 5276.35  11
   1  -7   1 148385. 4660.84  17
   1  -7   2 18148.8 1327.82   9
   1  -7   2 18772.3 1370.22   2
   1  -7   2 20095.0 1687.55  11
   1  -7   2 18313.9 1438.27  19
   1  -7   2 19641.4 1482.07  18
   1  -7   2 20728.7 1795.12   3
   1  -7   2 20520.6 1497.96  17
   1  -7   3 2465.84 989.789   3
   1  -7   3 1813.25 569.230  17
   1  -7   3 1177.03 486.980   2
   1  -7   3 1235.35 492.586   9
   1  -7   3 2332.65 623.635  19
   1  -7   3 2124.71 695.718  11
   1  -7   3 1486.86 554.960  18
   1  -7   4 58584.9 2370.95   9
   1  -7   4 55580.3 2608.98  19
   1  -7   4 58342.9 2644.74  11
   1  -7   4 56555.4 2191.71   2
   1  -7   4 51827.5 3082.05   3
   1  -7   4 60231.4 2697.36  18
   1  -7   4 55735.6 2632.25  17
   1  -7   5 79018.9 2912.40   9
   1  -7   5 83669.9 2629.64   2
   1  -7   5 77440.0 3285.35  19
   1  -7   5 80252.4 3315.32  18
   1  -7   5 83881.3 3065.80  11
   1  -7   5 75245.8 3827.74   3
   1  -7   6 36292.3 1909.47   9
   1  -7   6 41671.9 1855.71  11
   1  -7   6 34866.6 2743.28   3
   1  -7   6 34434.2 2182.27  19
   1  -7   6 35503.0 2202.78  18
   1  -7   7 9703.96 1043.00   9
   1  -7   7 10665.2 1577.66   3
   1  -7   7 13533.3 1391.39  19
   1  -7   7 11219.9 1364.03  18
   1  -7   8 22240.9 1602.66   9
   1  -7   8 23217.4 2289.32   3
   1  -7   8 21228.4 1830.20  19
   1  -7   8 26299.4 1987.27  18
   1  -7   9 56674.7 2697.31   9
   1  -7   9 53195.8 3472.79   3
   1  -7   9 50808.0 3015.41  19
   1  -7   9 52717.9 3064.21  18
   1  -7  10 48272.2 3059.32  19
   1  -7  10 56286.3 3752.44   3
   1  -7  10 51880.1 3196.43  18
   1  -7  11 22367.5 2143.54  19
   1  -7  11 22610.7 2519.75   3
   1  -7  12 525.717 751.056   3
   1  -7  12 1221.71 564.038   8
   1  -6 -10 6657.48 1304.79   2
   1  -6  -9 12901.4 1476.81  15
   1  -6  -9 12476.8 1622.05   2
   1  -6  -9 13294.3 1424.12  20
   1  -6  -9 11660.7 1334.99  19
   1  -6  -9 12836.1 1435.72  18
   1  -6  -9 12016.1 1613.36  11
   1  -6  -9 15099.8 1590.31  10
   1  -6  -9 11082.6 1267.26  17
   1  -6  -8 38963.1 2503.57  15
   1  -6  -8 40959.9 2524.80  18
   1  -6  -8 40860.7 2940.69   2
   1  -6  -8 41339.3 2550.18  19
   1  -6  -8 44815.7 2945.88  11
   1  -6  -8 41290.8 2498.71  10
   1  -6  -8 40263.0 2552.78  17
   1  -6  -8 46035.3 2668.56  20
   1  -6  -7 26617.3 1985.46  15
   1  -6  -7 27164.3 1978.02  18
   1  -6  -7 28210.0 2003.46  20
   1  -6  -7 31401.1 2378.93   2
   1  -6  -7 24849.9 1884.37  19
   1  -6  -7 30443.0 2291.60  11
   1  -6  -7 27588.3 1913.82  10
   1  -6  -7 27548.9 1979.91  17
   1  -6  -6 24331.2 1771.10  18
   1  -6  -6 23026.5 2026.97   2
   1  -6  -6 24399.6 1780.84  19
   1  -6  -6 28559.9 2253.88  11
   1  -6  -6 23794.4 1691.81  10
   1  -6  -6 25530.5 1835.96  17
   1  -6  -6 22384.1 1763.63  20
   1  -6  -5 23135.6 1969.79   2
   1  -6  -5 23957.4 1675.98  19
   1  -6  -5 26161.3 2138.94  11
   1  -6  -5 20195.4 1596.80  18
   1  -6  -5 23203.6 1671.50  17
   1  -6  -5 25140.5 1717.38  20
   1  -6  -5 25333.0 1574.55  10
   1  -6  -4 17192.7 1394.39  20
   1  -6  -4 12655.3 1416.39   2
   1  -6  -4 13826.1 1253.38  19
   1  -6  -4 14506.2 1269.55  18
   1  -6  -4 14711.5 1145.74  10
   1  -6  -4 16179.1 1337.80  17
   1  -6  -4 19753.3 1870.89  11
   1  -6  -3 84154.8 3155.16  20
   1  -6  -3 83449.8 3814.85  11
   1  -6  -3 78744.8 3489.15   2
   1  -6  -3 85306.6 3179.54  19
   1  -6  -3 78753.2 3082.72  18
   1  -6  -3 93009.6 3258.92  17
   1  -6  -2 79959.3 3001.50  19
   1  -6  -2 83502.3 3037.04  20
   1  -6  -2 83361.6 3365.48   2
   1  -6  -2 78980.4 2989.18  18
   1  -6  -2 84013.5 3688.01  11
   1  -6  -2 74907.4 2927.91  17
   1  -6  -2 85935.3 2687.75   3
   1  -6  -1 28488.5 2106.72  11
   1  -6  -1 33566.3 1762.88  20
   1  -6  -1 37594.5 1809.52   3
   1  -6  -1 33447.0 1970.84   2
   1  -6  -1 30747.4 1728.36  19
   1  -6  -1 33416.7 1779.52  18
   1  -6  -1 34446.9 1792.92  17
   1  -6   0 87367.4 3090.62  19
   1  -6   0 87739.4 3021.96   9
   1  -6   0 87748.0 3219.48   2
   1  -6   0 95288.3 3342.61   3
   1  -6   0 84356.3 3048.11  18
   1  -6   0 91325.6 3669.11  11
   1  -6   0 91124.1 3138.78  17
   1  -6   0 89086.0 3110.91  20
   1  -6   1 126666. 3711.65   9
   1  -6   1 130234. 3935.62  17
   1  -6   1 134144. 3960.72   2
   1  -6   1 121146. 4200.52   3
   1  -6   1 121744. 3855.61  19
   1  -6   1 112332. 4205.77  11
   1  -6   1 129052. 3918.59  18
   1  -6   2 66313.7 2386.47   9
   1  -6   2 67928.7 2463.76   2
   1  -6   2 70273.5 3109.23   3
   1  -6   2 65393.3 2598.07  19
   1  -6   2 65482.2 2598.15  18
   1  -6   2 64123.7 2840.40  11
   1  -6   2 62938.8 2560.61  17
   1  -6   3 1958.94 224.786  16
   1  -6   3 2381.82 851.844   3
   1  -6   3 2131.15 453.705   9
   1  -6   3 2633.04 497.247   2
   1  -6   3 2236.50 603.621  19
   1  -6   3 2466.03 646.809  11
   1  -6   3 2190.86 543.661  18
   1  -6   3 1482.09 526.171  17
   1  -6   4 8650.43 839.774   9
   1  -6   4 9279.92 1376.30   3
   1  -6   4 8219.37 694.452   2
   1  -6   4 7053.26 922.541  19
   1  -6   4 8117.64 957.402  18
   1  -6   4 10570.8 1069.31  11
   1  -6   4 7288.95 914.524  17
   1  -6   5 200009. 5372.44   9
   1  -6   5 204604. 6710.52   3
   1  -6   5 209528. 5946.72  19
   1  -6   5 199988. 5880.52  18
   1  -6   5 214594. 5499.29  11
   1  -6   6 65642.2 2486.39   9
   1  -6   6 58824.0 3372.80   3
   1  -6   6 61846.0 2855.73  19
   1  -6   6 61977.7 2862.24  18
   1  -6   6 70360.6 2238.42  11
   1  -6   7 18870.1 1332.42   9
   1  -6   7 16058.9 1891.98   3
   1  -6   7 18347.5 1554.83  19
   1  -6   7 18727.6 1565.05  18
   1  -6   8 46986.8 2252.37   9
   1  -6   8 50135.5 3193.25   3
   1  -6   8 44608.2 2609.58  19
   1  -6   8 45904.3 2653.61  18
   1  -6   9 78325.7 3156.83   9
   1  -6   9 77714.5 4144.73   3
   1  -6   9 72007.5 3505.99  19
   1  -6   9 75541.0 3594.61  18
   1  -6  10 74143.6 3240.06   9
   1  -6  10 71355.6 4051.15   3
   1  -6  10 72784.6 3668.52  19
   1  -6  11 13427.6 1873.07   3
   1  -6  11 14430.6 1731.77   8
   1  -6  11 14544.5 1700.87  19
   1  -6  12 3925.05 1144.17   3
   1  -6  12 4971.05 951.502   8
   1  -6  12 3332.78 799.294  19
   1  -5 -11 38406.8 2852.07   2
   1  -5 -11 35572.6 2762.65  10
   1  -5 -10 9476.61 1269.51  15
   1  -5 -10 10529.5 1384.16   2
   1  -5 -10 10295.3 1592.40   4
   1  -5 -10 8336.14 1227.69  20
   1  -5 -10 8085.86 1133.23  19
   1  -5 -10 5777.68 1036.92  18
   1  -5 -10 8344.53 1297.87  10
   1  -5 -10 9932.92 1217.03  17
   1  -5  -9 13085.9 1450.41  15
   1  -5  -9 14260.3 1528.78   4
   1  -5  -9 15091.8 1475.72  20
   1  -5  -9 18729.1 1760.42   2
   1  -5  -9 12319.9 1450.89  19
   1  -5  -9 12668.9 1465.23  11
   1  -5  -9 14684.6 1502.40  18
   1  -5  -9 13260.7 1555.30  10
   1  -5  -9 15368.1 1498.01  17
   1  -5  -8 40206.0 2448.52  15
   1  -5  -8 37924.9 2521.64   4
   1  -5  -8 36240.6 2321.14  20
   1  -5  -8 37042.6 2612.76   2
   1  -5  -8 41531.2 2657.03  11
   1  -5  -8 35851.0 2306.96  18
   1  -5  -8 40144.0 2449.08  19
   1  -5  -8 43232.2 2498.20  10
   1  -5  -8 42831.3 2453.44  17
   1  -5  -7 31512.8 2098.21  15
   1  -5  -7 34745.8 2219.03   4
   1  -5  -7 32265.7 2083.24  20
   1  -5  -7 38532.8 2549.53   2
   1  -5  -7 37822.8 2246.67  19
   1  -5  -7 40071.4 2572.42  11
   1  -5  -7 33873.8 2129.53  18
   1  -5  -7 38331.1 2166.81  10
   1  -5  -7 34869.7 2145.45  17
   1  -5  -6 11291.7 1183.95  15
   1  -5  -6 14479.2 1548.61  11
   1  -5  -6 10138.9 1159.74  20
   1  -5  -6 11546.2 1333.91   2
   1  -5  -6 10518.2 1160.90  19
   1  -5  -6 12076.1 1219.73  18
   1  -5  -6 9558.46 1072.84  10
   1  -5  -6 11629.2 1164.85  17
   1  -5  -5 5213.43 775.791  15
   1  -5  -5 7881.51 1163.23   2
   1  -5  -5 6019.30 839.719  20
   1  -5  -5 6074.40 799.976  19
   1  -5  -5 6282.50 1080.56  11
   1  -5  -5 4792.71 785.822  18
   1  -5  -5 7424.14 820.875  10
   1  -5  -5 6869.72 872.477  17
   1  -5  -4 40627.0 2059.21  19
   1  -5  -4 43062.2 2390.75   2
   1  -5  -4 44150.5 2112.32  20
   1  -5  -4 40238.9 2497.81  11
   1  -5  -4 41709.0 1843.01  10
   1  -5  -4 43788.7 2094.23  17
   1  -5  -4 42773.0 2098.51  18
   1  -5  -3 66938.3 3135.59  11
   1  -5  -3 67004.6 2635.40  20
   1  -5  -3 74420.5 2022.00   3
   1  -5  -3 67314.7 2622.14  19
   1  -5  -3 66578.0 2924.72   2
   1  -5  -3 64625.7 2257.50  10
   1  -5  -3 68467.8 2629.17  17
   1  -5  -3 67242.9 2628.06  18
   1  -5  -2 89584.1 3035.66  20
   1  -5  -2 93619.4 2758.59   3
   1  -5  -2 93036.9 3380.86   2
   1  -5  -2 92831.5 3076.22  19
   1  -5  -2 89769.1 3052.58  18
   1  -5  -2 95232.4 3720.32  11
   1  -5  -2 89449.4 3031.22  17
   1  -5  -1 93082.5 3011.59  19
   1  -5  -1 92786.5 2964.22   3
   1  -5  -1 86228.9 3160.88   2
   1  -5  -1 91493.2 2973.92  18
   1  -5  -1 92567.5 3564.70  11
   1  -5  -1 92344.2 2993.63  17
   1  -5  -1 89064.1 2966.22  20
   1  -5   0 54506.8 2023.68   9
   1  -5   0 53041.4 2082.71  20
   1  -5   0 53998.7 2255.47   3
   1  -5   0 51032.9 2158.13   2
   1  -5   0 48190.9 2018.63  19
   1  -5   0 52111.0 2063.92  18
   1  -5   0 50157.7 2037.12  17
   1  -5   0 47403.4 2391.81  11
   1  -5   1 112659. 3180.61   9
   1  -5   1 112860. 3356.64   2
   1  -5   1 110091. 3711.66   3
   1  -5   1 111084. 3370.42  19
   1  -5   1 111632. 3383.59  18
   1  -5   1 107610. 3707.15  11
   1  -5   1 111477. 3386.97  17
   1  -5   2 140717. 2988.96  16
   1  -5   2 142977. 3737.64   2
   1  -5   2 136035. 3626.59   9
   1  -5   2 129644. 4327.72   3
   1  -5   2 135032. 3915.61  19
   1  -5   2 133058. 3903.24  18
   1  -5   2 136919. 3932.90  17
   1  -5   2 131758. 4135.86  11
   1  -5   3 36394.1 1496.09   9
   1  -5   3 35020.0 1407.06   2
   1  -5   3 30223.9 2005.74   3
   1  -5   3 36417.4 1730.45  19
   1  -5   3 34839.8 1708.02  18
   1  -5   3 33218.4 1703.31  11
   1  -5   3 36180.3 1739.45  17
   1  -5   4 22814.7 1200.39   9
   1  -5   4 25268.9 1046.74   2
   1  -5   4 22889.4 1817.96   3
   1  -5   4 24830.5 1462.72  19
   1  -5   4 25709.8 1490.07  18
   1  -5   4 23427.9 1371.73  11
   1  -5   4 23613.7 1446.91  17
   1  -5   5 170090. 4460.26   9
   1  -5   5 180047. 3910.00   2
   1  -5   5 164689. 5613.44   3
   1  -5   5 167112. 4910.90  19
   1  -5   5 169781. 4939.26  18
   1  -5   5 176229. 4424.09  11
   1  -5   6 155776. 4340.75   9
   1  -5   6 150794. 5514.81   3
   1  -5   6 153989. 4815.23  19
   1  -5   6 155794. 4825.94  18
   1  -5   7 13097.9 1067.20   9
   1  -5   7 14726.2 1786.20   3
   1  -5   7 12620.7 1241.01  19
   1  -5   7 14373.7 1311.72  18
   1  -5   8 20985.0 1434.99   9
   1  -5   8 21898.6 2039.24   3
   1  -5   8 17988.1 1549.77  19
   1  -5   8 19188.4 1594.75  18
   1  -5   9 84185.3 3234.94   9
   1  -5   9 77775.3 4056.20   3
   1  -5   9 84239.3 3659.60  19
   1  -5   9 81262.5 3602.32  18
   1  -5  10 97600.6 3707.40   9
   1  -5  10 85568.5 4384.58   3
   1  -5  10 91816.6 4052.67  19
   1  -5  11 19610.8 1664.79   9
   1  -5  11 16598.7 1872.16   8
   1  -5  11 19362.8 2142.28   3
   1  -5  11 17053.1 1806.73  19
   1  -5  12 227.011 665.465   8
   1  -5  12 718.966 452.105  19
   1  -5  13 12409.8 1698.46  19
   1  -4 -11 43786.1 2776.35  15
   1  -4 -11 42336.0 2977.29   4
   1  -4 -11 45753.9 2834.70  18
   1  -4 -11 43856.8 2868.62  20
   1  -4 -11 43949.1 2910.09   2
   1  -4 -11 46483.3 2866.00  19
   1  -4 -11 42201.7 2893.94  10
   1  -4 -11 41438.6 2727.15  17
   1  -4 -10 10932.1 1249.53  15
   1  -4 -10 8179.68 1102.24  20
   1  -4 -10 11109.8 1443.07   2
   1  -4 -10 9361.20 1404.36   4
   1  -4 -10 9605.39 1250.97  17
   1  -4 -10 9990.43 1207.42  19
   1  -4 -10 8782.49 1214.55  18
   1  -4 -10 9836.48 1340.95  10
   1  -4  -9 4119.44 814.113  15
   1  -4  -9 3637.25 866.282   2
   1  -4  -9 3750.78 859.658   4
   1  -4  -9 4571.24 800.101  20
   1  -4  -9 4757.16 777.139  19
   1  -4  -9 4516.87 806.278  11
   1  -4  -9 4402.74 761.695  18
   1  -4  -9 3308.20 686.663  17
   1  -4  -9 3932.76 789.502  10
   1  -4  -8 25443.7 1891.70  15
   1  -4  -8 34555.7 2360.21   2
   1  -4  -8 31660.1 2147.34   4
   1  -4  -8 28340.7 1974.76  19
   1  -4  -8 31371.3 2125.66  11
   1  -4  -8 27871.9 1958.37  18
   1  -4  -8 29049.8 1963.53  10
   1  -4  -8 30517.7 2022.76  20
   1  -4  -8 29427.7 1978.81  17
   1  -4  -7 63584.3 2917.19  15
   1  -4  -7 67187.5 3012.38   4
   1  -4  -7 66331.4 2939.32  20
   1  -4  -7 68149.1 2997.32  19
   1  -4  -7 67052.6 3247.00   2
   1  -4  -7 70357.3 3286.69  11
   1  -4  -7 67476.4 2959.51  18
   1  -4  -7 67792.1 2896.81  10
   1  -4  -7 61723.8 2864.68  17
   1  -4  -6 45583.6 2301.13  15
   1  -4  -6 49818.9 2387.80   4
   1  -4  -6 46798.0 2294.69  20
   1  -4  -6 47484.5 2326.10  19
   1  -4  -6 46186.6 2578.48   2
   1  -4  -6 48707.0 2649.17  11
   1  -4  -6 49503.2 2367.68  18
   1  -4  -6 46067.8 2196.71  10
   1  -4  -6 45330.7 2248.96  17
   1  -4  -5 3516.86 650.394  18
   1  -4  -5 4185.74 683.679  15
   1  -4  -5 4064.75 855.852   2
   1  -4  -5 4254.79 740.055   4
   1  -4  -5 3976.92 709.574  20
   1  -4  -5 3968.96 686.328  19
   1  -4  -5 4844.43 952.833  11
   1  -4  -5 4009.36 629.741  10
   1  -4  -5 3169.67 622.969  17
   1  -4  -4 48185.2 2121.61  18
   1  -4  -4 50341.0 2146.33  15
   1  -4  -4 48138.7 2115.25  19
   1  -4  -4 49039.4 2410.45   2
   1  -4  -4 51444.5 2565.66  11
   1  -4  -4 49862.4 2120.78  20
   1  -4  -4 45797.7 1875.30  10
   1  -4  -4 48689.7 2101.66  17
   1  -4  -3 120747. 3653.89  15
   1  -4  -3 121277. 3646.71  19
   1  -4  -3 112270. 3911.32   2
   1  -4  -3 121994. 4194.94  11
   1  -4  -3 120074. 3638.96  17
   1  -4  -3 122029. 3299.26  10
   1  -4  -3 123842. 3664.87  20
   1  -4  -3 117582. 3607.81  18
   1  -4  -2 40109.5 1775.24  19
   1  -4  -2 44322.9 1831.24  20
   1  -4  -2 46789.7 1612.57   3
   1  -4  -2 43967.3 2043.34   2
   1  -4  -2 42167.1 1791.79  18
   1  -4  -2 44671.3 2240.09  11
   1  -4  -2 44489.5 1508.21  10
   1  -4  -2 43047.2 1788.22  17
   1  -4  -1 172555. 4380.06  20
   1  -4  -1 161757. 4326.15  19
   1  -4  -1 171866. 4637.46   2
   1  -4  -1 167607. 4359.52  18
   1  -4  -1 169380. 4358.75  17
   1  -4  -1 169942. 4290.45   3
   1  -4   0 225915. 5150.93   9
   1  -4   0 212887. 5257.02  20
   1  -4   0 217763. 5266.54  19
   1  -4   0 216092. 5417.43   3
   1  -4   0 216402. 5390.72   2
   1  -4   0 219578. 5286.99  18
   1  -4   0 215630. 5276.19  17
   1  -4   1 225708. 4427.14  16
   1  -4   1 211080. 4988.70   9
   1  -4   1 226044. 5242.16   2
   1  -4   1 212705. 5257.49  19
   1  -4   1 205457. 5528.93   3
   1  -4   1 211674. 5262.83  17
   1  -4   1 214143. 5267.76  18
   1  -4   2 316324. 6845.80   9
   1  -4   2 324447. 6904.94   2
   1  -4   2 314360. 7210.56  19
   1  -4   2 309315. 7190.08  18
   1  -4   2 318111. 7224.31  17
   1  -4   2 327882. 6515.88  16
   1  -4   3 55007.4 1753.58   9
   1  -4   3 55115.9 2467.45   3
   1  -4   3 52362.4 1608.95   2
   1  -4   3 56363.1 2056.20  19
   1  -4   3 53342.1 2027.23  18
   1  -4   3 53914.5 2031.85  17
   1  -4   4 57616.9 1944.99  11
   1  -4   4 57525.9 1868.47   9
   1  -4   4 59347.2 1524.23   2
   1  -4   4 53622.7 2139.92  19
   1  -4   4 52426.6 2131.93  17
   1  -4   4 55108.3 2612.52   3
   1  -4   4 55482.8 2170.29  18
   1  -4   5 73312.3 2315.06   9
   1  -4   5 70964.0 2650.30  19
   1  -4   5 71867.2 3182.51   3
   1  -4   5 69464.8 2631.18  18
   1  -4   5 75581.4 2127.58  11
   1  -4   6 72176.0 2454.04   9
   1  -4   6 73849.4 1792.82  11
   1  -4   6 74171.4 2816.64  19
   1  -4   6 75654.4 1727.71  11
   1  -4   6 70446.8 2767.19  18
   1  -4   6 65555.0 3192.96   3
   1  -4   7 36907.0 2007.74  19
   1  -4   7 33882.7 2405.49   3
   1  -4   7 35323.0 1984.95  18
   1  -4   7 33679.2 1671.52   9
   1  -4   8 4544.82 1092.44   3
   1  -4   8 5360.19 757.808   9
   1  -4   8 5005.16 841.041  19
   1  -4   8 4602.64 822.009  18
   1  -4   9 69630.4 3568.15   3
   1  -4   9 65634.3 3140.80  19
   1  -4   9 73656.2 2953.88   9
   1  -4  10 99604.9 4416.64   8
   1  -4  10 106754. 4661.78   3
   1  -4  10 107563. 4316.44  19
   1  -4  10 108542. 3937.85   9
   1  -4  11 14541.3 1750.78   3
   1  -4  11 16036.3 1791.39   8
   1  -4  11 14604.9 1555.98  19
   1  -4  11 12840.1 1350.70   9
   1  -4  12 2853.92 1074.81   3
   1  -4  12 1024.18 786.666   8
   1  -4  12 3081.13 955.375  19
   1  -4  13 7838.72 1525.62  19
   1  -3 -12 18084.8 2115.82   4
   1  -3 -12 19408.9 1799.54  19
   1  -3 -12 16612.0 1731.44  18
   1  -3 -12 16770.6 1934.13  10
   1  -3 -11 25957.5 2081.67  15
   1  -3 -11 31368.4 2569.64   4
   1  -3 -11 34066.6 2374.92  20
   1  -3 -11 28268.4 2186.64   2
   1  -3 -11 26184.5 2166.25  19
   1  -3 -11 30710.8 2290.23  18
   1  -3 -11 32761.2 2431.07  10
   1  -3 -11 25952.6 2123.59  17
   1  -3 -10 19059.7 1737.31  15
   1  -3 -10 19876.9 1878.28   4
   1  -3 -10 19537.2 1691.66  20
   1  -3 -10 18277.6 1733.36   2
   1  -3 -10 19103.4 1680.14  19
   1  -3 -10 16045.1 1588.95  18
   1  -3 -10 18001.8 1744.06  10
   1  -3 -10 21321.0 1772.03  17
   1  -3  -9 10297.2 1167.11  15
   1  -3  -9 12885.4 1408.40   4
   1  -3  -9 10812.3 1286.18   2
   1  -3  -9 8455.37 1122.78  20
   1  -3  -9 11091.1 1173.78  11
   1  -3  -9 8457.29 1142.56  18
   1  -3  -9 8758.21 1149.07  17
   1  -3  -9 10505.0 1292.86  10
   1  -3  -8 31272.5 2072.59  15
   1  -3  -8 35015.7 2187.52   4
   1  -3  -8 32591.2 2060.83  20
   1  -3  -8 35239.1 2262.53   2
   1  -3  -8 39611.9 2235.09  11
   1  -3  -8 32917.5 2083.78  18
   1  -3  -8 34333.8 2137.79  10
   1  -3  -8 34159.9 2113.25  17
   1  -3  -7 160720. 4974.98  15
   1  -3  -7 159362. 4945.69   4
   1  -3  -7 157828. 4919.17  20
   1  -3  -7 161249. 5248.07   2
   1  -3  -7 155293. 4901.17  18
   1  -3  -7 159230. 4880.75  10
   1  -3  -7 149594. 4833.77  17
   1  -3  -6 81090.1 3087.46  15
   1  -3  -6 86476.1 3135.76  20
   1  -3  -6 83801.3 3085.85   4
   1  -3  -6 87938.6 3406.42  11
   1  -3  -6 81283.9 3317.55   2
   1  -3  -6 81293.0 3086.36  18
   1  -3  -6 80610.3 3072.35  19
   1  -3  -6 86321.6 3043.02  10
   1  -3  -6 80383.4 3060.32  17
   1  -3  -5 9614.70 944.518  15
   1  -3  -5 9080.42 914.659   4
   1  -3  -5 9507.63 948.096  20
   1  -3  -5 8671.27 895.820  19
   1  -3  -5 10007.3 949.901  18
   1  -3  -5 8302.91 996.123  11
   1  -3  -5 9238.92 1084.47   2
   1  -3  -5 8635.41 840.232  10
   1  -3  -5 8883.91 919.040  17
   1  -3  -4 30531.3 1574.20  15
   1  -3  -4 32147.2 1504.39   4
   1  -3  -4 31349.5 1590.16  20
   1  -3  -4 33899.8 1623.68  19
   1  -3  -4 30708.0 1771.85   2
   1  -3  -4 36261.3 1927.80  11
   1  -3  -4 30335.9 1552.26  18
   1  -3  -4 31830.3 1664.01   5
   1  -3  -4 34523.1 1471.18  10
   1  -3  -4 32111.5 1562.04  17
   1  -3  -3 128960. 3635.96  15
   1  -3  -3 128904. 3448.70   4
   1  -3  -3 128464. 3620.48  20
   1  -3  -3 134474. 2924.63   3
   1  -3  -3 126943. 3615.66  19
   1  -3  -3 134718. 3653.13  18
   1  -3  -3 129176. 3784.18   5
   1  -3  -3 126977. 3904.76   2
   1  -3  -3 129060. 3308.10  10
   1  -3  -3 131107. 3622.86  17
   1  -3  -2 197264. 4909.21  15
   1  -3  -2 205873. 4932.46  18
   1  -3  -2 198794. 4909.14  20
   1  -3  -2 203540. 4922.14  19
   1  -3  -2 205259. 4503.59   3
   1  -3  -2 199498. 4904.61  17
   1  -3  -2 208169. 4486.45  10
   1  -3  -2 194345. 5157.74   2
   1  -3  -1 193076. 4601.80  20
   1  -3  -1 194970. 4605.02  19
   1  -3  -1 185052. 4432.04   3
   1  -3  -1 192559. 4601.17  18
   1  -3  -1 187639. 4783.62   2
   1  -3  -1 192722. 4595.21  17
   1  -3   0 273471. 5259.79  16
   1  -3   0 255645. 5873.08  18
   1  -3   0 255647. 5676.23   9
   1  -3   0 253607. 5865.87  20
   1  -3   0 262125. 5885.57  19
   1  -3   0 251861. 5954.88   3
   1  -3   0 259578. 5973.17   2
   1  -3   0 263101. 5898.53  17
   1  -3   1 317070. 6105.25  16
   1  -3   1 301575. 6330.67   9
   1  -3   1 297638. 6637.74  20
   1  -3   1 302294. 6652.96  19
   1  -3   1 292939. 6534.81   2
   1  -3   1 283562. 6875.45   3
   1  -3   1 302176. 6649.72  18
   1  -3   1 300091. 6649.49  17
   1  -3   2 181989. 4001.54   9
   1  -3   2 189224. 4034.70   2
   1  -3   2 179858. 4359.64  19
   1  -3   2 179854. 4759.44   3
   1  -3   2 174613. 4344.65  18
   1  -3   2 175411. 4354.67  17
   1  -3   2 181193. 3996.41  16
   1  -3   3 64159.8 1793.22   9
   1  -3   3 67915.8 1588.82   2
   1  -3   3 60458.5 2072.50  17
   1  -3   3 67682.4 2148.59  18
   1  -3   3 61386.2 2446.17   3
   1  -3   3 60391.1 2074.44  19
   1  -3   4 19761.1 912.766   9
   1  -3   4 16743.8 1053.16  19
   1  -3   4 16971.5 1324.76   3
   1  -3   4 15826.9 1018.10  18
   1  -3   5 70074.7 2456.74  19
   1  -3   5 65752.9 2808.24   3
   1  -3   5 70813.8 1662.66  11
   1  -3   5 69110.7 2446.82  18
   1  -3   5 65784.5 2120.93   9
   1  -3   6 87369.6 2962.59  19
   1  -3   6 80231.9 3320.50   3
   1  -3   6 87413.6 2973.99  18
   1  -3   6 81329.4 2627.67   9
   1  -3   7 39996.2 2003.93  19
   1  -3   7 36856.6 2309.54   3
   1  -3   7 37222.3 1943.49  18
   1  -3   8 10237.7 1408.46   3
   1  -3   8 11454.3 1156.43  19
   1  -3   9 34667.8 2407.48   8
   1  -3   9 39331.1 2311.46  19
   1  -3  10 98037.2 4359.01   8
   1  -3  10 100218. 4075.19  19
   1  -3  10 97621.4 4293.46   3
   1  -3  11 24016.2 2163.50   8
   1  -3  11 24127.6 2009.98  19
   1  -3  12 5875.56 1068.41   8
   1  -3  12 6212.73 1091.55  19
   1  -2 -12 22956.7 1969.53  15
   1  -2 -12 24484.4 2296.31   4
   1  -2 -12 25280.6 2142.89  18
   1  -2 -12 25643.3 2282.67  10
   1  -2 -12 19768.3 1931.26  17
   1  -2 -11 51219.4 2978.11  15
   1  -2 -11 50073.5 3051.69   4
   1  -2 -11 53974.4 3044.59  20
   1  -2 -11 53914.6 2948.32   2
   1  -2 -11 53643.1 3087.50  18
   1  -2 -11 49586.7 3100.05  10
   1  -2 -11 51802.9 2988.28  17
   1  -2 -10 28149.2 2134.82  15
   1  -2 -10 29801.7 2146.51  14
   1  -2 -10 32886.3 2303.48   4
   1  -2 -10 28405.3 2158.40  20
   1  -2 -10 33725.4 2255.88   2
   1  -2 -10 31656.8 2270.71  10
   1  -2 -10 30170.2 2131.64  17
   1  -2 -10 30462.4 2175.42  18
   1  -2  -9 17941.8 1568.74  15
   1  -2  -9 16194.7 1518.22  14
   1  -2  -9 18789.4 1628.03   4
   1  -2  -9 15373.7 1464.23   2
   1  -2  -9 16460.6 1543.38  20
   1  -2  -9 19910.1 1439.62  11
   1  -2  -9 15645.6 1498.97  18
   1  -2  -9 20990.0 1720.04  10
   1  -2  -9 16915.7 1528.73  17
   1  -2  -8 35947.9 2082.02  15
   1  -2  -8 35407.3 2086.07  14
   1  -2  -8 33329.4 2060.06   4
   1  -2  -8 36235.6 1888.33   5
   1  -2  -8 34804.3 2053.76  20
   1  -2  -8 36715.9 2041.80  11
   1  -2  -8 34233.9 2094.31   2
   1  -2  -8 32388.9 2000.39  18
   1  -2  -8 36252.8 2142.41  10
   1  -2  -8 32741.9 2026.69  17
   1  -2  -7 183605. 5405.01  15
   1  -2  -7 189196. 5472.22  14
   1  -2  -7 182739. 5374.64   4
   1  -2  -7 184667. 5415.15  20
   1  -2  -7 194878. 5472.62  11
   1  -2  -7 188321. 5458.62  18
   1  -2  -7 190372. 5589.94   2
   1  -2  -7 197995. 5280.30   5
   1  -2  -7 189874. 5437.74  10
   1  -2  -7 180792. 5386.95  17
   1  -2  -6 130992. 4123.09  15
   1  -2  -6 142571. 4234.81  14
   1  -2  -6 136479. 4108.30   4
   1  -2  -6 134959. 4168.82  20
   1  -2  -6 135872. 4218.11  11
   1  -2  -6 129524. 4090.61  18
   1  -2  -6 142861. 4078.19   5
   1  -2  -6 137496. 4344.45   2
   1  -2  -6 134429. 4088.54  10
   1  -2  -6 136788. 4175.38  17
   1  -2  -5 5617.59 732.619  15
   1  -2  -5 5960.95 747.210  14
   1  -2  -5 5528.00 660.205   4
   1  -2  -5 5595.38 789.164   2
   1  -2  -5 6025.90 755.284  20
   1  -2  -5 5436.40 802.352  11
   1  -2  -5 6021.49 724.671   5
   1  -2  -5 5164.28 674.872  18
   1  -2  -5 6716.92 708.848  10
   1  -2  -5 5337.47 716.925  17
   1  -2  -4 48959.7 1981.89  15
   1  -2  -4 54950.0 1926.76   4
   1  -2  -4 51653.0 2002.06  18
   1  -2  -4 56106.3 2081.86   5
   1  -2  -4 54884.9 1917.16  10
   1  -2  -4 55048.9 2049.62  17
   1  -2  -4 53857.2 2193.62   2
   1  -2  -4 51562.1 2009.09  20
   1  -2  -3 124215. 3327.45  15
   1  -2  -3 121343. 3092.81   4
   1  -2  -3 117760. 3273.40  20
   1  -2  -3 119800. 3283.30  19
   1  -2  -3 120771. 3293.88  18
   1  -2  -3 117357. 3347.36   5
   1  -2  -3 120763. 2608.16   3
   1  -2  -3 122230. 3047.33  10
   1  -2  -3 116883. 3267.32  17
   1  -2  -3 123400. 3529.68   2
   1  -2  -2 180067. 4292.82  19
   1  -2  -2 181838. 4310.20  15
   1  -2  -2 175377. 4009.80   4
   1  -2  -2 178483. 4290.78  20
   1  -2  -2 181157. 3911.84  10
   1  -2  -2 172722. 4399.54   5
   1  -2  -2 183608. 4312.31  18
   1  -2  -2 182672. 3860.40   3
   1  -2  -2 175433. 4275.14  17
   1  -2  -2 179986. 4510.96   2
   1  -2  -1 154171. 3713.53  15
   1  -2  -1 167438. 3495.13   7
   1  -2  -1 154198. 3707.07  20
   1  -2  -1 152986. 3703.01  19
   1  -2  -1 151087. 3693.81  18
   1  -2  -1 155180. 3540.05   3
   1  -2  -1 158873. 3214.47  10
   1  -2  -1 149097. 3822.96   5
   1  -2  -1 152703. 3695.78  17
   1  -2  -1 151497. 3850.20   2
   1  -2   0 385.107 153.049  16
   1  -2   0 224.359 339.911   5
   1  -2   0 646.031 336.202   3
   1  -2   0 478.315 346.631   2
   1  -2   0 569.219 222.150   7
   1  -2   0 563.331 268.128  19
   1  -2   0 355.080 280.714  20
   1  -2   0 546.754 262.182  18
   1  -2   0 130.860 243.560  17
   1  -2   1 230159. 4702.22   9
   1  -2   1 231631. 5050.32  20
   1  -2   1 223235. 5032.66  19
   1  -2   1 227164. 5042.01  18
   1  -2   1 223264. 5265.96   3
   1  -2   1 230737. 5057.11  17
   1  -2   1 221383. 4908.91   2
   1  -2   1 236796. 4816.97  16
   1  -2   2 181495. 3799.22   9
   1  -2   2 178099. 4146.34  19
   1  -2   2 187755. 3765.90   2
   1  -2   2 174978. 4144.25  18
   1  -2   2 180901. 4495.10   3
   1  -2   2 175115. 4143.65  17
   1  -2   2 186528. 4087.74  16
   1  -2   3 149891. 3394.57   1
   1  -2   3 144512. 3579.27  19
   1  -2   3 141038. 3569.68  18
   1  -2   3 144007. 3956.62   3
   1  -2   3 147300. 3269.86   9
   1  -2   4 152632. 3945.01  19
   1  -2   4 164407. 3376.76  11
   1  -2   4 150774. 4339.10   3
   1  -2   4 149906. 3933.34  18
   1  -2   5 38301.3 1652.82  19
   1  -2   5 34935.0 1896.42   3
   1  -2   5 37380.2 1642.81  18
   1  -2   5 41174.3 1061.99  11
   1  -2   6 112524. 3429.52  19
   1  -2   6 113140. 3777.64   3
   1  -2   6 107464. 2334.97  11
   1  -2   7 59761.1 2450.36  19
   1  -2   7 57375.5 2695.44   3
   1  -2   8 5158.04 1045.28   3
   1  -2   8 3885.86 864.704   8
   1  -2   8 4310.23 731.561  19
   1  -2   9 58953.7 3073.46   8
   1  -2   9 55486.6 2699.79  19
   1  -2   9 59928.0 2997.72   3
   1  -2  10 94374.2 4295.98   8
   1  -2  10 102483. 4118.51   3
   1  -2  10 96750.8 3898.66  19
   1  -2  11 48231.2 3165.32   8
   1  -2  11 54141.9 2891.90  19
   1  -2  12 10113.5 1517.75   8
   1  -1 -13 3226.15 838.328  15
   1  -1 -13 4541.36 971.204  14
   1  -1 -13 4575.90 894.237   4
   1  -1 -13 6848.71 1143.84  20
   1  -1 -13 4466.49 969.742  18
   1  -1 -13 4616.64 882.574  17
   1  -1 -12 27556.9 2154.47  15
   1  -1 -12 30173.7 2319.64  14
   1  -1 -12 28989.3 2393.74   4
   1  -1 -12 25038.0 2111.72  20
   1  -1 -12 24904.0 2164.05  18
   1  -1 -12 25661.4 2261.50  10
   1  -1 -12 30161.7 2320.53  17
   1  -1 -11 44705.0 2769.13  15
   1  -1 -11 51426.6 2915.81  14
   1  -1 -11 47465.0 2892.99   4
   1  -1 -11 50688.8 2888.97  20
   1  -1 -11 48696.5 2911.72  18
   1  -1 -11 45878.8 2879.72  10
   1  -1 -11 41534.1 2715.13  17
   1  -1 -10 40728.1 2497.72  15
   1  -1 -10 37680.1 2405.83  14
   1  -1 -10 39621.5 2520.08   4
   1  -1 -10 41421.3 2532.61  20
   1  -1 -10 45552.1 2475.21   2
   1  -1 -10 33668.0 2331.97  18
   1  -1 -10 42974.4 2626.59  10
   1  -1 -10 39484.5 2420.77  17
   1  -1  -9 3421.19 558.430   5
   1  -1  -9 3038.94 686.794  15
   1  -1  -9 2923.88 721.080   2
   1  -1  -9 3261.41 777.141  14
   1  -1  -9 3267.50 708.891   4
   1  -1  -9 2417.53 686.360  20
   1  -1  -9 2464.71 633.409  18
   1  -1  -9 2729.67 692.416  17
   1  -1  -9 1958.04 655.543  10
   1  -1  -8 30707.1 1659.06  11
   1  -1  -8 30338.2 1920.56  15
   1  -1  -8 28741.9 1871.98  14
   1  -1  -8 27887.9 1853.50   4
   1  -1  -8 31212.1 1940.59  20
   1  -1  -8 29565.8 1862.58  18
   1  -1  -8 33090.0 1713.20   5
   1  -1  -8 28127.2 1809.70   2
   1  -1  -8 27564.0 1850.82  10
   1  -1  -8 31425.6 1924.67  17
   1  -1  -7 208744. 5904.87  15
   1  -1  -7 217379. 5887.89   2
   1  -1  -7 214188. 5930.07  14
   1  -1  -7 222042. 5939.06   4
   1  -1  -7 213270. 5926.45  20
   1  -1  -7 213490. 5605.62  11
   1  -1  -7 210905. 5876.85  18
   1  -1  -7 217147. 5529.68   5
   1  -1  -7 202542. 5823.32  10
   1  -1  -7 213912. 5933.11  17
   1  -1  -6 193886. 5409.93  15
   1  -1  -6 191977. 5406.87  14
   1  -1  -6 200727. 5356.70   4
   1  -1  -6 207343. 4532.20   3
   1  -1  -6 204382. 5264.87  11
   1  -1  -6 192832. 5396.82  18
   1  -1  -6 209677. 5193.46   5
   1  -1  -6 206566. 5413.97  10
   1  -1  -6 192267. 5391.88  17
   1  -1  -6 210961. 5496.79   2
   1  -1  -6 198734. 5419.45  20
   1  -1  -5 40239.0 1829.21   2
   1  -1  -5 39721.9 1802.47  15
   1  -1  -5 39895.5 1811.52  14
   1  -1  -5 37970.0 1689.85   4
   1  -1  -5 40101.7 1819.76  20
   1  -1  -5 44597.9 1348.72   3
   1  -1  -5 39210.6 1792.46  18
   1  -1  -5 40242.0 1680.13   5
   1  -1  -5 41742.3 1773.39  10
   1  -1  -5 38237.8 1781.12  17
   1  -1  -4 299.536 152.521   3
   1  -1  -4 384.216 334.518   5
   1  -1  -4 337.902 348.444  15
   1  -1  -4 106.511 326.552  14
   1  -1  -4 700.700 318.831   4
   1  -1  -4 1141.79 427.875  20
   1  -1  -4 255.113 329.935  18
   1  -1  -4 625.974 358.786  17
   1  -1  -4 778.592 329.605  10
   1  -1  -3 83265.0 2443.47  15
   1  -1  -3 79338.9 2405.85  14
   1  -1  -3 79075.0 2198.38   4
   1  -1  -3 81819.8 2424.89  20
   1  -1  -3 82288.1 2418.40  18
   1  -1  -3 82794.2 2414.13   5
   1  -1  -3 83696.4 2257.24  10
   1  -1  -3 80160.2 2409.13  17
   1  -1  -2 144424. 3512.27  15
   1  -1  -2 147957. 3530.23  14
   1  -1  -2 147691. 3216.77   4
   1  -1  -2 142450. 3496.62  20
   1  -1  -2 150612. 3530.50  18
   1  -1  -2 146043. 3572.14   5
   1  -1  -2 146864. 3518.39  17
   1  -1  -2 146407. 3241.67  10
   1  -1  -1 2358.09 338.438  12
   1  -1  -1 2122.16 391.832   5
   1  -1  -1 2380.05 347.540  15
   1  -1  -1 3428.43 361.027   8
   1  -1  -1 1990.95 285.656   3
   1  -1  -1 2390.71 197.720   7
   1  -1  -1 2303.35 341.580  20
   1  -1  -1 1874.85 319.537  19
   1  -1  -1 2014.21 323.861  18
   1  -1  -1 1789.01 320.105  17
   1  -1   0 87873.8 2101.65  18
   1  -1   0 88898.4 2037.59  16
   1  -1   0 87649.4 1897.19   7
   1  -1   0 89496.0 2124.47  13
   1  -1   0 83139.8 2087.87  20
   1  -1   0 89766.2 2126.78  12
   1  -1   0 86394.1 2096.78  19
   1  -1   0 89065.3 2149.41   6
   1  -1   0 86444.6 2093.42  17
   1  -1   0 82780.3 2157.00   5
   1  -1   0 84873.9 2168.60   3
   1  -1   1 411043. 8146.79   1
   1  -1   1 400835. 8076.74  14
   1  -1   1 420200. 8087.40   7
   1  -1   1 407644. 8089.72  13
   1  -1   1 417670. 8055.39   4
   1  -1   1 386421. 8043.07  20
   1  -1   1 399501. 8058.19  19
   1  -1   1 422422. 8089.72  12
   1  -1   1 410673. 8183.73   6
   1  -1   1 400633. 8055.48  18
   1  -1   1 400333. 8058.03  17
   1  -1   1 379617. 8021.16   5
   1  -1   1 382178. 8301.41   3
   1  -1   1 401209. 8032.44  10
   1  -1   1 406011. 8109.90  16
   1  -1   2 410232. 8468.32  10
   1  -1   2 420441. 8266.65  15
   1  -1   2 419842. 8266.99  14
   1  -1   2 412998. 8264.32  13
   1  -1   2 423471. 8462.20   4
   1  -1   2 399808. 8247.11  18
   1  -1   2 388374. 8235.41  19
   1  -1   2 402868. 7999.63   5
   1  -1   2 405923. 8251.83  17
   1  -1   2 387137. 8565.79   3
   1  -1   2 418655. 8334.79   1
   1  -1   2 423192. 8274.57  12
   1  -1   3 256365. 5445.55  15
   1  -1   3 247071. 5413.03  14
   1  -1   3 250604. 5432.74  13
   1  -1   3 257643. 5442.38  12
   1  -1   3 241584. 5413.29  19
   1  -1   3 261038. 5193.25  11
   1  -1   3 238395. 5403.94  18
   1  -1   3 243090. 5750.59   3
   1  -1   4 160163. 4027.33  19
   1  -1   4 162629. 4034.45  18
   1  -1   4 155164. 4274.36   3
   1  -1   5 76471.9 1917.23  11
   1  -1   5 70316.2 2329.18  19
   1  -1   6 65718.5 2433.56  19
   1  -1   6 62049.6 2553.51   3
   1  -1   7 76762.9 3256.44   8
   1  -1   7 81986.2 2904.76  19
   1  -1   7 81535.1 3066.24   3
   1  -1   8 21313.7 1770.14   8
   1  -1   8 23858.7 1571.40  19
   1  -1   8 25735.7 1723.77   3
   1  -1   9 26571.0 2087.94   8
   1  -1   9 27316.5 1810.74  19
   1  -1  10 62996.7 3498.05   8
   1  -1  11 36818.3 2794.91   8
   1  -1  11 41259.4 2505.09  12
   1  -1  12 7247.80 1417.45   8
   1   0 -13 2064.31 733.905  15
   1   0 -13 3020.81 791.291  14
   1   0 -13 313.211 635.270   4
   1   0 -13 2778.94 694.131  20
   1   0 -13 1354.32 557.694  18
   1   0 -13 4843.06 1158.98  17
   1   0 -13 2616.96 787.243  10
   1   0 -12 23727.6 2092.40  15
   1   0 -12 22654.4 2071.99  14
   1   0 -12 26399.3 2284.21   4
   1   0 -12 22701.5 2077.73  20
   1   0 -12 23944.0 2069.60  18
   1   0 -12 24586.0 2294.52  10
   1   0 -12 24254.2 2067.19  17
   1   0 -11 32859.9 2359.24  15
   1   0 -11 33928.5 2357.01  14
   1   0 -11 30860.8 2410.46   4
   1   0 -11 37220.5 2476.29  20
   1   0 -11 30999.7 2296.76  18
   1   0 -11 32164.4 2407.57  10
   1   0 -11 32341.7 2367.98  17
   1   0 -10 29130.0 2042.18  15
   1   0 -10 28488.8 2054.97  14
   1   0 -10 31464.2 2203.62   4
   1   0 -10 28378.1 2043.34  18
   1   0 -10 22401.5 1892.82  20
   1   0 -10 28689.8 1816.66   2
   1   0 -10 22947.3 1978.38  10
   1   0 -10 26164.7 1957.58  17
   1   0  -9 7017.19 976.392  15
   1   0  -9 8494.70 1064.68  14
   1   0  -9 7131.71 1021.49   4
   1   0  -9 7358.26 1045.54  20
   1   0  -9 7215.32 969.393  18
   1   0  -9 8965.31 830.766   5
   1   0  -9 7410.98 905.543   2
   1   0  -9 7523.21 978.932  17
   1   0  -9 6354.92 1027.53  10
   1   0  -8 27727.3 1832.25  15
   1   0  -8 25708.4 1800.41  14
   1   0  -8 25474.5 1759.49   4
   1   0  -8 27512.2 1820.61  18
   1   0  -8 26313.4 1826.77  10
   1   0  -8 32106.7 1476.93  11
   1   0  -8 27925.1 1487.66   5
   1   0  -8 29099.1 1880.89  20
   1   0  -8 25603.7 1773.61  17
   1   0  -8 26338.0 1651.47   2
   1   0  -7 196219. 5507.91  15
   1   0  -7 192028. 5473.64  14
   1   0  -7 194870. 5407.99   4
   1   0  -7 188727. 5471.59  20
   1   0  -7 201318. 4896.44  11
   1   0  -7 198372. 5540.45  18
   1   0  -7 191919. 4937.41   5
   1   0  -7 187913. 5438.40  10
   1   0  -7 186064. 5440.08  17
   1   0  -6 201714. 5432.36  15
   1   0  -6 210326. 5482.78  14
   1   0  -6 197369. 5280.21   4
   1   0  -6 198892. 5410.03  18
   1   0  -6 202536. 5459.31  20
   1   0  -6 201265. 4990.13   5
   1   0  -6 202506. 5455.51  17
   1   0  -6 196487. 5325.18  10
   1   0  -5 74801.6 2617.32  15
   1   0  -5 76451.0 2650.58  17
   1   0  -5 75989.9 2631.87  14
   1   0  -5 74750.9 2490.04   4
   1   0  -5 80354.2 2352.15   3
   1   0  -5 74134.4 2622.50  20
   1   0  -5 79710.5 2417.88   5
   1   0  -5 75482.9 2551.02  10
   1   0  -4 485.139 265.291   3
   1   0  -4 744.388 324.819   5
   1   0  -4 382.585 338.283  15
   1   0  -4 173.902 329.140  14
   1   0  -4 842.526 323.559   4
   1   0  -4 53.3825 369.507  20
   1   0  -4-31.0138 345.679  17
   1   0  -4 650.649 327.292  10
   1   0  -3 42020.5 1577.80  15
   1   0  -3 41664.7 1572.09  14
   1   0  -3 43045.3 1589.08  18
   1   0  -3 44935.9 1616.24  17
   1   0  -3 46080.9 1522.12   5
   1   0  -3 43018.0 1594.67  20
   1   0  -2 938594. 18481.3  15
   1   0  -2 939978. 18477.5  14
   1   0  -2 929404. 18313.6   8
   1   0  -2 933942. 18480.3  20
   1   0  -2 994559. 18519.5  19
   1   0  -2 930666. 18464.3  18
   1   0  -2 925690. 18468.7  17
   1   0  -2 935988. 18439.5   5
   1   0  -1 106996. 2438.39  16
   1   0  -1 102403. 2436.32  15
   1   0  -1 111149. 2359.48   8
   1   0  -1 100968. 2428.27  14
   1   0  -1 105443. 2440.86  20
   1   0  -1 107736. 2468.81  12
   1   0  -1 103220. 2427.92  18
   1   0  -1 104155. 2438.43  17
   1   0  -1 104083. 2515.16   5
   1   0   0 12447.1 540.802  16
   1   0   0 11700.7 431.042  15
   1   0   0 12746.9 418.397   4
   1   0   0 11719.5 434.304  20
   1   0   0 11449.9 433.127  12
   1   0   0 11384.0 490.504   6
   1   0   0 12034.4 434.438  19
   1   0   0 11469.0 428.856  18
   1   0   0 12053.6 454.379  10
   1   0   0 11560.0 430.823  17
   1   0   0 12124.3 546.060   1
   1   0   0 11780.4 387.615   9
   1   0   0 12491.5 544.198   5
   1   0   1 523476. 10611.8   5
   1   0   1 534994. 10641.4   2
   1   0   1 543553. 10818.1   4
   1   0   1 562812. 10873.8   1
   1   0   1 555195. 10732.5   6
   1   0   1 543942. 10493.3  19
   1   0   1 552062. 10841.2  10
   1   0   1 566049. 10818.7  11
   1   0   1 543286. 10493.5  18
   1   0   1 564698. 10864.7  16
   1   0   1 535746. 10874.8   3
   1   0   2 286228. 5857.35   5
   1   0   2 303053. 6364.42   1
   1   0   2 297357. 5989.82  15
   1   0   2 298623. 5982.95  14
   1   0   2 306518. 6463.36   4
   1   0   2 300682. 5989.10  13
   1   0   2 311557. 6048.29   2
   1   0   2 296827. 5996.42  12
   1   0   2 311020. 6292.75   6
   1   0   2 300258. 6014.95  19
   1   0   2 310447. 6221.78  11
   1   0   2 292605. 6007.74  18
   1   0   2 291550. 6327.68   3
   1   0   3 336695. 6771.63  15
   1   0   3 318776. 6743.87  14
   1   0   3 341635. 6840.39  11
   1   0   3 326969. 6757.39  13
   1   0   3 324724. 6764.53  12
   1   0   3 325989. 6757.22  20
   1   0   3 318982. 6775.01  19
   1   0   3 334093. 6700.84   2
   1   0   3 307040. 6976.58   3
   1   0   4 106119. 2849.89  19
   1   0   4 114318. 2814.43  11
   1   0   4 114136. 2734.11   2
   1   0   5 101829. 3444.51   8
   1   0   5 106371. 3004.68  19
   1   0   5 108584. 3119.20   3
   1   0   6 128332. 4273.32   8
   1   0   6 132656. 3757.64  19
   1   0   6 136872. 3853.63   3
   1   0   7 26375.7 1885.24   8
   1   0   7 28597.3 1583.61  19
   1   0   7 30311.5 1656.28   3
   1   0   8 23395.3 1522.16   3
   1   0   8 21345.8 1758.27   8
   1   0   9 13143.3 1517.93   8
   1   0   9 12562.0 1190.36  12
   1   0  10 16464.2 1732.26   8
   1   0  10 18287.1 1522.03  12
   1   0  11 46442.0 3207.27   8
   1   0  12 14929.1 1869.37   8
   1   1 -13 2106.76 600.965  15
   1   1 -13 536.825 387.836  14
   1   1 -13 1918.72 936.932   4
   1   1 -13 1230.55 644.942  20
   1   1 -13 1541.09 584.045  18
   1   1 -13-516.497 402.845  17
   1   1 -13 1642.06 655.819  10
   1   1 -12 17458.0 1770.94  15
   1   1 -12 14723.9 1610.03  14
   1   1 -12 18392.2 1840.93   4
   1   1 -12 16478.5 1710.97  20
   1   1 -12 16687.7 1765.48  18
   1   1 -12 19981.7 1970.68  10
   1   1 -12 18189.3 1743.44  17
   1   1 -11 80390.5 3751.69  15
   1   1 -11 73528.3 3620.02  14
   1   1 -11 76007.4 3687.76   4
   1   1 -11 72946.7 3620.86  20
   1   1 -11 74545.3 3619.53  18
   1   1 -11 71831.7 3681.83  10
   1   1 -11 80940.7 3738.89  17
   1   1 -10 21553.5 1825.07  15
   1   1 -10 19302.3 1722.52  14
   1   1 -10 22354.8 1828.05   4
   1   1 -10 23397.5 1851.69  18
   1   1 -10 22781.4 1883.23  20
   1   1 -10 22315.8 1525.52   2
   1   1 -10 21824.6 1908.80  10
   1   1 -10 22508.0 1825.02  17
   1   1  -9 342.711 214.836   5
   1   1  -9 186.288 422.499  15
   1   1  -9 268.798 380.871  14
   1   1  -9 120.586 326.504   2
   1   1  -9-1077.61 624.652   4
   1   1  -9 993.257 477.825  20
   1   1  -9 2137.90 604.305  17
   1   1  -9 419.369 538.589  10
   1   1  -8 55703.2 2626.44  15
   1   1  -8 53533.3 2606.26  14
   1   1  -8 53024.7 2593.56  10
   1   1  -8 56536.2 2577.99   4
   1   1  -8 51353.2 2565.39  20
   1   1  -8 60626.3 1850.44  11
   1   1  -8 54435.3 2123.83   5
   1   1  -8 57202.4 2660.20  17
   1   1  -7 127125. 4132.64  15
   1   1  -7 129467. 4172.23  14
   1   1  -7 130580. 4046.25   4
   1   1  -7 123732. 4135.04  13
   1   1  -7 125210. 4128.86  20
   1   1  -7 132255. 3634.84   5
   1   1  -7 130510. 4187.28  17
   1   1  -7 139698. 4240.10  10
   1   1  -6 224521. 5861.72  15
   1   1  -6 219111. 5837.68  14
   1   1  -6 224993. 5670.37   4
   1   1  -6 221261. 5863.38  13
   1   1  -6 224907. 5857.41  20
   1   1  -6 227080. 5872.82  17
   1   1  -6 225113. 5762.56  10
   1   1  -6 219226. 5314.67   5
   1   1  -5 206842. 5338.76  15
   1   1  -5 211719. 5375.40  14
   1   1  -5 210845. 5377.00  13
   1   1  -5 213862. 5143.20   4
   1   1  -5 209471. 5362.64  20
   1   1  -5 213395. 5398.83  17
   1   1  -5 203579. 4931.80   5
   1   1  -4 40863.7 1678.26  15
   1   1  -4 42263.7 1703.02  14
   1   1  -4 41219.9 1681.54  13
   1   1  -4 41401.7 1505.75   4
   1   1  -4 39960.7 1654.53  20
   1   1  -4 41738.1 1693.62  17
   1   1  -4 39538.1 1446.45   5
   1   1  -3 201340. 4493.10   5
   1   1  -3 192180. 4647.98  15
   1   1  -3 192005. 4640.85  14
   1   1  -3 191093. 4644.65  13
   1   1  -3 196768. 4353.89   4
   1   1  -3 188151. 4641.46  20
   1   1  -3 190239. 4654.22  17
   1   1  -2 561546. 11182.3   5
   1   1  -2 551336. 11216.3  15
   1   1  -2 549326. 11209.3  14
   1   1  -2 576574. 10902.0   8
   1   1  -2 543938. 10859.4   7
   1   1  -2 545893. 11212.5  13
   1   1  -2 567139. 11019.7  11
   1   1  -2 537012. 11200.1  20
   1   1  -2 573250. 11227.9  19
   1   1  -2 532704. 11201.6  17
   1   1  -1 268953. 5432.24  16
   1   1  -1 244547. 5377.72  15
   1   1  -1 269631. 5491.11   2
   1   1  -1 254724. 5390.29  14
   1   1  -1 256314. 5391.55  13
   1   1  -1 260732. 5246.52   7
   1   1  -1 273494. 5347.52   1
   1   1  -1 274195. 5411.21  19
   1   1  -1 266713. 5497.04  11
   1   1  -1 255645. 5397.05  20
   1   1  -1 254960. 5393.06  17
   1   1  -1 254214. 5395.55   9
   1   1   0 17263.0 694.842  16
   1   1   0 18778.3 756.786   1
   1   1   0 17543.6 659.349   9
   1   1   0 18898.3 537.134  15
   1   1   0 17557.1 669.094   4
   1   1   0 17294.5 522.076  14
   1   1   0 18385.9 732.254   2
   1   1   0 18307.2 529.653  13
   1   1   0 17879.1 666.320   7
   1   1   0 16603.3 520.947  20
   1   1   0 20391.4 810.509  11
   1   1   0 17000.1 501.832   6
   1   1   0 18948.1 730.098  10
   1   1   0 17253.8 524.061  17
   1   1   1 12875.1 729.171   1
   1   1   1 12352.9 586.040   9
   1   1   1 13038.6 678.779   4
   1   1   1 13905.9 653.596   2
   1   1   1 12555.0 481.605   6
   1   1   1 12501.5 692.709  11
   1   1   1 13499.7 689.706  10
   1   1   1 14188.7 667.618  16
   1   1   2 630323. 12468.6   3
   1   1   2 640272. 12538.1   9
   1   1   2 614080. 12120.7  15
   1   1   2 655162. 12437.4   6
   1   1   2 616365. 12125.3  14
   1   1   2 619414. 12766.4   8
   1   1   2 615781. 12135.5  13
   1   1   2 612565. 12119.5  20
   1   1   2 629395. 12118.7  12
   1   1   3 419867. 8473.30  15
   1   1   3 414619. 8475.34  14
   1   1   3 409976. 9139.38   8
   1   1   3 423235. 8497.97  13
   1   1   3 434043. 8485.19  20
   1   1   3 411537. 8459.99  12
   1   1   3 414997. 8637.87   3
   1   1   4 39746.7 1815.70   8
   1   1   4 35436.5 1346.70  12
   1   1   4 41316.7 1231.68   5
   1   1   4 40241.6 1432.66   3
   1   1   5 61385.9 2546.86   8
   1   1   5 59844.5 1984.91   3
   1   1   5 67229.9 1722.26   5
   1   1   6 98624.8 3727.91   8
   1   1   6 100661. 3141.73  12
   1   1   6 104944. 3090.90   3
   1   1   7 26009.4 1935.52   8
   1   1   7 27728.3 1459.47   3
   1   1   8 5941.22 780.845   3
   1   1   8 5511.82 1038.29   8
   1   1   8 4691.82 730.965  12
   1   1   9 20480.0 1972.11   8
   1   1   9 23405.6 1596.16  12
   1   1  10 26821.1 2295.41   8
   1   1  10 25374.1 1810.42  12
   1   1  11 35152.0 2755.64   8
   1   2 -13 3670.02 1012.72  15
   1   2 -13 5263.49 1098.89  14
   1   2 -13 4206.14 1047.32   4
   1   2 -13 3688.83 888.153  20
   1   2 -13 5342.65 1035.87  18
   1   2 -13 3877.98 815.709  17
   1   2 -13 3975.59 1011.05  10
   1   2 -12 14864.2 1699.67  15
   1   2 -12 17335.6 1806.16  14
   1   2 -12 14547.1 1716.04   4
   1   2 -12 14353.1 1658.23  20
   1   2 -12 16441.8 1655.68  18
   1   2 -12 16119.4 1697.45  17
   1   2 -12 12984.4 1671.60  10
   1   2 -11 77078.1 3739.31  15
   1   2 -11 81489.3 3830.76  14
   1   2 -11 86534.4 3958.51   4
   1   2 -11 79844.5 3795.32  20
   1   2 -11 89450.0 4109.36  10
   1   2 -11 84381.1 3888.12  17
   1   2 -10 45782.1 2662.31  15
   1   2 -10 48303.0 2717.79  14
   1   2 -10 52394.8 2835.76   4
   1   2 -10 47228.0 2700.29  20
   1   2 -10 48876.3 2791.92  10
   1   2 -10 45269.0 2693.04  17
   1   2  -9 1228.67 324.684   5
   1   2  -9 922.432 616.733  15
   1   2  -9 971.515 608.340  14
   1   2  -9 435.803 509.238  13
   1   2  -9 1242.08 551.923   4
   1   2  -9 1086.23 615.021  20
   1   2  -9 532.556 436.823  17
   1   2  -9 603.734 627.844  10
   1   2  -8 42610.6 2284.22  15
   1   2  -8 45917.6 2357.09  14
   1   2  -8 44554.9 2233.74   4
   1   2  -8 44622.7 2339.40  13
   1   2  -8 41212.2 2259.71  20
   1   2  -8 41440.6 2275.20  17
   1   2  -8 44605.0 2333.77  10
   1   2  -8 38586.1 1744.45   5
   1   2  -7 275490. 7215.66  15
   1   2  -7 280800. 7257.22  14
   1   2  -7 279811. 7271.84  13
   1   2  -7 278752. 7012.44   4
   1   2  -7 279936. 7237.88  20
   1   2  -7 271977. 5694.48  11
   1   2  -7 291272. 7315.31  17
   1   2  -7 280481. 7166.34  10
   1   2  -7 288366. 6538.06   5
   1   2  -6 214493. 5781.27  15
   1   2  -6 219660. 5809.20  14
   1   2  -6 212077. 5768.70  20
   1   2  -6 216708. 5803.77  13
   1   2  -6 219669. 5552.63   4
   1   2  -6 217952. 4595.70  11
   1   2  -6 217032. 5804.66  17
   1   2  -6 218082. 5208.05   5
   1   2  -5 138919. 3651.21   5
   1   2  -5 135805. 4031.85  15
   1   2  -5 140768. 4069.52  14
   1   2  -5 140778. 4077.16  13
   1   2  -5 145220. 3829.34   4
   1   2  -5 141903. 4077.99  20
   1   2  -5 146798. 3229.90  11
   1   2  -5 144827. 4119.47  17
   1   2  -4 62229.4 1974.59   5
   1   2  -4 61335.1 2182.75  15
   1   2  -4 62370.0 2187.78  14
   1   2  -4 61767.8 1941.56   7
   1   2  -4 67746.1 2252.26  13
   1   2  -4 57374.5 1936.45   4
   1   2  -4 62772.1 1687.67  11
   1   2  -4 61301.2 2186.55  20
   1   2  -4 64313.6 2225.65  17
   1   2  -3 121452. 3231.74  15
   1   2  -3 120627. 3215.00  14
   1   2  -3 115883. 2956.39   7
   1   2  -3 116837. 3198.75  13
   1   2  -3 124124. 2531.62   1
   1   2  -3 114923. 3185.77  20
   1   2  -3 126314. 2907.63  11
   1   2  -2 211538. 4873.22  15
   1   2  -2 226820. 4519.88   1
   1   2  -2 207460. 4855.85  14
   1   2  -2 207983. 4860.29  13
   1   2  -2 213669. 4715.32   7
   1   2  -2 213092. 4879.84  12
   1   2  -2 213126. 4876.28  20
   1   2  -2 229034. 4878.33  19
   1   2  -2 225527. 4822.44  11
   1   2  -2 227188. 4875.91  18
   1   2  -1 67942.2 1725.56  16
   1   2  -1 62853.8 1723.08  15
   1   2  -1 65056.1 1731.03  14
   1   2  -1 62874.8 1718.14  13
   1   2  -1 63550.3 1760.88   7
   1   2  -1 61168.0 1714.39  12
   1   2  -1 64584.2 1734.03  20
   1   2  -1 66618.5 1692.71  19
   1   2  -1 66821.3 1918.91  11
   1   2  -1 65976.4 1691.66  18
   1   2  -1 69203.4 1790.55   1
   1   2  -1 65871.1 1695.72  17
   1   2   0 107497. 2482.91  16
   1   2   0 103113. 2310.96  15
   1   2   0 102647. 2284.29   8
   1   2   0 103777. 2300.29  14
   1   2   0 100168. 2292.74  13
   1   2   0 103050. 2265.05  18
   1   2   0 99141.1 2566.10   7
   1   2   0 100720. 2290.29  12
   1   2   0 106090. 2269.56  19
   1   2   0 105921. 2276.54  17
   1   2   1 6876.82 337.805  12
   1   2   1 6916.45 344.945  15
   1   2   1 7899.07 560.258   8
   1   2   1 6384.02 332.898  14
   1   2   1 6989.07 341.111  13
   1   2   1 5878.82 556.488   7
   1   2   1 7112.70 336.595  20
   1   2   1 7427.42 320.518   6
   1   2   1 7652.58 340.161  19
   1   2   1 7469.81 333.073  18
   1   2   1 7739.56 339.542  17
   1   2   1 7925.85 516.129  16
   1   2   2 200557. 4266.95  15
   1   2   2 209855. 4285.00  14
   1   2   2 191310. 4793.12   8
   1   2   2 204555. 4257.40  13
   1   2   2 203321. 4429.12   6
   1   2   2 204780. 4267.91  20
   1   2   2 204641. 4265.77  12
   1   2   2 206947. 4262.95  18
   1   2   2 206900. 4269.30  17
   1   2   3 407440. 8551.19   3
   1   2   3 431029. 8525.28  15
   1   2   3 438715. 8526.40  20
   1   2   3 416721. 8524.79  14
   1   2   3 388845. 9162.83   8
   1   2   3 413664. 8547.68  13
   1   2   3 404024. 8453.69  13
   1   2   3 407055. 8472.67  12
   1   2   3 439064. 8537.51  17
   1   2   4 8138.15 875.199   8
   1   2   4 8572.26 594.190  12
   1   2   4 6709.65 531.029   3
   1   2   5 21854.5 1531.11   8
   1   2   5 20940.6 1106.31  12
   1   2   5 24040.4 1052.62   3
   1   2   6 119887. 4245.62   8
   1   2   6 126045. 3524.70  12
   1   2   6 122512. 3219.55   3
   1   2   7 93602.3 3851.19   8
   1   2   7 91443.5 3081.89  12
   1   2   7 100467. 2805.35   3
   1   2   8 27879.7 2113.86   8
   1   2   8 28120.8 1666.84  12
   1   2   9 6352.64 1172.35   8
   1   2   9 5743.01 840.956  12
   1   2  10 32447.1 2604.32   8
   1   2  11 35519.3 2860.31   8
   1   3 -13 14035.6 1682.76  15
   1   3 -13 12667.9 1574.90  14
   1   3 -13 14135.1 1724.82   4
   1   3 -13 12546.4 1621.55  20
   1   3 -13 11638.0 1451.27  17
   1   3 -13 10510.8 1517.26  10
   1   3 -12 11043.5 1461.19  15
   1   3 -12 11174.6 1358.26  14
   1   3 -12 9214.21 1382.81   4
   1   3 -12 9683.93 1402.32  20
   1   3 -12 11009.3 1427.72  17
   1   3 -12 11699.5 1678.32  10
   1   3 -11 85083.1 3888.58  15
   1   3 -11 73635.7 3696.99  14
   1   3 -11 76899.3 3732.27   4
   1   3 -11 80900.5 3826.87  13
   1   3 -11 74666.7 3804.65  10
   1   3 -11 75502.4 3701.60  17
   1   3 -11 79143.6 3788.87  20
   1   3 -10 61736.8 3158.97  15
   1   3 -10 62550.7 3146.05  14
   1   3 -10 60267.5 3101.44   4
   1   3 -10 61133.2 3137.80  13
   1   3 -10 57512.2 3089.26  20
   1   3 -10 62697.2 3187.83  17
   1   3 -10 56822.4 3095.08  10
   1   3  -9 6668.85 997.510  15
   1   3  -9 6831.03 1023.44  14
   1   3  -9 8951.24 1174.11  13
   1   3  -9 8377.95 1082.24   4
   1   3  -9 8114.30 1070.23  20
   1   3  -9 7349.76 768.125   5
   1   3  -9 6873.71 1022.40  17
   1   3  -9 7946.64 1124.92  10
   1   3  -8 6031.78 956.065  15
   1   3  -8 4763.13 880.033  14
   1   3  -8 5732.69 905.347  13
   1   3  -8 6172.00 902.051   4
   1   3  -8 7574.89 1017.99  20
   1   3  -8 5260.49 901.805  17
   1   3  -8 6666.89 701.443   5
   1   3  -7 152404. 4118.64   5
   1   3  -7 155546. 4786.95  15
   1   3  -7 156622. 4785.44  14
   1   3  -7 146206. 4711.13  13
   1   3  -7 161597. 4598.14   4
   1   3  -7 151166. 4750.34  20
   1   3  -7 151152. 3283.51  11
   1   3  -7 156066. 4791.60  17
   1   3  -6 301444. 6951.92   5
   1   3  -6 301162. 7529.82  15
   1   3  -6 300907. 7516.20  14
   1   3  -6 300991. 7513.14  13
   1   3  -6 296286. 7218.97   4
   1   3  -6 302045. 7533.04  20
   1   3  -6 306932. 6302.79  11
   1   3  -6 301490. 7546.27  17
   1   3  -5 6901.70 659.235   5
   1   3  -5 6272.78 768.505  15
   1   3  -5 5587.48 759.138  14
   1   3  -5 8032.40 725.585   7
   1   3  -5 6076.57 755.578  13
   1   3  -5 5756.96 751.284  20
   1   3  -5 6750.63 485.402  11
   1   3  -5 5104.10 655.862   4
   1   3  -4 19634.3 1169.24  15
   1   3  -4 20704.5 1183.47  14
   1   3  -4 17602.2 1009.86   7
   1   3  -4 19694.0 1177.44  13
   1   3  -4 18973.2 1156.49  12
   1   3  -4 19427.3 1166.03  20
   1   3  -4 18422.3 883.707  11
   1   3  -3 342311. 7605.50  15
   1   3  -3 329185. 7566.85  14
   1   3  -3 335759. 7587.40  13
   1   3  -3 325441. 7384.28   7
   1   3  -3 339055. 7596.86  12
   1   3  -3 340126. 7615.09  20
   1   3  -2 264077. 6008.50  15
   1   3  -2 261229. 5992.47  14
   1   3  -2 269815. 6008.99  13
   1   3  -2 269780. 5978.93   7
   1   3  -2 272232. 6011.57  12
   1   3  -2 270870. 6028.70  20
   1   3  -2 287624. 5800.59   1
   1   3  -1 96296.6 2331.89  16
   1   3  -1 94083.0 2476.28  15
   1   3  -1 93434.4 2449.20  14
   1   3  -1 93159.6 2449.07  13
   1   3  -1 94142.7 2586.75   7
   1   3  -1 91822.3 2443.45  12
   1   3  -1 97166.3 2415.51  19
   1   3  -1 102910. 2445.19  18
   1   3  -1 96035.8 2428.27  17
   1   3   0 7518.14 478.375  16
   1   3   0 6806.91 464.908  15
   1   3   0 7657.31 435.356   8
   1   3   0 6579.84 467.205  14
   1   3   0 6825.78 472.475  13
   1   3   0 8171.49 655.109   7
   1   3   0 8422.17 490.049  20
   1   3   0 8044.19 477.245  19
   1   3   0 7094.17 449.888  18
   1   3   0 7555.91 465.386  17
   1   3   0 6538.05 462.535  12
   1   3   1 1803.34 416.215   7
   1   3   1 1536.37 237.001  15
   1   3   1 1539.65 299.709   8
   1   3   1 1560.39 248.677  14
   1   3   1 1158.87 231.679  13
   1   3   1 1238.26 221.936  20
   1   3   1 1300.11 137.723   6
   1   3   1 1585.12 240.565  12
   1   3   1 1879.51 243.008  19
   1   3   1 1160.48 215.660  18
   1   3   1 1827.78 247.530  17
   1   3   2 107636. 2545.00  15
   1   3   2 95425.8 2493.02  12
   1   3   2 106909. 2555.50  14
   1   3   2 102004. 2917.54   8
   1   3   2 100506. 2505.89  14
   1   3   2 94331.2 2488.82  13
   1   3   2 99546.6 3026.27   7
   1   3   2 104134. 2529.55  20
   1   3   2 108877. 2524.15  18
   1   3   2 111006. 2539.94  17
   1   3   3 234753. 5932.68   8
   1   3   3 233300. 5307.29  13
   1   3   3 241776. 5331.50  12
   1   3   3 249715. 5357.96  18
   1   3   3 252705. 5359.63  17
   1   3   4 112521. 3675.43   8
   1   3   4 113553. 3041.52  13
   1   3   4 118759. 3064.07  12
   1   3   4 116248. 2847.68   3
   1   3   5 34302.7 1962.28   8
   1   3   5 32205.7 1432.97  13
   1   3   5 32729.1 1462.46  12
   1   3   5 33168.2 1194.33   3
   1   3   6 87355.6 3543.37   8
   1   3   6 87653.1 2848.59  13
   1   3   6 91609.2 2374.27   3
   1   3   6 86807.9 2848.25  12
   1   3   7 117584. 4521.52   8
   1   3   7 125858. 3789.45  13
   1   3   7 123486. 3772.80  12
   1   3   8 31496.7 2305.02   8
   1   3   8 32794.6 1839.60  13
   1   3   8 29202.2 1727.03  12
   1   3   9 376.204 597.295   8
   1   3  10 14001.5 1771.00   8
   1   3  11 31099.1 2726.37   8
   1   4 -13 16109.8 1749.66  15
   1   4 -13 15766.6 1755.83  14
   1   4 -13 16701.4 1852.72  13
   1   4 -13 13692.7 1788.37   4
   1   4 -13 14745.6 1662.85  20
   1   4 -13 17716.1 2007.89  10
   1   4 -13 16998.9 1832.91  17
   1   4 -12 20950.7 2028.54  15
   1   4 -12 20987.7 2026.17  14
   1   4 -12 19443.1 2003.49   4
   1   4 -12 21907.4 2053.01  13
   1   4 -12 24367.0 2136.31  20
   1   4 -12 20161.4 2047.18  10
   1   4 -12 19897.8 1938.63  17
   1   4 -11 55299.8 3152.06  15
   1   4 -11 53693.7 3152.68  14
   1   4 -11 53942.1 3117.25   4
   1   4 -11 51093.2 3070.95  13
   1   4 -11 51619.6 3043.18  20
   1   4 -11 53931.7 3115.55  17
   1   4 -11 51253.2 3099.53  10
   1   4 -10 47586.2 2818.03  15
   1   4 -10 43117.2 2715.35  14
   1   4 -10 45393.0 2774.61  13
   1   4 -10 53263.3 2861.00   4
   1   4 -10 51601.7 2909.57  20
   1   4 -10 49857.2 2872.96  17
   1   4 -10 52798.5 2926.79  10
   1   4  -9 8454.37 1215.88  15
   1   4  -9 5911.65 1013.87  14
   1   4  -9 8257.90 1171.11  13
   1   4  -9 8144.46 1028.95   4
   1   4  -9 7763.27 1136.46  20
   1   4  -9 8331.37 1158.07  17
   1   4  -9 9942.33 889.425   5
   1   4  -8 1104.27 337.855   5
   1   4  -8 722.592 641.109  15
   1   4  -8 1441.13 588.384   4
   1   4  -8 530.338 499.918  14
   1   4  -8 1229.66 617.169  13
   1   4  -8 1201.47 589.803  20
   1   4  -8 627.431 648.976  17
   1   4  -7 41428.1 1835.08   5
   1   4  -7 42375.3 2225.46  15
   1   4  -7 39814.6 2148.68  14
   1   4  -7 40254.5 2160.88  13
   1   4  -7 40408.9 2074.23   4
   1   4  -7 42971.5 2248.75  20
   1   4  -7 41381.6 2203.22  17
   1   4  -6 261586. 6245.07   5
   1   4  -6 259729. 6710.95  15
   1   4  -6 255152. 6675.99  14
   1   4  -6 248361. 6359.18   7
   1   4  -6 259852. 6708.35  13
   1   4  -6 253983. 6456.43   4
   1   4  -6 254695. 6686.32  20
   1   4  -6 254141. 5727.46  11
   1   4  -5 91261.5 3132.30  15
   1   4  -5 91836.8 3127.19  14
   1   4  -5 89599.1 2924.02   7
   1   4  -5 94397.6 3154.69  13
   1   4  -5 92806.2 3150.16  12
   1   4  -5 92160.5 3137.85  20
   1   4  -4 189.850 364.440  15
   1   4  -4 361.948 386.523  14
   1   4  -4 971.401 414.337  13
   1   4  -4 218.350 314.826   7
   1   4  -4 570.557 417.181  20
   1   4  -4 637.892 415.702  12
   1   4  -4 418.607 146.150   1
   1   4  -3 297792. 7044.15  15
   1   4  -3 305750. 7048.98  14
   1   4  -3 300797. 7030.76  13
   1   4  -3 291307. 6922.62   7
   1   4  -3 296825. 7019.18  12
   1   4  -3 305229. 7069.39  20
   1   4  -2 396559. 8389.38  15
   1   4  -2 384287. 8345.93  14
   1   4  -2 387656. 8350.05  13
   1   4  -2 380086. 8391.56   7
   1   4  -2 382270. 8340.99  12
   1   4  -2 376160. 8344.99  20
   1   4  -1 103003. 2426.87  16
   1   4  -1 95736.8 2705.01  15
   1   4  -1 99415.5 2698.36  14
   1   4  -1 93641.8 2678.89  13
   1   4  -1 96318.3 2857.04   7
   1   4  -1 101779. 2710.82  12
   1   4  -1 96914.9 2256.08   6
   1   4   0 6683.61 462.415  16
   1   4   0 5785.36 515.545  15
   1   4   0 5231.20 422.171   8
   1   4   0 5740.28 514.368  14
   1   4   0 5158.37 499.551  13
   1   4   0 5814.11 667.588   7
   1   4   0 5445.47 504.393  12
   1   4   0 6066.01 278.278   6
   1   4   1 17651.6 881.068  14
   1   4   1 20293.5 938.289  13
   1   4   1 18597.4 1152.52   7
   1   4   1 19055.3 620.085   6
   1   4   1 19459.3 913.441  12
   1   4   2 248272. 5751.82   8
   1   4   2 237348. 5380.56  14
   1   4   2 239902. 5373.98  13
   1   4   2 231703. 5945.78   7
   1   4   2 240704. 5380.43  12
   1   4   3 158357. 4387.47   8
   1   4   3 158475. 3864.45  14
   1   4   3 152408. 3856.52  13
   1   4   3 152845. 4504.54   7
   1   4   3 160332. 3887.70  12
   1   4   4 67925.3 1898.62   3
   1   4   4 62128.2 2640.19   8
   1   4   4 65629.9 2174.52  13
   1   4   4 61794.7 2673.97   7
   1   4   4 69282.9 2221.71  12
   1   4   5 34178.6 2064.24   8
   1   4   5 38395.3 1642.29  13
   1   4   5 33825.1 1581.09  12
   1   4   5 38048.1 1229.27   3
   1   4   6 21633.8 1790.22   8
   1   4   6 23962.5 1382.62  13
   1   4   6 25617.7 1433.79  12
   1   4   7 79162.5 3699.04   8
   1   4   7 82202.5 2986.30  13
   1   4   7 86891.3 3034.36  12
   1   4   8 27313.1 2245.17   8
   1   4   9 1208.78 517.308   8
   1   4  10 8911.67 1360.11   8
   1   5 -13 4389.74 901.034  15
   1   5 -13 4383.92 988.977  14
   1   5 -13 4888.20 1013.05  13
   1   5 -13 4694.81 1093.83   4
   1   5 -13 5319.09 1123.78  20
   1   5 -13 6212.22 1216.12  17
   1   5 -12 25573.6 2315.72  15
   1   5 -12 25864.8 2228.86  14
   1   5 -12 25401.2 2285.56   4
   1   5 -12 26411.9 2266.57  13
   1   5 -12 30355.4 2417.58  20
   1   5 -12 25215.3 2326.99  10
   1   5 -12 27073.3 2299.51  17
   1   5 -11 43481.0 2888.12  15
   1   5 -11 46433.7 2909.60  14
   1   5 -11 43747.6 2869.17  13
   1   5 -11 47256.6 2874.45   4
   1   5 -11 41185.9 2780.65  20
   1   5 -11 41312.5 2805.07  17
   1   5 -11 38800.5 2776.09  10
   1   5 -10 26729.5 2180.83  15
   1   5 -10 31451.6 2267.21  14
   1   5 -10 30865.6 2297.03  13
   1   5 -10 29502.5 2180.00   4
   1   5 -10 28532.4 2276.77  20
   1   5 -10 30136.7 2274.41  17
   1   5  -9 21168.8 1386.43   5
   1   5  -9 19355.6 1761.83  15
   1   5  -9 20786.3 1760.08  14
   1   5  -9 22491.3 1820.21  13
   1   5  -9 20748.3 1675.12   4
   1   5  -9 19291.8 1733.38  20
   1   5  -9 20748.4 1770.49  17
   1   5  -8 5819.65 689.385   5
   1   5  -8 4765.41 906.185  15
   1   5  -8 3680.89 765.688  14
   1   5  -8 5702.16 1023.47  13
   1   5  -8 6685.77 998.486  20
   1   5  -8 4147.81 774.722   4
   1   5  -8 4057.44 815.058  17
   1   5  -7 60999.2 2809.33  15
   1   5  -7 62267.2 2810.23  14
   1   5  -7 58730.5 2587.19   7
   1   5  -7 58692.6 2738.28  13
   1   5  -7 56096.5 2595.99   4
   1   5  -7 61917.7 2815.49  20
   1   5  -6 174562. 5193.33  15
   1   5  -6 176104. 5205.00  14
   1   5  -6 174710. 4965.23   7
   1   5  -6 175872. 5196.63  13
   1   5  -6 176105. 5222.30  12
   1   5  -6 176110. 5205.46  20
   1   5  -5 93189.2 2052.36   1
   1   5  -5 84607.6 3160.32  15
   1   5  -5 92494.5 3249.27  14
   1   5  -5 90551.2 3088.61   7
   1   5  -5 87273.2 3194.67  13
   1   5  -5 89322.5 3208.44  12
   1   5  -5 88879.6 3214.43  20
   1   5  -4 25722.7 1521.85  15
   1   5  -4 26570.5 1512.65  14
   1   5  -4 27509.2 1490.94   7
   1   5  -4 27876.2 1541.86  13
   1   5  -4 26377.9 1507.42  12
   1   5  -4 24560.2 1493.57  20
   1   5  -4 29072.5 1064.97   1
   1   5  -3 86056.8 2831.64  15
   1   5  -3 80705.1 2752.32  14
   1   5  -3 83624.8 2776.60  13
   1   5  -3 80963.2 2752.60   7
   1   5  -3 82665.5 2763.99  12
   1   5  -3 85980.1 2817.43  20
   1   5  -2 365597. 8211.03  15
   1   5  -2 367533. 8168.20  14
   1   5  -2 362917. 8164.46  13
   1   5  -2 357594. 8259.65   7
   1   5  -2 361234. 8153.20  12
   1   5  -1 211167. 5149.56  15
   1   5  -1 215047. 5153.56  14
   1   5  -1 211437. 5129.42  13
   1   5  -1 209007. 5355.89   7
   1   5  -1 207063. 5111.79  12
   1   5  -1 213237. 4525.63   6
   1   5   0 8809.17 719.458  15
   1   5   0 8384.46 600.242   8
   1   5   0 9020.33 723.043  14
   1   5   0 9410.38 756.019  13
   1   5   0 8397.57 877.420   7
   1   5   0 7874.87 691.713  12
   1   5   0 8900.63 427.392   6
   1   5   1 22560.7 1131.72  15
   1   5   1 23610.3 1134.93   8
   1   5   1 18666.0 1054.50  14
   1   5   1 22077.2 1123.12  13
   1   5   1 20293.4 1338.88   7
   1   5   1 21111.1 1104.58  12
   1   5   1 21938.3 750.382   6
   1   5   2 117750. 3411.59   8
   1   5   2 112082. 3175.02  14
   1   5   2 112510. 3180.52  13
   1   5   2 108744. 3652.07   7
   1   5   2 119382. 2758.63   6
   1   5   2 116615. 3207.39  12
   1   5   3 84207.2 2959.74   8
   1   5   3 84254.4 2610.31  14
   1   5   3 79235.3 2557.51  12
   1   5   3 82419.9 2579.37  13
   1   5   3 86408.7 3190.70   7
   1   5   3 80997.9 2274.12   6
   1   5   4 13983.0 1254.68   8
   1   5   4 15095.8 994.659  14
   1   5   4 14483.5 1014.80  13
   1   5   4 14608.7 1353.53   7
   1   5   4 17079.2 1076.00  12
   1   5   5 6988.44 983.013   8
   1   5   5 5878.37 685.553  14
   1   5   5 6552.86 756.277  13
   1   5   5 5347.15 681.276  12
   1   5   5 6192.11 970.072   7
   1   5   6 37337.6 2343.46   8
   1   5   6 33383.9 1756.80  13
   1   5   6 33283.2 2256.78   7
   1   5   6 38208.5 1837.64  12
   1   5   7 72196.3 3528.29   8
   1   5   7 64320.3 3387.28   7
   1   5   8 30299.2 2452.92   8
   1   5   8 25831.6 2162.19   7
   1   5   9 1863.26 648.482   7
   1   5   9 3673.75 851.993   8
   1   5  10 5702.18 1074.81   8
   1   6 -12 16139.9 1828.21  15
   1   6 -12 12812.1 1629.40  14
   1   6 -12 13543.0 1613.12  13
   1   6 -12 13761.8 1631.81   4
   1   6 -12 14152.4 1627.08  20
   1   6 -12 15776.6 1802.94  17
   1   6 -12 16152.9 1884.91  10
   1   6 -11 64504.5 3594.95  15
   1   6 -11 67549.7 3654.48  14
   1   6 -11 57430.0 3429.93  13
   1   6 -11 64403.1 3504.95   4
   1   6 -11 62712.1 3553.92  20
   1   6 -11 63280.4 3600.79  17
   1   6 -11 63011.0 3594.86  10
   1   6 -10 52144.1 3117.60  15
   1   6 -10 53729.3 3145.01  14
   1   6 -10 56302.9 3222.14  13
   1   6 -10 61415.4 3207.74   4
   1   6 -10 55174.2 3155.73  20
   1   6 -10 56340.1 3189.27  17
   1   6  -9 34808.3 1877.29   5
   1   6  -9 28840.7 2152.32  15
   1   6  -9 29199.3 2172.07  20
   1   6  -9 29848.3 2170.35  14
   1   6  -9 30833.8 2179.50  13
   1   6  -9 29802.6 2116.06   4
   1   6  -9 27652.1 2173.09  17
   1   6  -8 16759.0 1337.83   5
   1   6  -8 18791.8 1633.24  15
   1   6  -8 16220.0 1591.18  14
   1   6  -8 16749.8 1473.79   7
   1   6  -8 16190.4 1573.12  13
   1   6  -8 19613.9 1618.70   4
   1   6  -8 16631.5 1603.94  20
   1   6  -7 42233.0 2400.95  15
   1   6  -7 49139.2 2530.94  14
   1   6  -7 45170.9 2342.04   7
   1   6  -7 44525.6 2438.99  13
   1   6  -7 41041.6 2303.49   4
   1   6  -7 45767.0 2486.42  12
   1   6  -7 42513.1 2396.93  20
   1   6  -6 119623. 4181.14  15
   1   6  -6 120593. 4182.53  14
   1   6  -6 120224. 4009.23   7
   1   6  -6 119029. 4163.91  13
   1   6  -6 124177. 4213.96  12
   1   6  -6 120106. 4201.43  20
   1   6  -5 45646.1 2242.12  15
   1   6  -5 42837.5 2169.77  14
   1   6  -5 43610.5 2125.91   7
   1   6  -5 43269.3 2171.10  13
   1   6  -5 41179.0 2147.43  12
   1   6  -5 41210.4 2181.62  20
   1   6  -4 25900.1 1623.57  15
   1   6  -4 25552.4 1591.74  14
   1   6  -4 28737.8 1639.60   7
   1   6  -4 27925.3 1641.37  13
   1   6  -4 27967.7 1647.58  12
   1   6  -4 28108.9 1659.63  20
   1   6  -3 83192.3 2910.06  15
   1   6  -3 82771.0 2910.70  14
   1   6  -3 81999.9 2893.57  13
   1   6  -3 76909.5 2855.22   7
   1   6  -3 75300.6 2801.69  12
   1   6  -3 77965.2 2861.77  20
   1   6  -2 202965. 5330.41  15
   1   6  -2 196766. 5238.83  14
   1   6  -2 194787. 5240.11  13
   1   6  -2 208058. 5463.27   7
   1   6  -2 200956. 5270.67  12
   1   6  -2 203576. 4692.56   6
   1   6  -1 192889. 5134.59  15
   1   6  -1 195406. 5107.02  12
   1   6  -1 192018. 5108.58  14
   1   6  -1 199467. 5140.75  13
   1   6  -1 202862. 5416.57   7
   1   6  -1 204881. 4431.71   6
   1   6   0 852.314 256.203  16
   1   6   0 1287.89 392.127  15
   1   6   0 588.809 328.571   8
   1   6   0 605.531 374.507  14
   1   6   0 644.392 327.799  13
   1   6   0 741.001 513.440   7
   1   6   0 1753.01 405.062  12
   1   6   0 500.822 183.784   6
   1   6   1 960.770 377.635  15
   1   6   1 862.918 347.075   8
   1   6   1 401.161 349.487  14
   1   6   1 651.679 336.767  13
   1   6   1 768.981 555.339   7
   1   6   1 543.114 305.869  12
   1   6   1 754.460 188.941   6
   1   6   2 54341.7 2212.83   8
   1   6   2 57986.7 2192.76  14
   1   6   2 54238.0 2141.44  13
   1   6   2 49550.1 2469.68   7
   1   6   2 59269.8 2198.34  12
   1   6   2 60587.5 1691.17   6
   1   6   3 53846.0 2353.12   8
   1   6   3 53125.9 2124.79  14
   1   6   3 50700.9 2105.36  13
   1   6   3 51716.1 2574.39   7
   1   6   3 51366.0 2087.53  12
   1   6   3 56456.1 1773.04   6
   1   6   4 29765.7 1884.27   8
   1   6   4 28768.8 1555.75  14
   1   6   4 28503.7 1533.48  13
   1   6   4 24140.0 1858.66   7
   1   6   4 29781.0 1579.78  12
   1   6   5 4681.31 730.190  12
   1   6   5 5414.41 944.895   8
   1   6   5 3652.36 708.980  14
   1   6   5 5249.92 713.901  13
   1   6   5 4022.10 839.078   7
   1   6   6 28958.9 2137.52   8
   1   6   6 26694.3 2115.39   7
   1   6   7 69876.8 3625.48   8
   1   6   7 66945.6 3592.53   7
   1   6   8 17654.1 1999.13   8
   1   6   8 19765.7 2029.42   7
   1   6   9 5810.68 1261.42   8
   1   7 -12 19987.5 2166.13  15
   1   7 -12 24479.8 2220.27  14
   1   7 -12 20662.1 2071.57  13
   1   7 -12 18258.3 2011.97   4
   1   7 -12 21215.2 2184.61  20
   1   7 -12 20949.0 2060.55  17
   1   7 -12 21464.4 2202.72  10
   1   7 -11 36518.1 2757.41  15
   1   7 -11 42488.5 2894.00  14
   1   7 -11 42665.4 2976.22  13
   1   7 -11 37171.6 2758.01   4
   1   7 -11 35730.2 2695.44  20
   1   7 -11 38954.2 2831.74  17
   1   7 -10 75427.0 3879.98  15
   1   7 -10 76383.5 3884.59  14
   1   7 -10 75554.2 3865.00  13
   1   7 -10 74408.4 3738.21   4
   1   7 -10 80524.2 3942.31  20
   1   7 -10 77703.4 3970.11  17
   1   7  -9 23644.8 1642.57   5
   1   7  -9 22896.4 2016.11  15
   1   7  -9 20547.4 1881.68  14
   1   7  -9 21918.9 1916.64  13
   1   7  -9 26463.7 2048.69   4
   1   7  -9 26866.6 2177.39  20
   1   7  -8 6084.58 1006.44  15
   1   7  -8 4767.53 935.919  14
   1   7  -8 6491.08 1006.38  13
   1   7  -8 5525.09 1013.73   7
   1   7  -8 3643.81 911.031  12
   1   7  -8 5266.83 996.725   4
   1   7  -8 6256.85 1053.92  20
   1   7  -7 40642.7 2436.53  15
   1   7  -7 41309.0 2456.23  14
   1   7  -7 40370.0 2325.39   7
   1   7  -7 43335.0 2493.09  13
   1   7  -7 38483.2 2394.83  12
   1   7  -7 38792.3 2404.80  20
   1   7  -6 52796.6 2703.68  15
   1   7  -6 55042.6 2777.74  14
   1   7  -6 59399.3 2733.15   7
   1   7  -6 51880.7 2720.77  13
   1   7  -6 57308.2 2830.42  12
   1   7  -6 56045.6 2748.91  20
   1   7  -5 50250.2 2524.74  15
   1   7  -5 51108.9 2539.72  14
   1   7  -5 49530.6 2449.41   7
   1   7  -5 52210.1 2537.99  13
   1   7  -5 52082.3 2547.68  12
   1   7  -5 54614.4 2639.17  20
   1   7  -4 16072.8 1343.38  15
   1   7  -4 14493.7 1282.59  14
   1   7  -4 14221.2 1297.95   7
   1   7  -4 11626.9 1161.40  13
   1   7  -4 14148.9 1266.96  12
   1   7  -4 14120.6 1269.61  20
   1   7  -3 22072.7 1529.52  15
   1   7  -3 19892.3 1490.64  14
   1   7  -3 23228.8 1557.26  13
   1   7  -3 23493.7 1568.67   7
   1   7  -3 21363.3 1489.69  12
   1   7  -2 116158. 3834.32  15
   1   7  -2 111754. 3745.20  14
   1   7  -2 114913. 3774.08  13
   1   7  -2 122966. 3991.96   7
   1   7  -2 115149. 3768.76  12
   1   7  -2 119975. 3172.44   6
   1   7  -1 92901.5 3217.97  12
   1   7  -1 91813.8 3233.09  15
   1   7  -1 93299.4 3219.39  14
   1   7  -1 93170.8 3216.28  13
   1   7  -1 93905.6 3461.89   7
   1   7  -1 97078.2 2527.14   6
   1   7   0 9051.52 785.164   8
   1   7   0 8237.93 901.480  15
   1   7   0 8481.26 893.517  14
   1   7   0 9466.17 914.994  13
   1   7   0 8411.25 1048.21   7
   1   7   0 7433.49 814.202  12
   1   7   0 9167.29 562.130   6
   1   7   1 6142.15 716.380   8
   1   7   1 5390.04 729.318  15
   1   7   1 6174.57 782.058  14
   1   7   1 6685.06 822.220  13
   1   7   1 7387.35 948.245   7
   1   7   1 7232.45 794.861  12
   1   7   2 61831.7 2473.49  15
   1   7   2 61693.4 2463.55   8
   1   7   2 64424.3 2515.11  14
   1   7   2 60024.5 2455.72  13
   1   7   2 62186.9 2896.45   7
   1   7   2 64320.5 2500.08  12
   1   7   3 81985.1 3152.54   8
   1   7   3 83346.6 3016.69  14
   1   7   3 88598.2 3097.80  13
   1   7   3 75524.4 3431.47   7
   1   7   3 91154.3 3096.28  12
   1   7   4 18180.4 1528.21   8
   1   7   4 19902.4 1433.26  14
   1   7   4 18745.2 1362.55  13
   1   7   4 18319.9 1678.31   7
   1   7   4 20513.0 1387.77  12
   1   7   5 3550.12 786.437   8
   1   7   5 3865.21 814.700   7
   1   7   6 19111.8 1791.40   8
   1   7   6 14135.2 1685.69   7
   1   7   7 43731.1 2892.15   8
   1   7   7 46318.9 3093.39   7
   1   7   8 21609.2 2207.32   8
   1   8 -11 22452.5 2298.86  15
   1   8 -11 25223.5 2408.75  14
   1   8 -11 25591.3 2377.50  13
   1   8 -11 25201.7 2353.95   4
   1   8 -11 25645.9 2364.80  20
   1   8 -11 26686.3 2451.20  17
   1   8 -10 44946.8 3109.47  15
   1   8 -10 49710.7 3131.84  14
   1   8 -10 39051.2 2912.67  13
   1   8 -10 45951.6 2943.21   4
   1   8 -10 40767.2 2957.93  20
   1   8  -9 23484.1 2143.16  15
   1   8  -9 24521.2 2168.24  14
   1   8  -9 24395.0 2090.76   7
   1   8  -9 27677.8 2267.41  13
   1   8  -9 23063.2 2072.82   4
   1   8  -9 23870.4 2115.97  20
   1   8  -8 5581.88 1039.15  15
   1   8  -8 5907.18 1013.11  14
   1   8  -8 5753.94 1041.43  13
   1   8  -8 5305.61 1054.83   7
   1   8  -8 4630.29 974.726   4
   1   8  -8 5579.47 1033.73  20
   1   8  -8 5116.09 993.376  12
   1   8  -7 27994.7 2200.06  15
   1   8  -7 34035.2 2331.61  14
   1   8  -7 32618.2 2214.02   7
   1   8  -7 31082.2 2225.23  13
   1   8  -7 31782.4 2277.54  12
   1   8  -7 31706.2 2295.52  20
   1   8  -6 42378.0 2481.22  15
   1   8  -6 41049.2 2494.03  14
   1   8  -6 41220.9 2402.16   7
   1   8  -6 40586.3 2478.28  13
   1   8  -6 44066.9 2538.81  12
   1   8  -6 39931.2 2446.26  20
   1   8  -5 17457.7 1591.69  15
   1   8  -5 19169.2 1664.96  14
   1   8  -5 21674.4 1692.21   7
   1   8  -5 20617.5 1685.13  13
   1   8  -5 19039.8 1621.68  12
   1   8  -5 19225.0 1606.02  20
   1   8  -4 17133.7 1496.00  15
   1   8  -4 18441.4 1531.32  14
   1   8  -4 17987.9 1524.77   7
   1   8  -4 15498.8 1381.87  13
   1   8  -4 18195.7 1500.76  12
   1   8  -4 17429.1 1484.56  20
   1   8  -3 8982.75 1116.22  15
   1   8  -3 9067.01 1067.23  14
   1   8  -3 9079.60 1032.36  13
   1   8  -3 9950.20 1163.83   7
   1   8  -3 10738.6 1117.99  12
   1   8  -2 88555.2 3425.85  15
   1   8  -2 88303.3 3386.45  14
   1   8  -2 85014.6 3324.50  13
   1   8  -2 85008.3 3453.41   7
   1   8  -2 86190.5 3349.60  12
   1   8  -1 125806. 4150.65  15
   1   8  -1 121456. 4059.49  14
   1   8  -1 125199. 4105.43  13
   1   8  -1 118007. 4276.58   7
   1   8  -1 121332. 4062.93  12
   1   8   0 32535.1 1885.87  15
   1   8   0 31720.8 1850.90  14
   1   8   0 31033.0 1809.91  13
   1   8   0 27878.8 1958.69   7
   1   8   0 34456.4 1897.83  12
   1   8   1 20217.0 1327.88   8
   1   8   1 19820.7 1480.23  15
   1   8   1 20067.0 1461.49  14
   1   8   1 19013.9 1427.40  13
   1   8   1 18876.2 1634.10   7
   1   8   1 19334.1 1407.73  12
   1   8   2 31605.8 1838.70  15
   1   8   2 30472.4 1775.89   8
   1   8   2 30473.3 1841.41  14
   1   8   2 30627.6 1864.10  13
   1   8   2 30679.3 2179.36   7
   1   8   2 32930.1 1863.52  12
   1   8   3 57753.8 2694.40   8
   1   8   3 57647.2 2602.92  13
   1   8   3 51915.1 2978.86   7
   1   8   3 60033.4 2624.19  12
   1   8   4 11621.8 1330.29   8
   1   8   4 14700.6 1693.28   7
   1   8   5 784.734 642.718   8
   1   8   5 811.200 604.193   7
   1   8   6 17159.6 1802.35   8
   1   8   6 19685.1 1996.81   7
   1   8   7 30547.2 2454.70   8
   1   9 -10 64399.0 3727.99  15
   1   9 -10 60430.2 3679.03  14
   1   9 -10 61102.2 3701.27  13
   1   9 -10 64110.6 3747.21   4
   1   9 -10 68097.1 3884.85  20
   1   9  -9 26018.6 2233.89  15
   1   9  -9 29481.8 2390.21  14
   1   9  -9 22828.0 2117.25   7
   1   9  -9 22196.5 2116.40  13
   1   9  -9 25572.9 2197.11   4
   1   9  -9 25418.6 2264.28  12
   1   9  -9 22893.6 2162.92  20
   1   9  -8 8849.26 1284.14  15
   1   9  -8 11223.8 1464.28  14
   1   9  -8 9106.75 1366.03  13
   1   9  -8 10150.2 1451.52   7
   1   9  -8 11615.1 1505.05   4
   1   9  -8 11339.5 1476.87  12
   1   9  -8 9533.91 1430.70  20
   1   9  -7 19302.1 1847.89  15
   1   9  -7 17752.8 1756.77  14
   1   9  -7 19879.9 1820.41   7
   1   9  -7 20840.6 1915.29  13
   1   9  -7 19202.3 1862.79  12
   1   9  -7 18466.9 1814.23  20
   1   9  -6 36233.1 2465.73  15
   1   9  -6 43214.7 2675.93  14
   1   9  -6 41493.8 2585.38   7
   1   9  -6 42065.2 2633.17  13
   1   9  -6 41972.5 2633.05  12
   1   9  -6 39871.2 2605.07  20
   1   9  -5 29996.8 2107.26  15
   1   9  -5 32211.6 2235.39  14
   1   9  -5 27797.2 2048.65   7
   1   9  -5 27718.1 2068.16  13
   1   9  -5 29194.8 2148.22  12
   1   9  -5 27317.8 2057.88  20
   1   9  -4 10565.9 1304.23  15
   1   9  -4 10494.5 1260.49  14
   1   9  -4 12559.3 1346.59   7
   1   9  -4 10744.2 1293.08  13
   1   9  -4 10602.8 1300.27  20
   1   9  -4 10147.6 1315.46  12
   1   9  -3 36126.7 2219.80  15
   1   9  -3 32647.2 2153.24  14
   1   9  -3 34717.2 2197.84  13
   1   9  -3 33106.6 2227.80   7
   1   9  -3 34578.1 2209.11  12
   1   9  -2 60824.5 2977.74  14
   1   9  -2 68336.0 3084.09  13
   1   9  -2 61432.6 3112.36   7
   1   9  -2 66200.6 3034.23  12
   1   9  -1 61392.6 2909.31  15
   1   9  -1 58619.9 2799.66  14
   1   9  -1 64925.2 2910.46  13
   1   9  -1 54121.6 2968.89   7
   1   9  -1 59142.0 2844.22  12
   1   9   0 34949.4 2107.33  15
   1   9   0 33362.8 2035.18  12
   1   9   0 29258.1 1949.38  14
   1   9   0 30175.4 1980.91  13
   1   9   0 27397.4 2072.29   7
   1   9   1 7522.04 1007.97  15
   1   9   1 6816.45 930.956  14
   1   9   1 7137.82 983.715  13
   1   9   1 5584.45 1050.48   7
   1   9   1 6711.89 938.823  12
   1   9   2 15152.2 1596.96   7
   1   9   3 42860.5 2806.85   7
   1   9   4 18916.3 1894.62   7
   1   9   5-320.753 566.126   7
   1  10  -9 49883.6 3287.24  15
   1  10  -9 45807.9 3164.79  14
   1  10  -9 46862.9 3168.84   7
   1  10  -9 48459.9 3287.80  13
   1  10  -9 46985.0 3207.77   4
   1  10  -9 43732.3 3155.97  12
   1  10  -9 57204.6 3469.86  20
   1  10  -8 8915.39 1463.37  15
   1  10  -8 9479.47 1460.43  14
   1  10  -8 8957.04 1408.31  13
   1  10  -8 7310.52 1309.18   7
   1  10  -8 10100.2 1369.34  20
   1  10  -8 9544.09 1432.53  12
   1  10  -7 17443.3 1881.98  15
   1  10  -7 14093.0 1766.75  14
   1  10  -7 15298.3 1748.40   7
   1  10  -7 16499.5 1820.05  13
   1  10  -7 16248.6 1702.37  20
   1  10  -7 12928.9 1684.18  12
   1  10  -6 45631.7 2922.05  15
   1  10  -6 53524.0 3109.54  14
   1  10  -6 44405.8 2879.04   7
   1  10  -6 44433.0 2930.63  13
   1  10  -6 44806.4 2919.36  12
   1  10  -6 48640.9 2998.62  20
   1  10  -5 48977.6 2918.46  15
   1  10  -5 49009.0 2958.77  14
   1  10  -5 49974.6 2911.75   7
   1  10  -5 46604.3 2872.99  13
   1  10  -5 46203.3 2902.07  12
   1  10  -5 53517.3 3090.59  20
   1  10  -4 6151.48 1085.99  15
   1  10  -4 6108.59 1058.67  14
   1  10  -4 4797.03 985.727  13
   1  10  -4 5697.33 1030.55   7
   1  10  -4 6845.79 1147.61  20
   1  10  -4 4419.87 958.226  12
   1  10  -3 7863.66 1160.10  15
   1  10  -3 5457.16 1038.53  14
   1  10  -3 7306.20 1128.66  13
   1  10  -3 6108.35 1098.10   7
   1  10  -3 6850.57 1006.88  20
   1  10  -3 7458.81 1141.34  12
   1  10  -2 40459.3 2545.56  15
   1  10  -2 42914.7 2578.77  14
   1  10  -2 40891.1 2545.41  13
   1  10  -2 36097.5 2481.02   7
   1  10  -2 40238.3 2449.30  12
   1  10  -1 21923.0 1836.54  15
   1  10  -1 17546.8 1627.76  14
   1  10  -1 18488.2 1694.13  13
   1  10  -1 16308.4 1702.99   7
   1  10  -1 18940.8 1685.67  12
   1  10   0 16942.4 1654.43  15
   1  10   0 15071.5 1496.99  14
   1  10   0 15135.2 1535.19  13
   1  10   0 15223.6 1648.58   7
   1  10   0 15562.7 1581.88  12
   1  10   1 12045.0 1506.11   7
   1  10   2 12396.5 1742.62   7
   1  10   3 28712.4 2422.22   7
   1  11  -7 3296.06 1028.13  15
   1  11  -7 1780.55 867.861  14
   1  11  -7 6115.73 1352.09  13
   1  11  -7 4019.74 1037.00  20
   1  11  -7 4296.82 1217.72  12
   1  11  -6 23392.1 2194.45  15
   1  11  -6 25197.5 2286.79  14
   1  11  -6 25263.6 2208.20   7
   1  11  -6 20483.5 2141.91  13
   1  11  -6 23621.4 2239.98  12
   1  11  -6 25827.8 2331.21  20
   1  11  -5 29158.8 2411.36  15
   1  11  -5 29431.2 2531.94  14
   1  11  -5 26617.8 2370.35   7
   1  11  -5 30454.4 2532.54  13
   1  11  -5 31006.6 2525.84  12
   1  11  -5 30862.1 2459.00  20
   1  11  -4 4440.01 1062.99  15
   1  11  -4 5281.00 1076.54  14
   1  11  -4 1876.65 773.792  13
   1  11  -4 4105.87 848.386   7
   1  11  -4 4149.76 1026.78  20
   1  11  -4 4797.90 1045.57  12
   1  11  -3 2008.30 642.481  15
   1  11  -3 1307.46 669.848  14
   1  11  -3 530.817 683.260  13
   1  11  -3 1307.93 500.418   7
   1  11  -3 175.528 620.900  20
   1  11  -3 1227.89 528.711  12
   1  11  -2 14613.0 1697.69  15
   1  11  -2 13700.9 1626.72  14
   1  11  -2 15904.8 1702.94  13
   1  11  -2 12930.3 1598.06   7
   1  11  -2 15975.0 1734.53  12
   1  11  -1 37830.4 2660.93  15
   1  11  -1 34527.7 2452.71  14
   1  11  -1 37658.1 2571.77  13
   1  11  -1 31512.7 2557.82   7
   1  11  -1 37394.6 2510.02  12
   1  11   0 11167.8 1475.87   7
   1  12  -4 11330.3 1581.34  15
   1  12  -4 8854.61 1654.42  14
   1  12  -4 13123.5 1736.94  13
   1  12  -4 12405.8 1667.23  20
   1  12  -4 12064.1 1656.00  12
   1  12  -3 3650.69 899.907  15
   1  12  -3 5472.44 1056.56  14
   1  12  -3 4239.36 1093.50  13
   1  12  -3 3629.48 999.940  20
   1  12  -3 2909.79 1191.12  12
   2 -12   3 21800.5 2424.07  11
   2 -11  -1 28802.1 2564.64   2
   2 -11  -1 28762.7 2360.59  19
   2 -11  -1 30470.6 2442.69  18
   2 -11  -1 25538.6 2246.24  17
   2 -11   0 6844.75 1283.64   2
   2 -11   0 7024.57 1199.57  19
   2 -11   0 8291.81 1648.61  11
   2 -11   0 8953.32 1279.93  18
   2 -11   0 9680.00 1346.32  17
   2 -11   1 6033.32 1195.63   2
   2 -11   1 5663.00 1047.31  19
   2 -11   1 4854.20 1240.01  11
   2 -11   1 5671.45 998.604  18
   2 -11   1 6204.18 1118.46  17
   2 -11   2 17326.5 1794.57   2
   2 -11   2 16695.5 1873.15   3
   2 -11   2 16418.4 1819.25  19
   2 -11   2 19802.0 1992.82  18
   2 -11   2 17724.9 1993.02  11
   2 -11   2 18383.9 1869.18  17
   2 -11   3 32021.0 2736.66   3
   2 -11   3 34197.6 2610.13  19
   2 -11   3 28572.3 2446.27  18
   2 -11   3 30714.3 2588.93  11
   2 -11   3 34333.4 2653.61  17
   2 -11   4 12045.5 1691.41   3
   2 -11   4 11764.3 1456.09  19
   2 -11   4 9693.38 1447.18  18
   2 -11   4 10309.5 1481.77  17
   2 -11   5 5885.00 1343.73   3
   2 -10  -4 3915.12 893.275  20
   2 -10  -4 3701.00 942.897  19
   2 -10  -4 3983.85 888.701  18
   2 -10  -4 4179.42 924.489  17
   2 -10  -3 14004.8 1816.50   2
   2 -10  -3 13486.9 1536.50  20
   2 -10  -3 11669.9 1419.78  19
   2 -10  -3 13031.7 1737.89  11
   2 -10  -3 11827.6 1399.61  18
   2 -10  -3 12121.5 1505.45  17
   2 -10  -2 37437.6 2856.31   2
   2 -10  -2 28380.9 2310.11  19
   2 -10  -2 29990.3 2353.05  18
   2 -10  -2 36095.1 3094.68  11
   2 -10  -2 35109.8 2524.31  17
   2 -10  -1 44052.2 3004.22   2
   2 -10  -1 38603.4 2664.04  19
   2 -10  -1 40564.8 2756.78  18
   2 -10  -1 40133.5 3247.80  11
   2 -10  -1 38898.1 2664.03  17
   2 -10   0 8208.68 1222.72   2
   2 -10   0 4290.15 928.658  19
   2 -10   0 6669.19 1156.85  18
   2 -10   0 4884.59 1153.62  11
   2 -10   0 4532.70 997.543  17
   2 -10   1 7804.48 1217.47   3
   2 -10   1 4100.90 976.722   2
   2 -10   1 6971.25 1143.51  19
   2 -10   1 6372.02 1322.86  11
   2 -10   1 7174.89 1119.80  18
   2 -10   1 8396.03 1225.27  17
   2 -10   2 41286.7 2552.43   2
   2 -10   2 36456.6 2898.09  11
   2 -10   2 41615.0 2893.29   3
   2 -10   2 35092.1 2485.43  19
   2 -10   2 37023.4 2588.49  18
   2 -10   2 37750.6 2628.60  17
   2 -10   3 32709.3 2153.11   9
   2 -10   3 33661.4 2193.54   2
   2 -10   3 31523.4 2576.74   3
   2 -10   3 29257.0 2279.93  19
   2 -10   3 26709.1 2229.69  18
   2 -10   3 28018.4 2480.51  11
   2 -10   3 27284.8 2243.05  17
   2 -10   4 13568.6 1773.54   3
   2 -10   4 13974.1 1596.66  19
   2 -10   4 13467.0 1640.85  18
   2 -10   4 14570.9 1701.41  11
   2 -10   4 15545.2 1690.42  17
   2 -10   5 1125.17 783.309   3
   2 -10   5 1994.45 651.539  19
   2 -10   5 705.282 474.732  18
   2 -10   5 978.727 434.834  17
   2 -10   6 15721.0 2052.24   3
   2 -10   6 13594.3 1652.85  19
   2 -10   6 15957.8 1791.20  18
   2 -10   7 52700.2 3923.13   3
   2 -10   7 54807.7 3533.70  19
   2 -10   7 57640.5 3530.97  18
   2  -9  -6 23966.0 2159.38  20
   2  -9  -6 24486.4 2073.43  19
   2  -9  -6 26567.7 2248.91  18
   2  -9  -6 23875.0 2148.65  17
   2  -9  -5 9075.85 1409.88   2
   2  -9  -5 10139.2 1301.49  20
   2  -9  -5 10273.6 1401.82  19
   2  -9  -5 12429.8 1790.92  11
   2  -9  -5 9649.84 1255.93  18
   2  -9  -5 7037.99 1099.63  17
   2  -9  -4 355.016 296.195   2
   2  -9  -4 1276.52 652.752  20
   2  -9  -4 102.561 380.424  19
   2  -9  -4 353.008 323.183  11
   2  -9  -4 870.647 489.633  18
   2  -9  -4 467.065 352.143  17
   2  -9  -3 6588.92 1245.18   2
   2  -9  -3 7112.32 1068.63  20
   2  -9  -3 5907.24 992.667  19
   2  -9  -3 4527.14 1096.34  11
   2  -9  -3 4954.90 897.281  18
   2  -9  -3 5126.87 943.322  17
   2  -9  -2 50912.3 2860.21  20
   2  -9  -2 48759.2 3093.97   2
   2  -9  -2 50874.6 2913.01  19
   2  -9  -2 49837.4 2872.49  18
   2  -9  -2 54408.5 3629.42  11
   2  -9  -2 47762.6 2847.63  17
   2  -9  -1 49715.8 2996.81   2
   2  -9  -1 53279.9 2941.06  19
   2  -9  -1 48684.4 2856.55  18
   2  -9  -1 53043.4 3508.29  11
   2  -9  -1 48842.9 2864.70  17
   2  -9   0 15700.5 1581.23   2
   2  -9   0 21226.9 1836.28   3
   2  -9   0 14657.0 1554.16  19
   2  -9   0 14971.8 1535.61  18
   2  -9   0 14858.7 1863.12  11
   2  -9   0 18187.9 1716.05  17
   2  -9   1 9388.81 1327.86   3
   2  -9   1 8196.70 1214.86   2
   2  -9   1 8250.61 1394.17  11
   2  -9   1 9796.65 1253.48  19
   2  -9   1 6786.84 1141.33  18
   2  -9   1 8412.09 1212.45  17
   2  -9   2 33424.9 2086.14   2
   2  -9   2 29265.5 2433.80   3
   2  -9   2 28739.4 2126.37  19
   2  -9   2 30230.3 2193.72  18
   2  -9   2 28994.4 2445.37  11
   2  -9   2 32771.5 2247.14  17
   2  -9   3 63364.3 2807.91   9
   2  -9   3 65958.1 2891.03   2
   2  -9   3 56632.5 3511.45   3
   2  -9   3 56663.2 3089.00  19
   2  -9   3 53315.8 3033.53  18
   2  -9   3 63851.0 3503.93  11
   2  -9   3 58565.3 3120.30  17
   2  -9   4 23231.6 1586.42   9
   2  -9   4 22181.2 2226.94   3
   2  -9   4 21723.9 1912.53  19
   2  -9   4 25148.7 1982.86  18
   2  -9   4 23997.8 2078.80  11
   2  -9   4 22744.6 1964.57  17
   2  -9   5 4450.19 1268.54   3
   2  -9   5 5867.89 970.368  19
   2  -9   5 7789.54 1191.46  11
   2  -9   5 6935.55 1055.99  18
   2  -9   5 4298.37 985.489  17
   2  -9   6 18059.7 2166.76   3
   2  -9   6 21322.0 1962.96  19
   2  -9   6 20923.5 1884.34  18
   2  -9   7 76056.8 4581.04   3
   2  -9   7 85243.4 4124.71  19
   2  -9   7 79059.3 4007.44  18
   2  -9   8 45172.0 3605.49   3
   2  -9   8 49002.7 3199.30  19
   2  -9   8 48877.0 3184.96  18
   2  -9   9 8923.39 1446.94  19
   2  -9   9 8040.68 1225.84  18
   2  -8  -8 1969.77 1013.74  20
   2  -8  -8 1325.83 1062.50  19
   2  -8  -8 153.840 749.844  18
   2  -8  -8 2219.91 957.907  17
   2  -8  -7 9269.31 1631.14   2
   2  -8  -7 7834.82 1263.46  20
   2  -8  -7 11898.5 1453.03  19
   2  -8  -7 14150.3 1815.93  11
   2  -8  -7 10909.2 1383.90  18
   2  -8  -7 9608.75 1271.11  17
   2  -8  -6 29239.2 2707.66   2
   2  -8  -6 31343.5 2284.41  19
   2  -8  -6 30184.6 2293.98  20
   2  -8  -6 31396.5 2781.20  11
   2  -8  -6 30204.3 2267.92  18
   2  -8  -6 34042.3 2423.33  17
   2  -8  -5 12577.4 1413.66  18
   2  -8  -5 13518.2 1738.90   2
   2  -8  -5 16065.6 1604.07  19
   2  -8  -5 15820.1 1972.00  11
   2  -8  -5 13521.4 1472.17  17
   2  -8  -5 14228.7 1505.81  20
   2  -8  -4 532.762 586.683   2
   2  -8  -4 3185.73 678.796  20
   2  -8  -4 3188.81 739.885  19
   2  -8  -4 2337.72 816.343  11
   2  -8  -4 3561.34 699.131  18
   2  -8  -4 2823.61 706.617  17
   2  -8  -3 7360.47 1333.61  11
   2  -8  -3 6371.39 1220.60   2
   2  -8  -3 6945.88 1082.01  20
   2  -8  -3 6997.54 1066.73  19
   2  -8  -3 6899.99 1051.16  18
   2  -8  -3 8435.03 1091.35  17
   2  -8  -2 84987.0 3967.64   2
   2  -8  -2 79592.1 3555.64  18
   2  -8  -2 79077.0 4249.85  11
   2  -8  -2 82842.5 3647.38  17
   2  -8  -2 85192.3 3651.58  19
   2  -8  -2 88629.6 3732.18  20
   2  -8  -1 75925.5 3428.89  20
   2  -8  -1 89855.4 3575.76   3
   2  -8  -1 77568.1 3597.33   2
   2  -8  -1 77442.2 3442.89  19
   2  -8  -1 84710.6 3562.37  18
   2  -8  -1 77926.5 4096.97  11
   2  -8  -1 73582.6 3406.93  17
   2  -8   0 9240.23 1205.83   2
   2  -8   0 10545.9 1233.76   3
   2  -8   0 9773.39 1181.79  19
   2  -8   0 7730.26 1361.74  11
   2  -8   0 8541.31 1111.56  18
   2  -8   0 9551.08 1188.84  17
   2  -8   1 25114.5 2190.70  11
   2  -8   1 23317.3 1810.12  19
   2  -8   1 27700.2 1905.86   2
   2  -8   1 27190.5 2149.10   3
   2  -8   1 27810.5 1947.47  18
   2  -8   1 28052.0 1985.98  17
   2  -8   2 61993.3 2638.17   9
   2  -8   2 62956.0 2764.43   2
   2  -8   2 57519.6 3249.24  11
   2  -8   2 56729.0 3272.26   3
   2  -8   2 54870.0 2850.86  19
   2  -8   2 57442.6 2914.42  18
   2  -8   2 53672.3 2819.46  17
   2  -8   3 102243. 3466.96   9
   2  -8   3 104399. 3541.85   2
   2  -8   3 95878.1 4464.16   3
   2  -8   3 93352.7 3837.10  19
   2  -8   3 91452.8 3815.74  18
   2  -8   3 91049.8 4071.24  11
   2  -8   3 96496.4 3883.63  17
   2  -8   4 69491.0 2761.47   9
   2  -8   4 77053.7 2740.41   2
   2  -8   4 65450.6 3790.93   3
   2  -8   4 70022.0 3266.86  19
   2  -8   4 69534.2 3279.54  18
   2  -8   4 61899.1 3204.01  11
   2  -8   4 66191.1 3210.16  17
   2  -8   5 3062.41 1122.26   3
   2  -8   5 4673.64 742.990   9
   2  -8   5 4272.91 834.630  19
   2  -8   5 6151.98 987.942  11
   2  -8   5 4310.26 868.546  18
   2  -8   5 3267.55 791.851  17
   2  -8   6 14193.0 1962.98   3
   2  -8   6 14106.0 1520.35  19
   2  -8   6 14489.9 1494.31  18
   2  -8   7 48401.0 3443.62   3
   2  -8   7 44914.4 2789.66  19
   2  -8   7 47051.7 2842.18  18
   2  -8   8 44150.3 3475.94   3
   2  -8   8 49668.7 3011.27  19
   2  -8   8 47332.2 2968.69  18
   2  -8   9 11701.7 2100.12   3
   2  -8   9 14104.0 1702.38  19
   2  -8   9 13450.9 1704.75  18
   2  -8  10 2758.60 1187.75   3
   2  -8  10 3013.78 734.327  19
   2  -8  10 4413.30 1103.05  18
   2  -7  -9 8824.48 1283.47  20
   2  -7  -9 8937.71 1506.85  19
   2  -7  -9 9142.08 1526.43  11
   2  -7  -9 8620.36 1239.25  18
   2  -7  -9 7543.28 1272.18  17
   2  -7  -8 7334.78 1288.69   2
   2  -7  -8 7396.38 1183.09  20
   2  -7  -8 6541.88 1060.87  19
   2  -7  -8 5131.72 1146.73  11
   2  -7  -8 6135.23 995.790  18
   2  -7  -8 6232.81 1108.88  17
   2  -7  -7 20866.7 1901.34  20
   2  -7  -7 18018.3 2007.79   2
   2  -7  -7 14877.2 1617.40  19
   2  -7  -7 20879.8 2208.96  11
   2  -7  -7 16217.1 1696.46  18
   2  -7  -7 20834.7 1857.85  17
   2  -7  -6 50621.7 2874.25  20
   2  -7  -6 43678.3 3052.86   2
   2  -7  -6 45601.7 2759.13  19
   2  -7  -6 48481.8 3321.44  11
   2  -7  -6 39965.6 2592.50  18
   2  -7  -6 47747.7 2792.60  17
   2  -7  -5 57957.7 3040.22  20
   2  -7  -5 66289.1 3598.45   2
   2  -7  -5 60710.4 3116.33  19
   2  -7  -5 58961.1 3532.80  11
   2  -7  -5 63162.2 3136.94  17
   2  -7  -5 55185.8 2932.53  18
   2  -7  -4 3190.21 879.058   2
   2  -7  -4 5222.35 902.986  20
   2  -7  -4 4602.82 869.402  19
   2  -7  -4 4049.12 1074.42  11
   2  -7  -4 4106.98 834.061  18
   2  -7  -4 4207.62 777.740  17
   2  -7  -3 5152.94 1025.27   2
   2  -7  -3 2689.09 700.625  20
   2  -7  -3 3826.88 677.989  19
   2  -7  -3 3302.34 984.350  11
   2  -7  -3 4775.07 824.162  18
   2  -7  -3 4148.64 763.473  17
   2  -7  -2 87505.6 3502.62  20
   2  -7  -2 96204.5 3395.20   3
   2  -7  -2 81758.5 3687.75   2
   2  -7  -2 79224.0 3406.69  19
   2  -7  -2 89363.2 3548.28  18
   2  -7  -2 92222.2 4297.21  11
   2  -7  -2 86406.3 3492.96  17
   2  -7  -1 124299. 4578.52   2
   2  -7  -1 131732. 4449.06  20
   2  -7  -1 141333. 4575.29   3
   2  -7  -1 129066. 4438.09  19
   2  -7  -1 125904. 4396.16  18
   2  -7  -1 132287. 5186.16  11
   2  -7  -1 132707. 4457.50  17
   2  -7   0 32029.9 1970.49  20
   2  -7   0 31446.2 1989.56   2
   2  -7   0 31701.1 2094.65   3
   2  -7   0 32989.0 1965.05  19
   2  -7   0 32075.2 1963.52  18
   2  -7   0 29003.8 2252.82  11
   2  -7   0 30635.5 1953.51  17
   2  -7   1 20725.9 1535.74   2
   2  -7   1 19202.3 1681.40   3
   2  -7   1 17901.1 1466.24  19
   2  -7   1 18985.9 1494.67  18
   2  -7   1 18359.6 1850.82  11
   2  -7   1 18944.0 1515.45  17
   2  -7   2 128234. 3842.59   9
   2  -7   2 128835. 4034.75   2
   2  -7   2 126775. 4816.25   3
   2  -7   2 122956. 4256.95  19
   2  -7   2 122783. 4260.57  18
   2  -7   2 122440. 4651.05  11
   2  -7   2 119648. 4242.58  17
   2  -7   3 130169. 3820.59   9
   2  -7   3 133393. 3915.36   2
   2  -7   3 112679. 4782.48   3
   2  -7   3 134282. 4441.97  19
   2  -7   3 122096. 4308.04  18
   2  -7   3 121942. 4558.88  11
   2  -7   3 128865. 4394.47  17
   2  -7   4 21673.4 1323.58   9
   2  -7   4 24495.2 1307.88   2
   2  -7   4 17893.8 1882.34   3
   2  -7   4 19468.9 1591.38  19
   2  -7   4 21976.2 1662.95  18
   2  -7   4 22500.6 1739.51  11
   2  -7   4 22410.2 1695.93  17
   2  -7   5 1245.06 932.808   3
   2  -7   5 1622.61 475.036   9
   2  -7   5 1946.70 594.023  19
   2  -7   5 3448.03 736.538  11
   2  -7   5 2134.79 622.926  18
   2  -7   5 2301.15 655.303  17
   2  -7   6 8506.29 854.872   9
   2  -7   6 6014.73 1371.43   3
   2  -7   6 7940.70 1123.77  19
   2  -7   6 9745.42 1134.02  18
   2  -7   7 38254.0 3052.73   3
   2  -7   7 45508.1 2630.08  19
   2  -7   7 43477.0 2604.13  18
   2  -7   8 48852.1 3536.14   3
   2  -7   8 48242.9 2808.63  19
   2  -7   8 46033.7 2768.23  18
   2  -7   9 23518.2 2542.64   3
   2  -7   9 25461.0 2132.89  19
   2  -7   9 24342.6 2110.21  18
   2  -7  10 4963.59 1329.13   3
   2  -7  10 6447.79 1233.47  19
   2  -7  10 5503.91 1142.84  18
   2  -7  11 19561.8 2463.18   3
   2  -7  11 16963.1 1942.98  19
   2  -6 -10 27408.9 2367.88  15
   2  -6 -10 23605.8 2232.20  20
   2  -6 -10 27230.2 2211.55  19
   2  -6 -10 28798.9 2381.69  18
   2  -6 -10 23794.8 2245.53  17
   2  -6  -9 18724.9 1908.66  15
   2  -6  -9 17019.4 1959.39   2
   2  -6  -9 16886.4 1763.58  20
   2  -6  -9 16421.3 1632.71  19
   2  -6  -9 17111.4 1841.51  11
   2  -6  -9 16790.7 1727.38  18
   2  -6  -9 12857.0 1624.33  17
   2  -6  -8 19861.1 1878.73  15
   2  -6  -8 15630.2 1777.44   2
   2  -6  -8 19486.3 1871.19  19
   2  -6  -8 19332.0 2045.46  11
   2  -6  -8 17037.7 1709.00  18
   2  -6  -8 18374.8 1804.04  20
   2  -6  -8 19948.8 1829.18  17
   2  -6  -7 42942.0 2730.95  15
   2  -6  -7 42966.0 2691.56  20
   2  -6  -7 42056.1 2639.20  19
   2  -6  -7 44982.1 2945.51   2
   2  -6  -7 45036.0 3091.44  11
   2  -6  -7 46125.3 2687.37  18
   2  -6  -7 38755.4 2543.61  17
   2  -6  -6 40122.7 2503.05  20
   2  -6  -6 42010.2 2538.93  19
   2  -6  -6 43578.9 2919.16   2
   2  -6  -6 50200.0 3138.46  11
   2  -6  -6 46153.7 2688.74  18
   2  -6  -6 41700.1 2508.93  17
   2  -6  -5 52717.1 2744.46  20
   2  -6  -5 51091.1 2712.62  19
   2  -6  -5 50795.8 3063.47   2
   2  -6  -5 54515.8 3218.94  11
   2  -6  -5 49591.3 2669.09  18
   2  -6  -5 58164.1 2226.28  10
   2  -6  -5 52954.9 2736.61  17
   2  -6  -4 15867.5 1423.43  20
   2  -6  -4 15606.1 1389.06  19
   2  -6  -4 15780.6 1623.45   2
   2  -6  -4 13404.4 1680.03  11
   2  -6  -4 15471.4 1416.22  18
   2  -6  -4 15585.7 1382.03  17
   2  -6  -3 3029.36 547.198   3
   2  -6  -3 4739.77 923.510   2
   2  -6  -3 3188.65 682.470  20
   2  -6  -3 3394.54 673.818  19
   2  -6  -3 2302.50 919.113  11
   2  -6  -3 2051.22 627.608  18
   2  -6  -3 3791.47 768.921  17
   2  -6  -2 82486.1 3220.56  20
   2  -6  -2 85291.1 3045.01   3
   2  -6  -2 82638.7 3209.50  19
   2  -6  -2 80792.2 3453.95   2
   2  -6  -2 80629.5 3202.96  18
   2  -6  -2 83838.1 3223.68  17
   2  -6  -1 155426. 4715.27   3
   2  -6  -1 148680. 4657.17  19
   2  -6  -1 155657. 4938.16   2
   2  -6  -1 145427. 4625.86  18
   2  -6  -1 154531. 4706.85  17
   2  -6  -1 153653. 4704.86  20
   2  -6   0 58114.4 2514.06  20
   2  -6   0 55453.5 2468.37  19
   2  -6   0 61007.2 2734.80   3
   2  -6   0 58352.0 2602.22   2
   2  -6   0 55172.7 2458.43  18
   2  -6   0 52187.6 2413.38  17
   2  -6   1 1509.45 751.579   3
   2  -6   1 1819.33 582.216   2
   2  -6   1 2041.23 573.895  19
   2  -6   1 1961.82 544.322  18
   2  -6   1 1528.98 540.400  17
   2  -6   2 41868.8 1755.95   9
   2  -6   2 41147.9 1922.20   2
   2  -6   2 42466.5 2109.70  19
   2  -6   2 42185.3 2476.72   3
   2  -6   2 40800.9 2082.38  18
   2  -6   2 41423.9 2069.81  17
   2  -6   3 268120. 6300.01   9
   2  -6   3 277673. 6430.11   2
   2  -6   3 271251. 7039.80  19
   2  -6   3 268327. 7030.53  18
   2  -6   3 272744. 7049.89  17
   2  -6   4 37978.1 1610.47   9
   2  -6   4 38825.7 1515.36   2
   2  -6   4 36722.4 2008.73  19
   2  -6   4 35647.7 2461.69   3
   2  -6   4 36624.3 2037.63  18
   2  -6   4 34153.2 1984.05  17
   2  -6   5 1198.86 989.668   3
   2  -6   5 157.100 301.287   9
   2  -6   5 624.503 475.483  19
   2  -6   5 1017.98 516.576  18
   2  -6   5-7.18235 572.128  17
   2  -6   6 41145.4 1755.42   9
   2  -6   6 36996.1 2222.45  19
   2  -6   6 38792.9 2772.48   3
   2  -6   6 35859.6 2201.98  18
   2  -6   6 41178.2 1938.16  11
   2  -6   7 63317.6 3004.98  19
   2  -6   7 56968.1 3532.14   3
   2  -6   7 65102.7 3051.97  18
   2  -6   8 55234.3 2940.18  19
   2  -6   8 58829.6 3606.48   3
   2  -6   8 58004.1 2983.92  18
   2  -6   9 14481.6 2135.43   3
   2  -6   9 17063.4 1654.02  19
   2  -6   9 16960.9 1670.17  18
   2  -6  10 12660.3 1513.58  19
   2  -6  10 12384.3 1497.40  18
   2  -6  11 38234.9 3300.87   3
   2  -6  11 33477.6 2594.55  19
   2  -6  12 32417.9 3057.96   3
   2  -6  12 38406.7 2947.40  19
   2  -5 -11 11961.5 1503.34  15
   2  -5 -11 9969.90 1467.34  20
   2  -5 -11 14267.0 1673.85  18
   2  -5 -11 16449.6 1828.68  17
   2  -5 -10 41684.9 2833.82  15
   2  -5 -10 38107.3 2700.04   4
   2  -5 -10 41122.8 2829.59  20
   2  -5 -10 40758.1 2954.97   2
   2  -5 -10 39769.6 2717.29  19
   2  -5 -10 36497.9 2681.03  18
   2  -5 -10 37541.3 2653.13  17
   2  -5  -9 25441.1 2069.75  15
   2  -5  -9 23614.1 2001.35   4
   2  -5  -9 23194.5 1984.40  20
   2  -5  -9 18378.8 1806.32  19
   2  -5  -9 23022.4 2113.87   2
   2  -5  -9 25329.5 2208.21  11
   2  -5  -9 20054.8 1880.25  18
   2  -5  -9 20231.9 1871.43  17
   2  -5  -8 13983.3 1506.69  18
   2  -5  -8 12870.6 1399.98  15
   2  -5  -8 12049.8 1557.33   2
   2  -5  -8 12386.8 1434.35  20
   2  -5  -8 10026.1 1267.63  19
   2  -5  -8 12661.4 1587.71  11
   2  -5  -8 11830.8 1205.25  10
   2  -5  -8 10794.2 1331.44  17
   2  -5  -7 28141.8 2032.84  15
   2  -5  -7 23612.6 1904.95  20
   2  -5  -7 24688.1 1903.51  19
   2  -5  -7 27715.8 2265.74   2
   2  -5  -7 26278.0 2230.81  11
   2  -5  -7 25302.4 1971.12  18
   2  -5  -7 27321.3 1700.82  10
   2  -5  -7 25950.8 1925.67  17
   2  -5  -6 84509.0 3559.51  15
   2  -5  -6 80052.9 3453.41  20
   2  -5  -6 79298.3 3454.53  19
   2  -5  -6 86045.6 3877.61   2
   2  -5  -6 79699.4 3840.79  11
   2  -5  -6 76595.9 3426.06  18
   2  -5  -6 85100.5 2964.29  10
   2  -5  -6 82445.1 3483.88  17
   2  -5  -5 41742.2 2358.61  15
   2  -5  -5 46292.9 2455.70  20
   2  -5  -5 45677.1 2409.11  19
   2  -5  -5 45317.5 2710.87   2
   2  -5  -5 47172.8 2454.76  18
   2  -5  -5 47830.6 2838.39  11
   2  -5  -5 48436.9 1939.95  10
   2  -5  -5 41973.4 2329.27  17
   2  -5  -4 14733.7 1336.62  15
   2  -5  -4 15749.6 1346.47  20
   2  -5  -4 16999.7 955.788   3
   2  -5  -4 16358.6 1377.15  19
   2  -5  -4 14477.0 1299.08  18
   2  -5  -4 14465.1 1532.88   2
   2  -5  -4 14906.1 922.605  10
   2  -5  -4 15497.7 1328.65  17
   2  -5  -3 32192.4 1873.97  20
   2  -5  -3 31427.8 1829.10  19
   2  -5  -3 33829.0 1535.20   3
   2  -5  -3 29345.0 1790.17  18
   2  -5  -3 27618.0 1948.93   2
   2  -5  -3 32344.4 1863.24  17
   2  -5  -2 33234.5 1790.04  19
   2  -5  -2 29913.7 1741.03  20
   2  -5  -2 33451.3 1665.76   3
   2  -5  -2 32795.1 1806.00  18
   2  -5  -2 32466.1 1978.83   2
   2  -5  -2 30698.8 1761.20  17
   2  -5  -1 77290.4 2813.19  20
   2  -5  -1 67008.5 2679.70  19
   2  -5  -1 74595.3 2760.78   3
   2  -5  -1 71903.9 2737.62  18
   2  -5  -1 77459.4 2979.33   2
   2  -5  -1 70589.0 2722.80  17
   2  -5   0 69022.8 2623.43  20
   2  -5   0 70030.3 2637.41  19
   2  -5   0 65256.1 2685.21   3
   2  -5   0 70770.8 2702.34   2
   2  -5   0 66454.5 2574.92  18
   2  -5   0 67437.9 2604.29  17
   2  -5   1 7366.07 1011.82   3
   2  -5   1 7601.01 861.595  20
   2  -5   1 6384.48 790.152  19
   2  -5   1 8541.18 861.980   2
   2  -5   1 6616.01 809.882  18
   2  -5   1 7270.04 855.294  17
   2  -5   2 55963.4 1896.91   9
   2  -5   2 60595.5 2408.98  19
   2  -5   2 58839.2 2140.54   2
   2  -5   2 55600.0 2682.98   3
   2  -5   2 55582.5 2329.11  18
   2  -5   2 58375.9 2360.27  17
   2  -5   3 302794. 6727.81   9
   2  -5   3 324288. 6891.56   2
   2  -5   3 307172. 7485.99  19
   2  -5   3 294088. 8114.60   3
   2  -5   3 300475. 7470.55  18
   2  -5   3 293492. 7448.96  17
   2  -5   4 209814. 4905.54   9
   2  -5   4 209035. 5680.64  19
   2  -5   4 194700. 6308.81   3
   2  -5   4 201503. 5637.89  18
   2  -5   4 207738. 5682.23  17
   2  -5   5 2053.00 951.523   3
   2  -5   5 2298.52 410.205   9
   2  -5   5 2560.09 217.134   2
   2  -5   5 1888.92 588.320  19
   2  -5   5 2150.37 590.719  18
   2  -5   5 2355.10 605.763  17
   2  -5   6 9753.08 786.395   9
   2  -5   6 7995.57 950.023  19
   2  -5   6 8927.07 1018.12  18
   2  -5   7 116063. 3354.35   9
   2  -5   7 111068. 4048.25  19
   2  -5   7 105187. 4642.81   3
   2  -5   7 113160. 4067.43  18
   2  -5   8 76712.0 3374.09  19
   2  -5   8 82729.7 4137.54   3
   2  -5   8 83961.7 3504.39  18
   2  -5   9 10803.7 1653.89   3
   2  -5   9 13284.4 1404.10  19
   2  -5   9 14000.2 1385.95  18
   2  -5  10 9395.90 1657.55   3
   2  -5  10 7020.48 1078.74  19
   2  -5  11 51968.6 3387.47   8
   2  -5  11 48965.8 3472.09   3
   2  -5  11 50192.1 3045.14  19
   2  -5  12 39696.1 3253.62   3
   2  -5  12 41003.1 2902.28  19
   2  -4 -11 5592.86 1088.69  15
   2  -4 -11 5477.18 1176.04   2
   2  -4 -11 3304.66 1033.66   4
   2  -4 -11 3947.70 842.422  20
   2  -4 -11 5236.44 1112.31  19
   2  -4 -11 4206.90 938.429  18
   2  -4 -11 1025.83 437.270  17
   2  -4 -10 24548.0 2106.22  15
   2  -4 -10 25035.4 2046.66   4
   2  -4 -10 21857.2 2046.29  20
   2  -4 -10 21743.6 2005.06  19
   2  -4 -10 19629.1 2025.07   2
   2  -4 -10 22092.1 2058.77  18
   2  -4 -10 23931.1 1959.38  10
   2  -4 -10 23577.2 2059.13  17
   2  -4  -9 25612.5 2115.35  15
   2  -4  -9 28185.1 2074.04   4
   2  -4  -9 27599.3 2152.82  20
   2  -4  -9 28668.7 2151.69  19
   2  -4  -9 34368.2 2495.57   2
   2  -4  -9 26715.5 2132.47  11
   2  -4  -9 27348.7 2100.70  18
   2  -4  -9 28419.7 1952.17  10
   2  -4  -9 25986.9 2091.69  17
   2  -4  -8 11984.3 1330.70  15
   2  -4  -8 11382.5 1270.00   4
   2  -4  -8 11020.2 1258.53  20
   2  -4  -8 11828.1 1267.85  19
   2  -4  -8 14196.6 1538.35  11
   2  -4  -8 14307.2 1578.92   2
   2  -4  -8 10294.8 1306.08  18
   2  -4  -8 14018.6 1277.50  10
   2  -4  -8 11341.6 1295.14  17
   2  -4  -7 16646.1 1561.44  15
   2  -4  -7 14703.4 1313.43   4
   2  -4  -7 15567.2 1483.58  20
   2  -4  -7 16139.7 1470.54  19
   2  -4  -7 17693.7 1730.27  11
   2  -4  -7 15521.2 1493.71  18
   2  -4  -7 18468.3 1715.54   2
   2  -4  -7 18897.6 1382.51  10
   2  -4  -7 16147.5 1520.97  17
   2  -4  -6 115184. 4164.06  15
   2  -4  -6 114229. 4130.67  20
   2  -4  -6 116444. 3780.80   4
   2  -4  -6 115260. 4146.38  19
   2  -4  -6 121260. 4566.47  11
   2  -4  -6 111030. 4098.27  18
   2  -4  -6 120174. 4309.69   5
   2  -4  -6 120326. 4489.95   2
   2  -4  -6 121542. 3643.47  10
   2  -4  -6 111046. 4088.25  17
   2  -4  -5 109423. 3923.44  15
   2  -4  -5 111317. 3927.00  20
   2  -4  -5 114987. 3982.30  19
   2  -4  -5 110527. 3924.79  18
   2  -4  -5 117829. 4337.11   2
   2  -4  -5 122181. 3387.09  10
   2  -4  -5 117319. 4152.25   5
   2  -4  -5 117356. 3983.90  17
   2  -4  -4 2703.70 739.097   5
   2  -4  -4 3158.18 444.287   3
   2  -4  -4 3533.88 699.140  15
   2  -4  -4 3320.32 840.929   2
   2  -4  -4 2813.81 625.710  20
   2  -4  -4 2944.62 646.551  19
   2  -4  -4 3539.11 702.625  18
   2  -4  -4 3974.82 456.968  10
   2  -4  -4 3117.64 681.338  17
   2  -4  -3 28067.5 1637.08  15
   2  -4  -3 27712.6 1599.82  20
   2  -4  -3 29544.1 1651.46  19
   2  -4  -3 28373.9 1298.83   3
   2  -4  -3 27785.8 1598.31  18
   2  -4  -3 26692.5 1732.09   5
   2  -4  -3 27688.2 1056.03  10
   2  -4  -3 27660.7 1805.67   2
   2  -4  -3 26586.6 1561.21  17
   2  -4  -2 109316. 3473.05  20
   2  -4  -2 110400. 3478.50  19
   2  -4  -2 104066. 3413.33  18
   2  -4  -2 112841. 3730.38   5
   2  -4  -2 112622. 3222.71   3
   2  -4  -2 106101. 3658.07   2
   2  -4  -2 111855. 3493.08  17
   2  -4  -1 60364.1 2278.22  20
   2  -4  -1 56682.6 2223.05  19
   2  -4  -1 58537.9 2248.81  18
   2  -4  -1 59298.8 2228.36   3
   2  -4  -1 56687.8 2419.92   5
   2  -4  -1 54598.9 2349.74   2
   2  -4  -1 58854.9 2254.92  17
   2  -4   0 111866. 3392.61  20
   2  -4   0 116377. 3416.39  19
   2  -4   0 112860. 3398.78  18
   2  -4   0 112123. 3507.39   3
   2  -4   0 114089. 3473.65   2
   2  -4   0 113430. 3408.12  17
   2  -4   1 70131.0 2462.90  20
   2  -4   1 69851.0 2444.40  19
   2  -4   1 70776.3 2699.61   3
   2  -4   1 71830.3 2471.70  18
   2  -4   1 68546.1 2368.17   2
   2  -4   1 69186.6 2455.65  17
   2  -4   2 117219. 2886.39   9
   2  -4   2 121116. 3505.54  19
   2  -4   2 117060. 3888.91   3
   2  -4   2 116941. 3468.53  18
   2  -4   2 119971. 3222.66   2
   2  -4   2 115814. 3481.16  17
   2  -4   3 274323. 5843.79   9
   2  -4   3 266456. 6591.11  19
   2  -4   3 286867. 6004.56   2
   2  -4   3 265039. 7214.08   3
   2  -4   3 272378. 6618.46  18
   2  -4   3 269845. 6616.32  17
   2  -4   4 173816. 3974.52   9
   2  -4   4 178445. 3730.53   2
   2  -4   4 171102. 4722.87  19
   2  -4   4 159966. 5282.84   3
   2  -4   4 169869. 4716.79  18
   2  -4   4 176212. 4759.23  17
   2  -4   5 43195.8 1492.94   9
   2  -4   5 42048.3 1972.68  19
   2  -4   5 41080.3 2489.42   3
   2  -4   5 44445.1 2019.14  18
   2  -4   6 935.580 789.290   3
   2  -4   6 1261.96 391.805   9
   2  -4   6 495.234 467.096  19
   2  -4   6 1480.41 512.713  18
   2  -4   7 82034.6 2626.84   9
   2  -4   7 82390.8 3184.57  19
   2  -4   7 74169.0 3626.38   3
   2  -4   7 76867.5 3090.34  18
   2  -4   8 143164. 4063.23   9
   2  -4   8 140814. 4684.28  19
   2  -4   8 138297. 5350.69   3
   2  -4   8 137341. 4647.31  18
   2  -4   9 5397.17 1200.48   3
   2  -4   9 6366.96 950.105  19
   2  -4  10 1414.88 821.730   3
   2  -4  10 1007.97 608.354  19
   2  -4  11 22952.8 2291.81   8
   2  -4  11 28080.4 2616.72   3
   2  -4  11 25818.7 2164.57  19
   2  -3 -12 6469.75 1191.20  15
   2  -3 -12 4682.73 1170.62   2
   2  -3 -12 4599.19 1117.89   4
   2  -3 -12 6007.43 1083.66  19
   2  -3 -12 4035.13 871.241  18
   2  -3 -12 4349.51 870.957  17
   2  -3 -12 5734.22 1119.91  10
   2  -3 -12 4404.94 918.868  20
   2  -3 -11 4021.12 813.377  15
   2  -3 -11 3034.57 924.046   2
   2  -3 -11 3278.29 761.331   4
   2  -3 -11 3793.93 813.269  20
   2  -3 -11 3834.98 826.347  19
   2  -3 -11 3478.99 857.023  18
   2  -3 -11 5286.16 935.246  17
   2  -3 -11 4349.06 970.599  10
   2  -3 -10 8773.66 1216.63  15
   2  -3 -10 12105.6 1462.02   2
   2  -3 -10 9785.62 1359.83   4
   2  -3 -10 8053.09 1251.92  20
   2  -3 -10 9432.83 1292.45  19
   2  -3 -10 10028.1 1393.59  18
   2  -3 -10 10004.8 1370.31  17
   2  -3 -10 10490.6 1309.08  10
   2  -3  -9 55576.5 3071.53  15
   2  -3  -9 65144.8 2996.39   4
   2  -3  -9 56425.2 3069.88  20
   2  -3  -9 51815.9 2941.07  19
   2  -3  -9 58568.3 3044.36  11
   2  -3  -9 55246.7 3058.25  18
   2  -3  -9 58323.0 3192.02   2
   2  -3  -9 59604.1 2960.99   5
   2  -3  -9 57846.3 2875.68  10
   2  -3  -9 56330.8 3124.56  17
   2  -3  -8 29110.0 2046.68  15
   2  -3  -8 33238.4 1988.04   4
   2  -3  -8 29491.6 2080.79  20
   2  -3  -8 28426.3 2042.80  19
   2  -3  -8 32560.8 2176.26  11
   2  -3  -8 30488.4 2130.32  18
   2  -3  -8 34665.5 2141.76   5
   2  -3  -8 29190.5 2194.81   2
   2  -3  -8 30858.5 1931.89  10
   2  -3  -8 34299.6 2207.04  17
   2  -3  -7 13836.1 1358.29  15
   2  -3  -7 11502.5 1125.41   4
   2  -3  -7 13597.7 1337.24  20
   2  -3  -7 10190.5 1201.22  19
   2  -3  -7 12701.6 1357.37  11
   2  -3  -7 12664.1 1352.32  18
   2  -3  -7 13957.6 1311.41   5
   2  -3  -7 12733.6 1420.30   2
   2  -3  -7 12243.9 1094.85  10
   2  -3  -7 11966.8 1249.62  17
   2  -3  -6 104894. 3791.01  15
   2  -3  -6 107685. 3407.91   4
   2  -3  -6 104439. 3783.13  20
   2  -3  -6 99867.0 3731.18  19
   2  -3  -6 102226. 3740.17  18
   2  -3  -6 103314. 3794.00   5
   2  -3  -6 107102. 3338.55  10
   2  -3  -6 101207. 3730.40  17
   2  -3  -6 110361. 4077.04   2
   2  -3  -5 160461. 4824.61  15
   2  -3  -5 161342. 4310.29   4
   2  -3  -5 156521. 4779.90  20
   2  -3  -5 164337. 4863.46  19
   2  -3  -5 158022. 4810.90  18
   2  -3  -5 162963. 4949.07   5
   2  -3  -5 166701. 3749.39   3
   2  -3  -5 165850. 4238.03  10
   2  -3  -5 154257. 4753.51  17
   2  -3  -5 161171. 5098.30   2
   2  -3  -4 62532.5 2486.99  15
   2  -3  -4 58102.5 2013.10   4
   2  -3  -4 59315.6 2451.96  20
   2  -3  -4 59079.2 2432.16  19
   2  -3  -4 59411.9 2421.94  18
   2  -3  -4 55171.7 2483.39   5
   2  -3  -4 60410.8 1842.52   3
   2  -3  -4 63488.3 1930.08  10
   2  -3  -4 61639.6 2455.24  17
   2  -3  -4 61033.0 2710.75   2
   2  -3  -3 34432.6 1698.51  15
   2  -3  -3 32965.2 1662.94  20
   2  -3  -3 32505.9 1647.94  19
   2  -3  -3 36996.3 1732.10  18
   2  -3  -3 33889.5 1811.37   5
   2  -3  -3 34692.5 1138.17  10
   2  -3  -3 34745.4 1366.01   3
   2  -3  -3 32790.1 1654.87  17
   2  -3  -3 34542.8 1878.87   2
   2  -3  -2 200530. 5326.03   2
   2  -3  -2 197367. 5081.76  15
   2  -3  -2 196703. 5078.48  20
   2  -3  -2 200407. 5090.99  19
   2  -3  -2 194458. 5057.40  18
   2  -3  -2 200212. 4034.20  10
   2  -3  -2 192215. 5264.49   5
   2  -3  -2 197829. 4795.24   3
   2  -3  -2 195310. 5051.44  17
   2  -3  -1 267462. 6601.28   2
   2  -3  -1 271206. 6429.03  20
   2  -3  -1 280375. 6455.18  19
   2  -3  -1 282276. 6469.47  18
   2  -3  -1 269882. 6656.57   5
   2  -3  -1 273444. 6377.82   3
   2  -3  -1 274687. 6426.87  17
   2  -3   0 24153.5 1277.93   2
   2  -3   0 26109.3 1270.29  20
   2  -3   0 24952.5 1240.12  19
   2  -3   0 25710.6 1264.76  18
   2  -3   0 23120.6 1294.55   3
   2  -3   0 24364.8 1330.03   5
   2  -3   0 27829.9 1306.78  17
   2  -3   1 24252.0 1201.05  19
   2  -3   1 22644.9 1160.91  18
   2  -3   1 24070.1 1373.27   3
   2  -3   1 22725.3 1228.22   5
   2  -3   1 22432.7 1164.90  17
   2  -3   1 22615.5 1164.43  20
   2  -3   1 22711.6 1143.39   2
   2  -3   2 152025. 3292.64   9
   2  -3   2 153900. 4010.47  19
   2  -3   2 155925. 4013.93  18
   2  -3   2 155672. 4437.95   3
   2  -3   2 154811. 4010.29  17
   2  -3   2 159461. 3771.00   2
   2  -3   3 232541. 4831.92   9
   2  -3   3 235842. 5614.60  19
   2  -3   3 228089. 5599.64  18
   2  -3   3 225504. 6148.39   3
   2  -3   3 248121. 5037.99   2
   2  -3   3 226053. 5593.33  17
   2  -3   4 161832. 3597.09   9
   2  -3   4 168797. 4333.30  19
   2  -3   4 161265. 4296.82  18
   2  -3   4 157773. 4871.26   3
   2  -3   4 160234. 4293.86  17
   2  -3   5 50377.8 1621.12   9
   2  -3   5 56280.3 2159.03  19
   2  -3   5 51293.4 2091.96  18
   2  -3   5 53123.2 2611.24   3
   2  -3   6 14005.0 1124.05  19
   2  -3   6 15428.9 1564.17   3
   2  -3   6 13781.2 1118.61  18
   2  -3   6 13768.5 860.120   9
   2  -3   7 45395.0 2644.29   3
   2  -3   7 48487.3 2227.70  19
   2  -3   7 42939.7 2152.73  18
   2  -3   7 45241.6 1834.15   9
   2  -3   8 83344.3 3297.55  19
   2  -3   8 84427.8 3862.98   3
   2  -3   8 91484.9 2998.17   9
   2  -3   9 12786.6 1554.83   3
   2  -3   9 11114.9 1208.22  19
   2  -3  10-190.184 693.950   3
   2  -3  10 1744.41 633.308   8
   2  -3  10 594.281 421.527  19
   2  -3  11 15952.8 1911.18   8
   2  -3  11 19953.2 1799.70  19
   2  -3  11 23053.4 2311.52   3
   2  -2 -13 17275.4 1985.77   4
   2  -2 -13 17750.6 2143.95  10
   2  -2 -12 9292.01 1277.13  15
   2  -2 -12 11599.5 1505.56   4
   2  -2 -12 10489.5 1472.37  20
   2  -2 -12 9324.77 1347.14  18
   2  -2 -12 9749.45 1397.77  17
   2  -2 -12 7314.97 1260.24  10
   2  -2 -11 12352.5 1503.00  15
   2  -2 -11 11033.0 1441.14   2
   2  -2 -11 11653.3 1470.35   4
   2  -2 -11 12110.5 1516.69  20
   2  -2 -11 12373.7 1467.84  18
   2  -2 -11 13437.1 1493.26  10
   2  -2 -11 12982.7 1457.17  17
   2  -2 -10 18014.3 1699.50  15
   2  -2 -10 20039.8 1750.22   4
   2  -2 -10 19074.6 1812.55  20
   2  -2 -10 19505.0 1810.13  18
   2  -2 -10 19903.5 1600.15   5
   2  -2 -10 18151.8 1708.34   2
   2  -2 -10 19593.1 1716.79  10
   2  -2 -10 16878.6 1686.72  17
   2  -2  -9 47555.5 2752.66  15
   2  -2  -9 43500.8 2679.26  14
   2  -2  -9 52543.0 2653.27   4
   2  -2  -9 46130.0 2734.96  20
   2  -2  -9 54584.4 2717.44  11
   2  -2  -9 44737.4 2687.03  18
   2  -2  -9 52799.2 2669.71   5
   2  -2  -9 49560.6 2842.10   2
   2  -2  -9 50861.4 2663.70  10
   2  -2  -9 54357.6 2894.43  17
   2  -2  -8 45754.8 2542.79  15
   2  -2  -8 42551.1 2500.76  14
   2  -2  -8 45034.2 2284.06   4
   2  -2  -8 46637.3 2553.67  20
   2  -2  -8 46540.1 2470.80  11
   2  -2  -8 43128.1 2459.45  18
   2  -2  -8 46693.8 2411.62   5
   2  -2  -8 48929.2 2411.68  10
   2  -2  -8 46461.9 2550.65  17
   2  -2  -8 49562.2 2674.51   2
   2  -2  -7 18469.7 1513.12  15
   2  -2  -7 16368.7 1469.97  14
   2  -2  -7 18354.3 1291.67   4
   2  -2  -7 17714.6 1488.98  20
   2  -2  -7 18297.1 1541.03  18
   2  -2  -7 18331.4 1447.70   5
   2  -2  -7 20974.7 1407.51  10
   2  -2  -7 19461.5 1537.09  17
   2  -2  -7 18707.4 1620.17   2
   2  -2  -6 94924.8 3618.30   2
   2  -2  -6 93919.6 2478.11   3
   2  -2  -6 95248.7 3491.40  15
   2  -2  -6 94496.5 3058.31   4
   2  -2  -6 95651.6 3475.62  20
   2  -2  -6 99256.3 3519.28  18
   2  -2  -6 101857. 3496.38   5
   2  -2  -6 98815.1 3150.76  10
   2  -2  -6 90945.7 3422.39  17
   2  -2  -5 200708. 4623.63   3
   2  -2  -5 205825. 5596.33  15
   2  -2  -5 208280. 5009.11   4
   2  -2  -5 203323. 5565.88  20
   2  -2  -5 198844. 5540.34  18
   2  -2  -5 211752. 5628.52   5
   2  -2  -5 206042. 5057.57  10
   2  -2  -5 201662. 5557.07  17
   2  -2  -4 177653. 4224.65   3
   2  -2  -4 181722. 4935.26  15
   2  -2  -4 191118. 4331.79   4
   2  -2  -4 174603. 4878.74  20
   2  -2  -4 174672. 4885.40  18
   2  -2  -4 178495. 4978.03   5
   2  -2  -4 190110. 4367.60  10
   2  -2  -4 177885. 4905.30  17
   2  -2  -3 81066.4 2695.54  15
   2  -2  -3 81146.9 2110.20   4
   2  -2  -3 76409.1 2636.34  20
   2  -2  -3 79523.3 2663.86  19
   2  -2  -3 78681.7 2663.13  18
   2  -2  -3 81325.4 2806.03   5
   2  -2  -3 84407.5 2088.91  10
   2  -2  -3 77873.3 2646.27  17
   2  -2  -3 78190.0 2293.72   3
   2  -2  -2 51277.3 1885.41  15
   2  -2  -2 48622.6 1838.63  20
   2  -2  -2 47567.7 1821.59  19
   2  -2  -2 49633.8 1848.32  18
   2  -2  -2 48506.0 1976.71   5
   2  -2  -2 49000.0 1155.66  10
   2  -2  -2 47467.6 1815.31  17
   2  -2  -2 43823.3 1633.02   3
   2  -2  -1 221682. 5321.39  15
   2  -2  -1 221268. 5314.88  20
   2  -2  -1 221731. 5303.76  19
   2  -2  -1 225065. 5317.90  18
   2  -2  -1 214182. 5467.96   5
   2  -2  -1 218122. 5289.67  17
   2  -2  -1 217952. 5291.64   3
   2  -2   0 45612.8 1252.61   7
   2  -2   0 40145.2 1500.47  19
   2  -2   0 39994.7 1508.01  20
   2  -2   0 40253.6 1515.14  18
   2  -2   0 40426.3 1634.31   5
   2  -2   0 42226.7 1532.80  17
   2  -2   0 40916.2 1643.68   3
   2  -2   1 6708.60 592.232  20
   2  -2   1 7920.07 622.213  19
   2  -2   1 7697.09 606.684  18
   2  -2   1 7556.62 669.580   5
   2  -2   1 8764.53 648.872  17
   2  -2   1 8271.75 772.087   3
   2  -2   2 192316. 4438.97  19
   2  -2   2 185276. 4417.93  18
   2  -2   2 182906. 4369.66   5
   2  -2   2 187299. 4905.19   3
   2  -2   2 190569. 4443.98  17
   2  -2   3 233158. 4765.82   9
   2  -2   3 252221. 4900.51   2
   2  -2   3 232879. 5445.11  19
   2  -2   3 235417. 5453.03  18
   2  -2   3 240597. 5205.73   5
   2  -2   3 230475. 6010.36   3
   2  -2   3 235875. 5464.14  17
   2  -2   4 175348. 4326.00  19
   2  -2   4 177688. 4338.49  18
   2  -2   4 171682. 4897.54   3
   2  -2   4 168587. 3767.93   9
   2  -2   5 51784.5 1959.59  19
   2  -2   5 50595.1 1963.70  18
   2  -2   5 53518.7 2422.96   3
   2  -2   6 7468.66 1090.72   3
   2  -2   6 7641.00 808.369  19
   2  -2   6 8139.41 820.508  18
   2  -2   7 77948.9 2850.21  19
   2  -2   7 73911.9 3280.76   3
   2  -2   8 85298.0 3227.01  19
   2  -2   8 87432.7 3725.76   3
   2  -2   9 25294.9 2123.58   8
   2  -2   9 25925.4 1790.38  19
   2  -2   9 26983.6 2122.09   3
   2  -2  10 9858.66 1431.16   3
   2  -2  10 5860.88 1223.56   8
   2  -2  10 7758.08 1070.67  19
   2  -2  11 12278.7 1665.86   8
   2  -1 -13 33036.5 2716.38   4
   2  -1 -13 39015.1 2830.92  10
   2  -1 -12 22872.8 2131.36  15
   2  -1 -12 23353.3 2086.08  14
   2  -1 -12 25190.7 2168.13   4
   2  -1 -12 22381.0 2162.55  20
   2  -1 -12 25437.6 2231.94  18
   2  -1 -12 24516.2 2154.02  10
   2  -1 -12 21998.6 1998.48  17
   2  -1 -11 4652.33 869.511  15
   2  -1 -11 5309.24 895.203   2
   2  -1 -11 4716.42 908.096  14
   2  -1 -11 6184.27 995.432   4
   2  -1 -11 4881.93 1043.68  20
   2  -1 -11 5249.76 965.073  18
   2  -1 -11 6526.09 1052.37  17
   2  -1 -11 6104.91 1011.50  10
   2  -1 -10 25568.0 2094.41  15
   2  -1 -10 22343.9 1904.59  14
   2  -1 -10 22275.7 1785.36   4
   2  -1 -10 21704.8 1952.08  20
   2  -1 -10 25083.0 2009.31  18
   2  -1 -10 24028.7 1689.99   5
   2  -1 -10 25685.8 1993.15   2
   2  -1 -10 24706.1 1935.75  10
   2  -1 -10 20500.0 1875.91  17
   2  -1  -9 64577.0 3251.04  15
   2  -1  -9 69864.1 3332.06  14
   2  -1  -9 72541.5 3096.15   4
   2  -1  -9 69071.8 3314.33  20
   2  -1  -9 71476.3 2942.63  11
   2  -1  -9 63586.2 3177.10  18
   2  -1  -9 65048.4 2894.05   5
   2  -1  -9 65891.0 3065.05  10
   2  -1  -9 64661.8 3181.99  17
   2  -1  -9 68662.7 3208.80   2
   2  -1  -8 33736.4 2121.57   2
   2  -1  -8 33362.4 2139.37  15
   2  -1  -8 35188.4 2164.26  14
   2  -1  -8 34528.9 1955.57   4
   2  -1  -8 37677.2 2225.69  20
   2  -1  -8 32175.1 2142.39  18
   2  -1  -8 38555.6 2062.01   5
   2  -1  -8 33957.6 1996.62  10
   2  -1  -8 33211.9 2172.07  17
   2  -1  -7 36489.1 2154.85  20
   2  -1  -7 39383.6 2237.70  15
   2  -1  -7 37914.3 2189.45  14
   2  -1  -7 43962.8 2027.53   4
   2  -1  -7 42496.5 2266.83  18
   2  -1  -7 39765.5 2066.77   5
   2  -1  -7 37454.4 2145.63  17
   2  -1  -7 45647.8 2091.89  10
   2  -1  -6 58599.9 2561.92  15
   2  -1  -6 57741.3 2528.88  14
   2  -1  -6 58212.0 2198.56   4
   2  -1  -6 57525.1 2536.30  20
   2  -1  -6 58271.9 2543.74  18
   2  -1  -6 58449.4 2443.93   5
   2  -1  -6 59800.7 2562.59  17
   2  -1  -6 59342.7 2306.37  10
   2  -1  -5 140915. 4249.07  15
   2  -1  -5 140047. 4257.19  14
   2  -1  -5 149826. 3779.10   4
   2  -1  -5 146865. 4293.77  20
   2  -1  -5 141288. 4230.78  18
   2  -1  -5 143436. 4194.99   5
   2  -1  -5 134735. 4184.53  17
   2  -1  -5 146190. 3884.06  10
   2  -1  -4 221318. 5609.17  15
   2  -1  -4 218313. 5596.31  14
   2  -1  -4 222241. 4962.84   4
   2  -1  -4 219465. 5594.81  20
   2  -1  -4 215895. 5565.65  18
   2  -1  -4 218892. 5616.18   5
   2  -1  -4 221989. 5598.26  17
   2  -1  -4 226894. 5120.97  10
   2  -1  -3 36690.4 1582.65  15
   2  -1  -3 34809.4 1562.22  14
   2  -1  -3 36535.9 1093.05   4
   2  -1  -3 35985.1 1567.27  20
   2  -1  -3 36703.4 1585.45  18
   2  -1  -3 35605.9 1568.11  17
   2  -1  -3 36782.4 1654.33   5
   2  -1  -3 36740.0 1216.91  10
   2  -1  -2 38594.5 1545.11  15
   2  -1  -2 39950.4 1552.87  20
   2  -1  -2 42782.1 1583.30  19
   2  -1  -2 42380.2 1578.59  18
   2  -1  -2 41590.0 1562.53  17
   2  -1  -2 38225.1 1662.69   5
   2  -1  -1 162811. 4099.29   3
   2  -1  -1 165022. 3998.95  15
   2  -1  -1 167373. 4002.16  20
   2  -1  -1 169373. 4008.17  19
   2  -1  -1 170813. 4017.15  18
   2  -1  -1 172713. 3424.35  10
   2  -1  -1 167979. 3994.48  17
   2  -1  -1 155544. 4172.43   5
   2  -1   0 91180.4 2031.92   7
   2  -1   0 86950.6 2333.74  20
   2  -1   0 87660.1 2333.18  19
   2  -1   0 89543.9 2346.98  18
   2  -1   0 83636.4 2312.54  17
   2  -1   0 92864.4 2068.24  10
   2  -1   0 80652.1 2476.70   5
   2  -1   0 84030.2 2559.58   3
   2  -1   1 11358.9 631.601  20
   2  -1   1 11911.8 627.723   7
   2  -1   1 12738.9 616.372   4
   2  -1   1 12307.0 663.135  13
   2  -1   1 13228.7 675.020  12
   2  -1   1 12383.6 652.175  19
   2  -1   1 11321.4 632.469  18
   2  -1   1 11278.8 633.036  17
   2  -1   1 11979.5 651.484  10
   2  -1   1 11512.2 725.520   5
   2  -1   1 11706.7 842.743   3
   2  -1   2 58614.3 1578.64   2
   2  -1   2 58046.6 1672.60  14
   2  -1   2 61628.8 1697.30  13
   2  -1   2 60395.6 1695.45  12
   2  -1   2 56501.2 1653.20  19
   2  -1   2 55804.4 1653.62  18
   2  -1   2 54046.7 1640.42  17
   2  -1   2 55923.2 1675.32   5
   2  -1   2 54368.0 2057.49   3
   2  -1   3 200460. 4290.22   9
   2  -1   3 205711. 4635.82  19
   2  -1   3 206014. 4633.41  18
   2  -1   3 196449. 5202.29   3
   2  -1   3 203190. 4411.35   5
   2  -1   4 183526. 3809.76   2
   2  -1   4 168759. 4162.33  19
   2  -1   4 171422. 4172.91  18
   2  -1   4 168419. 4757.53   3
   2  -1   5 60842.3 2080.10  19
   2  -1   5 59785.1 2063.12  18
   2  -1   5 56902.5 2447.27   3
   2  -1   5 63896.6 1639.45   2
   2  -1   6 41184.0 1775.69  19
   2  -1   6 40560.6 2118.44   3
   2  -1   7 102234. 3343.07  19
   2  -1   7 108950. 3910.89   3
   2  -1   8 126314. 3956.39  19
   2  -1   8 121889. 4396.54   3
   2  -1   9 28176.6 2219.03   8
   2  -1   9 26985.3 1760.95  19
   2  -1   9 29645.4 2097.53   3
   2  -1  10 1990.04 713.422   8
   2  -1  11 6149.09 1237.28   8
   2   0 -13 47555.2 3215.93  15
   2   0 -13 47236.7 3148.17  14
   2   0 -13 44967.5 2974.02   4
   2   0 -13 38160.2 2945.77  20
   2   0 -13 46716.7 3209.49  18
   2   0 -13 48175.2 3171.76  10
   2   0 -13 46619.3 3124.17  17
   2   0 -12 22429.4 2099.95  15
   2   0 -12 21788.1 1984.97  14
   2   0 -12 25701.3 2091.51   4
   2   0 -12 19189.0 1959.77  20
   2   0 -12 22145.0 2072.82  18
   2   0 -12 25264.8 2192.96  10
   2   0 -12 21609.9 2078.90  17
   2   0 -11 5259.33 953.073  15
   2   0 -11 6357.00 947.211   2
   2   0 -11 5694.42 1026.10  14
   2   0 -11 6009.72 1008.25   4
   2   0 -11 7494.00 1177.89  20
   2   0 -11 3753.52 845.630  18
   2   0 -11 5226.75 1082.81  17
   2   0 -11 4360.64 958.718  10
   2   0 -10 23548.6 1949.77  15
   2   0 -10 23826.5 2024.67  14
   2   0 -10 27494.2 1995.64   4
   2   0 -10 24142.5 1980.10  20
   2   0 -10 24062.6 1954.38  18
   2   0 -10 23870.0 1675.73   5
   2   0 -10 24756.8 1907.23  10
   2   0 -10 21559.1 1894.06  17
   2   0 -10 22361.5 1806.33   2
   2   0  -9 78263.9 3577.01  15
   2   0  -9 75938.1 3549.55  14
   2   0  -9 85176.0 3377.26   4
   2   0  -9 81257.6 3583.05  18
   2   0  -9 79821.4 3149.56   5
   2   0  -9 81435.8 3593.94  17
   2   0  -9 77060.8 3387.81  10
   2   0  -9 85354.4 3701.00  20
   2   0  -8 34701.0 2169.71  15
   2   0  -8 36229.4 2204.33  14
   2   0  -8 35976.5 1985.71   4
   2   0  -8 40941.7 2322.44  20
   2   0  -8 38575.5 2271.77  18
   2   0  -8 38824.1 2010.58   5
   2   0  -8 37639.7 2250.25  17
   2   0  -8 34015.0 2017.77  10
   2   0  -7 18167.0 1458.91  15
   2   0  -7 18287.3 1494.94  14
   2   0  -7 16838.2 1240.57   4
   2   0  -7 15259.7 1353.77  20
   2   0  -7 16263.3 1396.72  18
   2   0  -7 15948.7 1270.46   5
   2   0  -7 15044.2 1343.96  17
   2   0  -7 15742.7 1251.11  10
   2   0  -6 21859.1 1514.89  15
   2   0  -6 20263.0 1459.27  14
   2   0  -6 25624.5 1357.33   4
   2   0  -6 22341.7 1535.31  20
   2   0  -6 20429.1 1458.81  18
   2   0  -6 22676.0 1538.59  17
   2   0  -6 22736.4 1413.75   5
   2   0  -6 23946.6 1377.50  10
   2   0  -5 82513.1 2947.75  15
   2   0  -5 82606.5 2941.14  14
   2   0  -5 86615.3 2537.20   4
   2   0  -5 83659.8 2960.66  20
   2   0  -5 81883.4 2925.71  18
   2   0  -5 79562.5 2903.95  17
   2   0  -5 82856.1 2826.38   5
   2   0  -4 283579. 6876.56  15
   2   0  -4 284083. 6872.41  14
   2   0  -4 298617. 6270.32   4
   2   0  -4 285658. 6886.55  20
   2   0  -4 285017. 6871.83  18
   2   0  -4 283203. 6872.20  17
   2   0  -4 296974. 6859.11   5
   2   0  -3 151898. 4020.44  15
   2   0  -3 151650. 4017.04  14
   2   0  -3 162486. 3428.86   4
   2   0  -3 156940. 4050.30  20
   2   0  -3 151797. 4006.15  18
   2   0  -3 150780. 4010.56  17
   2   0  -3 150554. 4075.47   5
   2   0  -2 106453. 2882.37  15
   2   0  -2 104976. 2871.77  14
   2   0  -2 107854. 2238.25   4
   2   0  -2 106177. 2870.07  20
   2   0  -2 110742. 2887.92  18
   2   0  -2 107370. 2876.45  17
   2   0  -2 109061. 3051.17   5
   2   0  -1 364576. 7959.50  15
   2   0  -1 364803. 7953.10  20
   2   0  -1 424307. 8020.09   8
   2   0  -1 401345. 8077.60  12
   2   0  -1 371659. 7959.59  18
   2   0  -1 400244. 7779.22  10
   2   0  -1 376704. 7975.05  17
   2   0  -1 375409. 8262.43   5
   2   0   0 65020.3 1750.14  15
   2   0   0 68482.2 1699.97   4
   2   0   0 66682.3 1758.16  20
   2   0   0 69907.0 1804.19  12
   2   0   0 67926.0 1760.97  19
   2   0   0 67690.5 1764.19  18
   2   0   0 73559.3 1851.97  10
   2   0   0 67337.4 1759.00  17
   2   0   0 65588.1 2022.07   5
   2   0   1 30048.1 851.345   9
   2   0   1 28160.4 1296.08   3
   2   0   1 29917.8 1132.31   4
   2   0   1 30940.2 946.271  13
   2   0   1 30660.8 925.402  20
   2   0   1 32402.5 949.325  12
   2   0   1 30071.6 923.962  19
   2   0   1 30127.4 922.453  18
   2   0   1 30818.2 926.166  17
   2   0   1 30333.5 1163.71   5
   2   0   2 40925.1 1128.09   9
   2   0   2 41567.9 1119.21  13
   2   0   2 40267.9 1109.37  12
   2   0   2 39850.7 1105.39  19
   2   0   2 38580.4 1098.77  18
   2   0   2 38072.5 1094.89  17
   2   0   2 37018.6 1581.74   3
   2   0   2 39683.1 1287.11   5
   2   0   3 175795. 4043.45   9
   2   0   3 182937. 3929.59  14
   2   0   3 185860. 3941.78  13
   2   0   3 186614. 3944.41  12
   2   0   3 183134. 3977.21  19
   2   0   3 181015. 3975.06  18
   2   0   3 185394. 4680.24   3
   2   0   3 178051. 3948.01   5
   2   0   4 322642. 6528.33  15
   2   0   4 322530. 6525.71  14
   2   0   4 318986. 6528.36  13
   2   0   4 296492. 6592.39  19
   2   0   4 306742. 7252.58   3
   2   0   4 311266. 6534.08  12
   2   0   4 297883. 6182.41   5
   2   0   5 61967.3 1987.77  19
   2   0   5 60145.1 2385.91   3
   2   0   6 50437.3 2527.37   8
   2   0   6 51011.5 1906.76  19
   2   0   6 47672.8 2194.25   3
   2   0   7 80137.1 3556.13   8
   2   0   7 87140.4 2843.95  19
   2   0   7 83744.6 3217.39   3
   2   0   8 50408.8 2930.03   8
   2   0   8 50538.1 2515.34   3
   2   0   9 29444.7 2361.63   8
   2   0  10 1911.35 758.771   8
   2   0  11 5010.49 999.110   8
   2   1 -13 57429.0 3595.75  15
   2   1 -13 54201.5 3519.16  14
   2   1 -13 59013.5 3543.34   4
   2   1 -13 55760.9 3511.75  20
   2   1 -13 54740.6 3448.04  18
   2   1 -13 60419.7 3652.80  10
   2   1 -13 59920.2 3564.22  17
   2   1 -12 27419.3 2329.64  15
   2   1 -12 27938.3 2337.12  14
   2   1 -12 27728.3 2269.95   4
   2   1 -12 26795.5 2315.52  20
   2   1 -12 27015.2 2294.48  18
   2   1 -12 29322.6 2388.04  10
   2   1 -12 27429.4 2317.21  17
   2   1 -11 1598.03 643.630  15
   2   1 -11 3191.53 738.155  14
   2   1 -11 2300.22 523.178   2
   2   1 -11 1737.26 749.119   4
   2   1 -11 1879.90 748.678  20
   2   1 -11 3557.40 778.943  18
   2   1 -11 2868.84 701.761  17
   2   1 -11 3288.61 869.197  10
   2   1 -10 36067.9 2444.41  15
   2   1 -10 35432.7 2442.26  14
   2   1 -10 37908.8 2282.79   4
   2   1 -10 33974.4 2413.95  20
   2   1 -10 34807.4 2406.28  18
   2   1 -10 36052.5 2024.41   5
   2   1 -10 35277.8 2441.35  17
   2   1 -10 31279.7 2191.83  10
   2   1  -9 56145.8 2949.52  15
   2   1  -9 53673.4 2861.38  14
   2   1  -9 61699.5 2786.98   4
   2   1  -9 54578.6 2935.07  20
   2   1  -9 56368.3 2957.59  18
   2   1  -9 55804.0 2528.50   5
   2   1  -9 53806.8 2910.38  17
   2   1  -9 54970.4 2785.24  10
   2   1  -8 38540.7 2245.52  15
   2   1  -8 33075.2 2112.78  14
   2   1  -8 35480.6 1992.93   4
   2   1  -8 38080.4 2254.06  20
   2   1  -8 38769.2 2261.33  18
   2   1  -8 39048.7 2298.28  17
   2   1  -8 36833.1 1924.67   5
   2   1  -8 37624.9 2091.79  10
   2   1  -7 25901.9 1753.14  15
   2   1  -7 25478.4 1721.24  14
   2   1  -7 24767.5 1493.50   4
   2   1  -7 25562.6 1746.72  20
   2   1  -7 24052.7 1664.54  18
   2   1  -7 25246.3 1723.83  17
   2   1  -7 23620.4 1481.66   5
   2   1  -7 24771.2 1552.54  10
   2   1  -6 16898.2 1328.47  15
   2   1  -6 17851.9 1351.95  14
   2   1  -6 18367.9 1142.76   4
   2   1  -6 17711.6 1372.54  20
   2   1  -6 16645.8 1320.14  17
   2   1  -6 17520.3 1221.63   5
   2   1  -5 174054. 4838.20  15
   2   1  -5 171684. 4807.60  14
   2   1  -5 176056. 4303.12   4
   2   1  -5 175297. 4846.98  20
   2   1  -5 168176. 4801.78  17
   2   1  -5 172362. 4615.04   5
   2   1  -4 345585. 7935.64  15
   2   1  -4 346614. 7936.01  14
   2   1  -4 351554. 7310.32   4
   2   1  -4 341169. 7920.82  20
   2   1  -4 330675. 7883.09  17
   2   1  -4 343241. 7818.34   5
   2   1  -3 264554. 6264.57   5
   2   1  -3 262340. 6211.22  15
   2   1  -3 264315. 6221.94  14
   2   1  -3 264942. 5540.94   7
   2   1  -3 272902. 5645.65   4
   2   1  -3 259702. 6213.17  20
   2   1  -3 263770. 6225.30  17
   2   1  -2 135708. 3605.92   5
   2   1  -2 132866. 3410.98  15
   2   1  -2 145963. 3125.08   8
   2   1  -2 134260. 3414.24  14
   2   1  -2 138171. 2925.11   7
   2   1  -2 128500. 3399.24  20
   2   1  -2 134185. 3410.56  18
   2   1  -2 131689. 3408.55  17
   2   1  -1 107081. 2992.75   5
   2   1  -1 106627. 2676.51  15
   2   1  -1 119157. 2574.79   8
   2   1  -1 115749. 2539.51   4
   2   1  -1 108637. 2677.38  14
   2   1  -1 108937. 2494.03   7
   2   1  -1 107896. 2679.50  20
   2   1  -1 112339. 2733.96  19
   2   1  -1 108251. 2668.64  18
   2   1  -1 103855. 2658.16  17
   2   1   0 301727. 6311.30   9
   2   1   0 291490. 6621.04   5
   2   1   0 297499. 6071.54  15
   2   1   0 312544. 6366.57   4
   2   1   0 290336. 6298.33   7
   2   1   0 300334. 6126.39  19
   2   1   0 319809. 6291.44   6
   2   1   0 304425. 6065.86  18
   2   1   0 304861. 6078.29  20
   2   1   0 299193. 6068.75  17
   2   1   1 135004. 3172.90   9
   2   1   1 132978. 3390.78   5
   2   1   1 142183. 3181.48   6
   2   1   2 24804.6 1206.69   3
   2   1   2 24129.9 1027.39   5
   2   1   3 126371. 3115.44   5
   2   1   3 128556. 2673.49  14
   2   1   3 127869. 2687.27  13
   2   1   3 134281. 2707.82  12
   2   1   3 128401. 2724.75  12
   2   1   3 127460. 3535.76   3
   2   1   4 166387. 3874.97   5
   2   1   4 172989. 3743.57  15
   2   1   4 174378. 3751.04  14
   2   1   4 174824. 3769.48  13
   2   1   4 178958. 3795.68  12
   2   1   4 171535. 3816.96  12
   2   1   4 172326. 4512.54   3
   2   1   5 36135.8 1096.60   5
   2   1   5 27416.7 1767.77   8
   2   1   5 30050.1 1219.66  12
   2   1   5 33844.7 1077.92   5
   2   1   5 33971.7 1642.74   3
   2   1   6 9751.22 1205.16   8
   2   1   6 11885.8 823.012  12
   2   1   6 11658.5 1019.18   3
   2   1   7 52821.3 2854.37   8
   2   1   7 58810.6 2144.49  12
   2   1   7 57872.6 2438.91   3
   2   1   8 61188.9 3329.52   8
   2   1   8 69259.8 2822.50   3
   2   1   9 27259.6 2263.47   8
   2   1  10 5095.20 1079.91   8
   2   1  11 2494.72 816.275   8
   2   2 -13 67965.3 3932.33  15
   2   2 -13 66974.6 3936.98  14
   2   2 -13 68231.1 3801.58   4
   2   2 -13 69557.7 3928.97  20
   2   2 -13 58830.1 3660.87  18
   2   2 -13 59969.7 3668.95  10
   2   2 -13 61229.3 3651.95  17
   2   2 -12 31650.4 2510.89  15
   2   2 -12 34600.9 2648.21  14
   2   2 -12 37618.4 2637.75   4
   2   2 -12 33742.6 2615.70  20
   2   2 -12 31895.4 2542.39  18
   2   2 -12 38552.3 2721.39  17
   2   2 -12 37783.9 2667.63  10
   2   2 -11 1542.87 640.556  15
   2   2 -11 1464.43 648.988  14
   2   2 -11 382.273 474.210   4
   2   2 -11 1407.75 746.748  20
   2   2 -11 1458.38 465.307  18
   2   2 -11 1349.42 525.490  17
   2   2 -11 1230.58 601.806  10
   2   2 -10 29597.5 2230.29  15
   2   2 -10 26534.8 2138.79  14
   2   2 -10 33825.1 2156.36   4
   2   2 -10 31711.2 2282.25  20
   2   2 -10 31007.0 1863.29   5
   2   2 -10 33368.1 2311.78  17
   2   2 -10 27502.6 2112.21  10
   2   2  -9 133308. 4793.06  15
   2   2  -9 131681. 4773.54  14
   2   2  -9 128531. 4390.46   4
   2   2  -9 136047. 4818.55  20
   2   2  -9 132098. 4778.73  17
   2   2  -9 124687. 4126.95   5
   2   2  -9 122858. 4483.51  10
   2   2  -8 72903.7 3209.20  15
   2   2  -8 72788.6 3209.90  14
   2   2  -8 72393.2 2894.92   4
   2   2  -8 75719.0 3279.22  20
   2   2  -8 77578.1 3280.83  17
   2   2  -8 69887.3 2789.99   5
   2   2  -7 29610.0 1864.83  15
   2   2  -7 28848.7 1856.11  14
   2   2  -7 29985.1 1880.67  13
   2   2  -7 25637.6 1520.50   4
   2   2  -7 30444.5 1873.09  20
   2   2  -7 27735.1 1811.45  17
   2   2  -7 28711.5 1597.49   5
   2   2  -6 33878.1 1879.10  15
   2   2  -6 32270.2 1838.86  14
   2   2  -6 33766.7 1884.99  13
   2   2  -6 31788.2 1546.03   4
   2   2  -6 30817.8 1789.23  20
   2   2  -6 33145.5 1838.18  17
   2   2  -6 29847.4 1589.99   5
   2   2  -5 116884. 3484.99   5
   2   2  -5 113503. 3659.45  15
   2   2  -5 115105. 3668.78  14
   2   2  -5 115351. 3668.84  13
   2   2  -5 120305. 3229.81   4
   2   2  -5 113165. 3659.77  20
   2   2  -5 114646. 3674.08  17
   2   2  -4 200637. 5078.80   5
   2   2  -4 201450. 5172.26  15
   2   2  -4 195307. 5130.46  14
   2   2  -4 216040. 4631.57   8
   2   2  -4 188744. 4513.63   7
   2   2  -4 197445. 5145.75  13
   2   2  -4 200131. 4638.55   4
   2   2  -4 195035. 5145.78  20
   2   2  -4 193203. 5114.00  17
   2   2  -3 140992. 3903.78   5
   2   2  -3 136547. 3811.41  15
   2   2  -3 140711. 3834.52  14
   2   2  -3 141238. 3842.31  13
   2   2  -3 145746. 3388.66   7
   2   2  -3 141566. 3845.67  20
   2   2  -3 138503. 3827.37  17
   2   2  -2 229943. 5497.17   5
   2   2  -2 221926. 5232.68  15
   2   2  -2 240817. 4616.88   8
   2   2  -2 222454. 5225.90  14
   2   2  -2 214694. 5197.91  13
   2   2  -2 228673. 4950.19   7
   2   2  -2 216972. 5217.43  20
   2   2  -2 225288. 5245.71  17
   2   2  -1 87978.6 2348.00  15
   2   2  -1 88007.9 2361.02  14
   2   2  -1 89594.3 2369.15  13
   2   2  -1 93692.0 2404.10   7
   2   2  -1 87743.2 2353.19  20
   2   2  -1 100950. 2347.02  19
   2   2  -1 100661. 2359.36  18
   2   2  -1 91227.6 2367.17  17
   2   2   0 182173. 3957.65  15
   2   2   0 186728. 3964.79  14
   2   2   0 187908. 4402.99   7
   2   2   0 189524. 3971.41  20
   2   2   0 197361. 3903.02  19
   2   2   0 197837. 3915.35  18
   2   2   0 186259. 3957.57  17
   2   2   1 223099. 5447.61   7
   2   2   1 243150. 4904.84   6
   2   2   2 1862.99 418.954   8
   2   2   2 1510.34 237.691   6
   2   2   3 13735.5 925.080   3
   2   2   3 13206.4 1040.35   8
   2   2   4 101544. 2292.34  15
   2   2   4 100365. 2290.76  14
   2   2   4 95970.4 3375.47   8
   2   2   4 101803. 2319.73  13
   2   2   4 99504.6 2295.29  13
   2   2   4 102473. 2341.58  12
   2   2   4 101263. 2313.88  12
   2   2   4 99183.4 3011.66   3
   2   2   5 43453.4 2278.27   8
   2   2   5 45234.6 1434.72  13
   2   2   5 46812.6 1463.86  12
   2   2   5 46087.1 1893.03   3
   2   2   6 28267.8 1973.18   8
   2   2   6 29499.1 1553.12   3
   2   2   6 30185.2 1258.17  12
   2   2   7 37913.2 2424.47   8
   2   2   7 39536.5 1889.20   3
   2   2   8 98065.6 4298.20   8
   2   2   9 39372.1 2853.65   8
   2   2  10 761.949 618.726   8
   2   3 -13 65032.8 3864.24  15
   2   3 -13 59790.9 3713.89  14
   2   3 -13 63597.9 3761.49   4
   2   3 -13 66440.3 3948.45  20
   2   3 -13 68162.6 3885.83  18
   2   3 -13 64930.9 3903.84  17
   2   3 -13 72619.4 4045.22  10
   2   3 -12 46171.5 3058.78  15
   2   3 -12 49672.6 3161.76  14
   2   3 -12 53364.8 3161.85   4
   2   3 -12 46459.2 3148.95  20
   2   3 -12 45628.8 3085.68  17
   2   3 -12 43960.4 3008.38  10
   2   3 -11 10076.3 1413.45  15
   2   3 -11 13280.8 1558.22  14
   2   3 -11 9381.80 1222.41   4
   2   3 -11 10050.6 1365.06  20
   2   3 -11 11023.4 1464.35  17
   2   3 -11 10616.6 1440.91  10
   2   3 -10 30074.2 2223.24  15
   2   3 -10 23842.3 2008.57  14
   2   3 -10 25777.5 1933.50   4
   2   3 -10 27346.2 2156.97  13
   2   3 -10 30233.1 2228.88  20
   2   3 -10 25286.7 2019.56  17
   2   3 -10 23770.4 1960.42  10
   2   3 -10 28302.5 1783.94   5
   2   3  -9 135122. 4880.70  15
   2   3  -9 138074. 4906.47  14
   2   3  -9 130591. 4831.60  13
   2   3  -9 130133. 4459.85   4
   2   3  -9 130271. 4827.20  20
   2   3  -9 131707. 4838.63  17
   2   3  -9 136825. 4318.83   5
   2   3  -8 155333. 5158.75  15
   2   3  -8 151923. 5130.95  14
   2   3  -8 155784. 5188.22  13
   2   3  -8 159231. 4775.82   4
   2   3  -8 150555. 5123.83  20
   2   3  -8 158001. 5195.59  17
   2   3  -8 157447. 4649.22   5
   2   3  -7 681.508 453.239   4
   2   3  -7 1233.74 453.935   5
   2   3  -7 869.782 599.555  15
   2   3  -7 855.359 540.720  14
   2   3  -7 1434.57 604.177  13
   2   3  -7 1576.01 593.116  20
   2   3  -7 866.828 505.798  17
   2   3  -6 1242.95 485.152   5
   2   3  -6 1229.23 565.225  15
   2   3  -6 1188.86 556.592  14
   2   3  -6 1549.40 579.734  13
   2   3  -6 1472.83 414.802   4
   2   3  -6 1329.38 587.547  20
   2   3  -6 868.473 523.158  17
   2   3  -5 150134. 4228.78   5
   2   3  -5 148640. 4406.52  15
   2   3  -5 145258. 4361.44  14
   2   3  -5 145489. 3844.18   7
   2   3  -5 147685. 4386.29  13
   2   3  -5 148529. 3938.78   4
   2   3  -5 144633. 4379.27  20
   2   3  -5 144712. 4376.34  17
   2   3  -4 122457. 3665.61   5
   2   3  -4 120454. 3700.18  15
   2   3  -4 121180. 3705.65  14
   2   3  -4 116404. 3658.02  13
   2   3  -4 126561. 3311.96   7
   2   3  -4 119541. 3690.05  20
   2   3  -4 122626. 3719.81  17
   2   3  -3 118328. 3381.06  15
   2   3  -3 115120. 3335.00  14
   2   3  -3 112531. 3322.17  13
   2   3  -3 115531. 3049.83   7
   2   3  -3 119739. 3376.96  20
   2   3  -3 116403. 3366.23  17
   2   3  -2 121149. 3244.88  15
   2   3  -2 118425. 3220.92  14
   2   3  -2 122938. 3245.95  13
   2   3  -2 120652. 3139.49   7
   2   3  -2 119691. 3242.63  20
   2   3  -2 121777. 3261.59  17
   2   3  -1 98737.2 2690.91  15
   2   3  -1 101373. 2691.32  14
   2   3  -1 98417.6 2683.66  13
   2   3  -1 103822. 2865.02   7
   2   3  -1 103727. 2711.03  20
   2   3  -1 111700. 2599.28  19
   2   3  -1 110999. 2611.83  18
   2   3  -1 112195. 2622.69  17
   2   3  -1 97908.5 2689.79  17
   2   3   0 84031.3 2170.60  15
   2   3   0 83349.0 2165.81  14
   2   3   0 87612.3 2203.99   8
   2   3   0 85009.9 2165.84  13
   2   3   0 84925.9 2593.63   7
   2   3   0 84463.9 2168.91  20
   2   3   0 94054.9 2084.47  19
   2   3   0 92232.4 2084.26  18
   2   3   0 93664.0 2101.93  17
   2   3   1 77424.0 1666.19  15
   2   3   1 71350.6 1691.41  15
   2   3   1 72450.8 1697.55  14
   2   3   1 72836.5 2196.86   8
   2   3   1 72636.6 1698.47  13
   2   3   1 68934.7 2390.54   7
   2   3   1 72783.1 1697.77  12
   2   3   1 76782.7 1646.15  20
   2   3   1 66421.4 1662.22  20
   2   3   1 73761.3 1605.00  19
   2   3   1 74876.1 1613.30  18
   2   3   1 75008.8 1621.65  17
   2   3   2 38860.3 1689.53   8
   2   3   2 41203.0 1833.72   7
   2   3   2 42190.4 1180.56   6
   2   3   3 18280.0 580.099  14
   2   3   3 17809.4 544.254  14
   2   3   3 19972.6 618.416  13
   2   3   3 18970.8 572.156  13
   2   3   3 18553.5 577.835  12
   2   3   4 65140.3 1703.29  15
   2   3   4 66463.5 1732.48  14
   2   3   4 68768.6 2786.67   8
   2   3   4 67474.4 1674.38  14
   2   3   4 70374.9 1776.19  13
   2   3   4 66042.4 1689.56  13
   2   3   4 67521.7 1783.03  12
   2   3   4 70472.3 1725.47  12
   2   3   4 65605.2 1685.03  20
   2   3   4 71337.6 2350.07   3
   2   3   5 105347. 3887.41   8
   2   3   5 109479. 2685.71  13
   2   3   5 106858. 2698.59  12
   2   3   5 110031. 3235.85   3
   2   3   6 31812.5 2113.97   8
   2   3   6 30845.1 1547.86   3
   2   3   7 13743.3 1541.49   8
   2   3   8 60325.1 3352.80   8
   2   3   9 43965.3 2997.81   8
   2   3  10 2874.58 724.062   8
   2   4 -13 44992.9 3167.09  15
   2   4 -13 46286.7 3108.68   4
   2   4 -13 43351.6 3156.89  20
   2   4 -13 41735.7 3138.63  10
   2   4 -12 44509.1 3019.01  15
   2   4 -12 47545.1 3113.39  14
   2   4 -12 44317.8 2898.23   4
   2   4 -12 44798.6 3036.24  20
   2   4 -12 48519.6 3095.07  17
   2   4 -12 39329.3 2877.83  10
   2   4 -11 19073.9 1809.58  15
   2   4 -11 17996.7 1846.82  14
   2   4 -11 14928.0 1600.27   4
   2   4 -11 15580.5 1734.01  13
   2   4 -11 16494.1 1733.55  20
   2   4 -11 13924.6 1659.21  17
   2   4 -11 16642.7 1776.34  10
   2   4 -10 12073.9 1427.76  15
   2   4 -10 12256.9 1469.77  14
   2   4 -10 14113.3 1450.64   4
   2   4 -10 11117.5 1393.95  13
   2   4 -10 13023.9 1497.38  20
   2   4 -10 14741.5 1538.13  17
   2   4 -10 13589.5 1257.34   5
   2   4  -9 62439.4 3175.36  15
   2   4  -9 59092.6 3101.57  14
   2   4  -9 61216.8 3175.26  13
   2   4  -9 67643.2 3001.40   4
   2   4  -9 65120.8 3242.67  20
   2   4  -9 57844.8 3072.69  17
   2   4  -9 61855.0 2687.23   5
   2   4  -8 137118. 4387.10   5
   2   4  -8 136635. 4879.15  15
   2   4  -8 141893. 4932.56  14
   2   4  -8 144507. 4984.29  13
   2   4  -8 138892. 4484.67   4
   2   4  -8 140901. 4940.01  20
   2   4  -8 151537. 5070.01  17
   2   4  -7 15153.9 1253.13   5
   2   4  -7 15438.1 1440.91  15
   2   4  -7 15902.9 1442.21  14
   2   4  -7 16020.1 1478.12  13
   2   4  -7 14979.8 1231.89   4
   2   4  -7 19595.2 1576.32  20
   2   4  -7 18007.2 1572.28  17
   2   4  -6 4626.82 692.714   5
   2   4  -6 4618.89 865.179  15
   2   4  -6 3990.44 764.907  14
   2   4  -6 3889.09 767.850  13
   2   4  -6 5117.04 702.360   7
   2   4  -6 5573.54 763.567   4
   2   4  -6 4725.69 832.163  20
   2   4  -6 5231.03 833.519  17
   2   4  -5 107079. 3527.34   5
   2   4  -5 108600. 3663.58  15
   2   4  -5 103621. 3602.12  14
   2   4  -5 105200. 3255.58   7
   2   4  -5 110703. 3674.18  13
   2   4  -5 105659. 3626.11  20
   2   4  -5 119315. 2623.97   1
   2   4  -5 101946. 3603.24  17
   2   4  -4 219836. 5675.50  15
   2   4  -4 214180. 5643.68  14
   2   4  -4 218187. 5652.78  13
   2   4  -4 213265. 5302.26   7
   2   4  -4 220870. 5694.61  20
   2   4  -3 44178.8 1881.95  15
   2   4  -3 45950.3 1885.22  14
   2   4  -3 47261.7 1918.75  13
   2   4  -3 46917.0 1805.45   7
   2   4  -3 45386.2 1896.05  20
   2   4  -2 31095.9 1406.01  15
   2   4  -2 26842.5 1316.22  14
   2   4  -2 31123.1 1396.19  13
   2   4  -2 28251.3 1361.97   7
   2   4  -2 28863.9 1349.60  12
   2   4  -2 29012.2 1359.33  20
   2   4  -1 89244.6 2541.71  15
   2   4  -1 89376.2 2549.23  14
   2   4  -1 86517.5 2519.47  13
   2   4  -1 91065.7 2792.67   7
   2   4  -1 90711.5 2543.18  12
   2   4  -1 87612.2 2536.73  20
   2   4   0 278691. 6130.32  15
   2   4   0 278034. 5955.38   8
   2   4   0 272595. 6117.19  14
   2   4   0 277754. 6121.09  13
   2   4   0 265209. 6644.57   7
   2   4   0 270847. 6101.18  12
   2   4   0 301056. 6060.69  20
   2   4   0 273190. 6107.45  20
   2   4   0 306953. 6038.97  19
   2   4   0 295364. 6024.21  18
   2   4   0 297497. 6046.30  17
   2   4   1 131096. 2893.19  15
   2   4   1 117570. 2888.83  15
   2   4   1 120635. 3206.71   8
   2   4   1 119280. 2890.17  14
   2   4   1 120067. 2895.03  13
   2   4   1 112137. 3588.39   7
   2   4   1 118387. 2887.75  12
   2   4   1 127961. 2869.19  20
   2   4   1 117868. 2882.25  20
   2   4   1 127632. 2835.01  19
   2   4   1 129212. 2845.64  18
   2   4   1 130167. 2853.21  17
   2   4   2 58342.1 1618.36  12
   2   4   2 64142.2 1629.82  15
   2   4   2 63223.3 1640.75  15
   2   4   2 65212.9 1649.91  14
   2   4   2 59392.0 2196.37   8
   2   4   2 60931.7 1625.80  14
   2   4   2 59038.0 1622.05  13
   2   4   2 58190.6 2445.73   7
   2   4   2 65780.3 1616.97  20
   2   4   2 58293.2 1387.77   6
   2   4   2 65833.1 1599.98  18
   2   4   2 65559.3 1606.61  17
   2   4   3 63174.8 1661.61  15
   2   4   3 59759.2 1597.00  15
   2   4   3 57054.8 2381.57   8
   2   4   3 59383.1 1606.81  14
   2   4   3 61237.7 1627.97  13
   2   4   3 55244.6 2522.84   7
   2   4   3 60243.8 1629.44  12
   2   4   3 66387.1 1662.07  20
   2   4   3 62748.4 1635.64  17
   2   4   4 23402.2 1259.12   3
   2   4   4 25336.2 1655.76   8
   2   4   4 22151.4 878.928  14
   2   4   4 22929.6 903.287  13
   2   4   4 22779.7 1665.01   7
   2   4   4 22339.9 898.909  12
   2   4   5 59760.7 2804.38   8
   2   4   5 59139.5 2158.73   3
   2   4   6 28732.4 2062.89   8
   2   4   7 6831.78 1095.36   8
   2   4   8 40672.8 2810.56   8
   2   4   9 38083.6 2887.96   8
   2   4  10 10720.3 1580.21   8
   2   5 -13 33216.5 2722.28   4
   2   5 -12 11838.2 1608.71  15
   2   5 -12 14046.9 1739.31  14
   2   5 -12 13433.6 1753.18  13
   2   5 -12 13272.8 1649.32   4
   2   5 -12 14500.2 1742.68  20
   2   5 -12 15063.4 1800.43  10
   2   5 -12 11671.7 1519.80  17
   2   5 -11 10776.5 1461.58  15
   2   5 -11 14359.4 1654.20  14
   2   5 -11 13844.3 1466.33   4
   2   5 -11 10331.9 1396.75  13
   2   5 -11 13834.7 1602.35  20
   2   5 -11 11597.7 1418.78  17
   2   5 -10 9745.92 1400.54  15
   2   5 -10 10510.7 1447.49  14
   2   5 -10 12234.5 1511.58  13
   2   5 -10 13876.5 1402.40   4
   2   5 -10 13729.4 1584.85  20
   2   5 -10 12949.2 1573.99  17
   2   5 -10 13681.6 1236.94   5
   2   5  -9 61573.4 2806.45   5
   2   5  -9 63774.0 3321.51  15
   2   5  -9 64767.7 3306.89  14
   2   5  -9 67025.1 3419.12  13
   2   5  -9 67480.8 3084.63   4
   2   5  -9 64507.4 3353.46  20
   2   5  -9 65911.4 3380.02  17
   2   5  -8 130078. 4344.07   5
   2   5  -8 130982. 4828.24  15
   2   5  -8 136013. 4874.50  14
   2   5  -8 135261. 4877.38  13
   2   5  -8 130892. 4449.69   4
   2   5  -8 136768. 4881.55  20
   2   5  -8 137320. 4905.95  17
   2   5  -7 38616.9 2070.33   5
   2   5  -7 40755.7 2327.79  15
   2   5  -7 34811.8 2200.22  14
   2   5  -7 34223.2 1930.79   7
   2   5  -7 37203.1 2266.79  13
   2   5  -7 37629.2 2044.61   4
   2   5  -7 38017.6 2272.29  20
   2   5  -7 35800.0 2186.38  17
   2   5  -6 3983.76 664.340   5
   2   5  -6 3739.80 790.035  15
   2   5  -6 2868.97 643.424  14
   2   5  -6 3722.19 780.841  13
   2   5  -6 2864.56 647.829   7
   2   5  -6 4341.43 807.315  20
   2   5  -6 3690.68 804.682  17
   2   5  -5 18392.5 1431.25  15
   2   5  -5 20411.7 1475.65  14
   2   5  -5 18632.5 1289.12   7
   2   5  -5 20738.5 1478.51  13
   2   5  -5 19458.5 1460.42  20
   2   5  -4 190445. 5276.79  15
   2   5  -4 197876. 5327.28  14
   2   5  -4 190158. 5259.91  13
   2   5  -4 188180. 5049.06   7
   2   5  -4 197413. 5316.74  12
   2   5  -4 189984. 5276.37  20
   2   5  -3 135274. 3943.37  15
   2   5  -3 134317. 3930.44  14
   2   5  -3 130750. 3900.66  13
   2   5  -3 129925. 3845.30   7
   2   5  -3 133415. 3917.94  12
   2   5  -3 137901. 3959.71  20
   2   5  -2 9563.54 839.791  15
   2   5  -2 8555.38 811.912  14
   2   5  -2 7863.14 784.835  13
   2   5  -2 8568.55 871.229   7
   2   5  -2 8124.50 797.125  12
   2   5  -2 8129.90 797.954  20
   2   5  -1 96262.1 2875.35  15
   2   5  -1 94286.6 2849.73  14
   2   5  -1 99509.9 2882.15  13
   2   5  -1 96551.3 3170.61   7
   2   5  -1 99492.4 2885.50  12
   2   5  -1 97026.5 2880.57  20
   2   5   0 286979. 6338.04  15
   2   5   0 273257. 5965.44   8
   2   5   0 281894. 6319.24  14
   2   5   0 282893. 6317.59  13
   2   5   0 274315. 6916.17   7
   2   5   0 289835. 6334.51  12
   2   5   0 283961. 6342.05  20
   2   5   1 122813. 3128.21  15
   2   5   1 122813. 3272.22   8
   2   5   1 119005. 3098.44  14
   2   5   1 122761. 3128.88  13
   2   5   1 117002. 3836.94   7
   2   5   1 121116. 3107.43  12
   2   5   2 19944.2 924.358  15
   2   5   2 18238.5 1194.02   8
   2   5   2 19696.5 923.958  14
   2   5   2 19482.5 920.231  13
   2   5   2 18763.5 1439.59   7
   2   5   2 18910.8 918.341  12
   2   5   3 14317.8 755.577  15
   2   5   3 13859.1 1143.95   8
   2   5   3 13325.3 743.001  14
   2   5   3 14583.1 778.416  13
   2   5   3 12875.8 1275.67   7
   2   5   3 14048.2 764.345  12
   2   5   4 38522.4 2091.70   8
   2   5   4 34278.9 2160.71   7
   2   5   5 36182.4 2195.27   8
   2   5   5 35072.0 2355.12   7
   2   5   6 19308.1 1698.26   8
   2   5   6 15338.0 1596.29   7
   2   5   7 8932.62 1276.45   8
   2   5   7 10374.6 1313.74   7
   2   5   8 19199.5 1901.08   8
   2   5   8 18310.2 1876.98   7
   2   5   9 19220.2 2103.62   8
   2   6 -12 17664.6 2043.58  15
   2   6 -12 20818.4 2161.74  14
   2   6 -12 20910.3 2043.51   4
   2   6 -12 15527.1 1985.71  13
   2   6 -12 22224.4 2204.66  20
   2   6 -12 18251.5 2036.59  17
   2   6 -12 21960.5 2210.91  10
   2   6 -11 4911.96 1180.70   4
   2   6 -11 5667.12 1162.42  15
   2   6 -11 4473.55 1008.69  14
   2   6 -11 3706.66 1047.96  13
   2   6 -11 6636.79 1226.08  20
   2   6 -11 6438.74 1097.38  17
   2   6 -10 23908.2 1817.48   5
   2   6 -10 24983.2 2189.40  15
   2   6 -10 27276.5 2262.44  14
   2   6 -10 22051.0 2061.01  13
   2   6 -10 26712.4 2088.92   4
   2   6 -10 25937.2 2183.15  20
   2   6 -10 26910.2 2226.34  17
   2   6  -9 85025.6 3505.45   5
   2   6  -9 86520.2 4040.53  15
   2   6  -9 85606.9 4027.54  14
   2   6  -9 86270.0 4044.07  13
   2   6  -9 85252.2 3693.59   4
   2   6  -9 84315.7 3928.88  20
   2   6  -9 87986.2 4040.85  17
   2   6  -8 107886. 3982.94   5
   2   6  -8 113182. 4473.15  15
   2   6  -8 109904. 4406.71  14
   2   6  -8 109327. 4024.31   7
   2   6  -8 112432. 4420.91  13
   2   6  -8 111515. 4132.26   4
   2   6  -8 106402. 4366.62  20
   2   6  -8 113764. 4488.63  17
   2   6  -7 30968.8 1958.21   5
   2   6  -7 30081.1 2101.60  15
   2   6  -7 32608.5 2135.20  14
   2   6  -7 31829.0 1930.87   7
   2   6  -7 34644.5 2241.05  13
   2   6  -7 33171.5 2150.82  20
   2   6  -7 35286.0 2225.99  17
   2   6  -6 11813.7 1261.93  15
   2   6  -6 15296.1 1390.44  14
   2   6  -6 13733.3 1229.26   7
   2   6  -6 12066.3 1288.51  13
   2   6  -6 13717.7 1338.39  20
   2   6  -5 34572.4 2014.57  15
   2   6  -5 39838.6 2132.27  14
   2   6  -5 40062.6 2155.21  13
   2   6  -5 35984.1 1919.92   7
   2   6  -5 39028.3 2145.29  12
   2   6  -5 36458.0 2070.83  20
   2   6  -4 100795. 3543.01  15
   2   6  -4 102419. 3561.44  14
   2   6  -4 101683. 3558.88  13
   2   6  -4 97130.2 3417.59   7
   2   6  -4 102975. 3557.55  12
   2   6  -4 104009. 3597.92  20
   2   6  -3 148426. 4386.01  15
   2   6  -3 153692. 4406.42  14
   2   6  -3 145352. 4350.72  13
   2   6  -3 139451. 4332.43   7
   2   6  -3 151789. 4387.81  12
   2   6  -3 144348. 4363.46  20
   2   6  -2 8013.77 853.301  15
   2   6  -2 8444.62 888.465  14
   2   6  -2 7981.74 835.127  13
   2   6  -2 7698.97 941.819   7
   2   6  -2 8254.37 868.091  12
   2   6  -2 8917.41 889.130  20
   2   6  -1 11836.9 955.582  15
   2   6  -1 12422.8 965.593  14
   2   6  -1 12079.9 976.355  13
   2   6  -1 12716.8 1167.23   7
   2   6  -1 11175.3 916.240  12
   2   6  -1 11440.0 957.743  20
   2   6   0 127944. 3708.63  15
   2   6   0 142830. 3388.35   8
   2   6   0 138934. 3781.69  14
   2   6   0 133142. 3737.47  13
   2   6   0 135210. 4316.74   7
   2   6   0 141049. 3781.96  12
   2   6   0 138611. 3775.34  20
   2   6   1 87240.7 2620.93  15
   2   6   1 78996.0 2498.19   8
   2   6   1 78915.6 2526.31  14
   2   6   1 82829.0 2554.94  13
   2   6   1 80678.5 3193.43   7
   2   6   1 79220.5 2511.17  12
   2   6   2 22593.6 1147.89  15
   2   6   2 23000.8 1327.78   8
   2   6   2 21215.1 1115.20  14
   2   6   2 21142.6 1134.55  13
   2   6   2 20730.1 1600.35   7
   2   6   2 21866.6 1125.98  12
   2   6   3 4727.60 721.389   8
   2   6   3 3648.79 829.629   7
   2   6   4 31260.4 1934.33   8
   2   6   4 31387.8 2151.69   7
   2   6   5 48721.0 2683.78   8
   2   6   5 52485.2 3009.66   7
   2   6   6 3925.35 871.306   8
   2   6   6 3878.54 904.498   7
   2   6   7 4744.56 960.382   8
   2   6   7 5804.01 1060.32   7
   2   6   8 13646.6 1697.49   8
   2   6   8 14987.0 1747.59   7
   2   7 -12 49331.9 3239.44   4
   2   7 -11 6149.81 1105.15  15
   2   7 -11 7314.28 1271.85  14
   2   7 -11 8146.28 1378.28  13
   2   7 -11 8351.54 1361.43   4
   2   7 -11 7068.65 1293.75  20
   2   7 -11 7731.24 1271.89  17
   2   7 -10 5597.11 854.775   5
   2   7 -10 5224.21 1054.98  15
   2   7 -10 4887.65 1033.53  14
   2   7 -10 5117.92 1022.60  13
   2   7 -10 7734.94 1167.36   4
   2   7 -10 4139.61 915.303  20
   2   7 -10 5739.63 1079.49  17
   2   7  -9 93271.8 3813.92   5
   2   7  -9 89910.5 4248.81  15
   2   7  -9 96047.7 4348.59  14
   2   7  -9 85817.7 3851.00   7
   2   7  -9 90562.2 4235.50  13
   2   7  -9 93700.3 4043.19   4
   2   7  -9 98171.7 4404.85  20
   2   7  -9 92304.1 4290.95  17
   2   7  -8 81755.9 3612.38   5
   2   7  -8 92381.4 4060.07  15
   2   7  -8 89209.0 3976.23  14
   2   7  -8 93586.4 3782.67   7
   2   7  -8 88180.9 3989.02  13
   2   7  -8 87813.5 3755.86   4
   2   7  -8 96655.1 4140.37  20
   2   7  -8 96360.3 4148.69  17
   2   7  -7 29292.8 2174.92  15
   2   7  -7 32993.3 2253.57  14
   2   7  -7 35626.7 2148.28   7
   2   7  -7 37166.8 2354.73  13
   2   7  -7 33889.8 2304.98  20
   2   7  -6 14818.5 1422.01  15
   2   7  -6 16384.1 1515.43  14
   2   7  -6 15664.8 1379.33   7
   2   7  -6 14944.8 1455.42  13
   2   7  -6 13536.4 1428.48  12
   2   7  -6 14138.3 1425.36  20
   2   7  -5 29026.1 1904.15  15
   2   7  -5 27985.2 1875.97  14
   2   7  -5 29343.6 1921.36  13
   2   7  -5 25927.0 1791.59   7
   2   7  -5 27329.2 1866.25  12
   2   7  -5 29332.1 1954.74  20
   2   7  -4 88447.8 3407.33  15
   2   7  -4 83255.9 3337.66  14
   2   7  -4 86717.0 3360.37  13
   2   7  -4 81843.1 3264.97   7
   2   7  -4 90488.3 3411.56  12
   2   7  -4 84326.4 3358.14  20
   2   7  -3 37927.2 2048.44  15
   2   7  -3 41120.4 2117.67  14
   2   7  -3 41784.6 2100.90  13
   2   7  -3 37371.9 2078.45   7
   2   7  -3 39022.1 2061.28  12
   2   7  -3 37527.5 2040.39  20
   2   7  -2 1801.36 556.204  15
   2   7  -2 1648.45 539.367  14
   2   7  -2 1468.00 531.773  13
   2   7  -2 2454.57 686.419   7
   2   7  -2 2374.30 575.164  20
   2   7  -2 1762.38 563.057  12
   2   7  -1 5999.69 793.921  15
   2   7  -1 6298.93 775.843  14
   2   7  -1 6781.27 823.234  13
   2   7  -1 5882.50 938.099   7
   2   7  -1 7309.28 816.381  20
   2   7  -1 6445.83 845.090  12
   2   7   0 66449.0 2505.53  15
   2   7   0 70709.3 2556.79  14
   2   7   0 65139.3 2491.84  13
   2   7   0 62072.7 2873.30   7
   2   7   0 69508.3 2526.02  12
   2   7   1 120079. 3577.45  15
   2   7   1 113968. 3494.80  14
   2   7   1 121726. 3556.48  13
   2   7   1 109074. 4152.65   7
   2   7   1 118968. 3541.78  12
   2   7   2 29937.9 1604.81   8
   2   7   2 26727.2 1973.63   7
   2   7   3 4605.06 790.100   8
   2   7   3 4191.67 938.026   7
   2   7   4 20763.5 1622.44   8
   2   7   4 20053.9 1828.84   7
   2   7   5 37075.3 2360.02   8
   2   7   5 33985.7 2460.30   7
   2   7   6 11233.8 1516.85   8
   2   7   6 10007.0 1427.29   7
   2   7   7 5971.11 1082.33   8
   2   8 -11 8185.44 1465.10  15
   2   8 -11 9458.19 1400.06  14
   2   8 -11 8582.69 1482.78  13
   2   8 -11 6416.42 1252.80   4
   2   8 -11 6529.58 1213.41  20
   2   8 -11 7496.80 1404.41  17
   2   8 -10 3788.37 769.424   5
   2   8 -10 743.058 752.626  15
   2   8 -10 1714.77 688.665  14
   2   8 -10 2580.61 748.096  13
   2   8 -10 2499.50 686.469   4
   2   8 -10 2512.32 714.980  20
   2   8 -10 2159.62 659.751  17
   2   8  -9 51616.4 2827.67   5
   2   8  -9 46111.5 3019.81  15
   2   8  -9 47284.3 3006.38  14
   2   8  -9 46674.5 2886.15   7
   2   8  -9 44619.1 3003.67  13
   2   8  -9 48242.4 2896.54   4
   2   8  -9 49432.4 3125.21  20
   2   8  -9 47984.2 3105.10  17
   2   8  -8 90491.2 4185.92  15
   2   8  -8 90913.7 4182.66  14
   2   8  -8 89232.4 3903.36   7
   2   8  -8 86437.6 4106.84  13
   2   8  -8 91052.5 4012.46   4
   2   8  -8 92491.5 4188.67  20
   2   8  -7 26139.7 2102.59  15
   2   8  -7 27768.8 2126.79  14
   2   8  -7 24650.2 1940.29   7
   2   8  -7 23394.9 1973.79  13
   2   8  -7 22946.6 1953.19  20
   2   8  -6 7429.75 1139.20  15
   2   8  -6 5344.42 939.674  14
   2   8  -6 6563.69 1073.01  13
   2   8  -6 6732.68 1029.26   7
   2   8  -6 6377.35 1044.52  20
   2   8  -6 7323.83 1109.61  12
   2   8  -5 12070.6 1357.11  15
   2   8  -5 12450.5 1349.00  14
   2   8  -5 13969.5 1436.36  13
   2   8  -5 12498.5 1333.13   7
   2   8  -5 13875.5 1427.34  12
   2   8  -5 11572.6 1342.00  20
   2   8  -4 57878.6 2849.68  15
   2   8  -4 61492.8 2867.07  14
   2   8  -4 57128.8 2804.36  13
   2   8  -4 55648.6 2785.15   7
   2   8  -4 61439.0 2885.47  12
   2   8  -4 60930.7 2890.50  20
   2   8  -3 50111.0 2491.53  15
   2   8  -3 45651.7 2420.86  14
   2   8  -3 46179.8 2389.09  13
   2   8  -3 41103.6 2398.02   7
   2   8  -3 45547.5 2357.74  12
   2   8  -3 49942.4 2486.20  20
   2   8  -2 3298.61 724.448  15
   2   8  -2 2806.91 668.995  14
   2   8  -2 3694.45 736.051  13
   2   8  -2 2909.25 764.594   7
   2   8  -2 2940.40 687.326  20
   2   8  -2 4415.00 722.952  12
   2   8  -1 18079.4 1379.02  15
   2   8  -1 17891.4 1372.22  14
   2   8  -1 20872.0 1441.42  13
   2   8  -1 17068.7 1553.61   7
   2   8  -1 18754.8 1376.13  12
   2   8  -1 20148.7 1467.07  20
   2   8   0 53950.7 2408.33  15
   2   8   0 54633.4 2419.52  14
   2   8   0 56694.5 2444.86  13
   2   8   0 50717.7 2806.29   7
   2   8   0 55826.9 2427.94  12
   2   8   1 68315.9 3328.03   7
   2   8   2 29927.6 2202.59   7
   2   8   3 2813.74 804.287   7
   2   8   4 25065.7 2259.02   7
   2   8   5 31728.0 2580.46   7
   2   9 -10 4439.18 1034.88   5
   2   9 -10 2832.48 1006.34  15
   2   9 -10 1469.96 711.203   7
   2   9 -10 4989.09 1115.20  14
   2   9 -10 4098.28 889.031  13
   2   9 -10 3396.08 1026.00   4
   2   9 -10 2562.32 981.436  20
   2   9 -10 3448.11 828.079  17
   2   9  -9 20937.3 1911.68   5
   2   9  -9 20530.9 2145.16  15
   2   9  -9 20674.8 2105.14  14
   2   9  -9 21104.3 2011.91   7
   2   9  -9 17485.3 1909.77  13
   2   9  -9 21173.4 2045.31   4
   2   9  -9 25152.6 2318.06  20
   2   9  -9 25523.0 2303.21  17
   2   9  -8 49870.0 3160.17  15
   2   9  -8 50680.8 3177.95  14
   2   9  -8 51700.3 3098.44   7
   2   9  -8 51535.8 3145.22  13
   2   9  -8 53257.7 3241.83  20
   2   9  -7 37431.5 2555.79  15
   2   9  -7 34485.5 2523.59  14
   2   9  -7 32877.6 2359.43   7
   2   9  -7 29943.1 2372.62  13
   2   9  -7 29533.9 2358.96  12
   2   9  -7 35433.7 2533.00  20
   2   9  -6 3274.81 931.464  15
   2   9  -6 4875.71 927.978  14
   2   9  -6 3688.54 854.985  13
   2   9  -6 3348.00 890.705   7
   2   9  -6 2483.22 818.154  20
   2   9  -6 4180.80 868.919  12
   2   9  -5 31508.6 2230.87  15
   2   9  -5 28904.7 2135.05  14
   2   9  -5 28125.4 2122.46  13
   2   9  -5 27799.5 2094.95   7
   2   9  -5 30414.5 2198.70  12
   2   9  -5 24987.1 2017.53  20
   2   9  -4 86351.7 3679.37  15
   2   9  -4 80086.1 3592.90  14
   2   9  -4 83216.3 3633.41  13
   2   9  -4 72545.9 3485.07   7
   2   9  -4 80474.5 3556.43  12
   2   9  -4 76592.1 3519.77  20
   2   9  -3 36169.3 2321.54  15
   2   9  -3 40969.7 2418.03  14
   2   9  -3 43450.6 2480.42  13
   2   9  -3 39761.8 2456.07   7
   2   9  -3 41145.2 2423.19  12
   2   9  -3 41926.2 2436.94  20
   2   9  -2 12047.9 1248.15  15
   2   9  -2 13270.6 1333.58  14
   2   9  -2 10386.7 1236.84  13
   2   9  -2 9849.61 1277.10   7
   2   9  -2 12383.7 1265.85  12
   2   9  -2 11098.3 1212.25  20
   2   9  -1 5079.80 974.301   7
   2   9   0 26176.9 2096.33   7
   2   9   1 53946.4 3121.69   7
   2   9   2 19906.8 1949.84   7
   2   9   3 5855.07 1101.34   7
   2   9   4 12741.8 1687.77   7
   2  10 -10 357.181 798.222   5
   2  10  -9 18074.9 2084.55  15
   2  10  -9 13942.4 1858.12  14
   2  10  -9 17750.6 1868.44   7
   2  10  -9 13349.1 1842.82  13
   2  10  -9 15846.8 1932.66  20
   2  10  -8 55562.3 3458.66  15
   2  10  -8 50027.4 3281.20  14
   2  10  -8 56895.6 3377.57   7
   2  10  -8 48977.2 3255.98  13
   2  10  -8 56715.6 3507.14  20
   2  10  -7 42269.3 2929.51  15
   2  10  -7 41810.8 2884.07  14
   2  10  -7 44621.3 2900.22   7
   2  10  -7 38580.6 2827.65  13
   2  10  -7 42742.4 2968.42  12
   2  10  -7 45864.4 3021.08  20
   2  10  -6 9786.55 1414.06  15
   2  10  -6 13297.0 1606.49  14
   2  10  -6 10990.0 1515.22  13
   2  10  -6 12041.4 1407.38   7
   2  10  -6 9370.17 1364.58  20
   2  10  -6 12438.2 1567.18  12
   2  10  -5 18072.2 1833.53  15
   2  10  -5 16074.3 1877.14  14
   2  10  -5 18749.1 1886.28  13
   2  10  -5 16022.2 1744.80   7
   2  10  -5 19359.4 1913.19  12
   2  10  -5 22762.4 1939.90  20
   2  10  -4 59574.9 3292.01  15
   2  10  -4 67684.2 3461.70  14
   2  10  -4 66216.8 3395.83  13
   2  10  -4 63349.7 3407.46   7
   2  10  -4 71284.5 3518.15  12
   2  10  -4 72709.2 3521.21  20
   2  10  -3 21852.5 1921.61  15
   2  10  -3 23240.8 2002.43  14
   2  10  -3 26662.4 2044.97  13
   2  10  -3 21927.7 1955.13   7
   2  10  -3 23332.8 1934.12  12
   2  10  -3 22183.9 1886.36  20
   2  10  -2 4070.65 963.291   7
   2  10  -1 5093.93 1020.33   7
   2  10   0 13215.4 1552.56   7
   2  10   1 37368.7 2789.62   7
   2  10   2 16453.6 1867.69   7
   2  11  -7 36799.6 2793.75  15
   2  11  -7 31487.4 2697.41  14
   2  11  -7 31543.7 2690.38  13
   2  11  -7 30644.6 2803.31  12
   2  11  -7 36365.9 2853.33  20
   2  11  -6 2309.67 849.936  15
   2  11  -6 2907.92 1044.31  14
   2  11  -6 3360.74 1069.91  13
   2  11  -6 2836.69 988.201   7
   2  11  -6 3157.64 889.296  20
   2  11  -6 4540.25 1142.07  12
   2  11  -5 8214.30 1390.65  15
   2  11  -5 9167.05 1508.01  14
   2  11  -5 7001.12 1441.08  13
   2  11  -5 6958.77 1286.75   7
   2  11  -5 6934.67 1188.98  20
   2  11  -5 7655.63 1325.32  12
   2  11  -4 29113.1 2385.68  14
   2  11  -4 28152.0 2389.88  13
   2  11  -4 31957.6 2448.52   7
   2  11  -3 33887.3 2570.20   7
   2  11  -2 3945.65 928.854   7
   3 -11   0 21716.4 2248.25   2
   3 -11   1 29098.8 2764.96  11
   3 -11   2 16301.9 2148.27  11
   3 -11   3 11576.3 1620.31   3
   3 -11   3 10194.8 1769.24  11
   3 -10  -2 2560.38 696.516   2
   3 -10  -2 4040.49 1111.63  20
   3 -10  -2 1184.82 503.870  19
   3 -10  -2 3656.46 1032.28  11
   3 -10  -2 2229.96 772.396  18
   3 -10  -2 2655.56 770.354  17
   3 -10  -1 12383.6 1674.11   2
   3 -10  -1 13289.0 1664.03  19
   3 -10  -1 11891.5 1851.23  11
   3 -10  -1 13278.1 1633.94  18
   3 -10  -1 14422.4 1727.52  17
   3 -10   0 42085.9 2879.95   2
   3 -10   0 39620.5 2812.33  19
   3 -10   0 41191.3 2815.27  18
   3 -10   0 41632.7 3329.95  11
   3 -10   0 42036.4 2910.31  17
   3 -10   1 22223.8 2037.68   2
   3 -10   1 23928.9 2174.41   3
   3 -10   1 21174.8 2049.69  19
   3 -10   1 20777.8 2011.56  18
   3 -10   1 20530.5 2354.45  11
   3 -10   1 19400.1 2016.10  17
   3 -10   2 22938.8 2394.35   3
   3 -10   2 20037.0 1971.03  19
   3 -10   2 19727.9 1966.44  18
   3 -10   2 20168.9 2381.42  11
   3 -10   2 22857.7 2078.20  17
   3 -10   3 13473.1 1817.93   3
   3 -10   3 15266.1 1696.83  19
   3 -10   3 15240.4 1743.00  18
   3 -10   3 12797.6 1808.70  11
   3 -10   3 14107.5 1743.27  17
   3 -10   4 10792.4 1662.41   3
   3 -10   4 11575.6 1492.23  19
   3 -10   4 12577.2 1668.98  11
   3 -10   4 12145.3 1518.40  18
   3 -10   4 12567.6 1574.28  17
   3 -10   5 26470.5 2774.70   3
   3 -10   5 25179.2 2287.50  19
   3 -10   5 31279.3 2529.18  18
   3 -10   5 27426.1 2401.44  17
   3  -9  -5 6424.69 1092.50  20
   3  -9  -5 8445.67 1201.04  19
   3  -9  -5 6387.98 1064.07  18
   3  -9  -5 6391.79 1063.82  17
   3  -9  -4 33178.7 2767.44   2
   3  -9  -4 34805.4 2603.85  19
   3  -9  -4 35025.1 2590.81  18
   3  -9  -4 34770.4 3103.05  11
   3  -9  -4 34830.2 2601.98  17
   3  -9  -4 38352.1 2684.12  20
   3  -9  -3 22948.1 2003.48  20
   3  -9  -3 16671.1 1933.54   2
   3  -9  -3 19696.4 1890.26  19
   3  -9  -3 23319.6 2133.41  18
   3  -9  -3 23099.6 2523.60  11
   3  -9  -3 22254.0 2032.81  17
   3  -9  -2 2535.71 860.153   2
   3  -9  -2 2242.77 744.241  20
   3  -9  -2 1399.41 543.887  19
   3  -9  -2 1328.09 826.888  11
   3  -9  -2 3671.66 747.641  18
   3  -9  -2 3557.38 743.947  17
   3  -9  -1 9569.66 1237.67  20
   3  -9  -1 8624.82 1390.15   2
   3  -9  -1 9695.11 1299.32  19
   3  -9  -1 8249.75 1610.93  11
   3  -9  -1 7676.87 1184.13  18
   3  -9  -1 9599.62 1306.45  17
   3  -9   0 36754.3 2550.39   2
   3  -9   0 38090.3 2693.05   3
   3  -9   0 35806.4 2543.69  19
   3  -9   0 33127.5 2444.49  18
   3  -9   0 34281.4 2847.69  11
   3  -9   0 32353.1 2421.31  17
   3  -9   1 38604.2 2464.07   2
   3  -9   1 31711.7 2568.97   3
   3  -9   1 27609.8 2274.98  19
   3  -9   1 35773.2 2495.84  18
   3  -9   1 29374.3 2698.06  11
   3  -9   1 30652.7 2398.82  17
   3  -9   2 9664.84 1468.18   3
   3  -9   2 12927.5 1398.11   2
   3  -9   2 10140.7 1356.04  19
   3  -9   2 11658.5 1399.82  18
   3  -9   2 11127.2 1717.63  11
   3  -9   2 11833.4 1451.58  17
   3  -9   3 16496.1 2082.51   3
   3  -9   3 15131.6 1683.76  19
   3  -9   3 17731.1 1804.44  18
   3  -9   3 17843.5 1963.50  11
   3  -9   3 13366.3 1627.90  17
   3  -9   4 41809.2 3194.41   3
   3  -9   4 37280.9 2631.97  19
   3  -9   4 40256.8 2745.45  18
   3  -9   4 37507.7 2789.57  11
   3  -9   4 41764.1 2800.46  17
   3  -9   5 40985.7 3348.06   3
   3  -9   5 44886.1 2911.54  19
   3  -9   5 48401.4 3027.06  18
   3  -9   5 48549.1 3029.42  17
   3  -9   6 25081.2 2787.11   3
   3  -9   6 22775.1 2119.04  19
   3  -9   6 23734.6 2118.75  18
   3  -9   7 9115.27 1688.64   3
   3  -9   7 10109.4 1362.84  19
   3  -9   7 9527.95 1333.68  18
   3  -9   8 22509.6 2175.70  19
   3  -9   8 23635.1 2194.86  18
   3  -8  -6 5816.25 1228.22   2
   3  -8  -6 5529.82 1022.94  20
   3  -8  -6 5365.28 1044.56  19
   3  -8  -6 4588.26 1170.10  11
   3  -8  -6 7774.84 1179.28  18
   3  -8  -6 5033.02 926.003  17
   3  -8  -5 10910.1 1528.30   2
   3  -8  -5 8926.90 1247.92  20
   3  -8  -5 9606.30 1254.12  19
   3  -8  -5 9633.57 1671.69  11
   3  -8  -5 8422.44 1183.59  18
   3  -8  -5 9570.05 1319.78  17
   3  -8  -4 46088.0 2878.76  20
   3  -8  -4 43498.5 2788.66  19
   3  -8  -4 45580.5 3209.50   2
   3  -8  -4 50910.9 2955.64  18
   3  -8  -4 48858.6 3545.62  11
   3  -8  -4 44255.1 2812.66  17
   3  -8  -3 43983.1 2713.39  20
   3  -8  -3 47755.4 2779.40  19
   3  -8  -3 40850.0 2883.02   2
   3  -8  -3 37764.6 2527.03  18
   3  -8  -3 42719.4 3225.95  11
   3  -8  -3 39243.7 2571.51  17
   3  -8  -2 2183.29 774.721   2
   3  -8  -2 997.794 598.542  20
   3  -8  -2 1760.13 613.407  19
   3  -8  -2 1304.40 861.277  11
   3  -8  -2 1934.95 689.602  18
   3  -8  -2 1763.19 712.773  17
   3  -8  -1 6616.13 1123.10   3
   3  -8  -1 5026.13 1019.39   2
   3  -8  -1 5503.09 947.238  20
   3  -8  -1 5608.68 958.213  19
   3  -8  -1 5425.36 1243.22  11
   3  -8  -1 6959.54 997.634  18
   3  -8  -1 5189.08 926.768  17
   3  -8   0 35253.8 2353.26  20
   3  -8   0 39013.3 2464.29   2
   3  -8   0 38825.9 2579.26   3
   3  -8   0 36429.7 2372.87  19
   3  -8   0 33505.7 2265.77  18
   3  -8   0 36225.7 2825.99  11
   3  -8   0 36613.1 2399.13  17
   3  -8   1 68223.3 3137.00   2
   3  -8   1 64946.4 3508.01   3
   3  -8   1 60700.3 3076.85  19
   3  -8   1 58599.5 3068.28  18
   3  -8   1 62139.1 3135.72  17
   3  -8   2 54616.2 2613.80   2
   3  -8   2 51482.6 2820.13  19
   3  -8   2 44234.9 3019.28   3
   3  -8   2 51312.5 2825.90  18
   3  -8   2 49046.1 2797.48  17
   3  -8   3 20998.5 1794.26  19
   3  -8   3 17708.2 1985.68   3
   3  -8   3 22265.0 1835.86  18
   3  -8   3 22477.0 2012.09  11
   3  -8   3 19684.0 1751.44  17
   3  -8   4 67106.4 3307.08  19
   3  -8   4 67687.4 3343.07  18
   3  -8   4 65027.8 3455.41  11
   3  -8   4 69764.1 3369.49  17
   3  -8   5 64306.4 3285.63  19
   3  -8   5 67954.7 4059.77   3
   3  -8   5 58745.2 3175.29  18
   3  -8   5 67137.7 3356.20  17
   3  -8   6 17995.7 1782.85  19
   3  -8   6 18318.4 2179.80   3
   3  -8   6 18289.6 1785.01  18
   3  -8   7 11963.4 1959.96   3
   3  -8   7 14786.8 1598.80  19
   3  -8   7 12355.4 1519.27  18
   3  -8   8 13146.8 1994.24   3
   3  -8   8 10568.2 1401.17  19
   3  -8   8 10231.7 1428.62  18
   3  -8   9 36980.5 2745.27  19
   3  -8   9 32736.4 2624.79  18
   3  -7  -8 30418.1 2455.79  20
   3  -7  -8 25805.6 2300.72  19
   3  -7  -8 24112.6 2496.87  11
   3  -7  -8 25805.4 2321.87  18
   3  -7  -8 27043.8 2344.38  17
   3  -7  -7 28728.5 2356.34  20
   3  -7  -7 30703.7 2437.72  19
   3  -7  -7 32450.9 2788.63   2
   3  -7  -7 30647.4 2874.62  11
   3  -7  -7 27768.5 2315.01  18
   3  -7  -7 30543.6 2374.41  17
   3  -7  -6 6882.18 1411.28   2
   3  -7  -6 6266.01 1137.75  20
   3  -7  -6 5043.71 1057.70  19
   3  -7  -6 6619.71 1252.89  11
   3  -7  -6 6781.10 1015.58  18
   3  -7  -6 5667.63 1082.12  17
   3  -7  -5 14583.0 1538.12  20
   3  -7  -5 14858.4 1553.37  19
   3  -7  -5 17287.3 1944.45   2
   3  -7  -5 16349.2 1662.95  18
   3  -7  -5 16729.6 1967.94  11
   3  -7  -5 13249.5 1546.51  17
   3  -7  -4 71517.2 3495.07  20
   3  -7  -4 77318.8 3580.02  19
   3  -7  -4 79208.0 3941.04   2
   3  -7  -4 73461.0 3529.59  18
   3  -7  -4 78310.6 4209.49  11
   3  -7  -4 71317.7 3500.13  17
   3  -7  -3 60873.3 3068.26  20
   3  -7  -3 58511.1 2997.94  19
   3  -7  -3 56656.8 3223.52   2
   3  -7  -3 58155.8 3005.00  18
   3  -7  -3 52787.6 2908.54  17
   3  -7  -2 13020.4 1349.47  20
   3  -7  -2 11765.1 1308.19  19
   3  -7  -2 13919.0 1365.12   3
   3  -7  -2 12652.8 1488.59   2
   3  -7  -2 12378.7 1306.51  18
   3  -7  -2 12402.3 1319.12  17
   3  -7  -1 8416.06 1210.35   2
   3  -7  -1 9067.22 1103.67  20
   3  -7  -1 9184.93 1164.48   3
   3  -7  -1 8686.40 1130.42  19
   3  -7  -1 6990.09 1017.21  18
   3  -7  -1 8861.60 1163.97  17
   3  -7   0 65724.6 3045.00  20
   3  -7   0 71483.4 3133.89  19
   3  -7   0 65997.0 3305.81   3
   3  -7   0 69507.2 3177.36   2
   3  -7   0 66400.8 3078.50  18
   3  -7   0 66892.6 3086.59  17
   3  -7   1 103128. 3986.65  19
   3  -7   1 114142. 4034.35   2
   3  -7   1 102991. 4367.74   3
   3  -7   1 109160. 4087.31  18
   3  -7   1 107612. 4059.68  17
   3  -7   2 37279.6 2016.83   2
   3  -7   2 35828.8 2181.57  19
   3  -7   2 36080.9 2528.64   3
   3  -7   2 33938.5 2120.74  18
   3  -7   2 33216.8 2161.28  17
   3  -7   3 21738.1 1410.93   2
   3  -7   3 19749.6 1673.39  19
   3  -7   3 20589.9 2018.99   3
   3  -7   3 19119.0 1647.66  18
   3  -7   3 21119.1 1660.23  17
   3  -7   4 40374.4 2414.30  19
   3  -7   4 40104.6 2922.83   3
   3  -7   4 43795.8 2486.87  18
   3  -7   4 40979.7 2422.00  17
   3  -7   5 66568.7 3165.69  19
   3  -7   5 63613.0 3749.59   3
   3  -7   5 61887.0 3075.71  18
   3  -7   5 64798.9 3142.94  17
   3  -7   6 32921.4 2207.51  19
   3  -7   6 28549.9 2646.29   3
   3  -7   6 31716.7 2168.45  18
   3  -7   7 9867.53 1601.93   3
   3  -7   7 10761.7 1524.22  19
   3  -7   7 11365.5 1345.98  18
   3  -7   8 12027.9 1759.86   3
   3  -7   8 12413.6 1466.36  19
   3  -7   8 11983.2 1499.49  18
   3  -7   9 15794.8 2347.90   3
   3  -7   9 19770.0 1960.05  19
   3  -7   9 19950.9 1966.76  18
   3  -7  10 22183.5 2327.65  19
   3  -7  10 21242.6 2107.12  18
   3  -6  -9 17044.1 1903.54  15
   3  -6  -9 21742.9 2160.14  20
   3  -6  -9 18853.2 1900.96  19
   3  -6  -9 17718.1 1980.46  11
   3  -6  -9 19720.7 2037.04  18
   3  -6  -9 15716.2 1744.60  17
   3  -6  -8 43502.2 2947.38  15
   3  -6  -8 37129.3 2752.06  20
   3  -6  -8 39129.0 2760.63  19
   3  -6  -8 35451.4 2869.59   2
   3  -6  -8 37383.0 3020.45  11
   3  -6  -8 36222.0 2675.84  18
   3  -6  -8 35115.2 2673.07  17
   3  -6  -7 35229.6 2601.07  15
   3  -6  -7 34087.7 2538.36  20
   3  -6  -7 33678.9 2451.10  19
   3  -6  -7 36698.2 2797.52   2
   3  -6  -7 39247.0 2686.71  18
   3  -6  -7 40284.2 2982.95  11
   3  -6  -7 34593.7 2502.24  17
   3  -6  -6 9908.24 1509.43   2
   3  -6  -6 9876.42 1278.69  20
   3  -6  -6 11513.5 1296.65  19
   3  -6  -6 9076.90 1476.91  11
   3  -6  -6 10247.1 1336.20  18
   3  -6  -6 11216.7 1336.62  17
   3  -6  -5 12813.2 1455.59  20
   3  -6  -5 14311.7 1450.91  19
   3  -6  -5 12729.1 1420.64  18
   3  -6  -5 15979.1 1782.64   2
   3  -6  -5 14921.7 1526.18  17
   3  -6  -4 101737. 4084.63  20
   3  -6  -4 102651. 4082.75  19
   3  -6  -4 103546. 4119.01  18
   3  -6  -4 107070. 4498.92   2
   3  -6  -4 101909. 4071.50  17
   3  -6  -3 122671. 4428.08  20
   3  -6  -3 121068. 4412.92  19
   3  -6  -3 127924. 4094.89   3
   3  -6  -3 123067. 4433.40  18
   3  -6  -3 119272. 4728.62   2
   3  -6  -3 122387. 4430.37  17
   3  -6  -2 28646.1 1937.12  20
   3  -6  -2 28080.8 1902.66  19
   3  -6  -2 31254.1 1864.75   3
   3  -6  -2 26454.7 1870.44  18
   3  -6  -2 32571.5 2207.96   2
   3  -6  -2 26747.8 1904.71  17
   3  -6  -1 6478.01 959.118   3
   3  -6  -1 4572.15 911.721   2
   3  -6  -1 3998.61 796.323  20
   3  -6  -1 6568.59 917.253  19
   3  -6  -1 5166.68 791.566  18
   3  -6  -1 5253.24 837.718  17
   3  -6   0 24326.7 1714.33  20
   3  -6   0 29041.6 1835.37  19
   3  -6   0 28101.2 1978.99   3
   3  -6   0 27638.8 1827.04  18
   3  -6   0 28451.9 1891.08   2
   3  -6   0 28859.8 1879.08  17
   3  -6   1 120637. 4181.48  20
   3  -6   1 125865. 4224.72  19
   3  -6   1 127566. 4679.33   3
   3  -6   1 127584. 4170.33   2
   3  -6   1 123273. 4220.18  18
   3  -6   1 122943. 4217.19  17
   3  -6   2 22755.5 1632.69  19
   3  -6   2 24619.8 1536.66   2
   3  -6   2 24399.8 1961.81   3
   3  -6   2 23559.3 1653.70  18
   3  -6   2 23772.8 1695.36  17
   3  -6   3 3499.27 956.500   3
   3  -6   3 2667.26 502.745   2
   3  -6   3 1961.95 572.000  19
   3  -6   3 1796.65 567.407  18
   3  -6   3 2743.36 685.819  17
   3  -6   4 80276.1 3231.11  19
   3  -6   4 70927.4 3687.46   3
   3  -6   4 78227.2 3230.64  18
   3  -6   4 75344.5 3217.83  17
   3  -6   5 82996.7 3400.25  19
   3  -6   5 78708.7 4018.30   3
   3  -6   5 79765.4 3357.74  18
   3  -6   5 78497.7 3342.91  17
   3  -6   6 48397.4 2631.40  19
   3  -6   6 46766.6 3180.46   3
   3  -6   6 48957.9 2620.20  18
   3  -6   7 16138.4 1503.11  19
   3  -6   7 15005.9 1889.40   3
   3  -6   7 14122.5 1405.91  18
   3  -6   8 7302.79 1487.39   3
   3  -6   8 10037.4 1301.72  19
   3  -6   8 10304.6 1294.91  18
   3  -6   9 33355.5 2381.39  19
   3  -6   9 30113.0 2877.83   3
   3  -6   9 30241.2 2321.18  18
   3  -6  10 18517.5 2486.93   3
   3  -6  10 19686.3 1982.40  19
   3  -6  10 20044.6 1943.21  18
   3  -5 -10 3541.90 900.499  15
   3  -5 -10 5075.75 1153.71   2
   3  -5 -10 4701.60 1001.19  20
   3  -5 -10 4815.17 1159.57  19
   3  -5 -10 4881.66 1143.93  18
   3  -5 -10 2463.68 673.225  17
   3  -5  -9 12823.6 1575.07  15
   3  -5  -9 15414.4 1691.18  20
   3  -5  -9 16371.8 1777.34  19
   3  -5  -9 17601.5 1977.46   2
   3  -5  -9 17068.5 1810.83  18
   3  -5  -9 13541.9 1641.96  11
   3  -5  -9 13260.1 1613.15  17
   3  -5  -8 43492.1 2918.23  15
   3  -5  -8 51916.0 3112.13  20
   3  -5  -8 54168.2 3154.40  19
   3  -5  -8 57007.0 3479.81  11
   3  -5  -8 52801.7 3116.02  18
   3  -5  -8 50536.0 3299.32   2
   3  -5  -8 46457.1 2954.23  17
   3  -5  -7 31111.4 2359.12  15
   3  -5  -7 29775.3 2272.73  20
   3  -5  -7 30833.4 2254.57  19
   3  -5  -7 29897.4 2244.55  18
   3  -5  -7 29335.6 2397.35  11
   3  -5  -7 29799.6 2503.36   2
   3  -5  -7 30793.9 2243.36  17
   3  -5  -6 6261.05 994.790  15
   3  -5  -6 7788.37 1232.65   2
   3  -5  -6 7521.22 1155.59  20
   3  -5  -6 6186.82 957.049  19
   3  -5  -6 9601.06 1254.75   5
   3  -5  -6 6706.55 1095.13  18
   3  -5  -6 7364.88 1091.43  17
   3  -5  -5 43202.3 2542.54  15
   3  -5  -5 41968.8 2488.75  20
   3  -5  -5 40555.6 2413.10  19
   3  -5  -5 41090.6 2439.09  18
   3  -5  -5 39295.0 2524.83   5
   3  -5  -5 45556.7 2799.80   2
   3  -5  -5 41511.9 2461.66  17
   3  -5  -4 94513.1 3732.72  15
   3  -5  -4 91853.7 3694.09  20
   3  -5  -4 87778.9 3626.95  19
   3  -5  -4 100412. 3185.71   3
   3  -5  -4 93023.6 3700.15  18
   3  -5  -4 95490.4 3979.33   5
   3  -5  -4 92299.1 3975.46   2
   3  -5  -4 93774.1 3705.89  17
   3  -5  -3 103330. 3833.74  20
   3  -5  -3 104999. 3846.88  19
   3  -5  -3 115749. 3609.99   3
   3  -5  -3 98948.7 3766.49  18
   3  -5  -3 104330. 4125.77   5
   3  -5  -3 104021. 4132.51   2
   3  -5  -3 104552. 3850.12  17
   3  -5  -2 39227.5 2107.63  20
   3  -5  -2 39375.3 2094.78  19
   3  -5  -2 33596.3 1952.40  18
   3  -5  -2 38306.6 1998.39   3
   3  -5  -2 36887.1 2248.02   5
   3  -5  -2 37562.3 2079.54  17
   3  -5  -2 37112.5 2249.01   2
   3  -5  -1 369.976 499.283   3
   3  -5  -1 717.375 612.941   2
   3  -5  -1-369.534 439.629  20
   3  -5  -1 404.472 404.494  19
   3  -5  -1 645.097 496.063   5
   3  -5  -1 213.097 303.591  18
   3  -5  -1 131.533 438.930  17
   3  -5   0 20760.7 1460.30  20
   3  -5   0 18800.1 1410.03  19
   3  -5   0 19947.7 1416.18  18
   3  -5   0 21730.4 1615.21   3
   3  -5   0 19883.0 1491.35   2
   3  -5   0 18750.3 1394.41  17
   3  -5   1 140110. 4417.93  20
   3  -5   1 146879. 4464.38  19
   3  -5   1 145825. 4456.27  18
   3  -5   1 151217. 4916.68   3
   3  -5   1 147983. 4419.82   2
   3  -5   1 147287. 4491.96  17
   3  -5   2 73868.2 2887.90  19
   3  -5   2 76190.9 2942.74  18
   3  -5   2 77126.5 3404.28   3
   3  -5   2 79462.5 2772.21   2
   3  -5   2 73277.7 2909.68  17
   3  -5   3 3239.78 848.766   3
   3  -5   3 3608.68 726.897  19
   3  -5   3 5102.30 624.921   2
   3  -5   3 4651.32 745.478  18
   3  -5   3 4783.41 797.256  17
   3  -5   4 33465.5 1882.00  19
   3  -5   4 27381.3 2200.57   3
   3  -5   4 31266.0 1841.21  18
   3  -5   4 31543.7 1835.37  17
   3  -5   5 160241. 4885.58  19
   3  -5   5 150786. 5626.88   3
   3  -5   5 153684. 4844.93  18
   3  -5   5 160643. 4917.66  17
   3  -5   6 78940.4 3226.25  19
   3  -5   6 73313.0 3850.57   3
   3  -5   6 81694.7 3263.13  18
   3  -5   7 12777.7 1680.45   3
   3  -5   7 14548.6 1397.97  19
   3  -5   7 14251.7 1401.29  18
   3  -5   8 23605.9 1777.13  19
   3  -5   8 19791.1 2185.28   3
   3  -5   8 23156.4 1795.39  18
   3  -5   9 52311.9 2893.64  19
   3  -5   9 47509.6 3467.39   3
   3  -5   9 53144.6 2922.19  18
   3  -5  10 27413.8 2194.54  19
   3  -5  10 28456.6 2715.90   3
   3  -5  11 7552.14 1610.46   3
   3  -4 -11 13985.3 1795.32   2
   3  -4 -10 1501.69 530.374  15
   3  -4 -10 2140.08 734.453   2
   3  -4 -10 2366.09 756.585  20
   3  -4 -10 1608.56 603.290  19
   3  -4 -10 897.365 593.963  18
   3  -4 -10 2393.00 652.703  17
   3  -4  -9 9350.47 1205.87   5
   3  -4  -9 7710.15 1272.83  15
   3  -4  -9 11171.4 1558.86   2
   3  -4  -9 7950.43 1234.70  20
   3  -4  -9 7972.17 1189.17  19
   3  -4  -9 8136.61 1298.35  11
   3  -4  -9 8941.96 1287.22  18
   3  -4  -9 9419.76 1293.43  17
   3  -4  -8 65735.4 3496.46  15
   3  -4  -8 64937.6 3450.12  20
   3  -4  -8 71677.8 3548.40  19
   3  -4  -8 63722.6 3443.55  18
   3  -4  -8 66229.6 3450.80   5
   3  -4  -8 69681.3 3699.30   2
   3  -4  -8 69266.3 3491.07  17
   3  -4  -7 44415.2 2715.30  15
   3  -4  -7 48202.4 2817.81  20
   3  -4  -7 44955.2 2648.88  19
   3  -4  -7 46616.5 2735.94  18
   3  -4  -7 47798.7 2823.06   5
   3  -4  -7 42442.2 2819.49   2
   3  -4  -7 42498.6 2605.95  17
   3  -4  -6 211.890 362.842   5
   3  -4  -6 265.449 425.286  15
   3  -4  -6 453.310 599.709   2
   3  -4  -6 707.291 545.573  20
   3  -4  -6 190.971 437.132  19
   3  -4  -6 279.283 296.590  18
   3  -4  -6 546.903 351.575  17
   3  -4  -5 21392.4 1691.25  15
   3  -4  -5 20570.4 1663.63  20
   3  -4  -5 20188.5 1626.31  19
   3  -4  -5 19675.8 1629.45  18
   3  -4  -5 25042.2 1285.14   3
   3  -4  -5 20954.6 1767.56   5
   3  -4  -5 21566.5 1671.59  17
   3  -4  -5 23208.9 1940.72   2
   3  -4  -4 127192. 4401.05  15
   3  -4  -4 133647. 4452.91  20
   3  -4  -4 133062. 4440.25  19
   3  -4  -4 132736. 4442.65  18
   3  -4  -4 139733. 3045.53  10
   3  -4  -4 126233. 4637.07   5
   3  -4  -4 134106. 3886.97   3
   3  -4  -4 129394. 4392.48  17
   3  -4  -4 129968. 4717.86   2
   3  -4  -3 82313.6 3199.71  15
   3  -4  -3 85271.3 3235.69  20
   3  -4  -3 77725.5 3131.01  19
   3  -4  -3 86262.0 3240.55  18
   3  -4  -3 82767.7 3428.64   5
   3  -4  -3 85269.7 2924.57   3
   3  -4  -3 80329.2 3153.80  17
   3  -4  -3 84832.7 3482.13   2
   3  -4  -2 56679.5 2476.86  20
   3  -4  -2 57357.2 2467.34  19
   3  -4  -2 52864.0 2401.63  18
   3  -4  -2 57437.4 2682.70   5
   3  -4  -2 58081.7 2393.09   3
   3  -4  -2 53587.8 2404.76  17
   3  -4  -2 54042.7 2636.68   2
   3  -4  -1 26892.1 1709.97   2
   3  -4  -1 22547.6 1486.41  20
   3  -4  -1 26546.5 1540.62  19
   3  -4  -1 25370.1 1526.58  18
   3  -4  -1 24736.2 1576.19   3
   3  -4  -1 25322.5 1721.66   5
   3  -4  -1 26181.5 1549.88  17
   3  -4   0 47476.9 2074.20  20
   3  -4   0 42144.2 1982.31  19
   3  -4   0 44355.2 2010.72  18
   3  -4   0 44780.4 2229.52   3
   3  -4   0 43758.4 2190.64   5
   3  -4   0 46756.8 2066.36  17
   3  -4   0 46462.6 2173.16   2
   3  -4   1 167879. 4648.33  20
   3  -4   1 167780. 4664.06  19
   3  -4   1 164950. 4641.35  18
   3  -4   1 158745. 4998.82   3
   3  -4   1 168428. 4823.26   5
   3  -4   1 165835. 4648.99  17
   3  -4   1 165773. 4614.89   2
   3  -4   2 84414.3 2898.51  19
   3  -4   2 81452.8 2882.75  18
   3  -4   2 80960.2 3309.51   3
   3  -4   2 82118.1 2903.47  17
   3  -4   2 80872.1 2698.93   2
   3  -4   3 22290.6 1413.49  19
   3  -4   3 20517.1 1347.73  18
   3  -4   3 20464.4 1669.56   3
   3  -4   3 25688.0 1227.83   2
   3  -4   3 22381.9 1400.44  17
   3  -4   4 11331.4 1045.30  19
   3  -4   4 12150.6 681.553   2
   3  -4   4 9878.20 1001.17  18
   3  -4   4 11219.0 1367.19   3
   3  -4   4 9840.50 966.355  17
   3  -4   5 131653. 4134.49  19
   3  -4   5 134279. 4162.25  18
   3  -4   5 128003. 4844.92   3
   3  -4   6 213203. 5881.48  19
   3  -4   6 215239. 5902.86  18
   3  -4   6 196845. 6705.46   3
   3  -4   7 14511.9 1316.87  19
   3  -4   7 13351.3 1693.85   3
   3  -4   7 15366.8 1351.89  18
   3  -4   8 9015.76 1485.78   3
   3  -4   8 9475.24 1102.98  19
   3  -4   8 10838.7 1191.68  18
   3  -4   9 48104.9 2644.81  19
   3  -4   9 44104.9 3127.93   3
   3  -4  10 22267.0 2340.91   3
   3  -4  11 7180.55 1637.91   3
   3  -3 -11 29944.2 2534.15  15
   3  -3 -11 29905.4 2433.93  19
   3  -3 -11 28010.9 2517.05  18
   3  -3 -11 28626.1 2493.20  20
   3  -3 -11 28593.0 2575.32   2
   3  -3 -11 30213.1 2560.16  17
   3  -3 -10 8345.96 1180.30  15
   3  -3 -10 9143.35 1357.51   2
   3  -3 -10 9074.50 1234.98  20
   3  -3 -10 8136.39 1221.39  19
   3  -3 -10 12442.9 1412.77   5
   3  -3 -10 11150.3 1454.90  18
   3  -3 -10 9612.10 1329.05  17
   3  -3  -9 3839.73 745.921   5
   3  -3  -9 3031.79 642.444  15
   3  -3  -9 2780.89 811.459   2
   3  -3  -9 6007.70 1033.76  20
   3  -3  -9 4927.49 961.386  19
   3  -3  -9 3973.89 917.192  18
   3  -3  -9 3233.34 754.581  17
   3  -3  -8 62977.3 3274.08  15
   3  -3  -8 64507.3 2690.48   4
   3  -3  -8 56968.7 3131.11  20
   3  -3  -8 62208.7 3244.07  19
   3  -3  -8 67491.8 3341.98  18
   3  -3  -8 64464.4 3232.70   5
   3  -3  -8 66361.8 2735.31  10
   3  -3  -8 63009.1 3237.58  17
   3  -3  -8 67430.7 3468.73   2
   3  -3  -7 55640.5 2889.09  15
   3  -3  -7 54346.3 2228.95   4
   3  -3  -7 47377.6 2713.35  20
   3  -3  -7 49275.9 2740.65  19
   3  -3  -7 51392.9 2807.49  18
   3  -3  -7 50946.1 2822.49   5
   3  -3  -7 56912.6 2273.95  10
   3  -3  -7 50419.1 2778.46  17
   3  -3  -7 51233.8 2955.65   2
   3  -3  -6 3137.79 811.265   5
   3  -3  -6 1632.64 437.861   4
   3  -3  -6 1383.42 597.131  15
   3  -3  -6 1055.82 645.162   2
   3  -3  -6 1318.90 592.388  20
   3  -3  -6 1668.64 640.568  19
   3  -3  -6 742.295 546.984  18
   3  -3  -6 1814.27 659.560  17
   3  -3  -6 2400.54 441.365  10
   3  -3  -5 8750.19 1083.64  15
   3  -3  -5 7899.60 1092.23   5
   3  -3  -5 9796.06 1079.50  20
   3  -3  -5 8509.58 1006.23  19
   3  -3  -5 7611.70 1004.49  18
   3  -3  -5 9608.41 685.410  10
   3  -3  -5 10150.5 809.894   3
   3  -3  -5 8547.39 1066.96  17
   3  -3  -4 187161. 5433.63  15
   3  -3  -4 184929. 5409.13  20
   3  -3  -4 181961. 5377.32  19
   3  -3  -4 188467. 5431.00  18
   3  -3  -4 178293. 5572.44   5
   3  -3  -4 198129. 4143.09  10
   3  -3  -4 183884. 5397.26  17
   3  -3  -4 182805. 4863.86   3
   3  -3  -3 310914. 7716.90  15
   3  -3  -3 307996. 7693.47  20
   3  -3  -3 314138. 7721.32  19
   3  -3  -3 322194. 7753.77  18
   3  -3  -3 314902. 8053.29   5
   3  -3  -3 308839. 7680.44  17
   3  -3  -3 309788. 7374.89   3
   3  -3  -2 58902.2 2385.08  15
   3  -3  -2 58947.0 2370.02  20
   3  -3  -2 57915.7 2361.79  19
   3  -3  -2 53604.7 2292.46  18
   3  -3  -2 61344.8 2619.38   5
   3  -3  -2 59053.8 2369.14  17
   3  -3  -2 59400.4 2328.02   3
   3  -3  -1 32408.3 1074.41   7
   3  -3  -1 27229.1 1505.21  20
   3  -3  -1 28466.9 1516.86  19
   3  -3  -1 25107.5 1439.88  18
   3  -3  -1 26797.7 1641.32   5
   3  -3  -1 26910.4 1511.69  17
   3  -3  -1 28317.0 1577.50   3
   3  -3   0 142264. 4023.72  20
   3  -3   0 143905. 4023.07  19
   3  -3   0 144339. 4031.48  18
   3  -3   0 150573. 4335.69   5
   3  -3   0 141461. 4017.60  17
   3  -3   0 143192. 4332.84   3
   3  -3   1 127092. 3668.12  20
   3  -3   1 130132. 3697.94  19
   3  -3   1 127606. 3689.69  18
   3  -3   1 135382. 3919.56   5
   3  -3   1 124836. 4077.25   3
   3  -3   1 130570. 3697.08  17
   3  -3   2 71576.8 2440.47  19
   3  -3   2 65856.8 2388.24  18
   3  -3   2 71432.4 2502.05   5
   3  -3   2 64492.4 2808.23   3
   3  -3   2 71264.9 2438.52  17
   3  -3   3 31980.9 1526.65  19
   3  -3   3 26516.1 1423.58  18
   3  -3   3 28814.4 1403.90   5
   3  -3   3 27917.9 1854.40   3
   3  -3   3 29522.6 1494.61  17
   3  -3   4 22343.3 1323.11  19
   3  -3   4 23450.2 1363.35  18
   3  -3   4 20991.1 1688.50   3
   3  -3   4 21609.1 1300.96  17
   3  -3   4 23105.7 947.033   2
   3  -3   5 91967.7 3093.03  19
   3  -3   5 95016.5 3126.33  18
   3  -3   5 92985.8 3834.16   3
   3  -3   6 140086. 4308.37  19
   3  -3   6 148808. 4376.73  18
   3  -3   6 148511. 5218.37   3
   3  -3   7 30924.8 1783.89  19
   3  -3   7 30284.1 1761.63  18
   3  -3   7 26638.9 2187.91   3
   3  -3   8 853.495 823.162   3
   3  -3   8 1466.55 529.424  19
   3  -3   9 23119.1 2191.37   3
   3  -3  10 50640.8 3306.99   3
   3  -2 -12 22835.3 2198.00   2
   3  -2 -11 33470.9 2618.11  15
   3  -2 -11 24819.8 2280.35  20
   3  -2 -11 27783.3 2376.48  18
   3  -2 -11 25797.7 2013.50   5
   3  -2 -11 30052.0 2504.56   2
   3  -2 -11 28553.5 2440.10  17
   3  -2 -10 16569.1 1785.40  15
   3  -2 -10 19881.2 1971.27  20
   3  -2 -10 23118.1 2038.53  18
   3  -2 -10 21202.8 1848.23   5
   3  -2 -10 23948.0 1824.78  10
   3  -2 -10 19376.0 1896.89  17
   3  -2 -10 21489.1 1978.76   2
   3  -2  -9 10378.8 1395.89  15
   3  -2  -9 11500.8 1193.96   4
   3  -2  -9 11471.7 1468.03   2
   3  -2  -9 12127.1 1502.89  20
   3  -2  -9 11139.1 1451.47  18
   3  -2  -9 11309.2 1328.05   5
   3  -2  -9 13235.5 1275.08  10
   3  -2  -9 13595.1 1534.88  17
   3  -2  -8 45643.9 2795.48   2
   3  -2  -8 45205.0 2669.42  15
   3  -2  -8 52230.8 2283.42   4
   3  -2  -8 46005.4 2697.78  20
   3  -2  -8 50327.6 2790.53  18
   3  -2  -8 52330.4 2747.30   5
   3  -2  -8 50139.5 2351.52  10
   3  -2  -8 46730.0 2743.72  17
   3  -2  -7 72350.3 3340.45  15
   3  -2  -7 78370.1 2710.60   4
   3  -2  -7 79540.8 3422.10  20
   3  -2  -7 72518.4 3310.74  18
   3  -2  -7 76657.7 3365.77   5
   3  -2  -7 72826.4 3329.13  17
   3  -2  -7 81686.5 2880.68  10
   3  -2  -6 29836.2 1461.93   3
   3  -2  -6 33547.9 2053.86  15
   3  -2  -6 32849.3 1462.84   4
   3  -2  -6 34438.9 2061.86  20
   3  -2  -6 30838.6 1969.68  18
   3  -2  -6 30951.1 1976.32   5
   3  -2  -6 33031.9 2027.47  17
   3  -2  -6 34798.6 1608.90  10
   3  -2  -5 19119.0 1172.55   3
   3  -2  -5 20584.5 1494.92  15
   3  -2  -5 20646.3 972.175   4
   3  -2  -5 17021.5 1397.06  20
   3  -2  -5 17819.5 1417.18  19
   3  -2  -5 18045.5 1431.48  18
   3  -2  -5 20856.9 1569.23   5
   3  -2  -5 20308.3 1492.39  17
   3  -2  -5 20259.7 1064.69  10
   3  -2  -4 129006. 3675.62   3
   3  -2  -4 128373. 4055.46  15
   3  -2  -4 121904. 4007.55  20
   3  -2  -4 125971. 4028.51  19
   3  -2  -4 124251. 4016.06  18
   3  -2  -4 130797. 4266.05   5
   3  -2  -4 127867. 4042.18  17
   3  -2  -4 131518. 3143.32  10
   3  -2  -3 387168. 8891.15  15
   3  -2  -3 378921. 8838.03  20
   3  -2  -3 373714. 8824.40  19
   3  -2  -3 365171. 8789.44  18
   3  -2  -3 381926. 9167.06   5
   3  -2  -3 374553. 8813.17  17
   3  -2  -3 388866. 7618.30  10
   3  -2  -3 374712. 8644.93   3
   3  -2  -2 98457.9 3082.08  15
   3  -2  -2 93796.8 3026.36  20
   3  -2  -2 96548.8 3045.29  19
   3  -2  -2 95651.3 3053.68  18
   3  -2  -2 87982.9 3215.18   5
   3  -2  -2 96570.4 3043.06  17
   3  -2  -2 94695.3 3062.05   3
   3  -2  -1 1087.24 531.046   5
   3  -2  -1 1192.03 404.472  15
   3  -2  -1 1103.41 435.909   3
   3  -2  -1 943.796 154.610   7
   3  -2  -1 1309.02 406.758  20
   3  -2  -1 1305.29 368.578  19
   3  -2  -1 696.567 362.489  18
   3  -2  -1 1294.43 412.863  17
   3  -2   0 189759. 3978.88   7
   3  -2   0 173747. 4512.36  20
   3  -2   0 175414. 4508.19  19
   3  -2   0 172345. 4510.13  18
   3  -2   0 179947. 4535.59  17
   3  -2   0 173627. 4818.14   5
   3  -2   0 169896. 4869.77   3
   3  -2   0 184171. 3827.77  10
   3  -2   1 268340. 6159.27  20
   3  -2   1 261333. 6124.00  19
   3  -2   1 271698. 6173.70  18
   3  -2   1 265186. 6153.54  17
   3  -2   1 265540. 6400.94   5
   3  -2   1 254160. 6690.48   3
   3  -2   1 270588. 5782.22  10
   3  -2   2 53814.1 1908.83  19
   3  -2   2 55804.1 1935.03  18
   3  -2   2 51019.7 1879.62  17
   3  -2   2 56522.2 2037.82   5
   3  -2   2 55777.4 2420.76   3
   3  -2   3 8916.81 738.887  19
   3  -2   3 8117.95 711.572  18
   3  -2   3 9013.96 734.125  17
   3  -2   3 7827.42 689.466   5
   3  -2   3 8231.83 1010.11   3
   3  -2   4 4990.05 953.565   3
   3  -2   4 3684.27 530.892  19
   3  -2   4 4823.57 584.155  18
   3  -2   4 3814.51 453.160   5
   3  -2   5 88385.2 2829.61  19
   3  -2   5 87815.9 2823.92  18
   3  -2   5 90203.6 3594.19   3
   3  -2   6 93898.3 3034.93  19
   3  -2   6 88262.7 2997.37  18
   3  -2   6 91487.0 3776.68   3
   3  -2   7 35764.9 1830.00  19
   3  -2   7 34473.5 2317.22   3
   3  -2   8 17001.3 1740.24   3
   3  -2   9 21378.9 2030.74   3
   3  -2  10 55726.1 3538.88   8
   3  -2  10 61728.8 3532.31   3
   3  -1 -12 40344.0 2939.46  15
   3  -1 -12 43152.3 3096.92  14
   3  -1 -12 40069.0 2969.06  20
   3  -1 -12 41090.0 2992.57  18
   3  -1 -12 35017.3 2663.72   2
   3  -1 -12 40326.6 2794.38  10
   3  -1 -12 46255.9 3190.70  17
   3  -1 -11 42902.9 2999.05  15
   3  -1 -11 41934.1 2879.26  14
   3  -1 -11 37990.8 2789.81  20
   3  -1 -11 44828.5 2977.81  18
   3  -1 -11 39545.7 2563.71   5
   3  -1 -11 51689.7 2884.14  10
   3  -1 -11 40906.6 2859.87  17
   3  -1 -11 46394.7 2943.03   2
   3  -1 -10 14858.9 1640.21   2
   3  -1 -10 13897.6 1673.26  15
   3  -1 -10 13584.0 1620.67  14
   3  -1 -10 15942.6 1449.26   4
   3  -1 -10 13321.5 1590.06  20
   3  -1 -10 15020.6 1681.44  18
   3  -1 -10 15414.8 1550.21   5
   3  -1 -10 15585.6 1561.80  10
   3  -1 -10 15817.3 1686.57  17
   3  -1  -9 45537.5 2798.45  15
   3  -1  -9 41785.4 2682.42  14
   3  -1  -9 46228.3 2276.78   4
   3  -1  -9 40586.9 2653.52  20
   3  -1  -9 40978.3 2616.97  18
   3  -1  -9 43757.6 2526.81   5
   3  -1  -9 40654.6 2650.76  17
   3  -1  -9 41842.3 2333.56  10
   3  -1  -8 75099.0 3466.89  15
   3  -1  -8 74193.6 3461.73  14
   3  -1  -8 81690.8 2938.86   4
   3  -1  -8 70939.0 3404.89  20
   3  -1  -8 70752.4 3388.86  18
   3  -1  -8 76943.6 3367.99   5
   3  -1  -8 81974.9 3592.78  17
   3  -1  -8 80812.7 3128.00  10
   3  -1  -7 52201.0 2739.46  15
   3  -1  -7 50418.4 2694.83  14
   3  -1  -7 56652.9 2163.94   4
   3  -1  -7 52808.7 2756.75  20
   3  -1  -7 55885.6 2809.06  18
   3  -1  -7 56891.7 2722.58   5
   3  -1  -7 51652.8 2713.96  17
   3  -1  -7 60600.9 2445.20  10
   3  -1  -6 45322.5 2396.39  15
   3  -1  -6 44914.2 2393.38  14
   3  -1  -6 50564.0 1804.55   4
   3  -1  -6 44465.4 2364.74  20
   3  -1  -6 42614.3 2315.19  18
   3  -1  -6 45844.3 2384.16   5
   3  -1  -6 46945.6 2426.91  17
   3  -1  -6 50079.3 2008.86  10
   3  -1  -5 5125.51 894.614   5
   3  -1  -5 6787.23 847.092  15
   3  -1  -5 6295.95 878.067  14
   3  -1  -5 6105.58 501.478   4
   3  -1  -5 6500.31 880.054  20
   3  -1  -5 6022.62 878.615  18
   3  -1  -5 6017.89 641.269  10
   3  -1  -5 5539.98 822.446  17
   3  -1  -4 43819.2 2038.90  15
   3  -1  -4 44729.2 1191.16   4
   3  -1  -4 39345.4 1946.94  20
   3  -1  -4 41780.5 2003.24  18
   3  -1  -4 40890.4 1968.09  17
   3  -1  -4 39179.4 2092.42   5
   3  -1  -3 227845. 5864.28  15
   3  -1  -3 234172. 5889.17  20
   3  -1  -3 236082. 5877.87  19
   3  -1  -3 241005. 5909.50  18
   3  -1  -3 235657. 5881.51  17
   3  -1  -3 231588. 6157.84   5
   3  -1  -2 123167. 3577.49  15
   3  -1  -2 122713. 3562.28  20
   3  -1  -2 125564. 3578.36  19
   3  -1  -2 128231. 3595.94  18
   3  -1  -2 136263. 2905.78  10
   3  -1  -2 125655. 3583.68  17
   3  -1  -2 128172. 3922.95   5
   3  -1  -1 17402.8 1156.96   3
   3  -1  -1 16178.0 997.326  15
   3  -1  -1 18092.5 1028.92  20
   3  -1  -1 18420.6 1038.10  19
   3  -1  -1 16923.2 1000.16  18
   3  -1  -1 19431.1 733.549  10
   3  -1  -1 18764.5 1033.76  17
   3  -1  -1 16446.7 1153.52   5
   3  -1   0 81320.8 1950.53   7
   3  -1   0 74474.4 2289.64  20
   3  -1   0 76686.4 2296.24  19
   3  -1   0 74845.1 2285.86  18
   3  -1   0 76658.4 2312.82  17
   3  -1   0 81736.8 2112.30  10
   3  -1   0 69658.7 2548.60   5
   3  -1   0 72259.9 2679.92   3
   3  -1   1 272268. 6024.27  20
   3  -1   1 282737. 6053.09  19
   3  -1   1 276196. 6046.77  18
   3  -1   1 268295. 6022.29  17
   3  -1   1 267912. 6396.46   5
   3  -1   1 257871. 6682.34   3
   3  -1   2 108675. 2796.65  19
   3  -1   2 107973. 2789.27  18
   3  -1   2 109597. 2808.05  17
   3  -1   2 98680.6 2966.19   5
   3  -1   2 99105.8 3426.84   3
   3  -1   3 598.449 300.343   5
   3  -1   3 830.589 522.722   3
   3  -1   3 990.829 283.501  19
   3  -1   3 640.409 260.910  18
   3  -1   3 573.084 251.920  17
   3  -1   4 3544.02 310.366   9
   3  -1   4 4971.25 821.628   3
   3  -1   4 4622.79 500.158  19
   3  -1   4 3951.62 472.813  18
   3  -1   4 4431.49 423.443   5
   3  -1   5 131519. 3468.75  19
   3  -1   5 128103. 3442.64  18
   3  -1   5 122202. 4271.24   3
   3  -1   6 141237. 3844.85  19
   3  -1   6 134446. 4693.75   3
   3  -1   7 45794.8 2592.91   3
   3  -1   8 16324.4 1644.47   3
   3  -1   9 27695.2 2455.71   8
   3  -1   9 25694.3 2139.11   3
   3  -1  10 46664.0 3249.17   8
   3   0 -13 7526.12 1333.15  10
   3   0 -12 39050.3 2934.79  15
   3   0 -12 37927.4 2863.36  14
   3   0 -12 40751.8 2975.92  20
   3   0 -12 40271.1 2937.88  18
   3   0 -12 39417.3 2742.60  10
   3   0 -12 41739.5 3009.26  17
   3   0 -12 42380.6 2850.58   2
   3   0 -11 64431.5 3514.10   2
   3   0 -11 67815.6 3744.41  15
   3   0 -11 59120.4 3466.86  14
   3   0 -11 62415.1 3630.42  20
   3   0 -11 62898.0 3656.58  18
   3   0 -11 60672.9 3181.95   5
   3   0 -11 59907.4 3543.36  17
   3   0 -11 63248.6 3378.29  10
   3   0 -10 22633.8 2073.46  15
   3   0 -10 24398.2 2119.02  14
   3   0 -10 22341.9 1678.60   4
   3   0 -10 22358.0 2050.50  20
   3   0 -10 22084.4 1963.27  18
   3   0 -10 24052.7 1864.84   5
   3   0 -10 21688.8 1987.00  17
   3   0 -10 21072.2 1757.31  10
   3   0  -9 27082.0 2147.64  15
   3   0  -9 28318.3 2172.49  14
   3   0  -9 29122.8 1811.14   4
   3   0  -9 27451.7 2130.06  20
   3   0  -9 26594.6 2107.68  18
   3   0  -9 27121.4 1960.00   5
   3   0  -9 29843.0 2198.54  17
   3   0  -9 30917.3 1997.94  10
   3   0  -8 74386.9 3390.08  15
   3   0  -8 70700.5 3332.27  14
   3   0  -8 73985.7 2821.60   4
   3   0  -8 77924.2 3458.08  20
   3   0  -8 70146.0 3286.56  18
   3   0  -8 67876.2 3126.62   5
   3   0  -8 72420.3 3352.72  17
   3   0  -8 76982.5 3039.34  10
   3   0  -7 44332.2 2417.81  15
   3   0  -7 37187.7 2283.62  14
   3   0  -7 45291.1 1921.73   4
   3   0  -7 41341.3 2369.77  20
   3   0  -7 39705.6 2283.15  18
   3   0  -7 39887.0 2310.53  17
   3   0  -7 42141.5 2302.63   5
   3   0  -7 41451.5 2021.04  10
   3   0  -6 19106.2 1483.76  15
   3   0  -6 19062.4 1505.61  14
   3   0  -6 19750.8 1112.10   4
   3   0  -6 17819.8 1462.18  20
   3   0  -6 15866.7 1372.82  18
   3   0  -6 17491.0 1441.88  17
   3   0  -6 21030.1 1536.37   5
   3   0  -5 9857.23 1036.93  15
   3   0  -5 10702.0 691.037   4
   3   0  -5 6819.79 938.890  14
   3   0  -5 9426.00 1012.51  20
   3   0  -5 9650.56 1018.82  18
   3   0  -5 9071.69 1032.90  17
   3   0  -5 9634.43 1047.82   5
   3   0  -4 57527.6 2314.86  15
   3   0  -4 54808.8 2256.84  14
   3   0  -4 55250.9 1489.75   4
   3   0  -4 51022.9 2203.21  20
   3   0  -4 55080.4 2246.58  18
   3   0  -4 54363.6 2248.78  17
   3   0  -4 54379.0 2365.60   5
   3   0  -3 219979. 5506.12  15
   3   0  -3 218372. 5500.19  14
   3   0  -3 223388. 5516.00  20
   3   0  -3 220379. 5482.03  18
   3   0  -3 218190. 5493.85  17
   3   0  -3 217127. 5786.76   5
   3   0  -2 131321. 3511.54  15
   3   0  -2 127301. 3481.05  20
   3   0  -2 129508. 3481.72  18
   3   0  -2 126048. 3462.72  17
   3   0  -2 125448. 3822.72   5
   3   0  -1 46586.8 1672.40  15
   3   0  -1 50667.1 1205.81   4
   3   0  -1 49923.1 1215.37   7
   3   0  -1 48724.4 1683.02  20
   3   0  -1 47885.6 1660.82  19
   3   0  -1 48007.5 1672.63  18
   3   0  -1 50221.5 1692.13  17
   3   0  -1 45398.2 1962.39   5
   3   0   0 78263.0 2191.73  15
   3   0   0 83036.1 2086.01   4
   3   0   0 76825.9 2185.12  20
   3   0   0 80249.6 2192.00  19
   3   0   0 79207.9 2197.22  18
   3   0   0 80652.8 2208.83  17
   3   0   0 75568.7 2593.97   5
   3   0   1 189353. 5176.18   3
   3   0   1 191756. 4328.77  20
   3   0   1 208401. 4416.73  12
   3   0   1 200239. 4340.70  19
   3   0   1 198952. 4352.81  18
   3   0   1 196062. 4341.70  17
   3   0   1 182667. 4833.91   5
   3   0   2 250732. 5454.00   9
   3   0   2 279647. 5608.10  12
   3   0   2 273618. 5576.47  19
   3   0   2 269994. 5574.26  18
   3   0   2 276043. 5576.69  17
   3   0   2 243256. 6044.21   5
   3   0   2 249380. 6555.09   3
   3   0   3 7747.96 504.590   9
   3   0   3 10190.9 534.499  13
   3   0   3 10400.0 533.063  12
   3   0   3 9306.15 524.720  19
   3   0   3 9276.29 527.706  18
   3   0   3 7758.50 906.689   3
   3   0   3 8924.41 692.490   5
   3   0   4 7984.30 501.813  13
   3   0   4 7987.76 501.466  12
   3   0   4 8625.92 557.177  19
   3   0   4 7529.31 925.174   3
   3   0   4 7540.47 571.994   5
   3   0   5 129405. 3223.99  19
   3   0   5 121145. 4161.03   3
   3   0   6 99082.0 3753.26   3
   3   0   7 36273.1 2399.01   8
   3   0   7 36809.6 2226.97   3
   3   0   8 3977.18 962.833   3
   3   0   8 4778.79 1026.64   8
   3   0   9 17853.4 1973.12   8
   3   0  10 61139.3 3750.01   8
   3   1 -13 1820.13 983.039  10
   3   1 -12 29521.9 2470.20  15
   3   1 -12 30428.4 2560.03  14
   3   1 -12 29508.7 2550.40  20
   3   1 -12 29808.6 2571.74  18
   3   1 -12 30722.2 2555.75  17
   3   1 -12 31761.1 2492.99  10
   3   1 -11 54336.0 3270.40  15
   3   1 -11 55887.7 3328.46  14
   3   1 -11 59507.7 3012.51   4
   3   1 -11 52615.2 3249.71  20
   3   1 -11 50990.1 3166.54  18
   3   1 -11 52357.9 2864.26   5
   3   1 -11 45712.4 3068.45  17
   3   1 -11 45802.3 2923.86  10
   3   1 -10 17838.0 1806.12  15
   3   1 -10 19404.0 1893.55  14
   3   1 -10 19190.2 1620.82   4
   3   1 -10 19578.0 1882.93  20
   3   1 -10 18737.6 1808.94  18
   3   1 -10 20148.4 1712.36   5
   3   1 -10 18350.4 1836.68  17
   3   1 -10 20900.9 1777.63  10
   3   1  -9 17112.1 1705.99  15
   3   1  -9 19256.0 1770.50  14
   3   1  -9 20623.6 1522.21   4
   3   1  -9 24289.9 2003.42  20
   3   1  -9 25130.1 2018.95  18
   3   1  -9 17833.3 1732.51  17
   3   1  -9 21258.2 1674.64   5
   3   1  -9 21760.7 1706.44  10
   3   1  -8 44938.7 2570.21  15
   3   1  -8 43776.9 2540.33  14
   3   1  -8 44704.9 2110.29   4
   3   1  -8 46143.9 2624.83  20
   3   1  -8 42711.8 2540.27  18
   3   1  -8 43258.8 2541.39  17
   3   1  -8 39096.4 2253.82   5
   3   1  -8 42619.1 2229.15  10
   3   1  -7 102232. 3930.18  15
   3   1  -7 102155. 3915.26  14
   3   1  -7 107247. 3308.38   4
   3   1  -7 106803. 4005.09  20
   3   1  -7 102132. 3903.60  18
   3   1  -7 102818. 3933.90  17
   3   1  -7 102985. 3778.39   5
   3   1  -6 46949.3 2367.73  15
   3   1  -6 46384.3 2370.56  14
   3   1  -6 47864.1 1843.26   4
   3   1  -6 44937.9 2350.48  20
   3   1  -6 46838.8 2359.85  18
   3   1  -6 50640.3 2439.07  17
   3   1  -6 49713.1 2351.00   5
   3   1  -5 20000.3 1421.72  15
   3   1  -5 21009.2 1442.17  14
   3   1  -5 20682.5 1001.36   4
   3   1  -5 18192.2 1405.79  20
   3   1  -5 19390.0 1381.27  18
   3   1  -5 18814.8 1413.84  17
   3   1  -5 19517.6 1412.89   5
   3   1  -4 103767. 3386.50  15
   3   1  -4 104226. 3391.27  14
   3   1  -4 109352. 2625.07   4
   3   1  -4 105694. 3400.75  20
   3   1  -4 100003. 3328.13  18
   3   1  -4 102403. 3352.02  17
   3   1  -4 103413. 3473.07   5
   3   1  -3 127101. 3616.39  15
   3   1  -3 122939. 3573.09  14
   3   1  -3 126407. 2693.09   7
   3   1  -3 125371. 2829.08   4
   3   1  -3 125633. 3599.90  20
   3   1  -3 125342. 3574.48  18
   3   1  -3 122842. 3572.26  17
   3   1  -3 117197. 3763.07   5
   3   1  -2 121662. 3400.63  15
   3   1  -2 135630. 2905.63   4
   3   1  -2 125560. 3414.84  14
   3   1  -2 130835. 2804.44   7
   3   1  -2 126733. 3415.69  20
   3   1  -2 128807. 3414.03  18
   3   1  -2 123755. 3387.22  17
   3   1  -2 120105. 3750.85   5
   3   1  -1 74526.4 2640.09   5
   3   1  -1 78109.1 2208.02  15
   3   1  -1 84404.3 2081.32   4
   3   1  -1 77949.8 1990.54   7
   3   1  -1 74570.0 2187.07  20
   3   1  -1 75613.2 2170.14  18
   3   1  -1 76777.3 2194.24  17
   3   1   0 109014. 3328.18   5
   3   1   0 113908. 2683.41  15
   3   1   0 113040. 2871.24   7
   3   1   0 112515. 2679.77  20
   3   1   0 116390. 2779.00  19
   3   1   0 111482. 2662.12  19
   3   1   0 111197. 2668.07  18
   3   1   0 112428. 2670.42  17
   3   1   1 304699. 7416.12   5
   3   1   1 329188. 6531.43  20
   3   1   1 322807. 6595.92  19
   3   1   1 331995. 6527.24  19
   3   1   1 331795. 6536.03  18
   3   1   1 329097. 6541.16  17
   3   1   2 238855. 5686.25   5
   3   1   2 237253. 6098.00   3
   3   1   3 16873.7 969.430   5
   3   1   3 16969.3 1253.26   3
   3   1   4 1272.36 342.532   5
   3   1   4 1500.74 522.442   3
   3   1   5 43953.4 2197.57   3
   3   1   6 82570.6 3607.58   8
   3   1   6 84576.7 3321.46   3
   3   1   7 24622.2 2080.25   8
   3   1   7 29531.3 1912.91   3
   3   1   8 5677.04 1104.30   8
   3   1   9 13680.2 1788.05   8
   3   1  10 52422.1 3434.94   8
   3   2 -13 972.886 628.771  10
   3   2 -12 16187.8 1764.44  15
   3   2 -12 13500.6 1606.17  14
   3   2 -12 13808.0 1583.34   4
   3   2 -12 14305.2 1712.52  20
   3   2 -12 13578.7 1649.88  18
   3   2 -12 14240.9 1714.62  17
   3   2 -12 14686.3 1690.81  10
   3   2 -11 55209.9 3344.27  15
   3   2 -11 51870.2 3226.01  14
   3   2 -11 58559.4 3007.97   4
   3   2 -11 56121.2 3347.38  20
   3   2 -11 50852.4 3196.06  18
   3   2 -11 51808.9 2816.00   5
   3   2 -11 52267.4 3222.48  17
   3   2 -11 51425.1 3015.84  10
   3   2 -10 30784.4 2374.75  15
   3   2 -10 37493.7 2575.83  14
   3   2 -10 38959.5 2246.18   4
   3   2 -10 37719.6 2630.67  20
   3   2 -10 39703.9 2662.28  18
   3   2 -10 34712.5 2537.26  17
   3   2 -10 33858.1 2183.69   5
   3   2 -10 34145.3 2311.47  10
   3   2  -9 32435.2 2346.87  15
   3   2  -9 28558.1 2203.82  14
   3   2  -9 30519.2 1884.64   4
   3   2  -9 27579.5 2205.09  20
   3   2  -9 30157.8 2228.70  18
   3   2  -9 31005.8 2266.90  17
   3   2  -9 30051.7 2024.25   5
   3   2  -8 72088.3 3342.18  15
   3   2  -8 73051.2 3341.09  14
   3   2  -8 71453.1 2785.06   4
   3   2  -8 64307.5 3201.81  20
   3   2  -8 73663.5 3369.47  18
   3   2  -8 74473.4 3384.63  17
   3   2  -8 65636.9 2988.88   5
   3   2  -7 139954. 4753.62  15
   3   2  -7 138516. 4737.49  14
   3   2  -7 143100. 4041.03   4
   3   2  -7 138991. 4762.28  20
   3   2  -7 136902. 4702.06  18
   3   2  -7 132248. 4662.53  17
   3   2  -7 136411. 4505.13   5
   3   2  -6 73468.8 3074.50  15
   3   2  -6 71051.2 3031.28  14
   3   2  -6 78250.9 2500.60   4
   3   2  -6 73642.4 3091.40  20
   3   2  -6 73144.4 3047.07  18
   3   2  -6 75054.9 3087.33  17
   3   2  -6 71970.6 2930.43   5
   3   2  -5 15378.7 1258.23  15
   3   2  -5 14376.9 1241.62  14
   3   2  -5 14756.1 893.068   4
   3   2  -5 14520.6 1248.27  20
   3   2  -5 16521.8 1287.11  18
   3   2  -5 15469.0 1255.01  17
   3   2  -5 17289.5 1286.97   5
   3   2  -4 64254.7 2615.04   5
   3   2  -4 66337.0 2564.95  15
   3   2  -4 66174.9 2561.40  14
   3   2  -4 73401.4 1953.75   7
   3   2  -4 68909.9 2604.18  20
   3   2  -4 66097.1 2543.39  18
   3   2  -4 63995.1 2522.34  17
   3   2  -3 108371. 3564.80   5
   3   2  -3 106368. 3296.06  15
   3   2  -3 111713. 3320.23  14
   3   2  -3 109397. 2727.97   7
   3   2  -3 106352. 3295.64  20
   3   2  -3 109947. 3306.39  18
   3   2  -3 108608. 3302.01  17
   3   2  -2 95559.9 3280.27   5
   3   2  -2 100481. 2903.32  15
   3   2  -2 100292. 2892.45  14
   3   2  -2 101546. 2603.89   7
   3   2  -2 98798.5 2889.18  20
   3   2  -2 98129.3 2865.13  18
   3   2  -2 104204. 2914.98  17
   3   2  -1 135310. 4056.63   5
   3   2  -1 139251. 3414.93  15
   3   2  -1 135977. 3377.40  14
   3   2  -1 144402. 3487.86   7
   3   2  -1 139923. 3398.90  20
   3   2  -1 137105. 3377.11  18
   3   2  -1 141499. 3404.14  17
   3   2   0 49220.5 2095.49   5
   3   2   0 52741.0 1398.33  15
   3   2   0 52967.2 1833.80   7
   3   2   0 53257.8 1399.62  20
   3   2   0 55860.3 1410.26  19
   3   2   0 52357.1 1368.18  19
   3   2   0 53391.9 1411.47  18
   3   2   0 54089.3 1388.61  18
   3   2   0 52395.6 1388.70  17
   3   2   1 164388. 4439.88   5
   3   2   1 160744. 4250.69   7
   3   2   2 161594. 4343.36   5
   3   2   3 10037.6 998.944   3
   3   2   3 11999.3 925.716   5
   3   2   4 5131.61 596.729   5
   3   2   4 4900.16 742.662   3
   3   2   4 6181.08 883.363   8
   3   2   5 26275.6 1852.51   8
   3   2   5 31132.0 1782.78   3
   3   2   6 77071.9 3546.97   8
   3   2   6 85213.0 3255.42   3
   3   2   7 30666.6 2319.29   8
   3   2   7 34188.0 2049.60   3
   3   2   8 171.027 564.408   8
   3   2   9 18293.9 2052.92   8
   3   2  10 40849.4 3136.53   8
   3   3 -13 1874.13 942.358  10
   3   3 -12 17826.2 2053.95  15
   3   3 -12 18458.9 1855.97   4
   3   3 -12 14913.8 1761.98  14
   3   3 -12 16833.8 1930.06  20
   3   3 -12 15112.9 1760.42  18
   3   3 -12 16641.2 1877.85  10
   3   3 -12 13739.6 1776.47  17
   3   3 -11 63700.8 3596.05  15
   3   3 -11 57030.4 3435.69  14
   3   3 -11 62049.8 3129.64   4
   3   3 -11 58580.0 3513.23  20
   3   3 -11 61196.1 3523.54  18
   3   3 -11 61092.2 3540.54  17
   3   3 -11 57933.2 2978.43   5
   3   3 -11 59356.8 3313.82  10
   3   3 -10 75567.6 3774.03  15
   3   3 -10 76461.2 3800.69  14
   3   3 -10 77027.8 3352.01   4
   3   3 -10 73783.1 3778.74  20
   3   3 -10 70564.3 3646.72  18
   3   3 -10 74513.0 3775.86  17
   3   3 -10 70848.6 3327.82   5
   3   3  -9 19587.9 1797.99  15
   3   3  -9 19707.7 1767.05  14
   3   3  -9 20320.0 1562.76   4
   3   3  -9 17998.5 1751.33  20
   3   3  -9 19005.0 1765.81  17
   3   3  -9 19987.9 1631.56   5
   3   3  -8 38803.6 2412.48  15
   3   3  -8 35808.0 2345.66  14
   3   3  -8 37465.8 1981.76   4
   3   3  -8 35737.6 2334.15  20
   3   3  -8 41598.1 2479.80  17
   3   3  -8 38755.5 2212.91   5
   3   3  -7 161684. 5242.70  15
   3   3  -7 153209. 5147.70  14
   3   3  -7 163551. 4528.91   4
   3   3  -7 159894. 5221.40  20
   3   3  -7 154400. 5163.05  17
   3   3  -7 157385. 4938.95   5
   3   3  -6 64258.1 2734.64   5
   3   3  -6 62821.8 2821.13  15
   3   3  -6 61536.0 2812.34  14
   3   3  -6 58968.9 2770.98  13
   3   3  -6 63661.1 2302.89   4
   3   3  -6 62944.1 2823.76  20
   3   3  -6 58198.0 2749.24  17
   3   3  -5 25688.8 1646.87   5
   3   3  -5 24640.2 1608.78  15
   3   3  -5 25304.5 1639.95  14
   3   3  -5 25922.1 1236.40   7
   3   3  -5 25480.3 1633.80  13
   3   3  -5 21928.6 1556.21  20
   3   3  -5 26945.2 1667.00  17
   3   3  -4 56054.1 2432.94   5
   3   3  -4 46656.8 2160.63  15
   3   3  -4 51507.6 2241.39  14
   3   3  -4 55164.7 1511.15   8
   3   3  -4 52921.7 2256.87  13
   3   3  -4 54337.8 1826.39   7
   3   3  -4 49608.4 2206.33  20
   3   3  -4 51598.3 2231.74  17
   3   3  -3 86155.0 3096.09   5
   3   3  -3 81450.0 2752.99  15
   3   3  -3 85961.9 2807.48  14
   3   3  -3 82988.3 1879.49   8
   3   3  -3 82840.1 2766.04  13
   3   3  -3 86093.5 2456.01   7
   3   3  -3 81522.2 2765.61  20
   3   3  -3 84080.1 2793.15  17
   3   3  -2 52899.8 2320.40   5
   3   3  -2 50763.9 1902.64  15
   3   3  -2 55393.7 1287.66   8
   3   3  -2 55382.1 1951.18  14
   3   3  -2 58603.8 1903.92   7
   3   3  -2 52010.7 1912.99  20
   3   3  -2 51691.9 1908.59  17
   3   3  -1 18681.4 1301.64   5
   3   3  -1 18064.0 882.838  15
   3   3  -1 19498.2 921.405  14
   3   3  -1 18962.6 1069.97   7
   3   3  -1 17334.1 886.522  20
   3   3  -1 18482.1 827.731  19
   3   3  -1 18360.9 882.835  18
   3   3  -1 17613.7 879.940  17
   3   3   0 46304.6 2100.44   5
   3   3   0 48371.2 1297.87  15
   3   3   0 47885.6 1288.53  14
   3   3   0 47880.0 1626.46   8
   3   3   0 48210.0 1893.54   7
   3   3   0 48567.8 1291.44  20
   3   3   0 49547.3 1223.80  19
   3   3   0 48173.3 1236.06  18
   3   3   0 47735.6 1254.12  18
   3   3   0 49919.5 1261.68  17
   3   3   0 50475.0 1288.66  17
   3   3   1 102553. 2991.29   8
   3   3   1 101024. 3213.32   7
   3   3   2 121594. 3607.43   8
   3   3   2 114995. 3722.93   7
   3   3   3 67068.7 2622.77   3
   3   3   3 67701.9 2691.88   8
   3   3   3 69311.4 2845.68   7
   3   3   4 9887.50 1133.21   8
   3   3   4 11129.7 1032.81   3
   3   3   5 18316.0 1627.82   8
   3   3   5 18240.8 1377.67   3
   3   3   6 68615.6 3342.69   8
   3   3   6 68021.2 2832.14   3
   3   3   7 27675.6 2207.84   8
   3   3   8 1982.56 879.444   8
   3   3   9 13210.8 1813.48   8
   3   4 -12 10784.0 1589.21  15
   3   4 -12 9610.08 1608.81  14
   3   4 -12 10009.2 1504.97   4
   3   4 -12 10822.4 1557.38  20
   3   4 -12 10507.9 1460.90  18
   3   4 -12 11905.0 1591.33  17
   3   4 -12 9782.60 1475.01  10
   3   4 -11 39355.2 2778.63  15
   3   4 -11 39043.6 2831.08  14
   3   4 -11 43210.2 2637.19   4
   3   4 -11 40196.1 2900.38  20
   3   4 -11 41925.3 2919.56  17
   3   4 -11 39971.0 2476.63   5
   3   4 -10 52931.2 3241.60  15
   3   4 -10 56931.0 3361.30  14
   3   4 -10 59921.3 2978.88   4
   3   4 -10 62436.2 3475.55  20
   3   4 -10 60423.9 3429.70  17
   3   4 -10 60350.2 2987.96   5
   3   4  -9 18401.4 1761.47  15
   3   4  -9 15983.6 1684.41  14
   3   4  -9 15567.1 1612.03  13
   3   4  -9 14006.4 1386.49   4
   3   4  -9 18133.0 1752.01  20
   3   4  -9 16210.0 1710.41  17
   3   4  -9 16198.6 1459.60   5
   3   4  -8 10138.2 1147.55   5
   3   4  -8 11637.2 1339.23  15
   3   4  -8 10508.6 1273.10  14
   3   4  -8 11020.1 1105.61   4
   3   4  -8 10222.4 1287.19  13
   3   4  -8 12450.1 1387.09  20
   3   4  -8 8786.59 1267.76  17
   3   4  -7 121797. 4318.07   5
   3   4  -7 129176. 4577.78  15
   3   4  -7 126896. 4569.67  14
   3   4  -7 127001. 4559.06  13
   3   4  -7 126513. 3969.44   4
   3   4  -7 126188. 4565.61  20
   3   4  -7 129520. 4612.12  17
   3   4  -6 128029. 4340.91   5
   3   4  -6 125959. 4400.71  15
   3   4  -6 131889. 4479.64  14
   3   4  -6 126773. 3743.11   7
   3   4  -6 134774. 4505.59  13
   3   4  -6 128817. 3881.04   4
   3   4  -6 126874. 4390.58  20
   3   4  -6 132554. 4487.76  17
   3   4  -5 17101.5 1369.01   5
   3   4  -5 13211.3 1256.68  15
   3   4  -5 16707.0 1387.84  14
   3   4  -5 17537.3 1397.48  13
   3   4  -5 14676.7 1035.17   7
   3   4  -5 16495.7 1395.12  20
   3   4  -5 16662.3 1340.92  17
   3   4  -4 15603.8 1330.32   5
   3   4  -4 15928.4 1271.87  15
   3   4  -4 14691.7 1214.22  14
   3   4  -4 14293.8 1218.91  13
   3   4  -4 18325.4 1111.84   7
   3   4  -4 15298.9 1229.93  20
   3   4  -4 16597.6 1256.20  17
   3   4  -3 50227.5 2377.30   5
   3   4  -3 47207.6 2063.64  15
   3   4  -3 45847.3 2027.15  14
   3   4  -3 47104.7 2046.61  13
   3   4  -3 50702.2 1920.97   7
   3   4  -3 48716.8 2077.69  20
   3   4  -3 50515.8 2098.01  17
   3   4  -2 65711.8 2318.59  15
   3   4  -2 70930.5 2379.06  14
   3   4  -2 68819.2 2355.65  13
   3   4  -2 71516.7 2407.82   7
   3   4  -2 65787.5 2308.37  20
   3   4  -2 66624.2 2324.53  17
   3   4  -1 16954.4 938.137  15
   3   4  -1 16308.3 492.822   8
   3   4  -1 15952.5 504.287   8
   3   4  -1 16530.3 922.525  14
   3   4  -1 16676.4 931.397  13
   3   4  -1 16115.8 1101.37   7
   3   4  -1 17402.6 918.609  20
   3   4  -1 16843.7 908.014  17
   3   4   0 44017.2 1330.45  15
   3   4   0 41870.6 1322.44  14
   3   4   0 44198.2 1449.54   8
   3   4   0 43481.3 1327.71  13
   3   4   0 41057.7 1911.28   7
   3   4   0 46496.9 1264.19  20
   3   4   0 43181.8 1315.62  20
   3   4   0 44278.2 1201.44  19
   3   4   0 44475.3 1223.21  18
   3   4   0 45072.5 1241.63  17
   3   4   0 44419.2 1304.58  17
   3   4   1 169807. 4262.88   8
   3   4   1 164197. 4735.81   7
   3   4   2 83366.8 2834.39   8
   3   4   2 80898.3 3117.34   7
   3   4   3 52917.0 2374.22   8
   3   4   3 55741.9 2645.37   7
   3   4   4 25341.8 1735.15   8
   3   4   4 22705.5 1740.11   7
   3   4   4 22488.3 1485.15   3
   3   4   5 9318.88 1192.63   8
   3   4   5 9804.38 1283.43   7
   3   4   5 10959.8 1069.74   3
   3   4   6 56144.7 3026.11   8
   3   4   6 51137.2 3012.49   7
   3   4   7 29058.5 2314.66   8
   3   4   8 4918.93 1194.92   8
   3   4   9 6586.29 1271.08   8
   3   5 -13 4899.50 1236.90   4
   3   5 -12 6446.90 1255.03  15
   3   5 -12 6404.33 1182.19  14
   3   5 -12 4442.78 978.571   4
   3   5 -12 5385.23 1202.94  20
   3   5 -12 5943.46 1159.54  17
   3   5 -12 4685.28 1093.36  10
   3   5 -11 22026.2 2145.95  15
   3   5 -11 21728.1 2068.52  14
   3   5 -11 21898.6 2142.08  13
   3   5 -11 22800.8 1947.72   4
   3   5 -11 19919.7 2073.09  20
   3   5 -11 24259.7 2184.71  17
   3   5 -11 23204.2 1869.74   5
   3   5 -10 49177.1 3101.66  15
   3   5 -10 51875.6 3152.28  14
   3   5 -10 54564.5 3233.29  13
   3   5 -10 44547.6 2632.60   4
   3   5 -10 44881.7 2989.50  20
   3   5 -10 45347.3 3008.31  17
   3   5 -10 47795.3 2681.15   5
   3   5  -9 14913.5 1448.71   5
   3   5  -9 15784.4 1683.80  15
   3   5  -9 15086.6 1621.75  14
   3   5  -9 17700.3 1741.02  13
   3   5  -9 14069.3 1382.31   4
   3   5  -9 15337.8 1620.38  20
   3   5  -9 15197.3 1592.92  17
   3   5  -8 17707.7 1554.64   5
   3   5  -8 16526.9 1716.95  15
   3   5  -8 18386.1 1745.80  14
   3   5  -8 15282.2 1608.19  13
   3   5  -8 16585.3 1401.93   4
   3   5  -8 16994.5 1646.47  20
   3   5  -8 18323.7 1728.33  17
   3   5  -7 48025.4 2537.15   5
   3   5  -7 47434.3 2704.31  15
   3   5  -7 56054.8 2856.24  14
   3   5  -7 51307.0 2308.91   7
   3   5  -7 49776.8 2734.45  13
   3   5  -7 47464.0 2311.26   4
   3   5  -7 45677.2 2621.53  20
   3   5  -7 52901.6 2770.30  17
   3   5  -6 121234. 4340.99   5
   3   5  -6 132029. 4545.09  15
   3   5  -6 128603. 4485.41  14
   3   5  -6 121073. 3851.60   7
   3   5  -6 128667. 4493.09  13
   3   5  -6 123719. 4461.25  20
   3   5  -6 123627. 4434.65  17
   3   5  -5 71345.1 3061.81   5
   3   5  -5 65994.2 2920.82  15
   3   5  -5 66720.5 2911.14  14
   3   5  -5 65332.5 2887.80  13
   3   5  -5 64922.7 2530.18   7
   3   5  -5 67663.7 2934.32  20
   3   5  -5 65151.4 2903.37  17
   3   5  -4 1545.81 675.560   5
   3   5  -4 1685.41 543.249  15
   3   5  -4 2838.69 647.968  14
   3   5  -4 1616.92 590.086  13
   3   5  -4 2575.85 564.665   7
   3   5  -4 1850.80 556.464  20
   3   5  -4 2210.39 594.096  17
   3   5  -3 64361.4 2582.54  15
   3   5  -3 70705.5 2653.30  14
   3   5  -3 64265.4 2568.84  13
   3   5  -3 64970.4 2521.95   7
   3   5  -3 66685.5 2594.64  20
   3   5  -3 67391.6 2615.11  17
   3   5  -2 133844. 3888.23  15
   3   5  -2 130698. 3854.08  14
   3   5  -2 137019. 3891.43  13
   3   5  -2 139062. 4057.56   7
   3   5  -2 138030. 3898.30  20
   3   5  -2 135258. 3873.86  17
   3   5  -1 34905.3 1504.29  15
   3   5  -1 34913.0 1488.30  14
   3   5  -1 32284.9 1453.87  13
   3   5  -1 30206.5 1718.11   7
   3   5  -1 32070.3 1458.84  20
   3   5  -1 32616.0 1445.21  17
   3   5   0 20159.4 968.079  15
   3   5   0 20434.4 862.513   8
   3   5   0 20617.1 979.185  14
   3   5   0 18624.6 940.522  13
   3   5   0 21101.4 1453.46   7
   3   5   0 20271.3 960.545  20
   3   5   0 21255.5 962.116  17
   3   5   1 69366.2 2230.73   8
   3   5   1 69020.3 2835.73   7
   3   5   2 99280.5 3125.99   8
   3   5   2 89867.0 3556.96   7
   3   5   3 40083.2 2012.83   8
   3   5   3 38704.4 2267.09   7
   3   5   4 17240.2 1324.67   3
   3   5   4 17717.5 1465.08   8
   3   5   4 16946.4 1627.50   7
   3   5   5 32366.7 2164.74   8
   3   5   5 25624.1 2087.87   7
   3   5   6 35375.1 2340.49   8
   3   5   6 29057.0 2326.09   7
   3   5   7 13337.3 1543.66   8
   3   5   7 11083.7 1674.66   7
   3   5   8 2566.22 952.893   8
   3   6 -13 1496.35 852.702   4
   3   6 -12 12313.2 1611.05   4
   3   6 -11 38381.4 2892.47  15
   3   6 -11 37562.4 2893.25  14
   3   6 -11 40980.6 3000.74  13
   3   6 -11 41864.3 2757.32   4
   3   6 -11 41466.4 2934.90  20
   3   6 -11 39015.8 2908.89  17
   3   6 -11 37104.8 2439.70   5
   3   6 -10 29354.2 2105.35   5
   3   6 -10 30413.8 2447.65  15
   3   6 -10 35171.5 2639.29  14
   3   6 -10 29961.4 2428.43  13
   3   6 -10 27791.8 2109.71   4
   3   6 -10 29075.2 2432.31  20
   3   6 -10 30717.0 2476.25  17
   3   6  -9 13844.8 1435.39   5
   3   6  -9 9473.24 1412.71  15
   3   6  -9 11078.7 1406.10  14
   3   6  -9 13705.1 1576.60  13
   3   6  -9 11114.3 1269.61   4
   3   6  -9 12092.6 1555.17  20
   3   6  -9 14816.3 1660.72  17
   3   6  -8 15689.6 1500.58   5
   3   6  -8 17503.0 1740.10  15
   3   6  -8 17905.2 1776.35  14
   3   6  -8 19620.1 1539.27   7
   3   6  -8 18411.3 1744.69  13
   3   6  -8 22530.0 1701.83   4
   3   6  -8 15855.7 1648.48  20
   3   6  -8 18003.1 1734.38  17
   3   6  -7 49550.3 2699.52   5
   3   6  -7 52598.8 2924.00  15
   3   6  -7 55117.2 2948.15  14
   3   6  -7 53943.4 2539.15   7
   3   6  -7 55276.8 2938.75  13
   3   6  -7 47065.0 2810.48  20
   3   6  -7 52015.8 2873.13  17
   3   6  -6 95094.7 3816.89   5
   3   6  -6 97151.6 3868.21  15
   3   6  -6 96612.3 3878.83  14
   3   6  -6 91122.8 3785.34  13
   3   6  -6 91656.4 3380.75   7
   3   6  -6 86670.5 3730.51  20
   3   6  -6 90336.5 3787.22  17
   3   6  -5 121295. 4416.50   5
   3   6  -5 122773. 4335.23  15
   3   6  -5 122477. 4318.89  14
   3   6  -5 119801. 4269.79  13
   3   6  -5 121645. 3970.15   7
   3   6  -5 121417. 4327.20  20
   3   6  -5 117969. 4286.74  17
   3   6  -4 27897.9 1790.28  15
   3   6  -4 25778.7 1719.03  14
   3   6  -4 28067.8 1763.42  13
   3   6  -4 25508.2 1603.61   7
   3   6  -4 24117.0 1689.61  20
   3   6  -4 25310.9 1722.74  17
   3   6  -3 25189.8 1586.81  15
   3   6  -3 20608.9 1449.56  14
   3   6  -3 21833.4 1497.44  13
   3   6  -3 22250.1 1491.31   7
   3   6  -3 22878.2 1523.12  20
   3   6  -3 23317.5 1533.06  17
   3   6  -2 101647. 3347.63  15
   3   6  -2 103152. 3350.50  14
   3   6  -2 98943.5 3275.84  13
   3   6  -2 102781. 3555.59   7
   3   6  -2 103159. 3338.76  20
   3   6  -2 100532. 3312.07  17
   3   6  -1 29360.6 1491.97  15
   3   6  -1 29227.2 1490.37  14
   3   6  -1 34281.4 1575.99  13
   3   6  -1 31993.9 1882.02   7
   3   6  -1 29699.1 1490.64  20
   3   6   0 4690.70 831.125   7
   3   6   1 21592.9 1651.57   7
   3   6   2 69079.2 3179.82   7
   3   6   3 50497.3 2865.53   7
   3   6   4 3390.05 912.299   7
   3   6   5 13873.8 1585.92   7
   3   6   6 25357.6 2271.60   7
   3   7 -12 2494.26 961.729   4
   3   7 -11 56296.6 3234.94   5
   3   7 -11 62325.5 3827.64  15
   3   7 -11 67312.0 3961.83  14
   3   7 -11 59106.2 3835.17  13
   3   7 -11 64235.8 3557.55   4
   3   7 -11 62423.4 3846.22  20
   3   7 -11 63532.4 3780.10  17
   3   7 -10 31494.5 2356.88   5
   3   7 -10 39178.6 2870.26  15
   3   7 -10 38782.3 2819.62  14
   3   7 -10 39595.5 2846.27  13
   3   7 -10 34188.6 2480.62   4
   3   7 -10 43592.1 2959.78  20
   3   7 -10 35160.2 2724.11  17
   3   7  -9 4874.88 923.266   5
   3   7  -9 5464.76 1117.13  15
   3   7  -9 4405.13 1001.72  14
   3   7  -9 4661.69 870.125   7
   3   7  -9 4132.24 982.510  13
   3   7  -9 2620.42 923.423   4
   3   7  -9 6278.63 1090.68  20
   3   7  -9 5199.72 987.746  17
   3   7  -8 16443.2 1664.47   5
   3   7  -8 15954.1 1696.96  15
   3   7  -8 19039.9 1846.13  14
   3   7  -8 19474.3 1644.37   7
   3   7  -8 18268.2 1892.83  13
   3   7  -8 17877.2 1616.44   4
   3   7  -8 17842.1 1800.59  20
   3   7  -8 19686.0 1892.92  17
   3   7  -7 51153.2 2912.25   5
   3   7  -7 54756.9 3046.75  15
   3   7  -7 56472.1 3054.61  14
   3   7  -7 50548.1 2631.60   7
   3   7  -7 56239.0 3067.60  13
   3   7  -7 51698.3 2970.22  20
   3   7  -7 49963.2 2961.79  17
   3   7  -6 95443.1 4073.04   5
   3   7  -6 101930. 4121.42  15
   3   7  -6 99183.4 4078.74  14
   3   7  -6 99620.5 4054.81  13
   3   7  -6 96652.1 3721.65   7
   3   7  -6 96431.6 4048.09  20
   3   7  -6 97805.3 4071.67  17
   3   7  -5 50836.9 2698.30  15
   3   7  -5 44668.8 2529.27  14
   3   7  -5 52096.9 2672.38  13
   3   7  -5 45548.9 2410.02   7
   3   7  -5 48174.3 2642.83  20
   3   7  -5 49509.9 2632.04  17
   3   7  -4 16276.5 1471.83  15
   3   7  -4 17023.3 1492.70  14
   3   7  -4 15907.0 1418.95  13
   3   7  -4 15913.1 1405.26   7
   3   7  -4 18044.4 1508.06  20
   3   7  -4 19167.1 1531.33  17
   3   7  -3 19892.9 1491.89  15
   3   7  -3 19909.2 1477.95  14
   3   7  -3 15766.3 1344.69  13
   3   7  -3 17088.3 1450.53   7
   3   7  -3 20412.1 1515.73  20
   3   7  -2 29783.6 1703.21  15
   3   7  -2 27217.2 1672.84  14
   3   7  -2 26494.4 1637.58  13
   3   7  -2 30072.1 1925.30   7
   3   7  -2 27512.2 1651.28  20
   3   7  -1 42859.1 2357.77   7
   3   7   0 10985.9 1257.58   7
   3   7   1 4095.35 941.494   7
   3   7   2 36673.8 2411.92   7
   3   7   3 33624.2 2437.33   7
   3   7   4 6350.91 1201.90   7
   3   7   5 7916.86 1293.85   7
   3   8 -11 32192.2 2377.47   5
   3   8 -11 35491.6 2711.54   4
   3   8 -10 57236.7 3291.61   5
   3   8 -10 58394.8 3692.15  15
   3   8 -10 59666.4 3658.40  14
   3   8 -10 59517.0 3725.56  13
   3   8 -10 59635.2 3440.18   4
   3   8 -10 51356.8 3503.47  20
   3   8 -10 64562.5 3793.05  17
   3   8  -9 5707.51 973.870   5
   3   8  -9 6681.78 1197.41  15
   3   8  -9 7983.40 1371.30  14
   3   8  -9 5499.07 1166.90  13
   3   8  -9 4774.07 1023.31   7
   3   8  -9 6523.25 1151.07   4
   3   8  -9 7210.23 1266.61  20
   3   8  -9 6688.89 1108.65  17
   3   8  -8 918.613 651.025   5
   3   8  -8 1822.80 749.951  15
   3   8  -8 2140.71 579.700  14
   3   8  -8 1754.05 655.759  13
   3   8  -8 2788.56 892.027   7
   3   8  -8 3700.24 799.407  20
   3   8  -8 2866.97 817.527  17
   3   8  -7 27258.6 2174.90   5
   3   8  -7 24345.3 2123.83  15
   3   8  -7 25760.8 2142.08  14
   3   8  -7 32924.5 2192.19   7
   3   8  -7 32371.5 2401.25  13
   3   8  -7 28613.9 2236.62  20
   3   8  -7 24618.7 2091.71  17
   3   8  -6 59922.4 3194.82  15
   3   8  -6 65081.1 3275.39  14
   3   8  -6 62571.3 3208.11  13
   3   8  -6 58963.3 3007.70   7
   3   8  -6 60487.2 3251.53  20
   3   8  -6 66779.1 3386.16  17
   3   8  -5 30996.9 2162.14  15
   3   8  -5 28247.0 2058.43  14
   3   8  -5 28691.9 2098.42  13
   3   8  -5 27757.8 1992.45   7
   3   8  -5 33151.2 2245.31  20
   3   8  -5 30429.3 2169.95  17
   3   8  -4 4996.77 861.777  15
   3   8  -4 5420.06 979.438  14
   3   8  -4 5998.15 950.608  13
   3   8  -4 3850.53 817.578   7
   3   8  -4 5003.49 822.806  20
   3   8  -3 31192.9 1994.74  15
   3   8  -3 30905.8 1981.11  14
   3   8  -3 34353.9 2072.67  13
   3   8  -3 29704.9 2066.00   7
   3   8  -3 33158.2 2035.24  20
   3   8  -2 39166.7 2365.57   7
   3   8  -1 28388.0 2053.44   7
   3   8   0 13050.6 1466.37   7
   3   8   1 2073.59 669.713   7
   3   8   2 23333.8 2033.42   7
   3   8   3 39997.4 2780.80   7
   3   8   4 13157.2 1802.83   7
   3   9 -10 22975.1 2138.08   5
   3   9 -10 28586.4 2488.23   7
   3   9 -10 28146.7 2413.09   4
   3   9  -9 13032.4 1592.50   5
   3   9  -9 13822.2 1735.50  15
   3   9  -9 11783.3 1588.07  14
   3   9  -9 13750.8 1779.35  13
   3   9  -9 10462.4 1511.95   7
   3   9  -9 12504.8 1590.36   4
   3   9  -9 11708.1 1567.97  20
   3   9  -9 13034.1 1751.95  17
   3   9  -8 1537.42 716.450   5
   3   9  -8-445.173 780.486  15
   3   9  -8 136.401 459.434  14
   3   9  -8 909.064 681.803  13
   3   9  -8 204.387 798.251   7
   3   9  -8 1341.08 682.955  20
   3   9  -8 154.335 639.066  17
   3   9  -7 10655.6 1507.35  15
   3   9  -7 12857.6 1486.86  14
   3   9  -7 10257.3 1394.75  13
   3   9  -7 11341.4 1458.25   7
   3   9  -7 11106.6 1539.32  20
   3   9  -7 11329.2 1511.57  17
   3   9  -6 72217.3 3734.37  15
   3   9  -6 70446.9 3677.26  14
   3   9  -6 72923.2 3679.67  13
   3   9  -6 72314.7 3549.06   7
   3   9  -6 74051.1 3735.93  20
   3   9  -6 79070.0 3836.35  17
   3   9  -5 34176.4 2389.91  15
   3   9  -5 29390.9 2334.49  14
   3   9  -5 35003.9 2381.76  13
   3   9  -5 35706.6 2392.05   7
   3   9  -5 33491.4 2396.21  20
   3   9  -4 11556.9 1321.62   7
   3   9  -3 18495.6 1708.15   7
   3   9  -2 39807.4 2588.68   7
   3   9  -1 33538.5 2415.15   7
   3   9   0 7410.75 1292.04   7
   3   9   1 6038.86 1254.52   7
   3   9   2 26159.8 2238.17   7
   3  10  -8 1696.29 886.201  15
   3  10  -8 2414.18 776.596  14
   3  10  -8 1329.36 720.538  13
   3  10  -8 3862.43 896.373   7
   3  10  -8 2222.87 676.508  20
   3  10  -8 2527.54 749.003  17
   3  10  -7 9633.22 1434.80  15
   3  10  -7 9753.13 1474.96  14
   3  10  -7 8696.89 1489.23  13
   3  10  -7 10787.2 1495.70   7
   3  10  -7 9875.28 1443.83  20
   3  10  -7 7844.69 1385.63  17
   3  10  -6 53544.2 3327.16  15
   3  10  -6 55391.9 3342.23  14
   3  10  -6 51555.6 3249.71  13
   3  10  -6 61672.6 3383.03   7
   3  10  -6 58186.4 3389.13  20
   3  10  -6 53972.9 3264.77  17
   3  10  -5 30882.2 2371.05   7
   3  10  -4 7098.34 1226.73   7
   3  10  -3 13046.1 1585.37   7
   3  10  -2 33399.3 2539.89   7
   3  10  -1 38335.8 2766.66   7
   3  10   0 10756.1 1577.09   7
   4 -10  -1 4787.27 1088.76   2
   4 -10   1 23204.0 2713.22  11
   4 -10   2 14281.8 1851.35   3
   4 -10   2 16305.4 2198.10  11
   4 -10   3 18357.1 2379.50   3
   4 -10   3 17362.5 2205.10  11
   4  -9  -3 29624.2 2705.41   2
   4  -9  -2 44718.6 2976.49  20
   4  -9  -2 40483.3 2976.61   2
   4  -9  -2 41331.1 2875.14  19
   4  -9  -2 46156.2 2982.48  18
   4  -9  -2 38230.1 3306.96  11
   4  -9  -2 37795.0 2878.13  17
   4  -9  -1 10273.4 1453.71   2
   4  -9  -1 7796.91 1330.57  20
   4  -9  -1 8276.96 1200.96  19
   4  -9  -1 8615.02 1446.68  11
   4  -9  -1 10328.5 1391.81  18
   4  -9  -1 9881.92 1399.70  17
   4  -9   0 758.109 596.557   2
   4  -9   0 629.283 500.352  19
   4  -9   0-194.153 447.804  11
   4  -9   0 556.601 537.060  18
   4  -9   0 71.5264 554.201  17
   4  -9   1 13068.1 1555.86  19
   4  -9   1 15835.1 1812.72   3
   4  -9   1 12008.8 1561.59  18
   4  -9   1 13240.1 1636.90  17
   4  -9   2 32447.9 2500.06  19
   4  -9   2 31615.7 2714.44   3
   4  -9   2 32076.1 2472.75  18
   4  -9   2 32180.3 2522.16  17
   4  -9   3 15916.1 1984.50   3
   4  -9   3 12435.6 1527.17  19
   4  -9   3 14843.9 1650.44  18
   4  -9   3 14908.1 1666.11  17
   4  -9   4 12100.3 1993.30   3
   4  -9   4 13335.7 1584.83  19
   4  -9   4 12041.6 1527.40  18
   4  -9   4 12498.8 1471.90  17
   4  -9   5 25387.7 2240.84  19
   4  -9   5 26415.9 2840.14   3
   4  -9   5 24864.3 2244.82  18
   4  -9   5 20756.1 2029.12  17
   4  -8  -5 29268.4 2432.39  20
   4  -8  -5 28346.8 2421.63  19
   4  -8  -5 28492.8 2768.42   2
   4  -8  -5 25656.8 2343.47  18
   4  -8  -5 27569.6 2776.17  11
   4  -8  -5 30290.0 2434.17  17
   4  -8  -4 8379.18 1348.70   2
   4  -8  -4 8934.75 1245.37  20
   4  -8  -4 7211.85 1095.22  19
   4  -8  -4 5792.47 1533.98  11
   4  -8  -4 8920.87 1308.66  18
   4  -8  -4 5956.91 1102.41  17
   4  -8  -3 16195.0 1696.80  20
   4  -8  -3 16159.5 1773.21  19
   4  -8  -3 16815.1 1913.92   2
   4  -8  -3 14117.8 1602.35  18
   4  -8  -3 15491.5 1726.15  17
   4  -8  -2 37127.8 2557.53  20
   4  -8  -2 37399.8 2608.14  19
   4  -8  -2 38102.9 2814.44   2
   4  -8  -2 38557.7 2668.49  18
   4  -8  -2 36429.0 2653.46  17
   4  -8  -1 19692.5 1814.87  20
   4  -8  -1 23878.9 1940.42  19
   4  -8  -1 22576.3 2069.61   3
   4  -8  -1 22131.8 2041.02   2
   4  -8  -1 25066.4 2015.91  18
   4  -8  -1 19061.2 1836.03  17
   4  -8   0 7581.88 1302.47   3
   4  -8   0 6900.00 1146.40   2
   4  -8   0 8245.15 1212.76  20
   4  -8   0 5040.28 939.612  19
   4  -8   0 9043.77 1250.31  18
   4  -8   0 7022.08 1112.72  17
   4  -8   1 13383.3 1706.40   3
   4  -8   1 14178.9 1496.63   2
   4  -8   1 10650.2 1323.02  19
   4  -8   1 12961.2 1472.61  18
   4  -8   1 12497.7 1472.09  17
   4  -8   2 64908.3 3408.10  19
   4  -8   2 67091.4 3904.98   3
   4  -8   2 69604.2 3495.67  18
   4  -8   2 64835.5 3419.85  17
   4  -8   3 43755.9 2695.97  19
   4  -8   3 40058.3 3065.69   3
   4  -8   3 44569.6 2773.36  18
   4  -8   3 42642.5 2687.77  17
   4  -8   4 4600.51 1228.03   3
   4  -8   4 5752.04 927.435  19
   4  -8   4 5632.39 1046.31  18
   4  -8   4 6360.33 1101.30  17
   4  -8   5 30747.1 2396.52  19
   4  -8   5 29404.3 2845.11   3
   4  -8   5 30136.0 2396.25  18
   4  -8   5 30754.1 2350.36  17
   4  -8   6 50460.7 3163.31  19
   4  -8   6 48634.5 3748.32   3
   4  -8   6 53515.2 3199.11  18
   4  -8   7 45340.1 3004.25  19
   4  -8   7 42722.1 2878.58  18
   4  -8   8 18036.9 1905.35  19
   4  -8   8 17879.4 1996.67  18
   4  -7  -6 28442.7 2400.27  20
   4  -7  -6 29112.9 2487.05  19
   4  -7  -6 35042.0 2863.91   2
   4  -7  -6 26256.4 2304.40  18
   4  -7  -6 33788.8 3017.33  11
   4  -7  -6 29633.2 2476.24  17
   4  -7  -5 15409.2 1973.61   2
   4  -7  -5 14823.6 1705.65  20
   4  -7  -5 15741.2 1648.74  19
   4  -7  -5 17345.5 1776.39  18
   4  -7  -5 15824.2 1741.48  17
   4  -7  -4 10665.2 1433.11  20
   4  -7  -4 13882.9 1505.77  19
   4  -7  -4 14138.9 1704.13   2
   4  -7  -4 10714.5 1368.92  18
   4  -7  -4 12861.0 1467.64  17
   4  -7  -3 21402.8 1938.26  20
   4  -7  -3 24292.9 1999.83  19
   4  -7  -3 24246.6 2020.76  18
   4  -7  -3 24108.9 2211.08   2
   4  -7  -3 23178.0 1988.22  17
   4  -7  -2 57654.8 3061.64  20
   4  -7  -2 53875.6 3007.04  19
   4  -7  -2 59384.5 3103.06   3
   4  -7  -2 55996.9 3034.43  18
   4  -7  -2 52320.1 3132.93   2
   4  -7  -2 56853.1 3063.40  17
   4  -7  -1 72584.2 3490.11  20
   4  -7  -1 80872.3 3617.49  19
   4  -7  -1 82698.9 3809.10   3
   4  -7  -1 80158.4 3656.83  18
   4  -7  -1 78255.3 3764.76   2
   4  -7  -1 82272.8 3673.17  17
   4  -7   0 20502.9 1802.19  20
   4  -7   0 24584.3 1887.73  19
   4  -7   0 23786.1 2055.44   3
   4  -7   0 23450.6 1938.72   2
   4  -7   0 25341.3 1936.37  18
   4  -7   0 21484.2 1855.42  17
   4  -7   1 16674.2 1590.30  19
   4  -7   1 15874.4 1754.14   3
   4  -7   1 15857.0 1541.65   2
   4  -7   1 15473.2 1544.14  18
   4  -7   1 18349.7 1652.53  17
   4  -7   2 47629.2 2648.41  19
   4  -7   2 42593.8 3029.06   3
   4  -7   2 43137.8 2565.13  18
   4  -7   2 44884.1 2595.31  17
   4  -7   3 39429.0 2469.50  19
   4  -7   3 40583.8 2970.13   3
   4  -7   3 41534.7 2549.24  18
   4  -7   3 39367.6 2462.79  17
   4  -7   4 10881.6 1670.96   3
   4  -7   4 12362.5 1397.09  19
   4  -7   4 11094.3 1365.31  18
   4  -7   4 11900.2 1309.33  17
   4  -7   5 15205.9 1965.47   3
   4  -7   5 13342.9 1503.59  19
   4  -7   5 14939.4 1539.53  18
   4  -7   5 14385.7 1491.39  17
   4  -7   6 53598.6 3038.08  19
   4  -7   6 56049.8 3799.51   3
   4  -7   6 58245.6 3110.37  18
   4  -7   7 54306.2 3123.57  19
   4  -7   7 53343.3 3842.29   3
   4  -7   7 61938.1 3309.30  18
   4  -7   8 11752.4 1574.85  19
   4  -7   8 12197.9 1601.89  18
   4  -6  -8 1775.74 661.230  11
   4  -6  -7 9753.62 1621.80   2
   4  -6  -7 5769.42 1125.72  20
   4  -6  -7 9545.57 1302.48  19
   4  -6  -7 9183.25 1351.37  18
   4  -6  -7 8952.57 1251.07  17
   4  -6  -6 40435.5 2782.98  20
   4  -6  -6 44632.4 2906.04  19
   4  -6  -6 38813.9 2776.62  18
   4  -6  -6 40016.8 3042.54   2
   4  -6  -6 40953.4 2782.52  17
   4  -6  -5 38780.2 2578.22  20
   4  -6  -5 35786.0 2483.44  19
   4  -6  -5 32670.9 2408.45  18
   4  -6  -5 35993.5 2774.98   2
   4  -6  -5 35037.0 2502.92  17
   4  -6  -4 21893.3 1917.77  20
   4  -6  -4 21676.6 1851.79  19
   4  -6  -4 19530.1 1785.76  18
   4  -6  -4 22169.7 2000.77   5
   4  -6  -4 21118.3 1990.71   2
   4  -6  -4 21964.8 1910.13  17
   4  -6  -3 40822.9 2493.71  20
   4  -6  -3 41419.0 2509.14  19
   4  -6  -3 41034.6 2339.24   3
   4  -6  -3 38158.7 2432.28  18
   4  -6  -3 41513.5 2747.87   5
   4  -6  -3 42129.5 2802.47   2
   4  -6  -3 40782.8 2487.56  17
   4  -6  -2 67234.3 3206.71  20
   4  -6  -2 71873.2 3258.58  19
   4  -6  -2 71719.0 3254.39   3
   4  -6  -2 65345.2 3167.23  18
   4  -6  -2 63409.3 3350.79   2
   4  -6  -2 67716.6 3202.82  17
   4  -6  -1 90764.5 3675.39  20
   4  -6  -1 83038.1 3559.82  19
   4  -6  -1 88626.2 3657.84  18
   4  -6  -1 82853.0 3715.34   3
   4  -6  -1 86321.9 3798.72   2
   4  -6  -1 87530.3 3635.22  17
   4  -6   0 24540.1 1799.61  20
   4  -6   0 24983.0 1848.05  19
   4  -6   0 25236.0 1852.08  18
   4  -6   0 23372.2 1960.21   3
   4  -6   0 24078.7 1891.94   2
   4  -6   0 24969.2 1837.74  17
   4  -6   1 6420.44 1119.36   3
   4  -6   1 6950.50 1037.87   2
   4  -6   1 5746.11 895.360  20
   4  -6   1 6508.21 960.801  19
   4  -6   1 8387.22 1049.83  18
   4  -6   1 7094.19 1021.15  17
   4  -6   2 50242.0 2638.16  19
   4  -6   2 52827.5 3140.72   3
   4  -6   2 56422.0 2740.60  18
   4  -6   2 56673.0 2569.78   2
   4  -6   2 56722.3 2761.36  17
   4  -6   3 39382.0 2263.70  19
   4  -6   3 31477.8 2476.94   3
   4  -6   3 39117.3 2310.86  18
   4  -6   3 38727.1 2299.18  17
   4  -6   4 15673.5 1455.27  19
   4  -6   4 17095.9 1897.10   3
   4  -6   4 15386.8 1453.35  18
   4  -6   4 14942.3 1412.66  17
   4  -6   5 13460.0 1771.26   3
   4  -6   5 13685.3 1402.17  19
   4  -6   5 15418.8 1454.68  18
   4  -6   5 11889.5 1224.33  17
   4  -6   6 27331.2 2014.17  19
   4  -6   6 27857.3 2578.32   3
   4  -6   6 28259.9 2031.28  18
   4  -6   7 58193.0 3065.63  19
   4  -6   7 56693.2 3875.43   3
   4  -6   7 55850.6 3032.32  18
   4  -6   8 10224.1 1831.69   3
   4  -6   8 15390.1 1596.64  19
   4  -6   8 13090.4 1568.16  18
   4  -5 -10 39995.0 3179.96  11
   4  -5  -9 25036.1 2442.14  11
   4  -5  -9 26113.8 2312.90   5
   4  -5  -8 2782.81 825.441   5
   4  -5  -8 1718.67 707.552  15
   4  -5  -8 4958.29 1081.32   2
   4  -5  -8 3941.44 1050.31  20
   4  -5  -8 1829.64 619.825  19
   4  -5  -8 3010.54 1001.50  18
   4  -5  -8 3881.89 850.920  17
   4  -5  -7 20344.9 1939.03  15
   4  -5  -7 21122.8 2028.65  20
   4  -5  -7 22088.0 2005.75  19
   4  -5  -7 18890.0 1924.08  18
   4  -5  -7 22203.4 2095.13   5
   4  -5  -7 21493.5 2202.99   2
   4  -5  -7 18379.9 1836.57  17
   4  -5  -6 59526.5 3291.87  15
   4  -5  -6 61105.5 3315.20  20
   4  -5  -6 50489.1 3061.02  19
   4  -5  -6 54041.7 3151.22  18
   4  -5  -6 52520.1 3248.71   5
   4  -5  -6 51121.5 3134.00  17
   4  -5  -6 53786.4 3325.34   2
   4  -5  -5 47014.8 2771.36  15
   4  -5  -5 45927.7 2748.46  20
   4  -5  -5 45806.0 2694.99  19
   4  -5  -5 46112.7 2695.49  18
   4  -5  -5 46677.6 2909.08   5
   4  -5  -5 43781.2 2672.89  17
   4  -5  -5 46877.6 3052.47   2
   4  -5  -4 20093.2 1779.40  20
   4  -5  -4 24374.4 1874.55  19
   4  -5  -4 23771.9 1847.88  18
   4  -5  -4 22910.7 1603.39   3
   4  -5  -4 20808.3 1915.40   5
   4  -5  -4 23815.5 1852.23  17
   4  -5  -4 20663.3 1934.38   2
   4  -5  -3 7769.98 1253.40   5
   4  -5  -3 8810.86 1121.92  20
   4  -5  -3 8783.17 1174.51  19
   4  -5  -3 9597.79 1062.60   3
   4  -5  -3 7560.63 1132.13  18
   4  -5  -3 10453.9 1211.09  17
   4  -5  -3 10933.8 1370.32   2
   4  -5  -2 50316.7 2615.46  20
   4  -5  -2 56072.3 2682.35  19
   4  -5  -2 51351.4 2623.04  18
   4  -5  -2 48080.3 2566.37   3
   4  -5  -2 49316.2 2864.41   5
   4  -5  -2 47768.9 2572.70  17
   4  -5  -2 50777.5 2832.78   2
   4  -5  -1 94934.9 3646.76  20
   4  -5  -1 94406.3 3619.73  19
   4  -5  -1 94787.6 3636.82  18
   4  -5  -1 100185. 3924.39   3
   4  -5  -1 97376.2 4004.04   5
   4  -5  -1 95205.7 3663.37  17
   4  -5  -1 96730.4 3912.15   2
   4  -5   0 36588.4 2094.67  20
   4  -5   0 36162.7 2114.03  19
   4  -5   0 40769.1 2212.36  18
   4  -5   0 36208.2 2331.17   3
   4  -5   0 35082.1 2253.36   5
   4  -5   0 38315.7 2139.32  17
   4  -5   0 40059.7 2278.32   2
   4  -5   1 17644.8 1424.33  20
   4  -5   1 15628.7 1303.99  19
   4  -5   1 16786.2 1388.41  18
   4  -5   1 19382.0 1731.95   3
   4  -5   1 15865.9 1490.42   5
   4  -5   1 17125.5 1403.62  17
   4  -5   1 17939.8 1427.04   2
   4  -5   2 34993.4 2025.73  19
   4  -5   2 37101.5 2068.29  18
   4  -5   2 38777.1 2507.35   3
   4  -5   2 34011.7 1990.87  17
   4  -5   2 35987.5 1931.38   2
   4  -5   3 61307.3 2757.39  19
   4  -5   3 64081.2 2806.65  18
   4  -5   3 57436.3 3274.13   3
   4  -5   3 62459.9 2797.18  17
   4  -5   4 20769.9 1537.11  19
   4  -5   4 19587.9 1495.60  18
   4  -5   4 18714.5 1889.49   3
   4  -5   4 16777.6 1403.54  17
   4  -5   5 2514.51 1057.73   3
   4  -5   5 4111.29 773.407  19
   4  -5   5 4192.62 754.773  18
   4  -5   5 3403.54 732.312  17
   4  -5   6 35125.4 2172.16  19
   4  -5   6 35824.2 2188.93  18
   4  -5   6 35276.5 2808.56   3
   4  -5   7 72804.0 3302.11  19
   4  -5   7 66664.1 4083.14   3
   4  -5   7 80158.0 3456.72  18
   4  -5   8 32310.1 2791.89   3
   4  -5   9 11040.0 1973.72   3
   4  -4 -10 53681.3 3531.87  11
   4  -4 -10 62316.7 3685.20   5
   4  -4  -9 41531.2 2989.74  15
   4  -4  -9 40516.2 2968.67  20
   4  -4  -9 37088.5 2798.81  19
   4  -4  -9 33844.5 2682.17  18
   4  -4  -9 38275.5 2887.00   5
   4  -4  -9 38936.9 3025.71   2
   4  -4  -9 38519.9 2845.88  17
   4  -4  -8 3698.25 821.806   5
   4  -4  -8 1677.75 697.948  15
   4  -4  -8 1500.80 805.250   2
   4  -4  -8 4256.92 998.353  20
   4  -4  -8 2840.93 705.681  19
   4  -4  -8 3003.90 822.157  18
   4  -4  -8 1637.35 685.573  17
   4  -4  -7 11849.0 1493.32  15
   4  -4  -7 16086.6 1691.54  20
   4  -4  -7 15469.1 1641.02  19
   4  -4  -7 16928.3 1725.31  18
   4  -4  -7 13191.2 1553.40   5
   4  -4  -7 15179.0 1633.91  17
   4  -4  -7 15577.0 1728.11   2
   4  -4  -6 57851.1 3099.03  15
   4  -4  -6 55887.7 3079.88  20
   4  -4  -6 62008.7 3147.96  19
   4  -4  -6 60900.0 3172.77  18
   4  -4  -6 57147.5 3208.84   5
   4  -4  -6 55230.3 3007.91  17
   4  -4  -6 54688.4 3300.37   2
   4  -4  -5 24819.6 2140.50   2
   4  -4  -5 24248.8 1928.82  15
   4  -4  -5 24451.4 1949.39  20
   4  -4  -5 24306.1 1917.01  19
   4  -4  -5 22026.0 1866.60  18
   4  -4  -5 28779.2 2200.31   5
   4  -4  -5 25541.3 1585.41   3
   4  -4  -5 23571.8 1919.00  17
   4  -4  -4 8396.61 1198.90   5
   4  -4  -4 8408.48 1098.98  15
   4  -4  -4 7589.24 1099.61  20
   4  -4  -4 10396.4 1183.15  19
   4  -4  -4 9734.83 1130.98  18
   4  -4  -4 8035.13 937.323   3
   4  -4  -4 9524.90 1165.20  17
   4  -4  -3 9056.46 1225.78   5
   4  -4  -3 9506.44 1127.71  20
   4  -4  -3 10860.1 1175.84  19
   4  -4  -3 10747.5 1178.78  18
   4  -4  -3 9301.93 1042.08   3
   4  -4  -3 9802.97 1153.91  17
   4  -4  -2 59135.0 2701.71  20
   4  -4  -2 63305.1 2771.50  19
   4  -4  -2 63584.9 2781.11  18
   4  -4  -2 63951.4 3067.00   5
   4  -4  -2 58262.5 2749.31   3
   4  -4  -2 62472.5 2747.72  17
   4  -4  -1 137344. 4465.18  20
   4  -4  -1 149747. 4578.27  19
   4  -4  -1 151200. 4615.69  18
   4  -4  -1 141663. 4912.46   5
   4  -4  -1 150520. 4883.07   3
   4  -4  -1 141809. 4520.70  17
   4  -4   0 64587.8 2711.00  20
   4  -4   0 69329.4 2764.37  19
   4  -4   0 64625.4 2697.71  18
   4  -4   0 68644.1 3030.88   5
   4  -4   0 66413.6 3057.39   3
   4  -4   0 64332.1 2702.83  17
   4  -4   1 33558.3 1835.20  20
   4  -4   1 33383.2 1820.12  19
   4  -4   1 31622.9 1786.79  18
   4  -4   1 31776.5 1947.75   5
   4  -4   1 30898.2 2125.35   3
   4  -4   1 34491.0 1877.90  17
   4  -4   2 27200.6 1673.19  19
   4  -4   2 30782.3 1738.94  18
   4  -4   2 32396.3 2180.96   3
   4  -4   2 31168.6 1833.81   5
   4  -4   2 27582.6 1688.65  17
   4  -4   3 60512.9 2583.32  19
   4  -4   3 57703.3 2528.33  18
   4  -4   3 62443.4 3215.89   3
   4  -4   3 61891.3 2594.37  17
   4  -4   3 65214.9 2398.91   2
   4  -4   4 78786.0 3022.93  19
   4  -4   4 80796.2 3063.02  18
   4  -4   4 70967.7 3589.82   3
   4  -4   4 79371.0 3041.71  17
   4  -4   5 6122.11 1175.52   3
   4  -4   5 8191.22 950.571  19
   4  -4   5 6947.66 927.982  18
   4  -4   5 6481.43 893.982  17
   4  -4   6 31922.0 1933.99  19
   4  -4   6 33903.4 2001.25  18
   4  -4   6 28008.2 2374.40   3
   4  -4   7 90108.1 4482.95   3
   4  -4   8 30945.9 2702.90   3
   4  -4   9 6947.08 1556.08   3
   4  -4  10 11410.4 2002.20   3
   4  -3 -11 11395.8 1431.76   5
   4  -3 -10 66739.9 3905.87  15
   4  -3 -10 64852.4 3835.14  20
   4  -3 -10 73118.1 4021.63  19
   4  -3 -10 67081.4 3871.40  18
   4  -3 -10 67386.5 3806.51   5
   4  -3 -10 72784.9 3961.11  17
   4  -3 -10 73477.1 4168.28   2
   4  -3  -9 42157.8 2904.60  15
   4  -3  -9 42355.0 2939.17  20
   4  -3  -9 46820.0 3038.79  19
   4  -3  -9 41362.7 2918.83  18
   4  -3  -9 45494.0 3032.41   5
   4  -3  -9 41901.3 2913.83  17
   4  -3  -9 42076.5 3075.83   2
   4  -3  -8 1437.29 701.450   5
   4  -3  -8 1491.60 700.158  15
   4  -3  -8 1578.51 729.794   2
   4  -3  -8 1021.44 579.555  20
   4  -3  -8 829.037 398.216  19
   4  -3  -8 1027.49 551.120  18
   4  -3  -8 1669.59 715.136  17
   4  -3  -7 8330.94 1143.06   5
   4  -3  -7 6265.42 1116.02  15
   4  -3  -7 5885.64 1078.92  20
   4  -3  -7 7237.41 1093.79  19
   4  -3  -7 5631.12 1021.47  18
   4  -3  -7 7241.05 1056.27  17
   4  -3  -6 59381.5 3107.92  15
   4  -3  -6 58897.3 3090.52  20
   4  -3  -6 63251.2 3142.98  19
   4  -3  -6 59908.3 3087.35  18
   4  -3  -6 65968.1 3358.54   5
   4  -3  -6 65004.7 3163.37  17
   4  -3  -5 88267.8 3640.68  15
   4  -3  -5 89554.5 3661.73  20
   4  -3  -5 90882.3 3681.55  19
   4  -3  -5 89566.8 3662.74  18
   4  -3  -5 86715.3 3832.09   5
   4  -3  -5 90627.6 3648.69  17
   4  -3  -5 85341.3 3193.27   3
   4  -3  -4 10136.1 1132.42  15
   4  -3  -4 8759.77 1119.13  20
   4  -3  -4 11174.1 1195.86  19
   4  -3  -4 9130.97 1090.86  18
   4  -3  -4 9886.41 1262.30   5
   4  -3  -4 12027.6 1230.10  17
   4  -3  -4 8641.09 939.048   3
   4  -3  -3 9867.60 1095.51  15
   4  -3  -3 9091.54 1046.54  20
   4  -3  -3 10549.0 1076.71  19
   4  -3  -3 11296.8 1191.82  18
   4  -3  -3 11007.4 1278.99   5
   4  -3  -3 10286.9 1102.04  17
   4  -3  -3 7442.75 929.807   3
   4  -3  -2 121628. 4049.25  20
   4  -3  -2 125531. 4080.07  19
   4  -3  -2 130640. 4132.17  18
   4  -3  -2 126984. 4457.00   5
   4  -3  -2 129294. 4109.51  17
   4  -3  -2 125230. 4223.48   3
   4  -3  -1 122454. 3914.71  20
   4  -3  -1 120248. 3860.70  19
   4  -3  -1 122186. 3882.89  18
   4  -3  -1 123022. 4276.17   5
   4  -3  -1 126040. 3928.78  17
   4  -3  -1 122833. 4213.22   3
   4  -3   0 75710.7 2816.55  20
   4  -3   0 77631.1 2826.72  19
   4  -3   0 79087.5 2870.90  18
   4  -3   0 81565.4 3187.75   5
   4  -3   0 75997.7 2815.90  17
   4  -3   0 79672.3 3260.29   3
   4  -3   1 57811.0 2344.85  20
   4  -3   1 59715.1 2387.43  19
   4  -3   1 57064.0 2340.06  18
   4  -3   1 60815.0 2634.35   5
   4  -3   1 56859.3 2345.04  17
   4  -3   1 64571.4 2953.92   3
   4  -3   2 52925.0 2187.60  19
   4  -3   2 52329.7 2182.66  18
   4  -3   2 54819.5 2379.83   5
   4  -3   2 52364.5 2741.89   3
   4  -3   2 50593.6 2179.28  17
   4  -3   3 84580.1 2963.49  19
   4  -3   3 86498.0 2988.12  18
   4  -3   3 91943.6 3083.16   5
   4  -3   3 82133.3 3657.77   3
   4  -3   3 90167.3 3030.86  17
   4  -3   4 82175.7 2901.68  19
   4  -3   4 77486.7 2861.38  18
   4  -3   4 83642.3 2748.33   5
   4  -3   4 79642.5 3647.15   3
   4  -3   4 81002.7 2890.15  17
   4  -3   5 16873.5 1242.35  19
   4  -3   5 17059.5 1255.36  18
   4  -3   5 14073.9 1641.35   3
   4  -3   6 5706.65 1173.76   3
   4  -3   7 29108.5 2501.70   3
   4  -3   8 46503.2 3230.18   3
   4  -3   9 10534.8 1678.42   3
   4  -3  10 6458.02 1349.09   3
   4  -2 -11 10724.0 1504.15   5
   4  -2 -11 10172.5 1488.89   2
   4  -2 -10 40888.3 2996.45  15
   4  -2 -10 41365.2 2954.89  20
   4  -2 -10 42396.4 3009.85  19
   4  -2 -10 45767.5 3136.81  18
   4  -2 -10 47477.5 3016.31   5
   4  -2 -10 51523.2 3275.43  17
   4  -2 -10 48934.2 3298.43   2
   4  -2  -9 54679.0 3244.89  15
   4  -2  -9 51157.2 3159.91  20
   4  -2  -9 50405.6 3122.09  19
   4  -2  -9 51869.9 3193.57  18
   4  -2  -9 54892.6 3184.24   5
   4  -2  -9 50025.5 3089.60  17
   4  -2  -8 16253.0 1659.33  15
   4  -2  -8 15768.8 1689.37  20
   4  -2  -8 15200.0 1631.82  19
   4  -2  -8 18030.6 1774.39  18
   4  -2  -8 13739.2 1567.92   5
   4  -2  -8 14855.1 1605.73  17
   4  -2  -7 14857.8 1517.93  15
   4  -2  -7 14453.5 1518.69  20
   4  -2  -7 16577.5 1629.43  19
   4  -2  -7 16287.9 1654.04  18
   4  -2  -7 16787.6 1667.94   5
   4  -2  -7 12837.9 1460.95  17
   4  -2  -6 83840.8 3128.94   3
   4  -2  -6 86610.4 3654.86  15
   4  -2  -6 88302.8 3664.54  20
   4  -2  -6 78436.6 3492.99  19
   4  -2  -6 78408.1 3504.65  18
   4  -2  -6 92195.9 3868.97   5
   4  -2  -6 82604.9 3568.63  17
   4  -2  -5 180102. 5202.21   3
   4  -2  -5 184329. 5624.17  15
   4  -2  -5 178256. 5547.16  20
   4  -2  -5 172840. 5483.77  19
   4  -2  -5 177203. 5517.66  18
   4  -2  -5 181071. 5843.83   5
   4  -2  -5 186902. 5600.37  17
   4  -2  -4 23089.9 1655.33  15
   4  -2  -4 24132.8 1700.47  20
   4  -2  -4 26081.0 1703.53  19
   4  -2  -4 25154.3 1708.55  18
   4  -2  -4 28503.3 1966.81   5
   4  -2  -4 24180.9 1666.70  17
   4  -2  -4 24758.9 1601.21   3
   4  -2  -3 2113.04 771.707   5
   4  -2  -3 1191.40 477.956  15
   4  -2  -3 1354.14 428.421   3
   4  -2  -3 892.361 497.650  20
   4  -2  -3 1589.47 549.055  19
   4  -2  -3 1297.22 515.970  18
   4  -2  -3 1349.08 546.795  17
   4  -2  -2 101361. 3429.38  15
   4  -2  -2 102184. 3439.31  20
   4  -2  -2 106048. 3450.91  19
   4  -2  -2 105829. 3463.93  18
   4  -2  -2 104589. 3440.82  17
   4  -2  -2 101469. 3825.71   5
   4  -2  -2 101942. 3644.47   3
   4  -2  -1 221397. 5693.29  20
   4  -2  -1 224260. 5689.84  19
   4  -2  -1 226973. 5715.52  18
   4  -2  -1 213350. 5649.78  17
   4  -2  -1 210684. 6110.35   5
   4  -2  -1 216659. 6121.64   3
   4  -2   0 70897.8 2489.70  20
   4  -2   0 69440.6 2469.40  19
   4  -2   0 66610.0 2428.86  18
   4  -2   0 68021.0 2475.46  17
   4  -2   0 68420.7 2811.52   5
   4  -2   0 65356.0 2892.41   3
   4  -2   1 52765.7 2077.81  20
   4  -2   1 56452.6 2135.71  19
   4  -2   1 56621.9 2134.58  18
   4  -2   1 55883.9 2129.68  17
   4  -2   1 53555.9 2391.97   5
   4  -2   1 57407.1 2698.45   3
   4  -2   2 50536.5 1996.00  19
   4  -2   2 53159.9 2032.47  18
   4  -2   2 52054.2 2028.22  17
   4  -2   2 55733.5 2311.76   5
   4  -2   2 50311.9 2627.48   3
   4  -2   3 94559.7 2919.19  19
   4  -2   3 96550.0 2939.45  18
   4  -2   3 95037.0 2935.51  17
   4  -2   3 94009.0 3047.26   5
   4  -2   4 43823.2 1806.67  19
   4  -2   4 41633.0 1770.84  18
   4  -2   4 42866.6 1759.90   5
   4  -2   4 40719.2 1758.67  17
   4  -2   4 39016.5 2424.31   3
   4  -2   5 6924.15 1092.21   3
   4  -2   6 15071.4 1643.54   3
   4  -2   7 14275.8 1690.59   3
   4  -2   8 49992.0 3171.74   3
   4  -2   9 27162.2 2467.36   3
   4  -1 -11 17618.5 1969.34   2
   4  -1 -11 21844.2 2127.29  15
   4  -1 -11 22931.0 2276.81  20
   4  -1 -11 22482.3 2150.15  18
   4  -1 -11 20077.3 1864.05   5
   4  -1 -11 17182.7 1995.40  17
   4  -1 -10 63060.6 3739.54  15
   4  -1 -10 64730.4 3753.12  20
   4  -1 -10 57606.5 3579.09  18
   4  -1 -10 68934.2 3577.24   5
   4  -1 -10 62288.1 3636.68  17
   4  -1  -9 47305.6 3043.93  15
   4  -1  -9 54808.9 3155.44  20
   4  -1  -9 48865.5 3054.88  18
   4  -1  -9 46814.4 2895.08   5
   4  -1  -8 42365.8 2696.90  15
   4  -1  -8 39957.7 2641.49  20
   4  -1  -8 44455.5 2688.54  18
   4  -1  -8 40663.0 2584.66   5
   4  -1  -8 41559.4 2634.48  17
   4  -1  -7 25522.4 1944.60  15
   4  -1  -7 23754.8 1928.01  20
   4  -1  -7 22149.3 1847.49  18
   4  -1  -7 22656.2 1937.67   5
   4  -1  -7 22755.5 1903.36  17
   4  -1  -7 24068.6 1469.17  10
   4  -1  -6 65344.3 3056.36  15
   4  -1  -6 59126.3 2930.52  20
   4  -1  -6 62153.3 2962.45  18
   4  -1  -6 59999.7 2925.01  17
   4  -1  -6 64888.7 3167.21   5
   4  -1  -6 69567.1 2389.07  10
   4  -1  -5 144636. 4799.99  15
   4  -1  -5 148145. 4820.68  20
   4  -1  -5 142911. 4751.00  19
   4  -1  -5 156066. 4886.75  18
   4  -1  -5 148654. 4799.15  17
   4  -1  -5 149387. 5095.88   5
   4  -1  -5 157862. 3942.63  10
   4  -1  -4 29301.7 1784.39  15
   4  -1  -4 28715.9 1771.02  20
   4  -1  -4 32305.8 1842.71  19
   4  -1  -4 27333.9 1708.63  18
   4  -1  -4 27995.6 1751.15  17
   4  -1  -4 33225.0 2119.73   5
   4  -1  -3 376.244 525.846   5
   4  -1  -3 615.801 417.777  15
   4  -1  -3-140.979 443.952   3
   4  -1  -3 306.237 412.022  20
   4  -1  -3 130.831 375.144  19
   4  -1  -3 858.603 428.260  18
   4  -1  -3 97.8385 372.760  17
   4  -1  -2 29699.5 1799.29   3
   4  -1  -2 31562.9 1639.81  15
   4  -1  -2 32298.7 1651.25  20
   4  -1  -2 33289.3 1649.52  19
   4  -1  -2 33287.9 1646.94  18
   4  -1  -2 31263.9 1620.67  17
   4  -1  -2 30452.0 1904.83   5
   4  -1  -1 213141. 5364.69  15
   4  -1  -1 210826. 5347.06  20
   4  -1  -1 210071. 5326.56  19
   4  -1  -1 213838. 5357.42  18
   4  -1  -1 213926. 5359.58  17
   4  -1  -1 209810. 5932.49   5
   4  -1  -1 211318. 5941.65   3
   4  -1   0 127237. 3486.37  20
   4  -1   0 130481. 3501.20  19
   4  -1   0 124820. 3470.00  18
   4  -1   0 123524. 3464.88  17
   4  -1   0 115254. 3924.02   5
   4  -1   0 114898. 4053.98   3
   4  -1   1 1716.66 619.085   5
   4  -1   1 1464.73 606.328   3
   4  -1   1 1813.15 372.906  20
   4  -1   1 1884.14 406.292  19
   4  -1   1 2710.71 468.962  18
   4  -1   1 2217.19 418.947  17
   4  -1   2 27404.3 1250.27  19
   4  -1   2 27081.4 1234.73  18
   4  -1   2 28483.8 1272.65  17
   4  -1   2 24162.8 1471.99   5
   4  -1   2 23984.0 1739.55   3
   4  -1   3 143347. 3642.86  19
   4  -1   3 143468. 3647.97  18
   4  -1   3 148740. 3668.96  17
   4  -1   3 134483. 3956.46   5
   4  -1   3 137822. 4740.18   3
   4  -1   4 63630.9 3057.66   3
   4  -1   5 14935.5 1515.58   3
   4  -1   6 15769.0 1630.58   3
   4  -1   7 27977.7 2189.42   3
   4  -1   8 32560.6 2508.72   3
   4  -1   9 20714.7 2158.31   8
   4  -1   9 25110.9 2314.93   3
   4   0 -12 1271.97 839.002   5
   4   0 -12 2503.70 774.530   2
   4   0 -11 19355.5 1952.78  15
   4   0 -11 17584.6 1943.15  14
   4   0 -11 16207.6 1900.81  20
   4   0 -11 16266.1 1887.78  18
   4   0 -11 17065.1 1755.15   5
   4   0 -11 14296.9 1695.17  17
   4   0 -10 75006.0 3989.76  15
   4   0 -10 75423.4 3992.16  14
   4   0 -10 78637.0 4089.83  20
   4   0 -10 76889.3 4028.26  18
   4   0 -10 80273.9 3855.47   5
   4   0 -10 74597.1 4036.92  17
   4   0  -9 42050.7 2762.78  15
   4   0  -9 45816.8 2922.08  14
   4   0  -9 38547.8 2725.59  20
   4   0  -9 43033.1 2772.62  18
   4   0  -9 46160.1 2831.42   5
   4   0  -9 47744.7 2920.28  17
   4   0  -9 49782.4 2523.63  10
   4   0  -8 12193.7 1453.18  15
   4   0  -8 11952.4 1374.65  14
   4   0  -8 14117.6 1519.46  20
   4   0  -8 10829.2 1373.56  18
   4   0  -8 13917.8 1469.87  17
   4   0  -8 13968.4 1517.97   5
   4   0  -8 13928.1 1286.27  10
   4   0  -7 21893.1 1850.97  15
   4   0  -7 22828.6 1849.60  14
   4   0  -7 24171.9 1899.56  20
   4   0  -7 21346.9 1796.60  18
   4   0  -7 20930.4 1802.60  17
   4   0  -7 21961.9 1827.70   5
   4   0  -7 25189.2 1535.09  10
   4   0  -6 74860.0 3272.15  15
   4   0  -6 78422.4 3337.05  14
   4   0  -6 76672.1 3290.14  20
   4   0  -6 76274.1 3265.36  18
   4   0  -6 76719.0 3297.67  17
   4   0  -6 80324.3 3508.19   5
   4   0  -5 123661. 4204.47  15
   4   0  -5 131678. 4280.78  14
   4   0  -5 122621. 4190.52  20
   4   0  -5 127557. 4223.59  18
   4   0  -5 120338. 4157.51  17
   4   0  -5 119447. 4390.25   5
   4   0  -4 42305.1 2099.82  15
   4   0  -4 42159.6 2073.97  20
   4   0  -4 40256.3 2044.46  18
   4   0  -4 41762.5 2078.16  17
   4   0  -4 40992.2 2292.66   5
   4   0  -3 3043.05 817.451   5
   4   0  -3 3610.38 630.828  15
   4   0  -3 3897.80 624.855  20
   4   0  -3 3119.63 581.661  19
   4   0  -3 4774.12 689.914  18
   4   0  -3 3637.45 634.456  17
   4   0  -2 11949.7 972.275  15
   4   0  -2 15646.9 1065.15  20
   4   0  -2 15684.1 1043.42  19
   4   0  -2 14828.2 1037.15  18
   4   0  -2 12154.1 967.165  17
   4   0  -2 14243.4 1296.70   5
   4   0  -1 86156.2 2685.97  15
   4   0  -1 89229.7 2044.88   7
   4   0  -1 85268.9 1904.34   4
   4   0  -1 92424.3 2042.80   7
   4   0  -1 83331.4 2658.80  20
   4   0  -1 89286.0 2692.66  19
   4   0  -1 83898.7 2661.72  18
   4   0  -1 91222.8 2726.12  17
   4   0  -1 85778.1 3245.67   5
   4   0   0 157179. 4829.44   3
   4   0   0 172363. 3970.72  20
   4   0   0 175032. 3963.51  19
   4   0   0 166621. 3941.51  18
   4   0   0 171420. 3957.32  17
   4   0   0 169880. 4742.05   5
   4   0   1 15567.1 818.750  20
   4   0   1 15838.9 837.062  19
   4   0   1 15311.8 825.949  18
   4   0   1 15105.8 821.358  17
   4   0   1 15397.9 1226.30   5
   4   0   1 12580.5 1242.08   3
   4   0   2 18024.4 824.190  19
   4   0   2 18360.2 826.457  18
   4   0   2 17919.8 819.128  17
   4   0   2 16339.9 1192.77   5
   4   0   3 196378. 5989.78   3
   4   0   3 211867. 5316.83   5
   4   0   4 113907. 4191.73   3
   4   0   5 18728.0 1658.70   3
   4   0   6 3879.44 896.517   3
   4   0   7 22880.5 1955.65   3
   4   0   8 49699.3 3243.77   8
   4   0   8 59304.9 3314.28   3
   4   0   9 13261.1 1843.63   8
   4   1 -12 2309.47 888.526   5
   4   1 -11 5267.50 976.738   5
   4   1 -11 5373.81 1249.47  15
   4   1 -11 2995.43 762.046  14
   4   1 -11 3449.42 1020.35  20
   4   1 -11 5531.42 1234.00  18
   4   1 -11 5897.72 1207.79  17
   4   1 -11 4385.23 1080.10  10
   4   1 -10 33838.6 2609.31  15
   4   1 -10 30612.4 2474.17  14
   4   1 -10 38704.5 2734.37  20
   4   1 -10 34066.6 2622.41  18
   4   1 -10 32415.8 2433.90   5
   4   1 -10 37140.3 2732.80  17
   4   1 -10 37350.3 2384.65  10
   4   1  -9 60162.6 3347.88  15
   4   1  -9 57256.7 3294.83  14
   4   1  -9 62418.4 3393.55  20
   4   1  -9 50055.3 3048.11  18
   4   1  -9 55539.5 3212.41  17
   4   1  -9 55065.5 3090.05   5
   4   1  -9 62524.7 2898.66  10
   4   1  -8 13352.0 1493.48  15
   4   1  -8 13093.6 1498.02  14
   4   1  -8 10084.7 1340.15  20
   4   1  -8 12362.1 1424.61  18
   4   1  -8 13678.1 1474.47   5
   4   1  -8 10890.9 1435.66  17
   4   1  -7 9569.94 1200.88   5
   4   1  -7 10130.5 1288.48  15
   4   1  -7 8758.59 1219.10  14
   4   1  -7 8109.55 1110.54  20
   4   1  -7 9937.37 1198.27  18
   4   1  -7 9075.62 1143.74  17
   4   1  -6 133974. 4687.73  15
   4   1  -6 139879. 4742.71  14
   4   1  -6 138487. 4723.34  20
   4   1  -6 141214. 4733.61  18
   4   1  -6 144527. 4774.23  17
   4   1  -6 143790. 4890.84   5
   4   1  -5 141838. 4527.02  15
   4   1  -5 138109. 4487.28  14
   4   1  -5 139261. 4502.27  20
   4   1  -5 141545. 4485.59  18
   4   1  -5 136454. 4456.26  17
   4   1  -5 135791. 4700.24   5
   4   1  -4 30241.1 1728.97  15
   4   1  -4 29001.1 1722.06  14
   4   1  -4 31008.8 932.244   4
   4   1  -4 28700.7 1687.16  20
   4   1  -4 29380.1 1702.48  18
   4   1  -4 26701.0 1641.43  17
   4   1  -4 30181.0 1958.41   5
   4   1  -3 8929.59 843.337  15
   4   1  -3 8515.16 388.470   4
   4   1  -3 9046.92 874.429  20
   4   1  -3 8921.13 851.163  18
   4   1  -3 8329.61 848.262  17
   4   1  -3 9217.31 1080.02   5
   4   1  -2 22299.2 1245.57  15
   4   1  -2 23715.7 760.157   7
   4   1  -2 24038.6 1270.33  20
   4   1  -2 25218.5 1294.64  19
   4   1  -2 23361.1 1254.29  18
   4   1  -2 24426.3 1293.74  17
   4   1  -2 21758.9 1598.60   5
   4   1  -1 149981. 3835.86  15
   4   1  -1 158574. 3547.07   7
   4   1  -1 152751. 3839.25  20
   4   1  -1 152526. 3823.82  19
   4   1  -1 150812. 3818.98  18
   4   1  -1 145403. 3802.81  17
   4   1  -1 146970. 4608.89   5
   4   1   0 161779. 4024.48   7
   4   1   0 169003. 3878.70  20
   4   1   0 166763. 3853.73  19
   4   1   0 161710. 3850.13  18
   4   1   0 165365. 3871.54  17
   4   1   0 156943. 4762.92   5
   4   1   1 33584.4 1970.25   3
   4   1   1 39928.3 1159.30  19
   4   1   1 37683.6 1155.68  18
   4   1   1 38478.1 1169.34  17
   4   1   1 35245.8 1846.69   5
   4   1   2 22363.3 1436.79   5
   4   1   2 22565.4 1635.13   3
   4   1   3 93684.3 3608.04   3
   4   1   3 93138.9 3075.84   5
   4   1   4 119061. 4294.50   3
   4   1   5 27528.0 1983.66   3
   4   1   6 2180.56 609.934   3
   4   1   6 2654.50 705.138   8
   4   1   7 17535.4 1838.47   8
   4   1   7 20335.9 1856.48   3
   4   1   8 43693.6 3068.16   8
   4   1   9 10263.4 1591.21   8
   4   2 -12 6260.99 1058.79   5
   4   2 -12 6617.12 1292.76  10
   4   2 -11 3883.45 961.404   5
   4   2 -11 3097.93 873.922  15
   4   2 -11 1827.61 726.262  14
   4   2 -11 2889.34 1034.88  20
   4   2 -11 3829.56 993.288  18
   4   2 -11 3516.64 952.796  17
   4   2 -11 3990.04 1108.09  10
   4   2 -10 30354.7 2384.41  15
   4   2 -10 30049.0 2447.44  14
   4   2 -10 27567.9 2402.54  20
   4   2 -10 29482.8 2381.93  18
   4   2 -10 34461.4 2548.97  17
   4   2 -10 27364.2 2156.89   5
   4   2 -10 32742.2 2270.28  10
   4   2  -9 67683.5 3614.81  15
   4   2  -9 68219.7 3632.69  14
   4   2  -9 66890.1 3625.07  20
   4   2  -9 70710.6 3599.37  18
   4   2  -9 73868.7 3700.21  17
   4   2  -9 71465.5 3480.40   5
   4   2  -8 29361.9 2138.75  15
   4   2  -8 25741.3 2030.28  14
   4   2  -8 25414.1 2049.88  20
   4   2  -8 29400.5 2195.06  18
   4   2  -8 28657.9 2159.49  17
   4   2  -8 27554.5 2050.06   5
   4   2  -7 8014.29 1094.98   5
   4   2  -7 8402.51 1155.58  15
   4   2  -7 8828.75 1152.43  14
   4   2  -7 5905.00 983.436  20
   4   2  -7 7239.58 1096.06  18
   4   2  -7 7701.94 1118.18  17
   4   2  -6 102295. 3925.87  15
   4   2  -6 97858.4 3848.15  14
   4   2  -6 88830.9 3764.05  20
   4   2  -6 100161. 3854.16  18
   4   2  -6 99382.4 3835.14  17
   4   2  -6 100075. 3970.91   5
   4   2  -5 188238. 5620.70  15
   4   2  -5 181588. 5556.01  14
   4   2  -5 204333. 4587.49   4
   4   2  -5 190574. 5628.73  20
   4   2  -5 188303. 5569.62  18
   4   2  -5 192749. 5631.54  17
   4   2  -5 195568. 5906.15   5
   4   2  -4 59972.0 2528.91  15
   4   2  -4 56714.9 2457.75  14
   4   2  -4 59340.6 1635.55   7
   4   2  -4 61462.7 1813.12   4
   4   2  -4 59833.5 2518.31  20
   4   2  -4 61590.3 2497.71  18
   4   2  -4 56431.6 2444.45  17
   4   2  -4 58206.8 2767.56   5
   4   2  -3 23212.6 1376.10  15
   4   2  -3 25579.0 1428.82  14
   4   2  -3 25477.5 950.349   7
   4   2  -3 21560.0 1326.02  20
   4   2  -3 22586.5 1346.89  18
   4   2  -3 25022.8 1419.39  17
   4   2  -3 26842.1 1775.19   5
   4   2  -2 43697.1 2264.77   5
   4   2  -2 44030.1 1746.59  15
   4   2  -2 45874.9 1489.24   7
   4   2  -2 40366.9 1694.22  20
   4   2  -2 45102.0 1739.70  18
   4   2  -2 43660.0 1742.17  17
   4   2  -1 140757. 3451.43  15
   4   2  -1 137388. 3534.29   7
   4   2  -1 138077. 3436.19  20
   4   2  -1 140187. 3422.17  19
   4   2  -1 139293. 3425.44  18
   4   2  -1 136161. 3415.25  17
   4   2   0 102624. 3677.12   5
   4   2   0 103404. 3109.94   7
   4   2   0 108475. 2591.93  20
   4   2   0 111682. 2565.45  19
   4   2   0 113817. 2598.21  18
   4   2   0 109500. 2589.21  17
   4   2   1 4515.56 778.559   5
   4   2   1 4889.45 664.123   7
   4   2   2 16239.7 1248.56   5
   4   2   2 16577.0 1386.22   3
   4   2   2 16772.5 1246.35   7
   4   2   3 66663.7 2595.03   5
   4   2   3 64910.0 2932.09   3
   4   2   4 102766. 3936.40   8
   4   2   4 108605. 3982.54   3
   4   2   5 44880.8 2610.12   8
   4   2   5 46877.0 2563.56   3
   4   2   6-65.8479 397.750   3
   4   2   6-826.331 636.480   8
   4   2   7 7886.13 1347.86   8
   4   2   8 32189.6 2634.60   8
   4   2   9 9442.49 1543.27   8
   4   3 -12 18367.8 1841.27   5
   4   3 -12 18169.9 2004.40  10
   4   3 -11 10315.1 1318.95   5
   4   3 -11 8287.31 1249.80  15
   4   3 -11 11229.9 1456.36  14
   4   3 -11 10327.8 1656.16  20
   4   3 -11 12717.1 1667.19  18
   4   3 -11 10436.5 1504.31  17
   4   3 -11 8547.48 1308.82  10
   4   3 -10 29496.6 2356.92  15
   4   3 -10 25125.2 2191.73  14
   4   3 -10 21163.8 2115.88  20
   4   3 -10 21496.8 2035.40  18
   4   3 -10 29709.5 2389.54  17
   4   3 -10 24076.5 2023.14   5
   4   3  -9 72749.0 3749.44  15
   4   3  -9 72575.8 3696.40  14
   4   3  -9 69894.0 3654.32  20
   4   3  -9 70151.4 3632.97  18
   4   3  -9 72547.2 3715.51  17
   4   3  -9 71277.0 3489.27   5
   4   3  -8 22340.8 1916.71  15
   4   3  -8 21993.7 1940.90  14
   4   3  -8 22721.9 1938.86  20
   4   3  -8 21734.8 1908.95  18
   4   3  -8 21178.3 1877.83  17
   4   3  -8 22257.5 1862.86   5
   4   3  -7 10476.2 1286.10  15
   4   3  -7 12054.3 1354.75  14
   4   3  -7 15943.3 1126.47   4
   4   3  -7 13142.6 1424.53  20
   4   3  -7 15096.8 1495.37  18
   4   3  -7 13703.5 1414.12  17
   4   3  -7 12174.4 1349.65   5
   4   3  -6 84100.8 3571.46  15
   4   3  -6 84142.7 3527.27  14
   4   3  -6 95283.6 2859.86   4
   4   3  -6 88117.0 3621.20  20
   4   3  -6 85878.1 3530.83  18
   4   3  -6 87405.3 3580.98  17
   4   3  -6 85484.5 3633.08   5
   4   3  -5 160398. 5305.16   5
   4   3  -5 155109. 5018.09  15
   4   3  -5 162464. 5076.69  14
   4   3  -5 174566. 4109.61   7
   4   3  -5 167778. 4258.19   4
   4   3  -5 162990. 5093.05  20
   4   3  -5 165760. 5087.90  18
   4   3  -5 167006. 5114.91  17
   4   3  -4 101702. 3876.24   5
   4   3  -4 101059. 3504.76  15
   4   3  -4 102900. 3535.41  14
   4   3  -4 105373. 2821.44   7
   4   3  -4 102878. 3541.46  20
   4   3  -4 107235. 3544.25  18
   4   3  -4 97331.9 3444.96  17
   4   3  -3 7385.77 1037.99   5
   4   3  -3 5309.31 681.325  15
   4   3  -3 6018.99 714.866  14
   4   3  -3 7062.37 618.635   7
   4   3  -3 6671.12 789.501  20
   4   3  -3 7224.58 773.728  18
   4   3  -3 6957.57 749.224  17
   4   3  -2 13925.8 1358.83   5
   4   3  -2 16634.2 1038.64  15
   4   3  -2 16746.3 1024.00  14
   4   3  -2 17271.8 1012.00   7
   4   3  -2 18520.5 1061.69  20
   4   3  -2 16788.5 1003.25  18
   4   3  -2 16967.1 1017.40  17
   4   3  -1 81748.1 3321.60   5
   4   3  -1 85097.1 2340.07  15
   4   3  -1 84494.8 2714.48   7
   4   3  -1 87171.5 2358.61  20
   4   3  -1 87472.8 2305.80  19
   4   3  -1 87916.8 2333.22  18
   4   3  -1 83226.0 2324.41  17
   4   3   0 47445.9 2401.87   5
   4   3   0 49889.4 2035.79   7
   4   3   1 12720.8 1224.50   5
   4   3   1 12381.6 1082.28   7
   4   3   2 9346.76 1037.87   5
   4   3   2 7496.80 910.304   8
   4   3   2 6637.97 883.685   7
   4   3   3 46773.2 2460.39   3
   4   3   3 48436.7 2279.46   5
   4   3   3 48402.8 2397.76   8
   4   3   3 51337.3 2505.39   7
   4   3   4 101143. 3866.24   8
   4   3   4 100786. 3940.37   7
   4   3   4 95803.7 3798.67   3
   4   3   5 28685.1 2102.19   8
   4   3   5 27572.6 1951.77   3
   4   3   6 1579.80 701.656   8
   4   3   7 12748.2 1589.29   8
   4   3   8 33937.7 2713.08   8
   4   4 -12 22217.7 2005.40   5
   4   4 -12 24518.5 2277.40  10
   4   4 -11 8337.23 1405.13   5
   4   4 -11 8907.87 1385.75  15
   4   4 -11 10086.4 1536.17  14
   4   4 -11 7987.90 1436.34  20
   4   4 -11 10396.1 1487.37  18
   4   4 -11 9143.94 1373.29  17
   4   4 -10 19637.6 1992.53  15
   4   4 -10 16874.0 1868.97  14
   4   4 -10 17487.2 1943.23  20
   4   4 -10 17275.9 1803.08  18
   4   4 -10 18313.4 1913.52  17
   4   4 -10 17592.7 1771.85   5
   4   4  -9 57240.2 3296.92  15
   4   4  -9 51148.6 3159.93  14
   4   4  -9 52707.1 3220.76  20
   4   4  -9 55799.8 3252.50  18
   4   4  -9 58778.8 3347.30  17
   4   4  -9 53850.8 3027.90   5
   4   4  -8 32305.6 2347.25  15
   4   4  -8 33985.5 2354.12  14
   4   4  -8 29621.2 2300.19  20
   4   4  -8 34350.7 2335.74  18
   4   4  -8 32160.4 2346.49  17
   4   4  -8 30763.4 2206.86   5
   4   4  -7 9132.53 1161.58   5
   4   4  -7 5937.46 1045.07  15
   4   4  -7 8912.32 1200.04  14
   4   4  -7 8737.54 892.142   4
   4   4  -7 8992.98 1215.32  20
   4   4  -7 8577.03 1149.90  17
   4   4  -6 40354.7 2449.59   5
   4   4  -6 41467.2 2417.69  15
   4   4  -6 43624.3 2450.74  14
   4   4  -6 44391.3 1840.91   7
   4   4  -6 46395.0 1991.22   4
   4   4  -6 39608.8 2401.16  20
   4   4  -6 40399.5 2364.82  17
   4   4  -5 102390. 4098.46   5
   4   4  -5 101601. 3834.31  15
   4   4  -5 108600. 3904.82  14
   4   4  -5 114153. 3248.87   7
   4   4  -5 107200. 3901.37  20
   4   4  -5 112392. 3941.00  18
   4   4  -5 102430. 3832.89  17
   4   4  -4 65558.0 3097.69   5
   4   4  -4 66164.0 2746.56  15
   4   4  -4 66173.3 2737.12  14
   4   4  -4 68787.2 2341.08   7
   4   4  -4 68668.5 2794.85  20
   4   4  -4 65521.1 2708.52  18
   4   4  -4 67948.8 2760.41  17
   4   4  -3 6207.91 962.732   5
   4   4  -3 6496.84 784.958  15
   4   4  -3 5878.56 757.565  14
   4   4  -3 6617.55 686.615   7
   4   4  -3 6572.40 765.738  20
   4   4  -3 5092.92 672.909  18
   4   4  -3 7349.24 810.233  17
   4   4  -2 11004.8 1260.53   5
   4   4  -2 11268.9 862.994  15
   4   4  -2 12191.7 892.711  14
   4   4  -2 13136.9 999.354   7
   4   4  -2 12867.1 907.214  20
   4   4  -2 13194.7 914.746  18
   4   4  -2 12848.8 892.628  17
   4   4  -1 107626. 4065.38   5
   4   4  -1 113466. 3523.93   7
   4   4   0 51868.0 2682.99   5
   4   4   0 60629.8 2460.85   7
   4   4   1 8807.01 1086.17   5
   4   4   1 9828.54 1029.60   7
   4   4   2 10596.9 1153.39   5
   4   4   2 9221.05 1056.79   7
   4   4   3 22710.6 1721.06   3
   4   4   3 24100.8 1706.33   5
   4   4   3 27428.0 1767.44   8
   4   4   3 23698.7 1805.49   7
   4   4   4 94734.3 3697.07   8
   4   4   4 83061.3 3768.00   7
   4   4   4 88452.0 3618.96   3
   4   4   5 39777.1 2488.47   8
   4   4   5 37687.3 2592.61   7
   4   4   5 39248.5 2353.16   3
   4   4   6 6637.11 1340.10   8
   4   4   6 5827.37 1033.73   7
   4   4   7 15562.4 1900.15   7
   4   5 -12 21924.5 2127.37   5
   4   5 -11 7812.59 1316.98   5
   4   5 -11 10376.6 1590.58  15
   4   5 -11 6785.75 1344.92  14
   4   5 -11 8467.05 1499.25  20
   4   5 -11 9222.84 1366.12  18
   4   5 -11 8933.70 1370.00  17
   4   5 -10 16921.8 1826.26  15
   4   5 -10 18897.1 1900.33  14
   4   5 -10 19979.7 1978.13  20
   4   5 -10 17092.0 1840.01  17
   4   5 -10 16715.9 1761.40   5
   4   5  -9 30649.1 2405.62  15
   4   5  -9 30597.1 2466.13  14
   4   5  -9 32570.5 2479.39  20
   4   5  -9 27191.6 2305.94  17
   4   5  -9 27723.9 2202.09   5
   4   5  -8 20628.8 1822.10   5
   4   5  -8 20904.2 1893.50  15
   4   5  -8 21622.0 1899.86  14
   4   5  -8 20817.4 1550.20   4
   4   5  -8 22913.9 2001.52  20
   4   5  -8 21626.3 1957.25  17
   4   5  -7 11093.0 1359.72   5
   4   5  -7 11828.2 1336.62  15
   4   5  -7 11886.6 1375.69  14
   4   5  -7 11343.1 1122.92   4
   4   5  -7 11256.9 1292.03  20
   4   5  -7 10473.1 1302.17  17
   4   5  -6 6863.16 1114.37   5
   4   5  -6 6946.50 1059.45  15
   4   5  -6 6760.73 1008.01  14
   4   5  -6 6576.49 1032.65  13
   4   5  -6 7535.98 877.437   7
   4   5  -6 7594.18 1096.15  20
   4   5  -6 7798.81 1069.89  17
   4   5  -5 82343.3 3650.77   5
   4   5  -5 80585.9 3368.72  15
   4   5  -5 78136.4 3320.47  14
   4   5  -5 77431.3 3273.77  13
   4   5  -5 84263.5 2916.79   7
   4   5  -5 85364.2 3445.83  20
   4   5  -5 82062.1 3372.44  17
   4   5  -4 109560. 4341.81   5
   4   5  -4 111620. 3836.78  15
   4   5  -4 114048. 3857.02  14
   4   5  -4 105140. 3767.07  13
   4   5  -4 114237. 3546.17   7
   4   5  -4 105748. 3781.37  20
   4   5  -4 112447. 3821.37  17
   4   5  -3 17802.1 1632.72   5
   4   5  -3 17680.3 1277.20  15
   4   5  -3 18159.8 1291.92  14
   4   5  -3 15969.7 1203.73   7
   4   5  -3 16880.2 1239.71  20
   4   5  -3 17329.7 1237.07  17
   4   5  -2 24825.2 1904.03   5
   4   5  -2 28006.6 1633.98   7
   4   5  -1 84425.7 3662.80   5
   4   5  -1 88399.5 3238.31   7
   4   5   0 63465.8 3082.50   5
   4   5   0 63167.4 2743.55   7
   4   5   1 11293.4 1263.50   5
   4   5   1 7718.96 1015.68   7
   4   5   2 2889.47 763.218   5
   4   5   2 2546.53 679.370   7
   4   5   3 40926.4 2377.47   3
   4   5   3 40444.7 2405.89   5
   4   5   3 40259.3 2482.99   7
   4   5   4 68988.0 3534.22   7
   4   5   4 74099.8 3292.00   3
   4   5   5 25589.1 2233.18   7
   4   5   6 8245.09 1332.18   7
   4   6 -12 13944.2 1660.83   5
   4   6 -11 9756.67 1301.49   5
   4   6 -11 10046.6 1468.84  15
   4   6 -11 9670.33 1533.52  14
   4   6 -11 10702.7 1574.90  20
   4   6 -11 10571.2 1472.05  17
   4   6 -10 16130.2 1889.79  15
   4   6 -10 18349.5 1999.71  14
   4   6 -10 22255.1 2197.94  20
   4   6 -10 19877.3 2062.79  17
   4   6 -10 14636.6 1705.42   5
   4   6  -9 24169.6 2089.89   5
   4   6  -9 24634.8 2206.81  15
   4   6  -9 24153.3 2163.35  14
   4   6  -9 24597.5 2199.31  13
   4   6  -9 27028.9 2314.12  20
   4   6  -9 25909.8 2285.46  17
   4   6  -8 18630.9 1784.74   5
   4   6  -8 16796.8 1790.58  15
   4   6  -8 17050.5 1749.74  14
   4   6  -8 15044.9 1704.66  13
   4   6  -8 22489.4 1704.54   4
   4   6  -8 15706.5 1684.78  20
   4   6  -8 18364.9 1787.53  17
   4   6  -7 20558.2 1900.33   5
   4   6  -7 18968.5 1830.60  15
   4   6  -7 17991.6 1736.36  14
   4   6  -7 18523.9 1737.45  13
   4   6  -7 20001.4 1785.01  20
   4   6  -7 19771.7 1780.50  17
   4   6  -6 21106.5 1892.10   5
   4   6  -6 21185.4 1818.41  15
   4   6  -6 21639.4 1802.12  14
   4   6  -6 21640.4 1802.75  13
   4   6  -6 22916.9 1576.17   7
   4   6  -6 22990.5 1872.79  20
   4   6  -6 19128.0 1714.59  17
   4   6  -5 50900.0 2944.52   5
   4   6  -5 50372.6 2645.45  15
   4   6  -5 51950.3 2694.67  14
   4   6  -5 49307.9 2616.50  13
   4   6  -5 53183.4 2417.30   7
   4   6  -5 53062.7 2716.59  20
   4   6  -5 51163.0 2651.73  17
   4   6  -4 109803. 4510.94   5
   4   6  -4 114076. 3972.30  15
   4   6  -4 109473. 3913.64  14
   4   6  -4 107110. 3902.24  13
   4   6  -4 114690. 3823.75   7
   4   6  -4 104264. 3855.12  20
   4   6  -4 113460. 3939.79  17
   4   6  -3 31429.0 2254.90   5
   4   6  -3 32660.8 1894.74   7
   4   6  -2 11627.5 1426.44   5
   4   6  -2 12721.2 1219.37   7
   4   6  -1 52000.3 2586.74   7
   4   6   0 62270.2 2938.63   7
   4   6   1 22229.5 1751.73   7
   4   6   2 1605.67 610.023   7
   4   6   3 17356.7 1752.60   7
   4   6   4 43059.5 2801.30   7
   4   6   5 8563.27 1338.17   7
   4   7 -10 26393.1 2254.73   5
   4   7 -10 25202.9 2435.66  15
   4   7 -10 23374.8 2347.28  14
   4   7 -10 26389.6 2464.11  13
   4   7 -10 24404.6 2313.57  20
   4   7 -10 24195.3 2286.03  17
   4   7  -9 38123.0 2759.08   5
   4   7  -9 43423.6 2974.77  15
   4   7  -9 37929.4 2870.19  14
   4   7  -9 37260.0 2825.72  13
   4   7  -9 39160.4 2542.35   4
   4   7  -9 43014.9 2962.03  20
   4   7  -9 43189.1 3010.07  17
   4   7  -8 34078.6 2570.78   5
   4   7  -8 33807.5 2611.18  15
   4   7  -8 35586.5 2622.26  14
   4   7  -8 37219.7 2706.00  13
   4   7  -8 35833.4 2324.46   4
   4   7  -8 31313.6 2465.18  20
   4   7  -8 33628.8 2527.02  17
   4   7  -7 13198.0 1504.11   5
   4   7  -7 15573.9 1661.21  15
   4   7  -7 16016.2 1733.77  14
   4   7  -7 16538.5 1759.60  13
   4   7  -7 19638.2 1607.08   7
   4   7  -7 18453.4 1754.33  20
   4   7  -7 16119.0 1690.57  17
   4   7  -6 14422.6 1621.47   5
   4   7  -6 17115.9 1612.89  15
   4   7  -6 15410.9 1630.92  14
   4   7  -6 16409.2 1613.12  13
   4   7  -6 16578.0 1501.06   7
   4   7  -6 16468.6 1613.66  20
   4   7  -6 13884.3 1510.88  17
   4   7  -5 43726.6 2765.25   5
   4   7  -5 39313.8 2435.97  15
   4   7  -5 44713.3 2552.20  14
   4   7  -5 36612.1 2342.13  13
   4   7  -5 41506.5 2276.65   7
   4   7  -5 41950.5 2472.06  20
   4   7  -5 45744.1 2566.98  17
   4   7  -4 29055.2 2313.59   5
   4   7  -4 33230.6 2036.42   7
   4   7  -3 35100.0 2528.87   5
   4   7  -3 33532.4 2073.52   7
   4   7  -2 21360.0 1676.57   7
   4   7  -1 19896.2 1700.44   7
   4   7   0 54970.8 2895.36   7
   4   7   1 16832.1 1663.97   7
   4   7   2-730.554 553.300   7
   4   7   3 5546.46 1175.39   7
   4   7   4 19007.0 2003.95   7
   4   8  -9 46218.5 3072.16   5
   4   8  -9 40134.5 3051.85  15
   4   8  -9 41767.0 3190.50  14
   4   8  -9 39149.7 3119.07  13
   4   8  -9 43610.1 2839.50   4
   4   8  -9 41634.7 3023.38  20
   4   8  -9 42424.4 2991.53  17
   4   8  -8 33620.5 2675.68   5
   4   8  -8 35969.7 2722.19  15
   4   8  -8 32317.9 2627.35  14
   4   8  -8 30392.6 2661.73  13
   4   8  -8 34691.0 2406.29   4
   4   8  -8 36999.2 2768.56  20
   4   8  -8 37606.1 2784.45  17
   4   8  -7 2226.81 791.883   5
   4   8  -7 3049.43 1070.79  15
   4   8  -7 3660.01 1002.26  14
   4   8  -7 5588.31 1235.40  13
   4   8  -7 4595.18 1028.86   7
   4   8  -7 2447.35 886.283  20
   4   8  -7 5863.95 1032.03  17
   4   8  -6 3374.12 903.216   5
   4   8  -6 3404.51 858.095   7
   4   8  -5 27326.0 2376.26   5
   4   8  -5 30094.3 2092.77   7
   4   8  -4 28792.1 2409.34   5
   4   8  -4 33263.1 2167.10   7
   4   8  -3 16102.9 1524.96   7
   4   8  -2 21759.3 1827.79   7
   4   8  -1 14197.7 1591.83   7
   4   8   0 25990.1 2085.77   7
   4   8   1 18428.2 1854.95   7
   4   8   2 2635.52 915.024   7
   4   8   3 10807.6 1589.92   7
   4   9  -9 17496.2 2075.95  15
   4   9  -9 15324.8 2123.06  14
   4   9  -9 17219.1 1840.94   4
   4   9  -9 14375.0 1974.17  13
   4   9  -9 12239.3 1701.32  20
   4   9  -9 13063.2 1652.32  17
   4   9  -8 43582.4 3138.94  15
   4   9  -8 37984.6 3047.31  14
   4   9  -6 2583.49 774.099   5
   4   9  -6 2736.73 858.997   7
   4   9  -5 19992.9 2044.42   5
   4   9  -5 18081.7 1711.44   7
   4   9  -4 26501.1 2097.00   7
   4   9  -3 19232.3 1809.48   7
   4   9  -2 5763.53 1106.93   7
   4   9  -1 20916.1 1944.97   7
   4   9   0 42550.5 2891.14   7
   4   9   1 18330.3 1992.22   7
   4  10  -6 1039.45 841.521   7
   4  10  -5 6615.60 1118.51   7
   4  10  -4 22921.8 2145.31   7
   4  10  -3 24430.8 2182.18   7
   5  -9   1 2795.46 870.425   3
   5  -8  -3 2025.92 897.696   2
   5  -8  -2 3345.80 903.933   2
   5  -8  -2 1987.98 808.502  20
   5  -8  -2 829.820 521.180  19
   5  -8  -2 1546.84 627.003  18
   5  -8  -2 2721.77 772.382  17
   5  -8  -1 20530.0 2020.27  20
   5  -8  -1 26252.4 2163.58  19
   5  -8  -1 21331.5 2201.74   2
   5  -8  -1 20656.3 1953.90  18
   5  -8  -1 22208.7 2097.36  17
   5  -8   0 76358.7 3807.37  19
   5  -8   0 67688.3 4024.49   3
   5  -8   0 69829.4 3735.94  18
   5  -8   0 73530.1 3839.86  17
   5  -8   1 23909.1 2170.62  19
   5  -8   1 29702.5 2675.17   3
   5  -8   1 26791.9 2199.35  18
   5  -8   1 25625.9 2185.90  17
   5  -8   2 225.067 854.170   3
   5  -8   2 570.566 595.916  19
   5  -8   2 1254.08 529.074  18
   5  -8   2 548.308 662.087  17
   5  -8   3 20801.9 1934.09  19
   5  -8   3 24841.8 2579.63   3
   5  -8   3 22322.4 2036.83  18
   5  -8   3 23954.4 2126.85  17
   5  -8   4 43770.9 2900.94  19
   5  -8   4 44324.2 2898.26  18
   5  -8   4 41868.4 2783.34  17
   5  -8   5 16959.7 1859.87  19
   5  -8   5 16868.9 1867.19  18
   5  -8   5 14663.1 1999.34  17
   5  -7  -5 13753.6 1946.96   2
   5  -7  -4 18294.7 1870.43  20
   5  -7  -4 15171.6 1719.96  19
   5  -7  -4 15351.4 1706.74  18
   5  -7  -4 18033.0 2094.34   2
   5  -7  -4 14595.5 1798.05  17
   5  -7  -3 22577.2 2008.48  20
   5  -7  -3 22162.0 1983.81  19
   5  -7  -3 19416.6 1910.43  18
   5  -7  -3 21165.0 2234.43   2
   5  -7  -3 20110.7 2027.65  17
   5  -7  -2 10484.5 1576.58   2
   5  -7  -2 9266.64 1325.20  20
   5  -7  -2 9427.46 1303.15  19
   5  -7  -2 10166.7 1339.02  18
   5  -7  -2 11308.1 1421.56  17
   5  -7  -1 25622.0 2127.70  20
   5  -7  -1 24896.7 2072.16  19
   5  -7  -1 28590.7 2417.08   3
   5  -7  -1 26638.7 2107.21  18
   5  -7  -1 28084.0 2337.57   2
   5  -7  -1 25864.6 2155.31  17
   5  -7   0 81906.0 3924.73  20
   5  -7   0 84313.3 3899.14  19
   5  -7   0 87678.3 4475.94   3
   5  -7   0 91187.8 4051.87  18
   5  -7   0 97143.8 4239.27   2
   5  -7   0 89766.6 4035.91  17
   5  -7   1 45386.5 2729.76  19
   5  -7   1 42355.4 3103.98   3
   5  -7   1 44681.3 2741.29  18
   5  -7   1 45117.3 2779.19  17
   5  -7   2 4943.73 1117.32   3
   5  -7   2 6124.72 927.413  19
   5  -7   2 4806.30 939.705  18
   5  -7   2 3604.28 931.592  17
   5  -7   3 12022.5 1831.80   3
   5  -7   3 12288.7 1507.04  19
   5  -7   3 13434.9 1488.55  18
   5  -7   3 12083.5 1478.26  17
   5  -7   4 66478.4 3394.30  19
   5  -7   4 62758.8 4117.55   3
   5  -7   4 69014.7 3503.47  18
   5  -7   4 70423.5 3539.19  17
   5  -7   5 42821.4 2780.69  19
   5  -7   5 44484.1 3494.53   3
   5  -7   5 43940.8 2811.45  18
   5  -7   5 48556.9 2911.38  17
   5  -7   6 1776.09 835.471  19
   5  -6  -6 12443.7 1753.32   5
   5  -6  -6 10478.4 1694.50   2
   5  -6  -6 13880.2 1749.39  20
   5  -6  -6 11550.7 1608.12  19
   5  -6  -6 13528.1 1699.30  18
   5  -6  -6 12365.7 1608.67  17
   5  -6  -5 37743.4 2726.12  20
   5  -6  -5 36109.1 2665.20  19
   5  -6  -5 35308.4 2666.13  18
   5  -6  -5 37390.9 2948.37   5
   5  -6  -5 35711.3 2947.71   2
   5  -6  -5 36387.0 2669.36  17
   5  -6  -4 32009.1 2483.30  20
   5  -6  -4 29936.0 2323.13  19
   5  -6  -4 33687.0 2451.47  18
   5  -6  -4 33483.6 2780.22   5
   5  -6  -4 31894.1 2409.04  17
   5  -6  -4 35880.7 2761.79   2
   5  -6  -3 26432.2 2151.19  20
   5  -6  -3 22968.0 1983.38  19
   5  -6  -3 22948.0 1966.37  18
   5  -6  -3 24048.8 2306.17   5
   5  -6  -3 23660.2 2040.35  17
   5  -6  -3 20566.1 2114.95   2
   5  -6  -2 12730.1 1715.29   5
   5  -6  -2 16668.2 1656.50  20
   5  -6  -2 17475.4 1684.00  19
   5  -6  -2 18338.8 1657.18  18
   5  -6  -2 18334.4 1747.47   3
   5  -6  -2 14301.0 1520.96  17
   5  -6  -2 15302.9 1738.93   2
   5  -6  -1 22340.8 1866.34  20
   5  -6  -1 22897.7 1856.60  19
   5  -6  -1 23208.4 1904.33  18
   5  -6  -1 24689.2 2100.54   3
   5  -6  -1 22343.2 2072.15   5
   5  -6  -1 22411.3 1925.81  17
   5  -6  -1 27327.2 2183.27   2
   5  -6   0 67903.1 3329.90  20
   5  -6   0 67881.9 3277.99  19
   5  -6   0 68518.8 3332.84  18
   5  -6   0 65255.0 3637.05   3
   5  -6   0 76458.3 3514.49  17
   5  -6   0 73865.7 3522.81   2
   5  -6   1 54104.1 2842.04  19
   5  -6   1 49387.8 2754.02  18
   5  -6   1 47965.6 3134.54   3
   5  -6   1 51491.2 2783.12  17
   5  -6   2 13776.2 1709.03   3
   5  -6   2 15299.4 1496.48  19
   5  -6   2 14819.5 1500.18  18
   5  -6   2 13962.6 1463.67  17
   5  -6   3 15125.3 1551.06  19
   5  -6   3 14471.3 1459.53  18
   5  -6   3 16951.9 2000.46   3
   5  -6   3 15959.7 1567.41  17
   5  -6   4 37802.8 2428.98  18
   5  -6   4 33572.6 2898.69   3
   5  -6   4 36889.0 2403.27  17
   5  -6   5 48687.7 2776.01  19
   5  -6   5 46554.4 3421.10   3
   5  -6   5 46468.3 2755.32  18
   5  -6   5 51791.3 2871.28  17
   5  -6   6 3066.80 904.877   3
   5  -5  -7 27016.2 2406.17  15
   5  -5  -7 34884.3 2660.06  20
   5  -5  -7 26643.8 2377.72  19
   5  -5  -7 25643.4 2335.74  18
   5  -5  -7 24870.4 2520.87   5
   5  -5  -7 30486.5 2473.28  17
   5  -5  -7 30148.0 2678.24   2
   5  -5  -6 25118.7 2186.07  15
   5  -5  -6 16319.2 1800.08  20
   5  -5  -6 21712.5 2043.49  19
   5  -5  -6 19584.2 1913.77  18
   5  -5  -6 19290.3 2110.02   5
   5  -5  -6 22863.7 2058.72  17
   5  -5  -6 18908.1 2157.74   2
   5  -5  -5 31544.6 2357.78  20
   5  -5  -5 25092.1 2145.02  19
   5  -5  -5 29865.8 2330.75  18
   5  -5  -5 29765.8 2594.42   5
   5  -5  -5 26654.1 2160.64  17
   5  -5  -5 29622.5 2542.13   2
   5  -5  -4 41983.3 2655.59  20
   5  -5  -4 42159.3 2643.92  19
   5  -5  -4 40611.7 2606.93  18
   5  -5  -4 41162.8 2905.69   5
   5  -5  -4 38473.5 2540.28  17
   5  -5  -4 40018.6 2878.68   2
   5  -5  -3 17310.0 1649.45  20
   5  -5  -3 20871.7 1723.71  19
   5  -5  -3 18489.3 1692.55  18
   5  -5  -3 20855.2 1766.20   3
   5  -5  -3 21948.1 2023.21   5
   5  -5  -3 19019.4 1746.35  17
   5  -5  -3 18119.8 1906.45   2
   5  -5  -2 4484.24 976.852   5
   5  -5  -2 4653.14 975.533   3
   5  -5  -2 5891.46 1123.06   2
   5  -5  -2 2842.00 741.583  20
   5  -5  -2 4923.64 903.897  19
   5  -5  -2 3437.07 688.137  18
   5  -5  -2 4987.89 894.732  17
   5  -5  -1 32272.8 2149.80  20
   5  -5  -1 34340.1 2168.31  19
   5  -5  -1 31328.4 2086.46  18
   5  -5  -1 36300.4 2475.09   3
   5  -5  -1 30281.9 2291.49   5
   5  -5  -1 32786.3 2130.06  17
   5  -5  -1 27140.8 2199.62   2
   5  -5   0 63988.5 3024.65  20
   5  -5   0 66580.3 3082.06  19
   5  -5   0 69306.9 3120.50  18
   5  -5   0 61101.5 3438.44   3
   5  -5   0 63818.9 3330.94   5
   5  -5   0 67099.9 3071.63  17
   5  -5   0 63861.1 3241.88   2
   5  -5   1 48350.3 2533.02  20
   5  -5   1 51336.0 2623.85  19
   5  -5   1 50458.8 2632.33  18
   5  -5   1 45772.1 2935.07   3
   5  -5   1 46678.5 2701.46   5
   5  -5   1 48850.8 2570.70  17
   5  -5   1 48780.9 2660.51   2
   5  -5   2 17826.2 1501.75  19
   5  -5   2 16403.0 1453.80  18
   5  -5   2 18301.4 1903.30   3
   5  -5   2 17169.5 1515.06  17
   5  -5   3 7955.89 1345.41   3
   5  -5   3 10135.9 1180.43  19
   5  -5   3 8947.64 1095.21  18
   5  -5   3 8693.51 1125.04  17
   5  -5   4 44144.2 2447.21  19
   5  -5   4 44656.2 2500.59  18
   5  -5   4 38560.5 3010.85   3
   5  -5   4 46836.2 2535.00  17
   5  -5   5 40587.2 3138.14   3
   5  -5   6 7697.39 1581.10   3
   5  -5   7 3348.77 1027.70   3
   5  -4  -8 57733.6 3526.20  15
   5  -4  -8 50343.5 3348.11  20
   5  -4  -8 54063.1 3391.16  19
   5  -4  -8 56755.5 3493.67  18
   5  -4  -8 58393.2 3665.06   5
   5  -4  -8 53455.7 3426.59  17
   5  -4  -8 56562.2 3740.64   2
   5  -4  -7 34397.9 2572.88  15
   5  -4  -7 30421.4 2466.16  20
   5  -4  -7 27416.5 2381.37  19
   5  -4  -7 33047.8 2570.97  18
   5  -4  -7 28722.6 2513.03   5
   5  -4  -7 31713.2 2474.10  17
   5  -4  -7 33468.7 2793.25   2
   5  -4  -6 11023.7 1581.47   5
   5  -4  -6 12320.8 1502.91  15
   5  -4  -6 12087.2 1725.32   2
   5  -4  -6 12494.2 1549.99  20
   5  -4  -6 11715.3 1500.83  19
   5  -4  -6 13066.9 1607.23  18
   5  -4  -6 12418.4 1504.93  17
   5  -4  -5 15768.4 1714.79  15
   5  -4  -5 18607.6 1776.20  20
   5  -4  -5 13348.1 1484.22  19
   5  -4  -5 18236.1 1703.22  18
   5  -4  -5 14712.4 1765.07   5
   5  -4  -5 17431.8 1718.02  17
   5  -4  -4 43433.3 2610.24  20
   5  -4  -4 42526.8 2561.58  19
   5  -4  -4 40400.9 2504.31  18
   5  -4  -4 43830.1 2860.11   5
   5  -4  -4 41086.1 2467.00   3
   5  -4  -4 40192.2 2483.11  17
   5  -4  -3 33634.4 2264.89  20
   5  -4  -3 33283.0 2181.86  19
   5  -4  -3 37093.2 2279.42  18
   5  -4  -3 34995.1 2564.11   5
   5  -4  -3 36023.1 2311.87   3
   5  -4  -3 37684.1 2304.26  17
   5  -4  -2 5019.05 1036.36   5
   5  -4  -2 5147.75 971.707   3
   5  -4  -2 5739.62 907.698  20
   5  -4  -2 4295.07 786.375  19
   5  -4  -2 5286.37 869.112  18
   5  -4  -2 6357.13 942.549  17
   5  -4  -1 19732.6 1573.67  20
   5  -4  -1 19700.7 1569.24  19
   5  -4  -1 21093.3 1605.20  18
   5  -4  -1 21044.3 1868.29   5
   5  -4  -1 20995.2 1884.89   3
   5  -4  -1 22415.0 1684.08  17
   5  -4   0 54171.7 2581.19  20
   5  -4   0 58009.4 2666.90  19
   5  -4   0 53895.4 2576.36  18
   5  -4   0 52669.8 2911.32   5
   5  -4   0 54186.5 3043.38   3
   5  -4   0 54144.7 2612.67  17
   5  -4   1 40951.6 2182.43  20
   5  -4   1 40647.3 2198.49  19
   5  -4   1 39383.5 2157.21  18
   5  -4   1 41525.3 2448.92   5
   5  -4   1 37788.0 2566.63   3
   5  -4   1 38953.1 2152.71  17
   5  -4   2 32366.1 1915.60  19
   5  -4   2 35363.0 1993.79  18
   5  -4   2 30365.1 2008.31   5
   5  -4   2 29497.7 2406.59   3
   5  -4   2 32778.3 1954.05  17
   5  -4   3 15523.3 1365.22  19
   5  -4   3 17816.7 1463.81  18
   5  -4   3 18715.8 1887.90   3
   5  -4   3 17337.4 1420.68  17
   5  -4   4 62324.4 3605.90   3
   5  -4   5 82333.0 4321.52   3
   5  -4   6 11677.7 1680.23   3
   5  -4   7 6721.79 1496.32   3
   5  -3  -9 9120.11 1406.68   5
   5  -3  -9 9164.15 1441.09  15
   5  -3  -9 14613.2 1937.11   2
   5  -3  -9 11257.3 1667.63  20
   5  -3  -9 12868.3 1616.36  19
   5  -3  -9 12122.4 1579.23  18
   5  -3  -9 11874.3 1496.81  17
   5  -3  -8 37695.6 2752.20  15
   5  -3  -8 36849.6 2773.06  20
   5  -3  -8 36592.7 2714.99  19
   5  -3  -8 38011.3 2837.54  18
   5  -3  -8 37179.4 2905.81   5
   5  -3  -8 40597.2 2861.32  17
   5  -3  -7 39204.5 2791.17  15
   5  -3  -7 42818.7 2954.37  20
   5  -3  -7 44753.4 2893.60  19
   5  -3  -7 44404.5 2898.25  18
   5  -3  -7 47132.1 3163.63   5
   5  -3  -7 43669.1 2909.63  17
   5  -3  -6 11793.6 1473.61  15
   5  -3  -6 12199.7 1511.47  20
   5  -3  -6 15445.7 1595.47  19
   5  -3  -6 12087.2 1530.69  18
   5  -3  -6 15099.2 1679.35   5
   5  -3  -6 13197.6 1492.65  17
   5  -3  -5 19727.1 1722.20  15
   5  -3  -5 15590.4 1568.81  20
   5  -3  -5 17800.6 1648.05  19
   5  -3  -5 19425.4 1733.91  18
   5  -3  -5 16334.9 1763.28   5
   5  -3  -5 17579.0 1606.15  17
   5  -3  -5 17923.6 1505.10   3
   5  -3  -4 82075.5 3559.83  15
   5  -3  -4 82744.6 3537.60  20
   5  -3  -4 81182.1 3489.17  19
   5  -3  -4 75406.3 3418.38  18
   5  -3  -4 79333.2 3853.91   5
   5  -3  -4 73458.9 3390.82  17
   5  -3  -4 78129.1 3449.70   3
   5  -3  -3 36509.2 2231.40  20
   5  -3  -3 38153.0 2231.80  19
   5  -3  -3 37244.0 2212.13  18
   5  -3  -3 37159.5 2512.25   5
   5  -3  -3 36387.9 2235.70  17
   5  -3  -3 38415.3 2336.44   3
   5  -3  -2 9413.10 1224.53   5
   5  -3  -2 10621.5 1146.85  20
   5  -3  -2 10704.7 1132.83  19
   5  -3  -2 11782.3 1169.96  18
   5  -3  -2 9212.53 1061.51  17
   5  -3  -2 9997.93 1193.79   3
   5  -3  -1 22148.5 1565.96  20
   5  -3  -1 21999.8 1558.27  19
   5  -3  -1 21689.4 1544.55  18
   5  -3  -1 19243.1 1738.40   5
   5  -3  -1 21127.7 1529.51  17
   5  -3  -1 23046.7 1880.44   3
   5  -3   0 46997.0 2250.89  20
   5  -3   0 43593.9 2209.38  19
   5  -3   0 46492.6 2269.31  18
   5  -3   0 53320.1 2756.83   5
   5  -3   0 50668.0 2328.45  17
   5  -3   0 44275.6 2670.51   3
   5  -3   1 79729.9 3022.55  20
   5  -3   1 78876.7 2992.47  19
   5  -3   1 80236.8 3023.49  18
   5  -3   1 81451.1 3423.51   5
   5  -3   1 78268.5 3007.72  17
   5  -3   1 74522.3 3648.21   3
   5  -3   2 56619.0 2408.69  19
   5  -3   2 51053.3 2304.32  18
   5  -3   2 52089.3 2572.43   5
   5  -3   2 54379.6 2399.67  17
   5  -3   2 47651.3 2928.92   3
   5  -3   3 38001.9 1941.87  19
   5  -3   3 40567.6 1993.23  18
   5  -3   3 33754.4 2539.58   3
   5  -3   4 57446.2 3426.35   3
   5  -3   5 57099.5 3439.03   3
   5  -3   6 18148.0 1995.38   3
   5  -3   7 584.466 879.352   3
   5  -3   8 7548.32 1483.21   3
   5  -2 -10 1604.26 568.972   5
   5  -2  -9 6039.81 1199.73   5
   5  -2  -9 7818.61 1337.70  15
   5  -2  -9 6197.84 1233.41  20
   5  -2  -9 4323.99 959.222  19
   5  -2  -9 6663.59 1213.71  18
   5  -2  -9 5600.37 1187.08  17
   5  -2  -8 48711.7 3119.84  15
   5  -2  -8 40106.2 2843.81  20
   5  -2  -8 42717.2 2902.75  19
   5  -2  -8 47219.5 3022.12  18
   5  -2  -8 45993.3 3086.52   5
   5  -2  -8 43964.0 2993.17  17
   5  -2  -7 81434.9 3933.52  15
   5  -2  -7 78752.3 3835.46  20
   5  -2  -7 82813.5 3888.14  19
   5  -2  -7 73321.1 3713.04  18
   5  -2  -7 76626.6 4004.25   5
   5  -2  -7 78844.4 3807.98  17
   5  -2  -6 26388.8 2116.28  15
   5  -2  -6 25357.3 2037.77  20
   5  -2  -6 27508.5 2038.42  19
   5  -2  -6 25739.6 1989.80  18
   5  -2  -6 26592.7 2254.16   5
   5  -2  -6 28110.6 2097.70  17
   5  -2  -6 26922.8 1886.95   3
   5  -2  -5 11446.4 1326.09  15
   5  -2  -5 12615.1 1368.49  20
   5  -2  -5 12266.2 1340.64  19
   5  -2  -5 11277.6 1296.91  18
   5  -2  -5 13098.6 1548.23   5
   5  -2  -5 11945.7 1367.30  17
   5  -2  -5 12853.0 1260.41   3
   5  -2  -4 88151.3 3618.99  15
   5  -2  -4 85172.8 3560.19  20
   5  -2  -4 84790.9 3537.73  19
   5  -2  -4 91356.8 3623.25  18
   5  -2  -4 94441.2 3649.43  17
   5  -2  -4 90017.6 4043.17   5
   5  -2  -4 86207.4 3652.91   3
   5  -2  -3 93418.8 3539.89  15
   5  -2  -3 92355.1 3521.17  20
   5  -2  -3 88239.1 3426.25  19
   5  -2  -3 87137.8 3417.64  18
   5  -2  -3 81305.3 3346.60  17
   5  -2  -3 91018.7 3982.98   5
   5  -2  -3 84470.6 3622.94   3
   5  -2  -2 16300.2 1356.55  20
   5  -2  -2 20293.6 1446.76  19
   5  -2  -2 16651.3 1332.84  18
   5  -2  -2 16265.6 1316.40  17
   5  -2  -2 15219.2 1557.61   5
   5  -2  -2 15641.0 1475.82   3
   5  -2  -1 28122.2 1669.91  20
   5  -2  -1 30325.7 1707.11  19
   5  -2  -1 31122.0 1743.81  18
   5  -2  -1 27767.0 1676.40  17
   5  -2  -1 27751.5 2014.08   5
   5  -2  -1 27280.5 1979.04   3
   5  -2   0 64567.3 2520.28  20
   5  -2   0 60412.0 2456.64  19
   5  -2   0 59590.4 2453.63  18
   5  -2   0 61512.1 2483.50  17
   5  -2   0 60016.9 2923.52   5
   5  -2   0 59571.4 3057.06   3
   5  -2   1 77380.1 2770.08  20
   5  -2   1 76948.3 2759.02  19
   5  -2   1 80426.5 2809.13  18
   5  -2   1 81787.5 2845.78  17
   5  -2   1 69367.2 3122.36   5
   5  -2   1 70715.4 3425.79   3
   5  -2   2 32840.0 1646.69  19
   5  -2   2 34010.1 1680.83  18
   5  -2   2 34204.4 1710.61  17
   5  -2   2 32362.5 1955.89   5
   5  -2   2 27728.2 2180.38   3
   5  -2   3 15141.0 1675.00   3
   5  -2   4 51422.5 3092.02   3
   5  -2   5 37459.9 2666.46   3
   5  -2   6 21189.7 2095.16   3
   5  -2   7 9227.58 1468.54   3
   5  -2   8 2828.90 1089.78   3
   5  -1 -10 8461.89 1371.59   5
   5  -1 -10 8260.77 1320.88  15
   5  -1 -10 8388.82 1447.84  20
   5  -1 -10 6839.23 1218.35  19
   5  -1 -10 9325.95 1532.72  18
   5  -1 -10 6421.57 1206.67  17
   5  -1  -9 9536.22 1366.17   5
   5  -1  -9 12291.7 1528.17  15
   5  -1  -9 9668.80 1385.48  20
   5  -1  -9 11808.3 1480.02  19
   5  -1  -9 9975.83 1498.05  18
   5  -1  -9 13164.4 1646.49  17
   5  -1  -8 38786.0 2746.54  15
   5  -1  -8 40425.6 2779.14  20
   5  -1  -8 36529.0 2616.03  19
   5  -1  -8 36447.3 2630.11  18
   5  -1  -8 39491.7 2765.07   5
   5  -1  -8 38560.1 2708.03  17
   5  -1  -7 91545.2 3740.79   3
   5  -1  -7 86404.5 4007.68  15
   5  -1  -7 86287.7 4000.26  20
   5  -1  -7 91586.5 4059.21  19
   5  -1  -7 85691.6 3969.80  18
   5  -1  -7 95574.7 4312.63   5
   5  -1  -7 84518.8 3939.22  17
   5  -1  -6 26930.0 1912.62   3
   5  -1  -6 30298.4 2190.74  15
   5  -1  -6 29139.0 2143.05  20
   5  -1  -6 31344.7 2171.38  19
   5  -1  -6 31705.8 2198.02  18
   5  -1  -6 34933.0 2266.16  17
   5  -1  -6 33877.6 2437.45   5
   5  -1  -5 15323.7 1459.75   3
   5  -1  -5 18152.5 1568.47  15
   5  -1  -5 14606.0 1432.22  20
   5  -1  -5 17061.6 1495.39  19
   5  -1  -5 17529.9 1576.49  18
   5  -1  -5 18360.8 1596.22  17
   5  -1  -5 16496.7 1697.34   5
   5  -1  -4 67665.9 3204.37   3
   5  -1  -4 69958.4 3059.28  15
   5  -1  -4 72840.9 3100.41  20
   5  -1  -4 76114.7 3126.33  19
   5  -1  -4 71770.1 3074.14  18
   5  -1  -4 71871.7 3044.32  17
   5  -1  -4 71867.0 3526.12   5
   5  -1  -3 119902. 4500.56   3
   5  -1  -3 124795. 4165.93  15
   5  -1  -3 128614. 4198.92  20
   5  -1  -3 131699. 4213.55  19
   5  -1  -3 127520. 4186.44  18
   5  -1  -3 128739. 4201.02  17
   5  -1  -3 124657. 4759.81   5
   5  -1  -2 59466.1 2483.70  15
   5  -1  -2 54164.4 2409.67  20
   5  -1  -2 58913.6 2424.66  19
   5  -1  -2 58163.4 2440.74  18
   5  -1  -2 53002.6 2368.34  17
   5  -1  -2 55194.9 2890.50   5
   5  -1  -2 50168.0 2763.04   3
   5  -1  -1 1407.76 645.592   5
   5  -1  -1 1470.13 533.024   3
   5  -1  -1 883.940 407.381  20
   5  -1  -1 1212.63 359.962  19
   5  -1  -1 1588.55 376.875  18
   5  -1  -1 1089.42 451.866  17
   5  -1   0 25742.2 1400.63  20
   5  -1   0 23132.5 1345.44  19
   5  -1   0 24329.1 1348.29  18
   5  -1   0 24411.1 1366.76  17
   5  -1   0 24081.9 1808.09   5
   5  -1   0 19379.2 1718.34   3
   5  -1   1 77640.1 2551.86  18
   5  -1   1 76942.3 2554.35  17
   5  -1   1 67788.8 3057.00   5
   5  -1   1 69324.9 3356.04   3
   5  -1   2 15801.7 1348.21   5
   5  -1   2 16215.9 1567.91   3
   5  -1   3 12342.2 1477.73   3
   5  -1   4 52547.3 3038.61   3
   5  -1   5 50849.3 3150.60   3
   5  -1   6 25510.8 2240.96   3
   5  -1   7 7876.93 1348.78   3
   5  -1   8 6101.10 1383.58   3
   5   0 -11 19192.4 2178.51   5
   5   0 -10 3401.91 933.983   5
   5   0 -10 4075.88 1055.85  15
   5   0 -10 2506.35 741.083  20
   5   0 -10 1852.19 857.493  18
   5   0 -10 4026.04 888.649  17
   5   0  -9 10389.5 1473.18   5
   5   0  -9 11744.4 1537.88  15
   5   0  -9 10487.8 1474.77  20
   5   0  -9 11693.4 1590.31  18
   5   0  -9 8234.00 1315.79  17
   5   0  -8 44119.4 2905.02  15
   5   0  -8 38864.4 2757.54  20
   5   0  -8 42329.0 2776.79  18
   5   0  -8 42434.0 2776.29  17
   5   0  -8 45523.6 2953.22   5
   5   0  -7 61215.1 3225.65  15
   5   0  -7 64072.6 3292.92  20
   5   0  -7 62147.6 3228.30  18
   5   0  -7 61512.8 3239.79  17
   5   0  -7 62712.2 3483.18   5
   5   0  -6 31692.8 2159.16  15
   5   0  -6 32179.0 2173.42  20
   5   0  -6 31975.1 2123.06  19
   5   0  -6 32425.6 2175.05  18
   5   0  -6 30558.0 2121.92  17
   5   0  -6 31327.8 2370.64   5
   5   0  -5 23161.6 1738.08  15
   5   0  -5 24442.5 1792.29  20
   5   0  -5 25128.1 1786.67  19
   5   0  -5 22920.4 1735.18  18
   5   0  -5 19833.6 1627.01  17
   5   0  -5 23984.1 2021.31   5
   5   0  -4 45504.7 2323.88  15
   5   0  -4 44835.2 2308.60  20
   5   0  -4 44999.0 2304.86  19
   5   0  -4 44872.9 2313.75  18
   5   0  -4 46921.1 2327.30  17
   5   0  -4 40161.7 2558.48   5
   5   0  -3 84093.4 3094.29  15
   5   0  -3 82510.8 3084.13  20
   5   0  -3 80185.6 3034.53  19
   5   0  -3 81164.7 3036.24  18
   5   0  -3 81828.1 3070.88  17
   5   0  -3 80872.1 3633.47   5
   5   0  -2 61645.1 3056.87   3
   5   0  -2 70995.4 2633.81  15
   5   0  -2 67004.1 2572.12  20
   5   0  -2 72165.3 2624.93  19
   5   0  -2 71834.8 2630.99  18
   5   0  -2 66062.7 2553.55  17
   5   0  -2 63018.5 3122.40   5
   5   0  -1 1773.10 687.712   5
   5   0  -1 947.494 521.103   3
   5   0  -1 2007.52 460.375  20
   5   0  -1 1780.81 420.761  19
   5   0  -1 1985.57 502.174  18
   5   0  -1 1787.49 425.805  17
   5   0   0 4343.85 911.671   5
   5   0   0 3735.62 817.165   3
   5   0   1 98744.7 3707.31   5
   5   0   1 91935.1 3892.22   3
   5   0   2 49642.6 2405.74   5
   5   0   2 45869.5 2653.15   3
   5   0   3 11841.1 1403.39   3
   5   0   4 26955.5 2132.73   3
   5   0   5 57905.1 3253.77   3
   5   0   6 46624.4 3077.53   3
   5   0   7 5879.54 1131.97   3
   5   0   8 9567.82 1730.48   3
   5   0   8 11671.3 1736.18   8
   5   1 -11 32800.6 2614.66   5
   5   1 -10 2114.13 726.432   5
   5   1 -10 2160.98 831.374  15
   5   1 -10 1734.51 569.918  14
   5   1 -10 1746.98 746.978  20
   5   1 -10 995.492 613.167  18
   5   1 -10 1075.20 768.607  17
   5   1  -9 503.280 732.604   5
   5   1  -9 774.605 391.846  15
   5   1  -9 1962.28 829.840  14
   5   1  -9 2720.20 743.749  20
   5   1  -9 1400.56 615.626  18
   5   1  -9 687.489 756.889  17
   5   1  -8 65214.0 3449.67  15
   5   1  -8 58401.4 3267.90  14
   5   1  -8 67956.3 3513.55  20
   5   1  -8 64501.1 3471.94  18
   5   1  -8 64440.8 3433.70  17
   5   1  -8 59936.6 3464.97   5
   5   1  -7 53865.7 2965.12  15
   5   1  -7 53031.3 2972.34  14
   5   1  -7 51212.2 2918.39  20
   5   1  -7 53161.4 2978.13  18
   5   1  -7 56526.5 3059.24  17
   5   1  -7 57620.1 3228.23   5
   5   1  -6 7621.08 1161.50   5
   5   1  -6 8616.97 1115.61  15
   5   1  -6 7290.28 1135.47  20
   5   1  -6 7170.67 1046.01  18
   5   1  -6 9136.04 1169.48  17
   5   1  -5 15475.6 1417.00  15
   5   1  -5 18451.1 1540.16  20
   5   1  -5 20595.4 1558.13  18
   5   1  -5 17356.2 1493.31  17
   5   1  -5 18662.7 1729.87   5
   5   1  -4 38242.9 2083.19  15
   5   1  -4 41878.6 2153.11  20
   5   1  -4 39612.2 2080.60  19
   5   1  -4 36693.3 2057.68  18
   5   1  -4 41385.6 2160.08  17
   5   1  -4 40648.0 2509.80   5
   5   1  -3 98457.6 3347.50  15
   5   1  -3 95991.1 3321.85  20
   5   1  -3 95939.4 3289.66  19
   5   1  -3 97874.4 3314.78  18
   5   1  -3 98030.1 3319.23  17
   5   1  -3 94128.3 3966.28   5
   5   1  -2 94192.1 3017.52  15
   5   1  -2 96642.9 3033.98  20
   5   1  -2 87953.1 2925.74  19
   5   1  -2 88880.6 2949.82  18
   5   1  -2 89962.4 2969.73  17
   5   1  -2 85885.4 3706.54   5
   5   1  -1 21110.7 1718.84   5
   5   1   0 19246.1 1697.41   3
   5   1   0 22473.3 1765.61   5
   5   1   1 53056.4 2606.21   5
   5   1   1 44064.9 2606.53   3
   5   1   2 64843.0 2583.45   7
   5   1   2 66009.1 2860.16   5
   5   1   2 58253.5 3054.75   3
   5   1   3 15941.0 1621.52   3
   5   1   4 7138.49 1220.12   3
   5   1   5 57468.3 3193.99   3
   5   1   6 58805.5 3453.35   8
   5   1   6 57037.6 3391.30   3
   5   1   7 9402.52 1474.62   3
   5   1   7 10907.5 1710.23   8
   5   1   8 4775.07 1204.38   8
   5   2 -11 45713.0 3225.27   5
   5   2 -10 8410.99 1328.36   5
   5   2 -10 8569.78 1378.10  15
   5   2 -10 6354.64 1280.90  14
   5   2 -10 5955.16 1267.87  20
   5   2 -10 7417.23 1266.02  18
   5   2 -10 7974.77 1346.78  17
   5   2  -9 765.037 388.381   5
   5   2  -9 1001.33 523.476  15
   5   2  -9 1214.67 467.368  14
   5   2  -9 328.915 758.179  20
   5   2  -9 1156.16 655.205  18
   5   2  -9 633.511 408.866  17
   5   2  -8 43192.4 2808.64  15
   5   2  -8 37920.7 2585.16  14
   5   2  -8 38880.9 2694.18  20
   5   2  -8 38691.0 2592.51  18
   5   2  -8 37211.0 2617.94  17
   5   2  -8 37031.6 2619.99   5
   5   2  -7 85412.9 3772.70  15
   5   2  -7 77987.6 3639.43  14
   5   2  -7 73050.9 3550.73  20
   5   2  -7 76459.7 3619.00  18
   5   2  -7 72661.7 3552.66  17
   5   2  -7 77682.9 3837.07   5
   5   2  -6 11472.8 1281.02  15
   5   2  -6 10412.0 1380.81   5
   5   2  -6 9985.58 1209.72  14
   5   2  -6 8601.27 1162.11  20
   5   2  -6 9521.65 1191.98  18
   5   2  -6 10588.1 1241.04  17
   5   2  -5 8778.32 1328.06   5
   5   2  -5 8220.91 1045.96  15
   5   2  -5 8203.72 1008.68  14
   5   2  -5 8582.21 1077.04  20
   5   2  -5 8163.53 1033.33  18
   5   2  -5 9307.95 1068.07  17
   5   2  -4 76275.0 3024.92  15
   5   2  -4 82245.1 3091.14  20
   5   2  -4 72836.4 2936.50  18
   5   2  -4 78467.6 3053.12  17
   5   2  -4 72674.4 3539.90   5
   5   2  -3 166135. 4658.46  15
   5   2  -3 164728. 4644.89  20
   5   2  -3 163888. 4589.97  19
   5   2  -3 162360. 4602.48  18
   5   2  -3 165711. 4631.21  17
   5   2  -3 149824. 5395.49   5
   5   2  -2 96129.6 3955.21   5
   5   2  -1 13190.2 1399.29   5
   5   2   0 26992.9 1909.50   5
   5   2   1 41068.9 2486.76   3
   5   2   1 36639.3 2231.13   5
   5   2   2 45560.8 2245.76   7
   5   2   2 42788.7 2336.81   5
   5   2   2 41384.0 2518.01   3
   5   2   3 32129.0 1980.48   7
   5   2   3 30171.7 2179.86   3
   5   2   4 5025.24 992.526   3
   5   2   4 4339.64 889.061   8
   5   2   4 5135.22 908.064   7
   5   2   5 26746.8 2199.73   8
   5   2   5 25240.8 2133.84   3
   5   2   6 41640.2 2857.67   8
   5   2   6 41594.0 2817.13   3
   5   2   7 8047.56 1492.57   8
   5   3 -11 47473.4 3257.57   5
   5   3 -10 14292.0 1794.90  15
   5   3 -10 12687.8 1546.70  14
   5   3 -10 16155.8 1878.51  20
   5   3 -10 17975.7 1918.78  18
   5   3 -10 14111.2 1594.96   5
   5   3 -10 14452.6 1769.14  17
   5   3  -9 1557.63 781.709   5
   5   3  -9 3869.04 910.903  15
   5   3  -9 5081.33 1088.16  14
   5   3  -9 2347.46 1055.36  20
   5   3  -9 2831.73 838.702  18
   5   3  -9 3458.18 961.072  17
   5   3  -8 35753.1 2557.60  15
   5   3  -8 35002.0 2494.44  14
   5   3  -8 35669.0 2560.79  20
   5   3  -8 35993.1 2536.06  18
   5   3  -8 35330.8 2523.28  17
   5   3  -8 37520.9 2720.56   5
   5   3  -7 82867.7 3837.24  15
   5   3  -7 83583.2 3802.79  14
   5   3  -7 75539.3 3656.34  20
   5   3  -7 83395.9 3762.35  18
   5   3  -7 82208.0 3766.17  17
   5   3  -7 82596.6 3984.79   5
   5   3  -6 42665.8 2548.23  15
   5   3  -6 45257.4 2562.95  14
   5   3  -6 48299.8 2643.24  20
   5   3  -6 44241.1 2545.25  18
   5   3  -6 46825.6 2616.62  17
   5   3  -6 47864.1 2879.26   5
   5   3  -5 2825.49 777.177   5
   5   3  -5 2784.10 653.962  15
   5   3  -5 2769.38 681.003  14
   5   3  -5 3669.11 801.168  20
   5   3  -5 2777.45 702.203  18
   5   3  -5 3040.08 692.147  17
   5   3  -4 33474.7 1864.44  15
   5   3  -4 31998.1 1830.45  14
   5   3  -4 31352.7 1825.95  20
   5   3  -4 32976.2 1824.23  18
   5   3  -4 32160.6 1831.15  17
   5   3  -4 31208.2 2220.64   5
   5   3  -3 140325. 5112.68   5
   5   3  -2 56549.1 2970.63   5
   5   3  -1 8317.62 1166.86   5
   5   3   0 14986.1 1531.76   5
   5   3   1 38152.1 2352.62   5
   5   3   1 40212.7 2486.63   3
   5   3   1 40696.6 2103.94   7
   5   3   2 41673.5 2400.93   5
   5   3   2 46445.4 2710.54   3
   5   3   2 45579.0 2362.61   7
   5   3   3 6406.07 1036.53   3
   5   3   3 9425.90 1178.53   7
   5   3   4 981.164 614.861   3
   5   3   4 1894.41 807.167   7
   5   3   5 12930.5 1567.86   3
   5   3   5 15999.2 1640.74   7
   5   3   6 26682.1 2353.66   7
   5   4 -10 20183.3 2010.61  15
   5   4 -10 17248.2 1849.03  14
   5   4 -10 18695.0 2084.55  20
   5   4 -10 20321.2 2068.21  18
   5   4 -10 22775.1 2216.36  17
   5   4 -10 17407.3 1925.18   5
   5   4  -9 10821.3 1514.57   5
   5   4  -9 9340.78 1339.33  15
   5   4  -9 8595.83 1378.78  14
   5   4  -9 13232.4 1660.57  20
   5   4  -9 8943.33 1365.09  18
   5   4  -9 10670.0 1545.66  17
   5   4  -8 36193.8 2607.24  15
   5   4  -8 34688.9 2517.30  14
   5   4  -8 33030.1 2431.17  20
   5   4  -8 33665.0 2504.04  18
   5   4  -8 35281.8 2571.26  17
   5   4  -8 32982.7 2565.87   5
   5   4  -7 61873.6 3238.00  15
   5   4  -7 56778.8 3134.12  14
   5   4  -7 64580.4 3343.41  20
   5   4  -7 63774.5 3293.46  18
   5   4  -7 60145.7 3219.66  17
   5   4  -7 63506.9 3476.74   5
   5   4  -6 25703.6 1980.77  15
   5   4  -6 24616.1 1925.46  14
   5   4  -6 27627.4 2033.42  20
   5   4  -6 27246.7 1951.07  18
   5   4  -6 28315.4 2067.05  17
   5   4  -6 29561.2 2271.60   5
   5   4  -5-415.793 504.166   5
   5   4  -5 738.417 461.993  15
   5   4  -5 884.744 489.913  14
   5   4  -5 354.450 509.770  20
   5   4  -5 967.943 526.655  18
   5   4  -5 273.731 414.997  17
   5   4  -4 4698.16 1018.77   5
   5   4  -3 101542. 4317.21   5
   5   4  -2 71976.9 3528.61   5
   5   4  -1 11685.4 1413.08   5
   5   4   0 13593.3 1499.04   5
   5   4   1 32841.4 2234.72   5
   5   4   1 34406.6 2016.60   7
   5   4   2 41466.4 2514.71   5
   5   4   2 44073.7 2657.73   3
   5   4   2 43306.1 2452.35   7
   5   4   3 11492.6 1373.14   7
   5   4   3 11400.3 1355.37   3
   5   4   4 1870.08 547.843   3
   5   4   4 1501.24 686.148   7
   5   4   5 23675.9 2119.40   7
   5   4   6 28487.0 2581.77   7
   5   5 -10 12904.6 1643.31   5
   5   5 -10 12214.5 1714.86  15
   5   5 -10 13698.4 1782.74  14
   5   5 -10 14688.9 1834.97  20
   5   5 -10 14270.5 1869.17  18
   5   5 -10 11859.0 1721.99  17
   5   5  -9 11017.7 1512.72   5
   5   5  -9 10736.8 1566.38  15
   5   5  -9 11200.8 1604.49  14
   5   5  -9 10913.8 1623.53  20
   5   5  -9 9219.46 1461.21  18
   5   5  -9 11722.8 1560.03  17
   5   5  -8 17434.1 1817.38  15
   5   5  -8 19929.0 2027.82  14
   5   5  -8 20730.8 2017.94  20
   5   5  -8 17926.0 1825.06  18
   5   5  -8 18056.5 1879.22  17
   5   5  -8 16917.2 1859.08   5
   5   5  -7 43545.6 2709.48  15
   5   5  -7 39624.6 2652.59  14
   5   5  -7 39705.1 2706.81  20
   5   5  -7 36124.6 2514.01  18
   5   5  -7 44221.3 2750.88  17
   5   5  -7 37452.6 2689.45   5
   5   5  -6 23876.9 2111.15   5
   5   5  -6 29438.2 2100.33  15
   5   5  -6 30363.2 2107.29  14
   5   5  -6 27518.5 2050.10  20
   5   5  -6 28082.1 2026.76  18
   5   5  -6 30983.3 2153.19  17
   5   5  -5-89.5861 547.525   5
   5   5  -4 13940.2 1662.69   5
   5   5  -3 72869.9 3714.74   5
   5   5  -2 59555.4 3326.02   5
   5   5  -1 15239.2 1669.22   5
   5   5   0 5828.65 1018.67   5
   5   5   0 5030.61 820.539   7
   5   5   1 40861.9 2727.86   5
   5   5   1 45176.4 2476.07   7
   5   5   2 62932.4 3281.80   5
   5   5   2 57013.0 3183.00   3
   5   5   2 62319.3 3163.87   7
   5   5   3 13227.7 1614.39   3
   5   5   3 14595.4 1623.19   7
   5   5   4 6777.15 1067.93   7
   5   5   5 8535.95 1414.15   7
   5   6 -10 10132.6 1717.65  15
   5   6 -10 10640.9 1650.39  14
   5   6 -10 12110.0 1793.74  20
   5   6 -10 12612.8 1847.64  18
   5   6 -10 10097.7 1738.64  17
   5   6  -9 8995.91 1339.98   5
   5   6  -9 8273.85 1394.80  15
   5   6  -9 6092.89 1253.31  14
   5   6  -9 8819.82 1347.42  20
   5   6  -9 7087.79 1131.06  18
   5   6  -9 7620.03 1313.03  17
   5   6  -8 27833.0 2394.13   5
   5   6  -8 23628.6 2175.58  15
   5   6  -8 19642.1 2063.15  14
   5   6  -8 26206.1 2295.63  20
   5   6  -8 20972.7 2115.95  18
   5   6  -8 23881.2 2214.71  17
   5   6  -7 47231.0 3170.77   5
   5   6  -6 39151.9 2764.04   5
   5   6  -5 4156.33 950.106   5
   5   6  -4 7152.14 1204.48   5
   5   6  -3 49268.2 3112.39   5
   5   6  -2 53165.4 3240.34   5
   5   6  -1 22298.4 2081.27   5
   5   6   0 7621.77 1235.28   5
   5   6   0 7254.33 1144.50   7
   5   6   1 37733.0 2668.80   5
   5   6   1 39375.2 2488.70   7
   5   6   2 57305.6 3235.98   7
   5   6   3 7466.16 1368.00   7
   5   6   4 817.434 667.337   7
   5   7  -9 11064.0 1734.37  15
   5   7  -9 10699.9 1742.57  14
   5   7  -9 11843.0 1688.09  20
   5   7  -9 12783.7 1755.81  17
   5   7  -7 61531.1 3781.20   5
   5   7  -6 23951.8 2274.62   5
   5   7  -5 6252.24 1178.48   5
   5   7  -4 9253.90 1469.99   5
   5   7  -3 20374.6 2114.42   5
   5   7  -2 54483.5 3427.22   5
   5   7  -1 17615.2 1970.99   5
   5   7   0 1097.06 834.482   5
   5   7   0 1475.16 713.596   7
   5   7   1 15684.4 1965.20   5
   5   7   1 15319.6 1722.11   7
   5   7   2 30575.2 2505.45   7
   5   8  -3 15231.1 1906.89   5
   5   8  -2 17974.3 2024.15   5
   5   8  -1 9700.86 1594.93   5
   5   8   0 1666.73 723.271   5
   5   8   1 11025.5 1705.95   5
   5   8   1 10995.6 1766.87   7
   6  -7  -2 49513.4 3489.64   2
   6  -7  -1 11461.5 1569.52   3
   6  -7   0 927.033 800.374   3
   6  -7   0 520.339 534.243  19
   6  -7   0 22.4240 125.328  18
   6  -7   0 457.318 744.371  17
   6  -7   1 10310.3 1438.24  19
   6  -7   1 11537.1 1578.17  18
   6  -7   1 14036.2 1676.64  17
   6  -7   2 61283.1 3462.19  19
   6  -7   2 62031.4 3468.84  18
   6  -7   2 61701.0 3441.39  17
   6  -6  -3 25298.2 2147.33  20
   6  -6  -3 23536.9 2146.32  19
   6  -6  -3 25648.9 2241.52  18
   6  -6  -3 27283.8 2338.66  17
   6  -6  -3 25276.7 2424.54   2
   6  -6  -2 45049.3 2832.41  20
   6  -6  -2 43668.5 2838.98  19
   6  -6  -2 43930.0 2844.82  18
   6  -6  -2 38718.5 2851.87   3
   6  -6  -2 43196.5 3174.73   5
   6  -6  -2 46177.6 2927.10  17
   6  -6  -2 42519.1 3002.04   2
   6  -6  -1 20844.8 1945.10  20
   6  -6  -1 22958.1 1945.51  19
   6  -6  -1 21908.3 1998.49  18
   6  -6  -1 22111.3 2213.58   3
   6  -6  -1 23305.4 2214.87   5
   6  -6  -1 23750.8 2043.81  17
   6  -6  -1 22222.7 2142.37   2
   6  -6   0 3237.12 958.772   3
   6  -6   0 4004.84 952.009  20
   6  -6   0 3034.67 787.379  19
   6  -6   0 3920.46 849.364  18
   6  -6   0 4373.05 1035.00  17
   6  -6   1 15504.8 1890.03   3
   6  -6   1 12925.4 1519.57  19
   6  -6   1 15261.5 1538.40  18
   6  -6   1 16250.4 1746.15  17
   6  -6   2 58277.6 3189.84  19
   6  -6   2 55342.5 3099.82  18
   6  -6   2 58483.7 3816.78   3
   6  -6   2 54890.8 3074.60  17
   6  -5  -5 13579.7 1917.64   2
   6  -5  -5 12945.4 1676.77  20
   6  -5  -5 13916.7 1670.44  19
   6  -5  -5 14220.3 1659.54  18
   6  -5  -5 14624.7 1817.07  17
   6  -5  -4 5156.44 1257.07   5
   6  -5  -4 6047.58 1253.07   2
   6  -5  -4 7719.42 1208.05  20
   6  -5  -4 7654.65 1114.46  19
   6  -5  -4 6531.48 1168.11  18
   6  -5  -4 6241.59 1175.99  17
   6  -5  -3 44317.9 2817.38  20
   6  -5  -3 43063.6 2766.20  19
   6  -5  -3 49134.0 2900.61  18
   6  -5  -3 44553.0 3016.83   3
   6  -5  -3 46489.3 3228.76   5
   6  -5  -3 48958.2 2902.27  17
   6  -5  -3 47118.7 3278.98   2
   6  -5  -2 60381.1 3583.06   2
   6  -5  -2 55105.7 3111.08  20
   6  -5  -2 57442.3 3167.68  19
   6  -5  -2 55096.7 3052.36  18
   6  -5  -2 54918.2 3350.13   3
   6  -5  -2 56674.0 3549.16   5
   6  -5  -2 56628.4 3126.23  17
   6  -5  -1 19056.1 1991.41   2
   6  -5  -1 13648.6 1656.67   3
   6  -5  -1 15205.2 1583.58  20
   6  -5  -1 17723.8 1628.48  19
   6  -5  -1 17785.5 1725.46  18
   6  -5  -1 18212.2 1965.52   5
   6  -5  -1 17701.3 1683.03  17
   6  -5   0 5906.07 1206.58   5
   6  -5   0 7384.44 1359.59   3
   6  -5   0 6512.08 987.318  20
   6  -5   0 8203.86 1076.57  19
   6  -5   0 6606.43 1065.26  18
   6  -5   0 6390.41 1052.86  17
   6  -5   1 6133.07 1096.18   5
   6  -5   1 6798.19 1335.96   3
   6  -5   1 7581.42 1119.37  19
   6  -5   1 6677.79 1019.14  18
   6  -5   1 6196.02 1084.05  17
   6  -5   2 36288.6 2885.33   3
   6  -5   3 41492.8 3173.38   3
   6  -4  -6 48385.0 3146.64  20
   6  -4  -6 46774.8 3141.31  19
   6  -4  -6 44946.7 3068.10  18
   6  -4  -6 48597.4 3101.15  17
   6  -4  -5 23145.5 2094.53  20
   6  -4  -5 19635.2 1938.16  19
   6  -4  -5 21872.6 2100.61  18
   6  -4  -5 21150.2 2261.91   5
   6  -4  -5 23617.3 2048.72  17
   6  -4  -4 6600.14 1187.79   5
   6  -4  -4 4688.08 902.579   3
   6  -4  -4 4519.38 910.312  20
   6  -4  -4 4733.43 860.165  19
   6  -4  -4 4557.82 906.238  18
   6  -4  -4 4350.60 942.771  17
   6  -4  -3 40460.4 2656.13  20
   6  -4  -3 39340.7 2525.50  19
   6  -4  -3 40408.1 2554.77  18
   6  -4  -3 42396.0 2957.61   5
   6  -4  -3 38770.9 2645.56   3
   6  -4  -3 45219.3 2704.36  17
   6  -4  -2 74811.0 3416.76  20
   6  -4  -2 72086.4 3404.33  19
   6  -4  -2 68204.0 3321.20  18
   6  -4  -2 70360.3 3911.91   5
   6  -4  -2 65831.0 3646.24   3
   6  -4  -2 74670.4 3399.02  17
   6  -4  -1 11358.5 1478.72   3
   6  -4  -1 11475.1 1240.72  20
   6  -4  -1 13056.7 1378.64  19
   6  -4  -1 12355.4 1289.29  18
   6  -4  -1 13681.4 1553.64   5
   6  -4  -1 12388.2 1325.63  17
   6  -4   0 886.070 468.798   5
   6  -4   0 1480.19 557.504   3
   6  -4   0 688.161 464.888  20
   6  -4   0 483.479 385.665  19
   6  -4   0 848.403 462.269  18
   6  -4   0 898.027 555.704  17
   6  -4   1 5150.81 1122.57   5
   6  -4   1 6280.57 1216.68   3
   6  -4   2 36396.9 2844.16   3
   6  -4   3 52071.5 3543.27   3
   6  -4   4 11380.5 1609.59   3
   6  -3  -7 12010.5 1533.57  15
   6  -3  -7 12151.0 1622.96  20
   6  -3  -7 13607.1 1660.49  19
   6  -3  -7 9359.99 1500.75  18
   6  -3  -7 9636.17 1435.35  17
   6  -3  -6 54563.3 3296.69  15
   6  -3  -6 50989.7 3196.39  20
   6  -3  -6 48337.8 3102.87  19
   6  -3  -6 52581.9 3196.14  18
   6  -3  -6 53684.2 3562.99   5
   6  -3  -6 49807.4 3079.06  17
   6  -3  -5 23251.1 2108.23  15
   6  -3  -5 24878.2 2054.69  20
   6  -3  -5 24429.7 2033.37  19
   6  -3  -5 24101.3 2011.51  18
   6  -3  -5 19356.5 2118.89   5
   6  -3  -5 21597.6 1937.54  17
   6  -3  -5 24035.8 1992.70   3
   6  -3  -4 6267.00 1158.42   5
   6  -3  -4 5777.12 946.930   3
   6  -3  -4 8775.27 1160.11  20
   6  -3  -4 4650.13 906.056  19
   6  -3  -4 7218.07 1138.41  18
   6  -3  -4 5088.69 1030.51  17
   6  -3  -3 28561.6 2095.35  20
   6  -3  -3 33781.2 2197.40  19
   6  -3  -3 26688.4 1996.48  18
   6  -3  -3 30974.9 2486.76   5
   6  -3  -3 25747.0 2001.84  17
   6  -3  -3 29917.8 2310.82   3
   6  -3  -2 62149.8 3017.44  20
   6  -3  -2 65794.8 3037.21  19
   6  -3  -2 64224.9 3019.00  18
   6  -3  -2 62115.1 3529.37   5
   6  -3  -2 59629.6 2975.67  17
   6  -3  -2 59561.9 3400.41   3
   6  -3  -1 39328.8 2287.68  20
   6  -3  -1 45981.1 2434.26  19
   6  -3  -1 44996.0 2378.86  18
   6  -3  -1 42354.0 2773.11   5
   6  -3  -1 42102.5 2389.29  17
   6  -3   0 3794.56 900.404   5
   6  -3   0 4742.90 1046.79   3
   6  -3   1 11094.2 1445.27   5
   6  -3   1 11759.4 1613.02   3
   6  -3   2 67823.1 3830.76   3
   6  -3   3 47363.6 3241.89   3
   6  -3   4 11045.9 1636.40   3
   6  -2  -8 5758.36 1089.63  15
   6  -2  -8 7615.86 1290.86  20
   6  -2  -8 5324.42 1043.33  19
   6  -2  -8 6044.08 1302.64  18
   6  -2  -8 3557.75 1119.28  17
   6  -2  -7 11511.8 1700.15   5
   6  -2  -7 10897.6 1453.12  15
   6  -2  -7 12903.4 1704.34  20
   6  -2  -7 12206.0 1566.46  19
   6  -2  -7 13736.3 1653.02  18
   6  -2  -7 16342.6 1767.87  17
   6  -2  -6 41868.0 2734.64  15
   6  -2  -6 42880.9 2781.11  20
   6  -2  -6 38581.1 2681.93  19
   6  -2  -6 39958.8 2736.44  18
   6  -2  -6 38372.1 3011.43   5
   6  -2  -6 43678.8 2734.00  17
   6  -2  -6 40732.3 2616.76   3
   6  -2  -5 29696.1 2214.41  15
   6  -2  -5 30980.4 2224.41  20
   6  -2  -5 30823.7 2180.85  19
   6  -2  -5 26858.3 2162.59  18
   6  -2  -5 22503.6 2294.69   5
   6  -2  -5 29331.9 2185.60  17
   6  -2  -5 22098.5 1954.91   3
   6  -2  -4 11735.4 1343.37  15
   6  -2  -4 12473.5 1643.66   5
   6  -2  -4 9299.95 1274.90   3
   6  -2  -4 13552.0 1375.98  20
   6  -2  -4 10842.9 1274.65  19
   6  -2  -4 12205.4 1353.86  18
   6  -2  -4 10981.2 1340.28  17
   6  -2  -3 41370.6 2389.29  20
   6  -2  -3 43062.6 2444.94  19
   6  -2  -3 44713.0 2478.27  18
   6  -2  -3 43041.3 2433.11  17
   6  -2  -3 38538.4 2828.86   5
   6  -2  -3 40244.2 2710.70   3
   6  -2  -2 94841.7 3650.61  20
   6  -2  -2 90233.2 3568.91  19
   6  -2  -2 96816.7 3672.63  18
   6  -2  -2 98424.3 3737.97  17
   6  -2  -2 87907.0 4235.16   5
   6  -2  -2 89917.7 4186.72   3
   6  -2  -1 67602.1 3502.76   5
   6  -2  -1 64401.0 3537.96   3
   6  -2   0 12816.7 1598.06   3
   6  -2   0 12825.7 1545.01   5
   6  -2   1 6138.00 1068.74   5
   6  -2   1 5953.43 1087.67   3
   6  -2   2 43999.7 2970.22   3
   6  -2   3 36536.1 2785.34   3
   6  -2   4 7837.40 1443.14   3
   6  -2   5 8085.26 1415.64   3
   6  -1  -8 9433.44 1305.03  15
   6  -1  -8 8226.74 1377.50  20
   6  -1  -8 6214.25 1039.61  19
   6  -1  -8 9848.67 1329.43  18
   6  -1  -8 5355.04 1217.51  17
   6  -1  -7 14812.8 1724.88  15
   6  -1  -7 11886.4 1703.62   5
   6  -1  -7 10818.8 1320.19   3
   6  -1  -7 11152.8 1494.57  20
   6  -1  -7 9818.52 1302.91  19
   6  -1  -7 13922.2 1675.56  18
   6  -1  -7 11983.6 1446.95  17
   6  -1  -6 43884.0 2769.21   3
   6  -1  -6 50192.1 2909.89  15
   6  -1  -6 41842.2 2737.18  20
   6  -1  -6 47948.2 2863.66  19
   6  -1  -6 43454.3 2741.34  18
   6  -1  -6 43975.2 2738.07  17
   6  -1  -6 40529.6 2996.60   5
   6  -1  -5 41205.1 2541.23  15
   6  -1  -5 38898.8 2462.30  20
   6  -1  -5 38756.1 2461.95  19
   6  -1  -5 36911.1 2442.80  18
   6  -1  -5 42843.0 2570.82  17
   6  -1  -5 39101.6 2894.77   5
   6  -1  -5 41871.0 2716.57   3
   6  -1  -4 32354.6 2098.42  15
   6  -1  -4 32660.7 2126.62  20
   6  -1  -4 34120.3 2156.65  19
   6  -1  -4 31537.6 2131.30  18
   6  -1  -4 29844.0 2055.34  17
   6  -1  -4 30479.5 2531.87   5
   6  -1  -4 27457.2 2216.71   3
   6  -1  -3 27840.6 1865.61  20
   6  -1  -3 31731.2 1944.34  19
   6  -1  -3 26307.1 1840.53  18
   6  -1  -3 27612.4 1879.50  17
   6  -1  -3 25293.6 2247.09   5
   6  -1  -3 27679.2 2187.90   3
   6  -1  -2 70008.7 3645.90   5
   6  -1  -2 70231.7 3567.82   3
   6  -1  -1 70903.5 3597.29   5
   6  -1  -1 74311.9 3724.67   3
   6  -1   0 5734.15 1086.45   5
   6  -1   0 4979.46 1019.02   3
   6  -1   1 4559.86 1007.70   5
   6  -1   1 6720.90 1239.21   3
   6  -1   2 40687.1 2834.77   3
   6  -1   3 36506.4 2761.63   3
   6  -1   4 9747.21 1418.90   3
   6  -1   5 1573.55 921.160   3
   6   0  -9 28256.9 2454.57  15
   6   0  -9 29418.8 2541.75  20
   6   0  -9 25318.2 2478.24  19
   6   0  -9 30967.1 2685.40  18
   6   0  -9 29140.6 2522.80  17
   6   0  -8 12861.3 1759.26   5
   6   0  -8 12443.6 1618.10  15
   6   0  -8 14770.3 1661.02  20
   6   0  -8 11433.8 1618.72  19
   6   0  -8 12494.8 1678.18  18
   6   0  -8 11315.2 1601.06  17
   6   0  -7 19694.3 1960.52  15
   6   0  -7 17333.0 1864.57  20
   6   0  -7 20204.8 1885.05  19
   6   0  -7 19044.2 1915.60  18
   6   0  -7 19299.1 1891.81  17
   6   0  -7 19834.5 2167.67   5
   6   0  -6 31385.4 2330.51   3
   6   0  -6 32553.2 2310.04  15
   6   0  -6 32668.4 2337.64  20
   6   0  -6 33597.9 2326.50  19
   6   0  -6 32315.3 2336.78  18
   6   0  -6 31953.3 2290.52  17
   6   0  -6 31337.8 2601.14   5
   6   0  -5 31153.2 2319.95   3
   6   0  -5 33098.3 2198.75  15
   6   0  -5 31756.6 2140.05  20
   6   0  -5 32727.1 2152.17  19
   6   0  -5 30757.1 2138.50  18
   6   0  -5 33534.2 2181.64  17
   6   0  -5 30415.3 2576.07   5
   6   0  -4 18399.8 1810.19   3
   6   0  -4 23367.9 1753.68  15
   6   0  -4 24715.7 1781.50  20
   6   0  -4 21914.4 1670.57  19
   6   0  -4 23317.6 1732.17  18
   6   0  -4 22651.9 1707.59  17
   6   0  -4 20394.9 2038.17   5
   6   0  -3 10273.3 1429.56   5
   6   0  -3 8593.82 1248.25   3
   6   0  -2 34953.4 2528.69   5
   6   0  -2 30127.7 2342.96   3
   6   0  -1 80237.0 3854.70   5
   6   0  -1 81412.3 3991.36   3
   6   0   0 21711.1 1895.29   5
   6   0   0 20635.4 1991.20   3
   6   0   1 7448.03 1279.19   5
   6   0   1 6398.35 1131.19   3
   6   0   2 33203.9 2513.81   3
   6   0   3 32884.7 2554.56   3
   6   0   4 14983.2 1745.99   3
   6   0   5 1166.28 652.344   3
   6   1  -9 40955.9 2942.00  15
   6   1  -9 34951.3 2769.46  20
   6   1  -9 40785.6 2981.15  19
   6   1  -9 41457.1 3126.09  18
   6   1  -9 43571.4 3068.62  17
   6   1  -8 4939.14 1166.49   5
   6   1  -8 7284.61 1132.82  15
   6   1  -8 4536.52 1064.65  20
   6   1  -8 5371.43 1243.94  19
   6   1  -8 6295.60 1270.63  18
   6   1  -8 4671.47 1172.65  17
   6   1  -7 16727.1 1810.46  15
   6   1  -7 15312.5 1624.19  20
   6   1  -7 18957.7 1789.18  19
   6   1  -7 14693.1 1673.13  18
   6   1  -7 14480.4 1689.96  17
   6   1  -7 17298.6 2009.49   5
   6   1  -6 21433.5 1793.35  15
   6   1  -6 20217.4 1837.49  20
   6   1  -6 18842.6 1797.97  19
   6   1  -6 23346.3 1940.73  18
   6   1  -6 18960.7 1759.71  17
   6   1  -6 21724.8 2214.56   5
   6   1  -5 20078.8 1663.69  15
   6   1  -5 18310.3 1622.11  20
   6   1  -5 21431.2 1640.83  19
   6   1  -5 18591.2 1592.98  18
   6   1  -5 20451.8 1727.73  17
   6   1  -5 19529.7 2058.01   5
   6   1  -4 16628.6 1761.30   5
   6   1  -3 15557.6 1683.59   3
   6   1  -3 14121.7 1690.60   5
   6   1  -2 41659.7 2761.21   3
   6   1  -2 40885.7 2785.73   5
   6   1  -1 58090.9 3292.73   3
   6   1  -1 53586.5 3134.83   5
   6   1   0 37652.2 2531.93   5
   6   1   0 35427.1 2535.92   3
   6   1   1 16589.1 1661.37   5
   6   1   1 15510.2 1632.23   3
   6   1   2 14386.0 1633.18   3
   6   1   3 47096.6 3044.81   3
   6   1   4 25730.5 2320.87   3
   6   1   5 2868.61 795.741   3
   6   2  -9 47964.4 3207.76  15
   6   2  -9 46741.9 3198.13  20
   6   2  -9 44101.4 3130.57  18
   6   2  -9 49641.0 3331.30  17
   6   2  -8 5656.06 1262.70   5
   6   2  -8 8347.90 1306.37  15
   6   2  -8 5215.36 1081.14  20
   6   2  -8 5282.61 1240.83  18
   6   2  -8 6349.45 1247.80  17
   6   2  -7 7737.20 1351.46   5
   6   2  -7 3126.48 858.735  15
   6   2  -7 6104.17 1099.74  20
   6   2  -7 6848.70 1163.72  18
   6   2  -7 4709.39 966.357  17
   6   2  -6 38093.2 2440.30  15
   6   2  -6 38233.2 2461.99  20
   6   2  -6 39033.4 2467.24  19
   6   2  -6 38382.0 2473.72  18
   6   2  -6 38650.3 2489.40  17
   6   2  -6 34520.8 2719.73   5
   6   2  -5 48682.9 3217.05   5
   6   2  -4 16552.0 1875.89   5
   6   2  -3 14915.4 1759.13   5
   6   2  -2 49446.0 3025.26   5
   6   2  -1 45362.9 2862.98   3
   6   2  -1 40726.4 2810.19   5
   6   2   0 30866.2 2464.74   3
   6   2   0 29092.9 2312.46   5
   6   2   1 35330.0 2428.71   5
   6   2   1 31001.9 2395.83   3
   6   2   2 18238.6 1863.91   3
   6   2   3 34593.2 2617.85   3
   6   2   4 24360.5 2332.76   3
   6   2   5 2415.51 661.870   3
   6   3  -9 48274.8 3356.60  15
   6   3  -9 53335.4 3508.13  14
   6   3  -9 56172.5 3576.15  20
   6   3  -9 55984.4 3519.40  18
   6   3  -9 51192.6 3380.53  17
   6   3  -8 29939.8 2424.35  15
   6   3  -8 28429.1 2378.72  14
   6   3  -8 29883.5 2467.41  20
   6   3  -8 29124.1 2435.14  18
   6   3  -8 31340.7 2460.75  17
   6   3  -8 29951.7 2670.16   5
   6   3  -7 6624.03 1305.71   5
   6   3  -7 9229.77 1217.69  15
   6   3  -7 8039.09 1264.35  20
   6   3  -7 8360.64 1338.40  17
   6   3  -6 26859.5 2467.35   5
   6   3  -5 79865.3 4159.84   5
   6   3  -4 13460.6 1785.78   5
   6   3  -3 3418.94 958.069   5
   6   3  -2 28809.0 2403.14   5
   6   3  -1 49450.9 3039.26   5
   6   3   0 32795.8 2504.33   3
   6   3   0 37020.0 2604.41   5
   6   3   1 17016.2 1799.26   3
   6   3   1 16563.8 1800.74   5
   6   3   2 13231.5 1591.23   3
   6   3   3 21504.2 2056.94   3
   6   3   4 7766.61 1408.20   3
   6   4  -9 50986.6 3489.63  15
   6   4  -9 46848.0 3329.43  14
   6   4  -9 46589.1 3383.27  20
   6   4  -9 45632.1 3224.68  18
   6   4  -9 47020.0 3285.36  17
   6   4  -7 7871.59 1437.19   5
   6   4  -6 16691.3 1982.41   5
   6   4  -5 58231.9 3558.12   5
   6   4  -4 23816.5 2238.00   5
   6   4  -3 859.993 627.535   5
   6   4  -2 11955.4 1598.20   5
   6   4  -1 31910.6 2576.18   5
   6   4   0 27313.0 2335.51   3
   6   4   0 27419.3 2288.46   5
   6   4   1 6302.95 1140.78   3
   6   4   2 7345.12 1247.87   3
   6   4   3 25091.7 2228.78   3
   6   5  -6 16281.1 1937.30   5
   6   5  -5 44415.3 3176.86   5
   6   5  -4 26731.7 2413.47   5
   6   5  -3 5891.45 1180.07   5
   6   5  -2 1856.09 666.925   5
   6   5  -1 22511.1 2294.97   5
   6   5   0 36386.0 2841.17   5
   6   5   1 12719.4 1577.67   3
   6   5   2 12587.7 1651.64   3
   6   6  -3 6576.39 1379.44   5
   6   6  -2 4281.27 1186.06   5
   6   6  -1 23090.3 2320.73   5
   6   6   0 41915.2 3129.34   5
   7  -4  -1 13713.0 1784.46   5
   7  -3  -4 33327.8 2672.84   3
   7  -3  -2 1641.16 751.946   5
   7  -3  -1 12306.4 1801.38   5
   7  -2  -5 11125.6 1486.28   3
   7  -2  -4 36457.7 2849.42   3
   7  -2  -3 31638.7 2767.09   5
   7  -2  -3 31171.3 2593.69   3
   7  -2  -2 6117.94 1336.45   5
   7  -2  -2 7206.69 1180.78   3
   7  -2  -1 11165.1 1667.64   5
   7  -1  -6 10896.9 1745.76   3
   7  -1  -5 20706.6 2041.37   3
   7  -1  -4 44082.0 3226.95   5
   7  -1  -4 45808.0 3132.63   3
   7  -1  -3 34154.5 2863.85   5
   7  -1  -3 33491.7 2724.08   3
   7  -1  -2 2655.47 962.597   5
   7  -1  -2 3736.17 1014.44   3
   7  -1  -1 9079.38 1405.14   5
   7   0  -4 33211.5 2859.48   5
   7   0  -4 32560.5 2666.10   3
   7   0  -3 27478.0 2595.20   5
   7   0  -3 24815.5 2366.30   3
   7   0  -2 2324.66 906.854   5
   7   0  -2 922.112 778.452   3
   7   0  -1 3901.12 1270.79   5
   7   1  -4 31146.4 2753.25   5
   7   1  -3 19692.0 2287.48   5
   7   1  -2 3250.81 1231.44   5
   7   1  -1 8010.36 1449.19   5
   7   2  -3 23335.2 2452.08   5
   7   2  -2 2447.69 1087.15   5
   7   2  -1 9906.37 1596.43   5
   7   3  -2 9845.98 1716.75   5
   7   3  -1 4868.52 1438.83   5
   0   0   0    0.00    0.00   0
TITL 3334 in P1
REM P1 (#1 in standard setting)
CELL 0.71073   5.165591   8.595472   9.759165 102.8899  98.8875  91.2168
ZERR    1.00   0.000183   0.000326   0.000414   0.0034   0.0032   0.0030
LATT -1
SFAC C H O P Sn
UNIT 10.00 26.00 6.00 2.00 1.00
TREF
HKLF 4
END
;
_shelx_hkl_checksum              27321
loop_
_space_group_symop_operation_xyz
'x, y, z'
'-x, -y, -z'
loop_
_atom_site_label
_atom_site_type_symbol
_atom_site_fract_x
_atom_site_fract_y
_atom_site_fract_z
_atom_site_U_iso_or_equiv
_atom_site_adp_type
_atom_site_occupancy
_atom_site_site_symmetry_order
_atom_site_calc_flag
_atom_site_refinement_flags_posn
_atom_site_refinement_flags_adp
_atom_site_refinement_flags_occupancy
Sn1 Sn 0.5000 0.5000 0.5000 0.01194(9) Uani 1 2 d S . P
P1 P -0.04909(10) 0.53016(6) 0.26818(6) 0.01363(13) Uani 1 1 d . . .
O1 O 0.2223(3) 0.47177(18) 0.29672(16) 0.0183(3) Uani 1 1 d . . .
O2 O -0.1896(3) 0.57301(17) 0.39372(16) 0.0166(3) Uani 1 1 d . . .
O3 O -0.0173(3) 0.68477(18) 0.20665(17) 0.0221(3) Uani 1 1 d . . .
C1 C 0.5763(4) 0.2530(2) 0.4456(2) 0.0188(4) Uani 1 1 d . . .
H1A H 0.7256 0.2415 0.3923 0.023 Uiso 1 1 calc R U .
H1B H 0.6318 0.2173 0.5348 0.023 Uiso 1 1 calc R U .
C2 C 0.3488(5) 0.1420(3) 0.3574(3) 0.0285(5) Uani 1 1 d . . .
H2A H 0.4036 0.0318 0.3382 0.043 Uiso 1 1 calc R U .
H2B H 0.2009 0.1491 0.4101 0.043 Uiso 1 1 calc R U .
H2C H 0.2950 0.1733 0.2671 0.043 Uiso 1 1 calc R U .
C5 C -0.2227(5) 0.7982(3) 0.2136(3) 0.0279(5) Uani 1 1 d . . .
H5A H -0.1996 0.8709 0.3094 0.033 Uiso 1 1 calc R U .
H5B H -0.3972 0.7407 0.1950 0.033 Uiso 1 1 calc R U .
C6 C -0.2031(6) 0.8918(3) 0.1028(3) 0.0338(6) Uani 1 1 d . . .
H6A H -0.3396 0.9694 0.1051 0.051 Uiso 1 1 calc R U .
H6B H -0.0300 0.9485 0.1223 0.051 Uiso 1 1 calc R U .
H6C H -0.2268 0.8188 0.0085 0.051 Uiso 1 1 calc R U .
C7 C -0.2441(4) 0.3873(3) 0.1262(2) 0.0254(5) Uani 1 1 d . . .
H7A H -0.1493 0.3607 0.0452 0.038 Uiso 1 1 calc R U .
H7B H -0.2794 0.2902 0.1588 0.038 Uiso 1 1 calc R U .
H7C H -0.4105 0.4325 0.0968 0.038 Uiso 1 1 calc R U .
loop_
_atom_site_aniso_label
_atom_site_aniso_U_11
_atom_site_aniso_U_22
_atom_site_aniso_U_33
_atom_site_aniso_U_23
_atom_site_aniso_U_13
_atom_site_aniso_U_12
Sn1 0.00915(13) 0.01526(13) 0.01344(13) 0.00630(8) 0.00340(8) 0.00251(8)
P1 0.0108(3) 0.0185(3) 0.0136(3) 0.0072(2) 0.0026(2) 0.0021(2)
O1 0.0131(8) 0.0246(8) 0.0180(8) 0.0062(6) 0.0028(6) 0.0047(6)
O2 0.0134(7) 0.0206(7) 0.0174(7) 0.0072(6) 0.0037(6) -0.0001(6)
O3 0.0208(8) 0.0268(8) 0.0253(8) 0.0164(7) 0.0083(7) 0.0061(7)
C1 0.0169(11) 0.0167(10) 0.0251(11) 0.0077(9) 0.0053(9) 0.0048(8)
C2 0.0284(13) 0.0194(11) 0.0348(14) 0.0024(10) 0.0014(11) 0.0022(10)
C5 0.0316(13) 0.0270(12) 0.0299(13) 0.0140(10) 0.0071(11) 0.0124(10)
C6 0.0420(16) 0.0277(12) 0.0348(14) 0.0178(11) -0.0006(12) 0.0028(11)
C7 0.0199(12) 0.0327(12) 0.0208(12) 0.0017(10) 0.0009(10) -0.0013(10)
loop_
_atom_type_symbol
_atom_type_description
_atom_type_scat_dispersion_real
_atom_type_scat_dispersion_imag
_atom_type_scat_source
C C 0.0033 0.0016 'International Tables Vol C Tables 4.2.6.8 and 6.1.1.4'
H H 0.0000 0.0000 'International Tables Vol C Tables 4.2.6.8 and 6.1.1.4'
O O 0.0106 0.0060 'International Tables Vol C Tables 4.2.6.8 and 6.1.1.4'
P P 0.1023 0.0942 'International Tables Vol C Tables 4.2.6.8 and 6.1.1.4'
Sn Sn -0.6537 1.4246 'International Tables Vol C Tables 4.2.6.8 and 6.1.1.4'
loop_
_geom_angle_atom_site_label_1
_geom_angle_atom_site_label_2
_geom_angle_atom_site_label_3
_geom_angle
_geom_angle_site_symmetry_1
_geom_angle_site_symmetry_3
C1 Sn1 C1 180.0 2_666 .
C1 Sn1 O2 93.75(7) 2_666 2_566
C1 Sn1 O2 86.26(7) . 2_566
C1 Sn1 O2 86.25(7) 2_666 1_655
C1 Sn1 O2 93.74(7) . 1_655
O2 Sn1 O2 180.0 2_566 1_655
C1 Sn1 O1 89.70(7) 2_666 .
C1 Sn1 O1 90.30(7) . .
O2 Sn1 O1 91.36(5) 2_566 .
O2 Sn1 O1 88.64(5) 1_655 .
C1 Sn1 O1 90.30(7) 2_666 2_666
C1 Sn1 O1 89.70(7) . 2_666
O2 Sn1 O1 88.64(5) 2_566 2_666
O2 Sn1 O1 91.36(5) 1_655 2_666
O1 Sn1 O1 180.00(6) . 2_666
O2 P1 O1 116.29(9) . .
O2 P1 O3 108.54(9) . .
O1 P1 O3 106.21(9) . .
O2 P1 C7 110.62(10) . .
O1 P1 C7 109.33(10) . .
O3 P1 C7 105.18(10) . .
P1 O1 Sn1 130.32(9) . .
P1 O2 Sn1 145.64(9) . 1_455
C5 O3 P1 118.87(14) . .
C2 C1 Sn1 115.83(15) . .
C2 C1 H1A 108.3 . .
Sn1 C1 H1A 108.3 . .
C2 C1 H1B 108.3 . .
Sn1 C1 H1B 108.3 . .
H1A C1 H1B 107.4 . .
C1 C2 H2A 109.5 . .
C1 C2 H2B 109.5 . .
H2A C2 H2B 109.5 . .
C1 C2 H2C 109.5 . .
H2A C2 H2C 109.5 . .
H2B C2 H2C 109.5 . .
O3 C5 C6 107.7(2) . .
O3 C5 H5A 110.2 . .
C6 C5 H5A 110.2 . .
O3 C5 H5B 110.2 . .
C6 C5 H5B 110.2 . .
H5A C5 H5B 108.5 . .
C5 C6 H6A 109.5 . .
C5 C6 H6B 109.5 . .
H6A C6 H6B 109.5 . .
C5 C6 H6C 109.5 . .
H6A C6 H6C 109.5 . .
H6B C6 H6C 109.5 . .
P1 C7 H7A 109.5 . .
P1 C7 H7B 109.5 . .
H7A C7 H7B 109.5 . .
P1 C7 H7C 109.5 . .
H7A C7 H7C 109.5 . .
H7B C7 H7C 109.5 . .
loop_
_geom_bond_atom_site_label_1
_geom_bond_atom_site_label_2
_geom_bond_distance
_geom_bond_site_symmetry_2
Sn1 C1 2.131(2) 2_666
Sn1 C1 2.131(2) .
Sn1 O2 2.1913(14) 2_566
Sn1 O2 2.1913(14) 1_655
Sn1 O1 2.2235(15) .
Sn1 O1 2.2235(15) 2_666
P1 O2 1.4996(15) .
P1 O1 1.5053(15) .
P1 O3 1.5908(15) .
P1 C7 1.789(2) .
O2 Sn1 2.1912(14) 1_455
O3 C5 1.455(3) .
C1 C2 1.519(3) .
C1 H1A 0.9900 .
C1 H1B 0.9900 .
C2 H2A 0.9800 .
C2 H2B 0.9800 .
C2 H2C 0.9800 .
C5 C6 1.498(3) .
C5 H5A 0.9900 .
C5 H5B 0.9900 .
C6 H6A 0.9800 .
C6 H6B 0.9800 .
C6 H6C 0.9800 .
C7 H7A 0.9800 .
C7 H7B 0.9800 .
C7 H7C 0.9800 .
loop_
_geom_torsion_atom_site_label_1
_geom_torsion_atom_site_label_2
_geom_torsion_atom_site_label_3
_geom_torsion_atom_site_label_4
_geom_torsion
_geom_torsion_site_symmetry_4
O2 P1 O1 Sn1 -19.54(15) .
O3 P1 O1 Sn1 101.32(12) .
C7 P1 O1 Sn1 -145.66(12) .
O1 P1 O2 Sn1 -105.16(17) 1_455
O3 P1 O2 Sn1 135.23(15) 1_455
C7 P1 O2 Sn1 20.3(2) 1_455
O2 P1 O3 C5 -33.73(19) .
O1 P1 O3 C5 -159.46(16) .
C7 P1 O3 C5 84.69(18) .
P1 O3 C5 C6 -158.03(17) .
