#------------------------------------------------------------------------------
#$Date: 2017-02-04 00:25:49 +0200 (Sat, 04 Feb 2017) $
#$Revision: 191248 $
#$URL: file:///home/coder/svn-repositories/cod/cif/4/34/51/4345100.cif $
#------------------------------------------------------------------------------
#
# This file is available in the Crystallography Open Database (COD),
# http://www.crystallography.net/
#
# All data on this site have been placed in the public domain by the
# contributors.
#
data_4345100
loop_
_publ_author_name
'Mazzuca, Lidia'
'Ca\~nadillas-Delgado, Laura'
'Rodr\'iguez-Velamaz\'an, J Alberto'
'Fabelo, Oscar'
'Scarrozza, Marco'
'Stroppa, Alessandro'
'Picozzi, Silvia'
'Zhao, Jiong-Peng'
'Bu, Xian-He'
'Rodr\'iguez-Carvajal, Juan'
_publ_section_title
;
 Magnetic Structures of Heterometallic M(II)-M(III) Formate Compounds.
;
_journal_issue                   1
_journal_name_full               'Inorganic chemistry'
_journal_page_first              197
_journal_page_last               207
_journal_paper_doi               10.1021/acs.inorgchem.6b01866
_journal_volume                  56
_journal_year                    2017
_chemical_formula_sum            'C8 H14 Fe Mn N O12'
_chemical_formula_weight         426.98
_chemical_name_systematic
;
 ?
;
_space_group_crystal_system      trigonal
_space_group_IT_number           163
_space_group_name_Hall           '-P 3 2c'
_space_group_name_H-M_alt        'P -3 1 c'
_symmetry_space_group_name_Hall  '-P 3 2c'
_symmetry_space_group_name_H-M   'P -3 1 c'
_atom_sites_solution_hydrogens   geom
_audit_creation_method           SHELXL-2014
_cell_angle_alpha                90
_cell_angle_beta                 90
_cell_angle_gamma                120
_cell_formula_units_Z            2
_cell_length_a                   8.26740(10)
_cell_length_b                   8.26740(10)
_cell_length_c                   13.8761(2)
_cell_measurement_reflns_used    4858
_cell_measurement_temperature    105(2)
_cell_measurement_theta_max      32.3000
_cell_measurement_theta_min      2.7140
_cell_volume                     821.365(18)
_computing_cell_refinement       'CrysAlis PRO software program'
_computing_data_collection       'CrysAlis PRO software program'
_computing_data_reduction        'CrysAlis PRO software program'
_computing_molecular_graphics    'Mercury (McRae, 2006)'
_computing_publication_material  'WINGX (Farrugia, 1999)'
_computing_structure_refinement  'SHELXL-2014 (Sheldrick, 2014)'
_computing_structure_solution    'SHELXL-2014 (Sheldrick, 2014)'
_diffrn_ambient_temperature      105(2)
_diffrn_measured_fraction_theta_full 0.928
_diffrn_measured_fraction_theta_max 0.943
_diffrn_measurement_device_type  'CRISTAL beamline, SOLEIL synchrotron'
_diffrn_radiation_type           synchrotron
_diffrn_radiation_wavelength     0.66951
_diffrn_reflns_av_R_equivalents  0.0799
_diffrn_reflns_av_unetI/netI     0.0320
_diffrn_reflns_Laue_measured_fraction_full 0.928
_diffrn_reflns_Laue_measured_fraction_max 0.943
_diffrn_reflns_limit_h_max       12
_diffrn_reflns_limit_h_min       -12
_diffrn_reflns_limit_k_max       12
_diffrn_reflns_limit_k_min       -11
_diffrn_reflns_limit_l_max       22
_diffrn_reflns_limit_l_min       -22
_diffrn_reflns_number            10420
_diffrn_reflns_point_group_measured_fraction_full 0.928
_diffrn_reflns_point_group_measured_fraction_max 0.943
_diffrn_reflns_theta_full        23.685
_diffrn_reflns_theta_max         32.472
_diffrn_reflns_theta_min         2.766
_diffrn_source                   synchrotron
_exptl_absorpt_coefficient_mu    1.440
_exptl_absorpt_correction_T_max  1.00000
_exptl_absorpt_correction_T_min  0.64194
_exptl_absorpt_correction_type   multi-scan
_exptl_absorpt_process_details
;
CrysAlisPro, Agilent Technologies,
Version 1.171.37.33 (release 27-03-2014 CrysAlis171 .NET)
(compiled Mar 27 2014,17:12:48)
Empirical absorption correction using spherical harmonics,
 implemented in SCALE3 ABSPACK scaling algorithm.
;
_exptl_crystal_colour            dark-yellow
_exptl_crystal_density_diffrn    1.726
_exptl_crystal_description       prism
_exptl_crystal_F_000             432
_exptl_crystal_size_max          0.08
_exptl_crystal_size_mid          0.07
_exptl_crystal_size_min          0.06
_refine_diff_density_max         0.809
_refine_diff_density_min         -0.563
_refine_diff_density_rms         0.096
_refine_ls_extinction_method     none
_refine_ls_goodness_of_fit_ref   1.133
_refine_ls_hydrogen_treatment    refU
_refine_ls_matrix_type           full
_refine_ls_number_parameters     41
_refine_ls_number_reflns         1126
_refine_ls_number_restraints     0
_refine_ls_restrained_S_all      1.133
_refine_ls_R_factor_all          0.0550
_refine_ls_R_factor_gt           0.0504
_refine_ls_shift/su_max          0.000
_refine_ls_shift/su_mean         0.000
_refine_ls_structure_factor_coef Fsqd
_refine_ls_weighting_details
'w=1/[\s^2^(Fo^2^)+(0.0842P)^2^+0.5985P] where P=(Fo^2^+2Fc^2^)/3'
_refine_ls_weighting_scheme      calc
_refine_ls_wR_factor_gt          0.1502
_refine_ls_wR_factor_ref         0.1595
_reflns_Friedel_coverage         0.000
_reflns_number_gt                1018
_reflns_number_total             1126
_reflns_threshold_expression     'I > 2\s(I)'
_cod_data_source_file            FeMn_105K.cif
_cod_data_source_block           shelx
_cod_original_cell_volume        821.36(2)
_cod_database_code               4345100
_shelx_space_group_comment
;
The symmetry employed for this shelxl refinement is uniquely defined
by the following loop, which should always be used as a source of
symmetry information in preference to the above space-group names.
They are only intended as comments.
;
_shelxl_version_number           2014-3
_shelx_res_file
;
TITL FeMn_warm7 in P-31c
CELL  0.66951   8.2674   8.2674  13.8761   90.000   90.000  120.000
ZERR     2.00   0.0001   0.0001   0.0002    0.000    0.000    0.000
LATT   1
SYMM  - Y,   X - Y,   Z
SYMM  - X + Y, - X,   Z
SYMM  - Y, - X, 1/2 - Z
SYMM  - X + Y,   Y, 1/2 - Z
SYMM    X,   X - Y, 1/2 - Z
SFAC  C        2.31000 20.84392  1.02000 10.20751   1.58860   0.56870 =
         0.86500  51.65125   0.21560   0.003   0.001    10.064   0.770  12.011
SFAC  H        0.49300 10.51091  0.32291 26.12573   0.14019   3.14236 =
         0.04081  57.79977   0.00304   0.000   0.000     0.666   0.320   1.008
SFAC  N       12.21261  0.00570  3.13220  9.89331   2.01250  28.99754 =
         1.16630   0.58260 -11.52901   0.005   0.003    16.889   0.700  14.007
SFAC  O        3.04850 13.27711  2.28680  5.70111   1.54630   0.32390 =
         0.86700  32.90894   0.25080   0.009   0.005    27.551   0.660  15.999
SFAC  FE      11.76951  4.76111  7.35731  0.30720   3.52220  15.35351 =
         2.30450  76.88058   1.03690   0.338   0.762  2939.485   1.260  55.845
SFAC  MN      11.28191  5.34091  7.35731  0.34320   3.01930  17.86742 =
         2.24410  83.75438   1.08960   0.324   0.657  2538.176   1.370  54.938
UNIT  16   28   2    24   2    2
MERG   2
FMAP   2
PLAN   20
ACTA
L.S.  15
WGHT    0.084200    0.598500
FVAR      17.03047
MN2   6    0.666667    0.333333    0.250000    10.16667    0.02222    0.02222 =
         0.03011    0.00000    0.00000    0.01111
FE1   5    1.000000    0.000000    0.000000    10.16667    0.02182    0.02182 =
         0.03122    0.00000    0.00000    0.01091
O1    4    0.889034    0.342080    0.166366    11.00000    0.03609    0.03637 =
         0.05902   -0.01129    0.01059    0.01711
O2    4    1.015255    0.208394    0.082097    11.00000    0.03174    0.03268 =
         0.04766   -0.00508    0.00391    0.01738
C1    1    0.879036    0.211258    0.119011    11.00000    0.03104    0.03361 =
         0.04274   -0.00629    0.00070    0.01715
AFIX  43
H1    2    0.761427    0.107087    0.110136    11.00000    0.07064
AFIX   0
C2    1    1.333333    0.666667    0.155688    10.33333    0.04407    0.04407 =
         1.14314    0.00000    0.00000    0.02203
N1    3    1.282330    0.564660    0.250000    10.16667    0.06204    0.03019 =
         0.53347    0.00000   -0.11865    0.01510
HKLF    4

REM  FeMn_warm7 in P-31c
REM R1 =  0.0504 for    1018 Fo > 4sig(Fo)  and  0.0550 for all    1126 data
REM     41 parameters refined using      0 restraints

END

WGHT      0.0842      0.5985

REM Highest difference peak  0.809,  deepest hole -0.563,  1-sigma level  0.096
Q1    1   1.3333  0.6667  0.0858  10.33333  0.05    0.81
Q2    1   1.3333  0.6667  0.2500  10.16667  0.05    0.74
Q3    1   0.9619  0.0797  0.0398  11.00000  0.05    0.45
Q4    1   1.3282  0.5604  0.1717  11.00000  0.05    0.39
Q5    1   0.8655  0.2825  0.2168  11.00000  0.05    0.38
Q6    1   0.9451  0.1956  0.0421  11.00000  0.05    0.32
Q7    1   0.9521  0.1602  0.1224  11.00000  0.05    0.32
Q8    1   0.8284  0.2893  0.1231  11.00000  0.05    0.30
Q9    1   0.8822  0.2463  0.1675  11.00000  0.05    0.26
Q10   1   0.8066  0.1001  0.1544  11.00000  0.05    0.25
Q11   1   0.8643  0.0945  0.1778  11.00000  0.05    0.23
Q12   1   0.7869  0.2131  0.2500  10.50000  0.05    0.22
Q13   1   1.5294  0.8527  0.0516  11.00000  0.05    0.22
Q14   1   0.8844  0.1505  0.1707  11.00000  0.05    0.21
Q15   1   0.9083  0.3997  0.2249  11.00000  0.05    0.21
Q16   1   0.9347  0.3326  0.1105  11.00000  0.05    0.20
Q17   1   0.9029  0.3205  0.2626  11.00000  0.05    0.20
Q18   1   0.9010  0.1953  0.2043  11.00000  0.05    0.19
Q19   1   1.1573  0.2773  0.1298  11.00000  0.05    0.19
Q20   1   0.8769  0.0738  0.2045  11.00000  0.05    0.19
;
_shelx_res_checksum              41165
_shelx_hkl_file
;
   0   0   2 23590.4 1052.20   1
   0   0  -2 16840.4 808.975   2
   0   0  -3 207.714 118.482   2
   0   0   3 120.755 56.9551   1
   0   0   5-272.958 194.003   1
   0   0  -5 239.359 207.493   1
   0   0  -5 18.5146 105.631   2
   0   0  -6 53977.8 2510.76   2
   0   0   6 51484.2 2691.80   1
   0   0  -7 22.0924 188.085   2
   0   0  -7 102.826 192.791   1
   0   0   7 353.507 293.793   1
   0   0  -9-201.909 262.990   2
   0   0  -9 374.200 262.082   1
   0   0   9-55.3594 111.192   1
   0   0  10 8187.52 1352.65   1
   0   0 -10 7083.95 1213.38   2
   0   0 -10 7856.69 1465.85   1
   0   0 -11 838.838 515.636   2
   0   0 -11 1145.65 788.375   1
   0   0  11 792.307 481.994   1
   0   0 -12 653039. 13986.3   1
   0   0  13-505.525 536.353   1
   0   0 -13-19.5370 285.194   2
   0   0 -13 37.6325 18.0740   1
   0   0  14 1912.08 693.808   1
   0   0 -14 1163.69 589.556   2
   0   0 -14 600.535 388.325   1
   0   0 -15 693.769 640.799   1
   0   0 -15 154.437 555.999   2
   0   0  15-159.357 422.445   1
   0   0  16 85435.7 5634.49   1
   0   0 -16 91677.1 5980.70   1
   0   0  17-150.151 232.209   1
   0   0 -17-341.281 24.1042   1
   0   0  18 1706.52 808.388   1
   0   0 -18 1270.63 613.500   1
   0   0 -19-249.174 348.010   1
   0   0  19-115.839 474.319   1
   0   0  20 5014.07 1540.08   1
   0   0 -20 4192.89 1389.22   1
   0   0 -21-196.746 436.987   1
   0   0  21 499.558 927.652   1
   0   0 -22-84.1137 535.925   1
   0   0  22-201.996 489.934   1
   0   1  -3 191759. 4134.55   2
   1  -1   3 139209. 3531.88   1
  -1   1  -3 167066. 3982.46   1
   0  -1   3 159790. 3746.08   1
  -1   0  -3 192205. 3903.40   1
  -1   0   3 176038. 4059.71   1
  -1   1   3 191595. 3674.18   1
  -1   1  -3 188079. 3805.87   2
   1   0  -3 175598. 3793.56   2
   0   1  -3 174616. 4070.14   1
   0  -1  -4 3149.42 362.751   2
   1   0  -4 4700.78 685.135   2
   0  -1  -4 3248.47 521.753   1
  -1   0   4 4232.98 679.820   1
   1   0   4 4868.84 687.134   1
   0  -1   4 4845.64 715.961   1
   1   0  -4 5120.03 799.127   1
  -1   1   4 5131.51 634.994   1
   0   1   4 4763.90 566.413   1
   1  -1  -4 3911.76 579.261   1
   0   1  -4 5009.88 723.354   1
  -1   1  -4 5352.49 765.023   1
   1  -1   4 5486.33 773.504   1
  -1   0  -4 4182.52 521.835   2
  -1   1  -4 4759.51 684.919   2
   0   1  -4 5147.59 727.093   2
   1  -1  -4 4519.94 655.518   2
  -1   0  -4 4119.54 676.359   1
   1  -1   5 5510.54 844.978   1
  -1   0  -5 6444.13 886.007   1
   0   1  -5 5735.16 931.571   1
   1   0  -5 6910.18 1045.09   1
  -1   0  -5 5526.44 634.891   2
   1   0  -5 5510.09 796.279   2
  -1   1  -5 4422.78 709.315   2
   0   1   5 5738.02 691.390   1
   1  -1  -5 5638.87 790.506   2
   0  -1  -5 5199.87 571.093   2
   1   0   5 4824.51 735.254   1
  -1   1  -5 6044.27 921.662   1
   0  -1  -5 4226.24 632.868   1
   1  -1  -5 4819.99 683.347   1
   0   1  -5 6826.75 963.745   2
  -1   1   5 6413.47 874.421   1
  -1   0   5 5873.40 864.412   1
   0  -1   5 5895.09 929.830   1
   1  -1  -6 42910.3 2307.03   2
  -1   1   6 48365.4 2577.80   1
  -1   0  -6 40819.1 1938.09   2
   1   0  -6 45676.3 2720.46   1
  -1   0   6 58761.2 2908.27   1
   1  -1  -6 44415.9 2510.04   1
   0  -1   6 42347.5 2618.83   1
   0  -1  -6 31244.4 2055.51   1
   1  -1   6 39691.4 2477.86   1
   0   1   6 36028.9 2040.63   1
  -1   1  -6 48293.7 2833.41   1
   1   0  -6 51651.8 2612.61   2
   1   0   6 36863.2 2202.84   1
  -1   0  -6 41054.6 2499.66   1
   0   1  -6 47280.6 2686.48   2
   0   1  -6 52424.0 2882.39   1
   0  -1  -6 42081.0 1803.50   2
  -1   1  -6 48311.7 2446.20   2
   0   1  -7 86278.4 4106.70   1
   0   1   7 97653.6 3665.44   1
   1   0  -7 92800.0 4260.45   1
  -1   0   7 105108. 4288.74   1
   0  -1  -7 114392. 4202.45   1
  -1   0  -7 106128. 3449.41   2
   1   0  -7 101682. 4055.04   2
   1  -1  -7 101054. 3598.02   2
   1  -1   7 97647.5 4243.25   1
   0  -1   7 111293. 4512.04   1
  -1   0  -7 111936. 4489.10   1
  -1   1  -7 111282. 4019.94   2
   0   1  -7 116645. 4408.05   2
   1  -1  -7 120522. 4521.26   1
   1   0   7 90916.5 3782.30   1
  -1   1   7 93892.4 3846.61   1
  -1   1  -7 115734. 4663.25   1
   0  -1  -7 126347. 3508.81   2
   0  -1   8 30397.6 2431.21   1
  -1   1  -8 30649.4 2302.87   2
   1   0  -8 29936.5 2532.03   1
  -1   1   8 29119.5 2290.21   1
   1  -1  -8 29706.8 2407.38   1
   1  -1  -8 29959.8 2179.52   2
   0   1  -8 29541.4 2353.79   2
   0  -1  -8 29769.6 2346.36   1
   0  -1  -8 25620.7 1875.47   2
   0   1   8 28840.6 2195.09   1
   1  -1   8 32000.1 2519.90   1
  -1   1  -8 30304.0 2505.71   1
  -1   0  -8 33058.3 2093.48   2
  -1   0  -8 24163.8 2223.11   1
  -1   0   8 30263.8 2418.64   1
   0   1  -8 31052.2 2539.09   1
   1   0   8 35902.7 2562.47   1
   1   0  -8 37717.5 2613.16   2
   0  -1  -9 177055. 6095.10   1
   1  -1  -9 129375. 4731.37   2
  -1   1  -9 203148. 6116.24   2
   1   0  -9 174929. 6397.16   1
  -1   0   9 200406. 6593.95   1
   0   1  -9 167740. 6352.49   1
   1   0  -9 132805. 5204.67   2
   1   0   9 203788. 6486.59   1
  -1   0  -9 165454. 6111.79   1
  -1   0  -9 189367. 5371.30   2
  -1   1  -9 143517. 5858.83   1
   0   1  -9 191483. 6255.67   2
   0  -1  -9 156893. 4798.39   2
  -1   1   9 152125. 5572.66   1
   1  -1  -9 155392. 5892.45   1
   0  -1   9 148297. 5702.07   1
   1  -1   9 198104. 6614.34   1
   0   1   9 196978. 6029.95   1
  -1   0  10 557501. 11608.2   1
   0  -1 -10 473695. 10489.2   1
   1  -1 -10 490187. 9817.19   2
   1  -1 -10 429322. 10512.3   1
  -1   0 -10 494541. 11087.1   1
  -1   1 -10 427183. 10684.9   1
   0  -1  10 510973. 11012.6   1
   0   1 -10 475275. 11165.4   1
  -1   1  10 449675. 10102.4   1
   1   0 -10 471636. 10425.2   2
  -1   1 -10 485725. 10039.4   2
   1   0  10 479825. 10437.6   1
   0   1 -10 509573. 10678.4   2
   1   0 -10 503726. 11493.9   1
   0   1  10 495172. 10238.6   1
  -1   0 -10 407177. 8357.80   2
   1   0 -11 82942.7 4563.45   2
   0  -1  11 84275.6 4674.36   1
   1  -1  11 90456.4 4947.84   1
  -1   0 -11 80779.3 4695.63   1
   0   1 -11 79410.1 4368.83   2
  -1   1 -11 108699. 5018.05   2
   0  -1 -11 82540.0 3900.44   2
  -1   1 -11 79871.9 4768.90   1
   1  -1 -11 76469.1 4101.43   2
   0   1  11 77357.4 4303.50   1
   1   0 -11 77225.2 4653.52   1
   0  -1 -11 89028.6 4856.99   1
   0   1 -11 96359.4 5242.88   1
   1  -1 -11 88984.9 4935.69   1
  -1   1  11 88079.6 4598.60   1
   1   0  11 85545.5 4575.50   1
  -1   0 -11 81969.6 3993.40   2
  -1   0  11 99412.0 5135.79   1
  -1   0 -12 35231.4 2770.80   2
   0  -1  12 33883.4 3161.99   1
   1  -1 -12 31169.8 2832.12   2
  -1   1  12 32106.0 2904.34   1
  -1   0  12 32583.2 3018.37   1
  -1   1 -12 36466.1 3322.68   1
   0   1  12 34321.6 3022.83   1
  -1   0 -12 34543.3 3240.56   1
   0  -1 -12 35006.7 2719.47   2
   0   1 -12 40726.3 3194.18   2
   1  -1  12 34284.2 3118.04   1
  -1   1 -12 34923.4 2967.85   2
   1   0 -12 32265.5 2997.41   2
   1  -1 -12 31402.7 3036.74   1
   0   1 -12 32249.8 3021.70   1
   1   0  12 45255.6 3427.28   1
   1   0 -12 31066.7 3128.24   1
   0  -1 -12 33249.0 3121.31   1
  -1   0 -13 53029.7 4240.22   1
  -1   0  13 44208.7 3748.06   1
   1  -1  13 44423.7 3731.89   1
   1  -1 -13 50881.7 3727.23   2
   0   1 -13 48062.0 4015.34   1
   1   0 -13 55763.0 4155.57   2
   0  -1  13 67141.6 4498.06   1
   0   1  13 50602.1 3915.82   1
  -1   1 -13 52664.2 3841.55   2
   0  -1 -13 60529.2 3726.05   2
  -1   1  13 45009.8 3626.90   1
   1   0 -13 47321.7 3976.24   1
   0   1 -13 50734.9 3933.00   2
  -1   1 -13 45550.1 3872.92   1
   0  -1 -13 50783.2 4043.70   1
  -1   0 -13 52701.2 3572.50   2
   1  -1 -13 48581.4 3912.09   1
   1   0  13 50254.3 3869.36   1
   1  -1  14 130184. 6578.10   1
   1   0  14 161697. 7262.17   1
  -1   1 -14 127408. 6659.94   1
   1   0 -14 126612. 6630.96   1
   0   1  14 109963. 5893.41   1
   1  -1 -14 134327. 6415.51   2
   0   1 -14 119766. 6573.05   1
  -1   1  14 129117. 6335.95   1
   1  -1 -14 110966. 6187.25   1
  -1   0  14 123546. 6210.62   1
  -1   0 -14 136615. 6969.85   1
   0   1 -14 137208. 6604.17   2
   1   0 -14 146672. 6800.96   2
   0  -1 -14 119072. 6509.05   1
   0  -1  14 117919. 6276.37   1
  -1   1 -14 131096. 6327.78   2
   0   1  15 31436.8 3242.58   1
   1  -1 -15 27320.6 3077.25   2
   0   1 -15 34387.4 3468.55   2
  -1   0  15 32706.2 3273.19   1
   1   0  15 36881.0 3548.02   1
   0  -1  15 28385.7 3080.98   1
   1  -1 -15 27367.9 3196.06   1
  -1   0 -15 28991.5 3358.73   1
  -1   1  15 36469.6 3463.55   1
  -1   1 -15 33185.0 3354.61   2
   1   0 -15 29220.4 3278.51   2
   0   1 -15 30161.3 3300.48   1
   1   0 -15 34272.5 3491.01   1
   0  -1 -15 31653.6 3466.59   1
   1  -1  15 29780.0 3260.77   1
  -1   1 -15 28641.8 3361.04   1
   1  -1 -16 5712.76 1578.20   1
   1   0  16 7154.65 1698.77   1
   0  -1  16 7143.88 1634.72   1
  -1   0 -16 5064.25 1448.57   1
  -1   1  16 8854.17 1700.99   1
   0   1 -16 8151.33 1875.58   2
   1   0 -16 6424.08 1685.25   2
   0   1  16 5831.68 1454.40   1
   0   1 -16 4999.81 1382.81   1
  -1   0  16 7683.03 1695.07   1
   1  -1  16 4916.47 1362.34   1
   1   0 -16 5107.58 1397.88   1
   0  -1 -16 6707.46 1607.54   1
  -1   1 -16 4951.41 1431.77   1
   0  -1  17 4606.83 1329.06   1
   0   1 -17 6492.03 1619.96   1
  -1   0  17 6214.51 1586.14   1
   1  -1 -17 8462.86 1878.46   1
  -1   0 -17 6462.46 1513.06   1
  -1   1  17 8028.48 1677.53   1
  -1   1 -17 5529.63 1516.21   1
   0   1  17 7672.16 1654.53   1
   0  -1 -17 7139.33 1746.75   1
   1   0  17 5819.85 1535.35   1
   1   0 -17 6835.54 1805.98   1
   1  -1  17 4979.02 1433.31   1
  -1   1 -18 14188.7 2532.52   1
  -1   0  18 12454.0 2300.90   1
   0  -1  18 13347.1 2249.27   1
   1   0 -18 11462.1 2262.94   1
  -1   0 -18 12143.5 2191.59   1
   0   1 -18 14482.5 2363.77   1
   1  -1 -18 14528.2 2548.52   1
   1   0  18 15543.0 2615.60   1
   1  -1  18 14682.3 2523.48   1
   0  -1 -18 12170.1 2405.51   1
   0   1  18 12583.1 2312.46   1
  -1   1  18 15133.2 2458.18   1
   0   1 -19 1101.41 684.214   1
   1  -1 -19 3194.31 1291.70   1
   1   0 -19 2216.51 947.815   1
  -1   0  19 2689.86 1110.42   1
   1  -1  19 1836.31 1023.26   1
  -1   1 -19 3387.47 1266.56   1
   1   0  19 2366.32 983.010   1
  -1   0 -19 1280.43 800.476   1
   0   1  19 3049.57 1108.16   1
  -1   1  19 2264.74 897.857   1
   0  -1  19 3349.08 1200.36   1
   0  -1 -19 1859.25 788.777   1
  -1   0 -20 551.124 341.280   1
  -1   1  20 82.9838 257.877   1
   0  -1 -20 1151.85 865.822   1
  -1   1 -20 320.581 364.052   1
  -1   0  20 1281.26 808.861   1
   1   0  20 1194.30 706.253   1
   1  -1 -20-166.447 513.903   1
   0  -1  20-6.19847 391.595   1
   0   1 -20 1308.91 828.289   1
   1  -1  20 970.276 663.518   1
   1   0 -20-505.333 594.062   1
   0   1  20 343.434 235.177   1
   0  -1 -21 4265.48 1508.17   1
   0  -1  21 4485.03 1498.80   1
   1   0 -21 3544.62 1400.75   1
  -1   0  21 3318.00 1307.00   1
  -1   1  21 3827.73 1352.02   1
   0   1 -21 2932.28 1085.49   1
   1   0  21 3978.88 1371.82   1
  -1   0 -21 4160.90 1466.51   1
   1  -1 -21 3901.19 1416.95   1
  -1   1 -21 5613.46 1746.09   1
   1  -1  21 3770.75 1193.81   1
  -1   0  22 7749.01 2015.29   1
  -1   1 -22 10470.0 2198.61   1
  -1   0 -22 9683.14 2131.44   1
   1   0 -22 7812.40 2084.85   1
   2  -1 -22 1459.44 893.088   1
  -1   2 -21-183.643 468.760   1
  -2   1  21 507.365 590.655   1
   1  -2  21 218.872 248.628   1
   2  -1 -21 49.4848 664.290   1
  -2   1  20 22886.5 3270.12   1
  -1  -1 -20 26756.1 3523.82   1
   2  -1 -20 28282.6 3654.76   1
  -1   2 -20 29192.4 3642.47   1
   1  -2  20 27887.9 3563.65   1
  -1  -1 -19 825.862 593.257   1
  -2   1  19 71.1299 191.336   1
   1  -2  19 170.721 380.095   1
   1   1  19 871.722 655.559   1
   2  -1 -19 141.436 234.796   1
  -1   2 -19 209.210 602.678   1
   1  -2  18 1117.75 659.782   1
   2  -1 -18 3221.70 1305.08   1
  -1   2 -18 3031.55 1183.11   1
   1   1  18 2982.73 1131.03   1
  -2   1  18 2402.91 1097.42   1
  -1  -1 -18 3030.46 1176.40   1
   2  -1 -17-197.104 475.533   1
  -1   2 -17-28.1508 286.866   2
   1  -2  17-301.576 562.810   1
  -1  -1 -17 233.116 645.331   1
   1   1  17 254.025 402.478   1
  -2   1  17 152.247 225.203   1
  -1   2 -17-61.2710 266.382   1
  -2   1  16 64432.4 4929.26   1
  -1  -1 -16 80974.8 5710.05   1
   2  -1 -16 65339.1 5158.01   1
   1   1  16 86360.5 5718.72   1
  -1   2 -16 90764.5 6147.74   1
  -1   2 -16 84161.7 5743.15   2
   2  -1 -16 76206.9 5558.48   2
   1  -2  16 79103.1 5522.18   1
  -1  -1 -15-391.947 568.141   1
   1  -2  15 112.165 154.727   1
  -1   2 -15 1.31854 345.506   1
   2  -1 -15 125.589 178.704   2
  -2   1  15 607.990 569.856   1
  -1   2 -15 747.298 430.277   2
   1   1  15 68.8872 351.640   1
   2  -1 -15 69.3231 337.083   1
  -1   2 -14 1364.52 570.404   2
   1  -2  14 2043.23 1067.00   1
  -1  -1 -14 1303.22 703.643   1
  -2   1  14 276.368 236.949   1
   2  -1 -14 1099.65 410.193   1
   1   1  14 1255.83 475.635   1
   2  -1 -14 831.260 514.842   2
  -1   2 -14 1519.77 823.160   1
   2  -1 -13 314.949 443.582   2
   1  -2  13-313.072 478.407   1
   2  -1 -13-1056.85 710.918   1
  -1   2 -13 121.240 236.437   2
  -2   1  13-440.983 612.995   1
  -1   2 -13 75.5722 512.999   1
  -1  -1 -13-141.115 483.113   1
   1   1  13-55.5443 363.759   1
   2  -1 -12 266255. 9090.52   1
   2  -1 -12 265759. 8532.69   2
  -1  -1 -12 264195. 8875.53   1
  -2   1  12 251394. 8465.38   1
  -1   2 -12 278442. 9459.92   1
   1   1  12 258504. 8363.96   1
  -1   2 -12 305178. 9426.66   2
   1  -2  12 232287. 8373.54   1
  -1  -1 -11-35.6437 190.576   2
   2  -1 -11 73.6742 365.349   1
   1  -2  11 446.157 417.981   1
  -1   2 -11 520.208 564.784   1
  -1  -1 -11 102.939 222.045   1
   1   1  11-55.9676 206.140   1
   2  -1 -11 111.285 170.762   2
  -1   2 -11 458.922 397.043   2
  -2   1  11 1109.72 710.366   1
   2  -1 -10 37923.1 3199.48   1
  -2   1  10 35347.0 2943.89   1
   2  -1 -10 39892.4 3003.10   2
   1  -2  10 51418.0 3677.02   1
  -1   2 -10 33187.8 3022.69   1
  -1  -1 -10 43079.4 3198.30   1
   1   1  10 39034.6 2926.36   1
  -1   2 -10 40813.0 3088.77   2
  -1  -1 -10 28433.5 1995.83   2
  -1   2  -9-566.699 383.930   1
   1   1   9 101.835 279.828   1
  -1  -1  -9 83.8909 202.323   2
   2  -1  -9 23.3424 180.268   2
   2  -1  -9-264.142 358.287   1
  -1  -1  -9 358.584 346.507   1
   1  -2   9-92.1996 252.884   1
  -1   2  -9 42.9060 227.407   2
  -2   1   9 172.837 389.103   1
  -2   1   7 300.849 274.789   1
  -1   2  -7-713.648 513.864   1
  -1   2  -7-473.360 467.429   2
  -1  -1  -7 104.071 112.224   2
   2  -1  -7-428.212 187.350   2
   1   1   7 164.797 189.882   1
   2  -1  -7 45.8073 140.716   1
   1  -2   7 847.464 608.393   1
  -1  -1  -7-136.690 67.5387   1
   2  -1  -6 1862.96 568.903   1
  -1  -1  -6 2104.21 612.768   1
   2  -1  -6 2505.61 598.621   2
  -2   1   6 2701.34 667.100   1
  -1   2  -6 1813.82 620.098   1
   1  -2   6 2001.89 493.611   1
  -1   2  -6 1824.54 492.226   2
  -1  -1  -6 1328.88 245.666   2
   1   1   6 2896.14 616.594   1
   1  -2   5 263.132 249.934   1
   1   1   5 48.6592 117.202   1
  -2   1   5-404.599 320.784   1
  -1   2  -5 157.231 320.955   1
  -1  -1  -5 101.290 186.480   1
   2  -1  -5-39.5431 184.860   2
  -1   2  -5 134.302 196.308   2
   2  -1  -5 35.3362 208.246   1
  -1   2  -3 423.584 363.408   2
   2  -1  -3-134.518 108.852   1
  -1  -1  -3 201.507 121.199   1
   1  -2   3-72.4110 84.0893   1
   1   1   3 78.6079 65.7834   1
  -1   2  -3-93.6591 229.309   1
  -2   1   3 95.5235 195.876   1
   1  -2   1 85.9725 108.187   1
   1   1   1-191.043 148.145   1
  -1  -1  -1 3.65854 131.740   1
  -2   1   1-162.323 230.975   1
  -1   2  -1-366.453 199.945   2
   2  -1  -1-395.484 164.999   1
   1   1   1-11.8004 100.436   2
  -1   2  -1-106.088 90.5035   1
  -1   2   1 75.1780 126.109   2
   1  -2  -1 53.6622 46.4143   1
   2  -1   1-340.203 289.120   1
  -1  -1   1-266.640 188.812   1
   1   1  -1-222.017 71.6193   2
  -1   2   1 47.2104 6.38277   1
   1   1  -1 234.252 217.346   1
  -2   1  -1-178.610 188.661   1
   1   1  -3-153.697 146.885   1
  -2   1  -3 35.1800 123.413   2
   2  -1   3-142.179 186.356   1
   1   1  -3 486.249 211.135   2
  -2   1  -3 232.951 300.810   1
   1  -2  -3-58.1753 132.289   1
  -1   2   3-16.8423 52.4266   1
  -1  -1   3 29.7322 82.6445   1
  -1   2   5-26.4346 129.538   1
  -1  -1   5 35.8677 66.9914   1
   1   1  -5-132.758 142.563   1
  -2   1  -5 184.292 200.700   2
   1   1  -5-63.6592 283.208   2
   1  -2  -5-78.8167 178.440   1
  -2   1  -6 22487.2 1942.61   1
  -1   2   6 27865.6 1751.44   1
   2  -1   6 20075.0 1823.15   1
  -2   1  -6 20041.0 1664.69   2
   1   1  -6 25121.2 2104.09   1
  -1  -1   6 20931.6 1890.93   1
   1  -2  -6 22316.8 1706.48   1
   1  -2  -6 14921.7 1373.21   2
   1   1  -6 24127.4 1984.41   2
  -1  -1   7 9.17620 174.901   1
   1   1  -7 551.977 367.423   2
   1   1  -7 141.093 268.409   1
   1  -2  -7 286.949 298.958   1
  -2   1  -7-205.600 335.756   1
   1  -2  -7 290.968 234.444   2
  -1   2   7 47.5726 256.315   1
   2  -1   7 43.2581 285.707   1
  -2   1  -8 605678. 11508.4   1
  -2   1  -9 19.3160 139.494   2
   1   1  -9 99.1109 368.714   2
   1   1  -9-190.224 269.340   1
   2  -1   9-218.979 225.613   1
  -1   2   9 240.917 145.359   1
   1  -2  -9 196.454 206.016   2
  -2   1  -9 328.709 374.929   1
  -1  -1   9 201.059 253.260   1
   1  -2  -9-16.2778 417.062   1
  -1  -1  10 63414.2 4020.14   1
  -2   1 -10 57588.5 3923.70   1
   1  -2 -10 62883.7 3234.14   2
   1   1 -10 61333.0 3959.22   2
  -1   2  10 52006.1 3311.24   1
   2  -1  10 53401.2 3644.34   1
   1   1 -10 55551.3 3900.37   1
  -2   1 -10 54784.4 3280.01   2
   1  -2 -11 465.909 473.581   1
  -2   1 -11 506.028 496.023   2
  -1   2  11-234.631 292.116   1
   2  -1  11 278.517 337.761   1
  -2   1 -11 812.500 241.905   1
  -1  -1  11 31.0105 329.457   1
   1  -2 -11 99.7915 207.640   2
   1   1 -11 232.941 248.143   2
   1   1 -11 53.2328 214.227   1
   1   1 -12 305766. 9991.21   1
   2  -1  12 325799. 9789.80   1
  -1  -1  12 298225. 9465.95   1
   1  -2 -12 352108. 8783.60   2
   1  -2 -12 292300. 9213.45   1
   1   1 -12 272863. 9173.66   2
  -2   1 -12 314979. 8755.82   2
  -2   1 -12 296864. 9757.15   1
  -1  -1  13 75.0639 163.848   1
   1   1 -13-309.427 346.758   1
  -1   2  13-153.639 260.193   1
  -2   1 -13-292.162 340.733   1
   1  -2 -13 124.477 231.273   1
   1  -2 -13 153.820 196.104   2
   1   1 -13-589.265 542.706   2
  -2   1 -13 17.1181 74.1933   2
   2  -1  13-35.2241 344.665   1
  -2   1 -14 11126.8 1984.41   1
   1   1 -14 12821.0 2224.88   1
  -2   1 -14 11563.9 1845.47   2
   2  -1  14 13837.1 2069.24   1
  -1   2  14 14038.4 2035.34   1
   1  -2 -14 12834.1 2042.05   1
  -1  -1  14 13617.7 2186.81   1
   1   1 -14 12860.8 2024.12   2
   2  -1  15-13.4033 166.399   1
  -2   1 -15-758.266 654.738   1
   1   1 -15-819.847 440.558   2
   1  -2 -15 40.5019 401.112   1
  -1  -1  15 303.722 542.656   1
   1   1 -15 15.3124 172.933   1
  -1   2  15-415.007 372.489   1
   1  -2 -16 65488.7 5059.13   1
  -2   1 -16 55918.9 4810.94   1
  -1   2  16 69816.4 5076.94   1
  -1  -1  16 56637.4 4633.94   1
   1   1 -16 53987.2 4746.20   1
   1   1 -16 61592.5 4928.07   2
   2  -1  16 56397.5 4649.20   1
  -1   2  17 79.6996 340.833   1
  -1  -1  17-10.5815 275.915   1
   1   1 -17-254.108 520.646   2
   1  -2 -17-548.723 762.505   1
   2  -1  17 424.962 521.257   1
   1   1 -17-207.930 667.454   1
  -2   1 -17-416.685 642.608   1
  -1   2  18 274.427 326.033   1
  -2   1 -18 517.725 402.347   1
   1   1 -18 150.485 528.931   1
   1   1 -18-439.741 473.443   2
  -1  -1  18-617.802 668.545   1
   1  -2 -18-812.614 726.194   1
   2  -1  18 1255.93 746.082   1
  -1  -1  19 381.653 435.502   1
   1  -2 -19-229.476 356.469   1
  -1   2  19 388.738 477.039   1
   2  -1  19 770.561 561.629   1
   1   1 -19 176.989 305.193   1
  -2   1 -19 123.397 332.149   1
  -1  -1  20 42019.8 4386.69   1
   1   1 -20 36658.3 4151.78   1
  -2   1 -20 36095.1 4099.52   1
   2  -1  20 29733.3 3728.02   1
   2  -1  21-451.174 459.852   1
   1   1 -21 70.8191 294.675   1
  -2   1 -21-20.8524 429.298   1
  -1  -1  21-187.245 481.988   1
  -2   2   0 149196. 3499.30   1
   2   0   0 156130. 3779.23   1
  -2   2   1 144970. 3443.85   1
   0  -2   1 188290. 3499.40   1
  -2   0   1 165872. 4009.77   1
  -2   2  -1 157940. 3816.63   1
   2   0  -1 146011. 3757.18   1
   2  -2  -1 167454. 3794.62   1
   2  -2   1 149268. 3838.90   1
  -2   2  -1 185777. 4505.46   2
   0   2  -1 175409. 3908.19   2
   2   0   1 160448. 3834.65   1
   2   0   4 309613. 6277.71   1
  -2   2  -4 362957. 6990.30   2
  -2   0  -7 82107.5 3942.71   1
  -2   2  -7 86951.2 4298.75   1
  -2   0  -7 75366.1 2826.30   2
   2   0  -7 77387.9 3728.76   2
   2   0  -7 77270.7 4116.01   1
   2  -2  -7 72669.4 3616.03   1
   2  -2   7 71643.5 3805.28   1
   0   2  -7 85405.7 4242.23   1
   2   0   7 73893.6 3540.25   1
  -2   0   7 77766.2 3934.63   1
   0   2  -7 78810.4 3928.49   2
   0   2   7 81624.3 3220.74   1
  -2   2   7 62287.2 3187.94   1
   2  -2  -7 81009.1 3616.91   2
  -2   2  -7 76787.4 3725.70   2
   0  -2   7 70534.6 3799.50   1
   0  -2  -7 75748.4 3261.42   1
   0  -2  -7 69376.4 2127.70   2
   0  -2   8 9522.10 1470.62   1
   2   0  -8 8468.70 1382.53   1
   0   2   8 11228.8 1260.00   1
   0  -2  -8 7533.87 786.944   2
   0   2  -8 9931.84 1479.33   2
   2  -2   8 9942.72 1525.57   1
  -2   0  -8 7323.04 1194.47   1
   2   0  -8 10049.3 1437.91   2
   2  -2  -8 7891.28 1270.25   1
   0   2  -8 8344.19 1331.88   1
  -2   2   8 6649.25 1114.11   1
   2   0   8 8180.19 1240.50   1
  -2   0   8 8006.29 1325.16   1
  -2   2  -8 7033.70 1152.68   2
  -2   2  -8 8935.01 1429.93   1
   2  -2  -8 6032.27 1054.74   2
  -2   0  -8 8320.06 952.302   2
   0  -2  -8 6073.27 1008.88   1
   2  -2  -9 39461.7 2789.03   2
   2   0   9 30282.4 2515.22   1
  -2   0   9 38986.4 2937.63   1
  -2   0  -9 37453.1 2247.02   2
  -2   2  -9 38029.8 3139.48   1
   0   2   9 40265.1 2627.49   1
   2   0  -9 34257.1 2898.92   1
  -2   2   9 34481.1 2618.92   1
   2  -2  -9 41068.0 3020.04   1
   0  -2   9 32876.9 2826.02   1
   0   2  -9 38754.8 2996.11   2
   0   2  -9 35695.6 3000.97   1
  -2   0  -9 35069.2 2859.45   1
  -2   2  -9 37265.2 2864.60   2
   2   0  -9 47500.4 3204.75   2
   0  -2  -9 33896.0 2634.41   1
   2  -2   9 31708.0 2811.61   1
   0  -2  -9 34307.4 1858.76   2
   0   2 -10 148518. 6154.21   2
   2  -2  10 170561. 6770.21   1
   0   2 -10 155299. 6545.91   1
   0  -2 -10 156757. 5910.77   1
   0  -2  10 142910. 6032.99   1
   2   0 -10 171407. 6867.28   1
  -2   0 -10 154248. 6274.49   1
   2  -2 -10 120635. 5629.58   1
  -2   2 -10 162419. 6156.70   2
   2   0 -10 170538. 6471.37   2
   2  -2 -10 177802. 5994.46   2
  -2   2  10 127975. 5418.11   1
   2   0  10 178632. 6518.52   1
   0   2  10 167054. 5839.02   1
   0  -2 -10 169886. 4535.10   2
  -2   2 -10 150189. 6480.34   1
  -2   0 -10 149631. 4914.29   2
  -2   0  10 165635. 6589.28   1
  -2   2  11 119266. 5433.16   1
   2  -2 -11 147071. 5715.43   2
   0  -2 -11 127036. 4238.10   2
  -2   2 -11 133162. 6338.73   1
   2   0 -11 131593. 6055.16   2
   0  -2 -11 137044. 6012.50   1
   2   0  11 144450. 6137.16   1
  -2   2 -11 145136. 6046.97   2
   0  -2  11 144687. 6417.90   1
   2   0 -11 152543. 6633.48   1
   0   2 -11 148855. 6465.45   2
  -2   0  11 134342. 6182.72   1
   0   2 -11 134932. 6393.63   1
   2  -2 -11 159509. 6662.91   1
   2  -2  11 126796. 6049.19   1
  -2   0 -11 130872. 5087.45   2
   0   2  11 144665. 5723.14   1
  -2   0 -11 140788. 6264.39   1
  -2   0  12 42231.1 3424.52   1
   0  -2 -12 39555.2 3312.03   1
   0   2 -12 37027.9 3295.11   2
  -2   0 -12 35070.0 2667.77   2
   2  -2 -12 42475.0 3633.70   1
   2   0 -12 31157.0 3105.05   2
  -2   0 -12 32181.3 3107.16   1
   2  -2 -12 30329.2 2821.46   2
  -2   2  12 35928.3 3179.20   1
   0  -2  12 41925.3 3470.38   1
  -2   2 -12 35379.7 3420.87   1
   2   0 -12 38339.6 3486.92   1
   2   0  12 33720.1 3106.74   1
  -2   2 -12 40757.0 3388.15   2
   2  -2  12 40949.1 3502.58   1
   0   2 -12 43679.5 3619.22   1
   0   2  12 35492.1 2989.39   1
   0   2 -13 39392.9 3461.26   2
   2   0  13 37689.0 3400.24   1
   0  -2  13 32947.8 3270.75   1
   2  -2 -13 41686.3 3740.68   1
  -2   2 -13 32550.4 3324.70   1
  -2   2 -13 43017.9 3610.23   2
   0   2 -13 34842.1 3450.62   1
   2  -2  13 46794.9 3726.53   1
  -2   2  13 34817.9 3224.54   1
   2  -2 -13 34509.8 3206.47   2
   0   2  13 35262.4 3086.81   1
   2   0 -13 35225.6 3485.58   1
  -2   0 -13 40503.0 3657.20   1
  -2   0  13 43630.7 3701.69   1
   2   0 -13 31702.6 3360.79   2
   0  -2 -13 35909.8 3359.54   1
  -2   2 -14 86061.7 5377.91   2
  -2   2  14 73964.2 4956.01   1
   2  -2  14 81813.5 5319.74   1
   2   0 -14 90332.4 5653.19   1
   0   2 -14 85795.8 5451.83   2
   0   2  14 84571.5 5083.32   1
  -2   0  14 84835.7 5400.76   1
   2   0  14 75195.2 5020.70   1
   2  -2 -14 88123.4 5550.27   1
   2   0 -14 80776.9 5384.38   2
   0  -2 -14 95583.3 5734.58   1
  -2   2 -14 86003.3 5664.17   1
   0  -2  14 76638.3 5144.26   1
  -2   0 -14 80246.4 5340.96   1
   2  -2 -14 81457.3 5172.72   2
   0   2 -14 79807.2 5367.31   1
   0  -2 -15 981.316 594.025   1
   0   2 -15 534.548 363.410   1
  -2   0 -15-50.9741 140.470   1
   0   2 -15 314.885 475.275   2
   2  -2 -15 1354.34 769.294   1
  -2   2 -15 345.209 343.698   2
   2   0  15 302.955 567.085   1
  -2   2  15 86.4763 208.649   1
   0   2  15 540.202 137.277   1
  -2   2 -15 641.944 469.957   1
   2   0 -15 1004.23 601.165   1
   0  -2  15 1612.54 906.958   1
   2   0 -15 823.978 514.510   2
   2  -2  15 429.445 436.407   1
  -2   0  15 713.044 455.489   1
   2  -2 -16 852.035 668.416   1
  -2   0 -16 1415.73 710.990   1
   2   0 -16 1179.41 483.536   1
  -2   0  16 2254.79 1009.05   1
   0  -2  16 1830.26 988.661   1
   0   2  16 1802.52 971.406   1
   0   2 -16 1478.66 956.043   2
   2  -2  16 792.845 644.686   1
   2   0 -16 1532.99 777.331   2
  -2   2  16 1650.60 852.933   1
   0  -2 -16 1611.52 777.287   1
   0   2 -16 1698.53 918.032   1
  -2   2 -16 1083.15 501.734   1
   2   0  16 1632.59 855.718   1
  -2   2  17 15002.2 2400.13   1
   0  -2 -17 15789.2 2521.83   1
   0  -2  17 12126.1 2160.02   1
   0   2  17 14862.3 2422.38   1
   2  -2  17 13981.7 2409.34   1
   2  -2 -17 11094.1 2153.75   1
   2   0 -17 13546.8 2424.95   2
   0   2 -17 11717.3 2338.98   2
   2   0 -17 13036.9 2318.88   1
   0   2 -17 11203.3 2237.50   1
  -2   0  17 10157.0 2053.56   1
   2   0  17 15336.0 2518.06   1
  -2   2 -17 13379.5 2292.06   1
  -2   0 -17 10955.3 2115.43   1
   0   2 -18 32103.5 3809.21   1
  -2   0  18 26031.5 3251.58   1
   0   2 -18 28168.2 3643.18   2
   0  -2 -18 27171.4 3482.51   1
  -2   0 -18 26756.5 3460.74   1
  -2   2 -18 28881.7 3478.08   1
   2  -2  18 26891.2 3429.39   1
   2   0 -18 24859.2 3324.32   1
  -2   2  18 31393.2 3648.24   1
   2   0  18 26909.3 3408.91   1
   2  -2 -18 27062.7 3509.57   1
   0  -2  18 32127.7 3718.47   1
   2   0 -19 18554.4 2959.20   1
   2   0  19 16972.9 2743.59   1
   0  -2  19 18407.3 2720.08   1
  -2   0  19 21068.2 2977.07   1
  -2   2  19 15360.9 2673.73   1
   2  -2 -19 18206.4 2962.27   1
  -2   0 -19 18972.0 2984.06   1
   0   2 -19 19159.8 2920.81   1
  -2   2 -19 15459.9 2694.76   1
   2  -2  19 16822.9 2779.13   1
   0   2 -20 4308.28 1478.80   1
   2  -2 -20 4064.76 1365.67   1
   2   0  20 4496.14 1464.88   1
   2   0 -20 5211.77 1485.92   1
  -2   2 -20 4628.34 1460.64   1
  -2   2  20 4282.09 1466.69   1
   2  -2  20 4995.18 1504.14   1
  -2   0  20 5159.72 1574.93   1
   0  -2  20 3483.19 1237.38   1
  -2   0 -20 4207.63 1456.89   1
   0  -2  21 3355.06 1332.03   1
   2  -2  21 2441.02 1027.96   1
  -2   2 -21 2169.36 1011.57   1
  -2   0 -21 1801.85 925.096   1
   2   0 -21 1852.25 888.945   1
   0   2 -21 1965.98 973.215   1
  -2   0  21 2754.24 1172.56   1
  -2   3 -21 1100.53 501.025   1
   3  -2 -21 1182.08 794.278   1
  -3   1  21 262.675 392.554   1
  -3   2  21 1838.64 1013.41   1
   2  -3  21 2391.31 1132.98   1
   3  -1 -21 112.309 314.162   1
  -1   3 -20 7542.30 1927.95   1
   3  -2 -20 8638.84 2008.92   1
   3  -1 -20 6555.33 1815.29   1
  -2   3 -20 6179.83 1757.77   1
  -3   1  20 6460.48 1715.98   1
   2  -3  20 7184.80 1848.67   1
  -3   2  20 4981.18 1500.81   1
   1  -3  20 9812.50 2140.50   1
  -3   2  19 1324.53 565.430   1
  -1   3 -19 1942.95 807.941   1
   3  -2 -19 1497.94 748.862   1
   2  -3  19 4167.88 1369.30   1
  -2   3 -19 1745.05 946.153   1
   1  -3  19 3829.85 1309.69   1
   3  -1 -19 2079.62 1026.34   1
  -3   1  19 3984.71 1272.05   1
  -3   2  18 27008.8 3386.30   1
   3  -1 -18 32454.2 3833.23   1
  -1   3 -18 34724.1 3923.85   2
  -3   1  18 38863.1 4011.65   1
  -1   3 -18 32841.1 3835.27   1
   2  -3  18 41157.6 4221.15   1
   2   1  18 39536.0 4037.63   1
   1  -3  18 30140.8 3583.32   1
  -2   3 -18 34223.7 3864.27   1
   3  -2 -18 33453.7 3872.24   1
  -2  -1 -18 37553.7 4077.16   1
  -1   3 -17 26458.8 3380.94   1
   3  -1 -17 25255.5 3373.08   1
   1  -3  17 28490.7 3423.46   1
   3  -2 -17 25166.7 3320.69   1
  -2   3 -17 25665.4 3347.83   2
  -3   2  17 36283.3 3708.85   1
   2  -3  17 31990.4 3638.72   1
   2   1  17 23367.2 3175.98   1
  -3   1  17 25406.4 3145.72   1
  -2   3 -17 27637.4 3315.52   1
   3  -1 -17 23604.8 3306.93   2
  -1   3 -17 27839.1 3506.64   2
  -2  -1 -17 25969.8 3369.69   1
   1  -3  16 242.144 289.878   1
  -1  -2 -16 532.800 163.504   1
   3  -2 -16 32.2064 206.547   1
   2   1  16-281.222 217.927   1
   2  -3  16 593.864 612.857   1
  -2   3 -16-130.478 251.852   2
   3  -2 -16 355.087 428.544   2
  -3   1  16 805.729 700.487   1
  -1   3 -16 1007.20 888.628   2
  -2  -1 -16 192.796 354.863   1
   3  -1 -16-132.292 450.111   1
  -2   3 -16 1006.39 683.961   1
  -1   3 -16-386.819 715.169   1
   3  -1 -16-60.8930 318.450   2
  -3   2  16 511.619 492.849   1
   1   2  16 182.683 386.116   1
   3  -2 -15 64406.7 4984.33   1
   3  -1 -15 56478.9 4613.37   1
   2  -3  15 60894.3 4817.33   1
  -2  -1 -15 61556.3 4815.35   1
   3  -1 -15 59955.0 4797.72   2
   3  -2 -15 50537.7 4493.21   2
  -2   3 -15 51612.0 4512.92   2
  -1   3 -15 52545.1 4555.12   2
  -3   2  15 45049.3 4060.38   1
  -2   3 -15 49730.4 4475.70   1
  -3   1  15 51702.4 4406.72   1
  -1   3 -15 50943.7 4520.93   1
   1   2  15 62473.3 4604.77   1
  -1  -2 -15 60032.0 4726.85   1
   1  -3  15 57318.0 4603.47   1
   2   1  15 60822.3 4572.71   1
   2   1  14 32256.1 3275.10   1
  -3   1  14 44801.0 3902.57   1
  -2  -1 -14 36107.6 3500.81   1
   1   2  14 36730.4 3411.86   1
  -1   3 -14 38758.6 3716.81   2
   1  -3  14 36762.6 3649.37   1
   3  -1 -14 30987.1 3412.62   2
  -1  -2 -14 32903.7 3443.64   1
   3  -2 -14 37081.9 3581.75   2
   3  -2 -14 32452.2 3492.72   1
  -2   3 -14 37918.4 3702.00   2
  -1   3 -14 39878.1 3938.62   1
  -2   3 -14 35169.6 3665.22   1
   2  -3  14 35805.8 3531.20   1
  -3   2  14 35595.6 3480.18   1
   3  -1 -14 37713.5 3795.52   1
  -3   1  13 9021.32 1697.97   1
   3  -1 -13 10842.4 2043.70   1
   1   2  13 10349.7 1737.90   1
  -2   3 -13 10074.0 1840.78   2
   2  -3  13 8027.43 1701.31   1
   3  -1 -13 11608.1 1986.61   2
  -1   3 -13 10744.7 1861.18   2
  -3   2  13 11018.5 1877.62   1
  -1  -2 -13 12285.8 1919.86   1
  -2  -1 -13 11767.0 1864.37   1
   1  -3  13 10473.6 1914.83   1
   3  -2 -13 11505.1 2034.84   1
   2   1  13 12259.0 1898.82   1
  -1   3 -13 9469.82 1823.46   1
  -2   3 -13 11546.5 1828.30   1
   3  -2 -13 7957.72 1698.03   2
  -3   2  12 568.309 153.452   1
   3  -2 -12 1754.76 657.939   2
  -2  -1 -12 1767.59 722.537   1
   1   2  12 3023.20 901.679   1
   3  -1 -12 2380.09 786.992   1
  -3   1  12 1586.48 805.435   1
   2   1  12 2207.81 840.937   1
  -1   3 -12 2261.94 666.060   1
  -1   3 -12 1644.25 520.811   2
  -1  -2 -12 2205.87 803.048   1
  -2   3 -12 1706.27 743.783   1
  -2   3 -12 1559.88 662.607   2
   2  -3  12 3046.78 966.150   1
   3  -2 -12 2511.40 869.169   1
   1  -3  12 1619.27 586.332   1
   3  -1 -12 1886.23 799.454   2
   2  -3  11 2962.88 996.552   1
  -2  -1 -11 2748.19 831.358   1
  -1   3 -11 2303.62 884.903   2
   1   2  11 2722.46 824.387   1
   3  -1 -11 2150.71 742.248   1
   2   1  11 2155.48 797.177   1
   3  -2 -11 2258.16 739.974   2
  -2   3 -11 2033.38 704.676   1
  -3   2  11 2557.86 865.546   1
  -1  -2 -11 1880.82 690.431   1
  -2   3 -11 2887.22 935.599   2
  -3   1  11 1879.65 657.040   1
   3  -2 -11 2743.75 914.281   1
   1  -3  11 2002.69 739.618   1
  -1   3 -11 2285.58 565.765   1
   3  -1 -11 3561.74 1022.92   2
   3  -1 -10 272035. 8206.49   2
   2  -3  10 288134. 9128.86   1
  -1  -2 -10 257613. 7639.05   1
   3  -1 -10 276746. 8956.80   1
   2   1  10 207780. 6905.88   1
  -1   3 -10 221893. 7907.11   2
   3  -2 -10 272616. 8096.02   2
  -2  -1 -10 236225. 7664.34   1
  -3   2  10 227610. 7534.00   1
  -1   3 -10 222345. 8224.41   1
   1  -3  10 184125. 7359.39   1
   3  -2 -10 217316. 7754.42   1
   1   2  10 235372. 6930.77   1
  -3   1  10 245405. 8008.70   1
  -2   3 -10 226541. 7779.27   2
  -2   3 -10 231526. 8306.76   1
   2  -3   9 39755.7 3166.24   1
  -2  -1  -9 37242.0 2853.32   1
   3  -1  -9 47161.0 3299.02   2
  -2   3  -9 48306.5 3510.17   1
  -3   2   9 41145.2 3063.06   1
   3  -1  -9 38512.9 3244.36   1
  -2  -1  -9 30148.4 1584.08   2
  -1   3  -9 41967.1 3288.37   2
  -3   1   9 54401.1 3635.17   1
   3  -2  -9 45368.3 3340.11   1
  -1  -2  -9 41082.4 2839.49   1
   1  -3   9 36606.4 3145.11   1
   1   2   9 36982.6 2585.08   1
   3  -2  -9 47375.9 3313.47   2
   2   1   9 40022.0 2825.81   1
  -2   3  -9 37541.8 3079.92   2
  -1   3  -9 36073.4 3183.62   1
  -1   3  -8 573914. 11616.5   2
   3  -2  -8 570064. 11094.3   2
   3  -2  -8 556191. 11329.7   1
   2  -3   8 530346. 11396.3   1
   1  -3   8 516401. 11141.6   1
  -2   3  -8 528263. 10982.0   2
  -2   3  -8 564858. 11941.2   1
   3  -1  -8 561252. 11207.6   2
  -1  -2  -7 119788. 4162.07   1
  -2   3  -7 118135. 5201.20   1
  -3   1   7 116495. 5024.69   1
  -2  -1  -7 134065. 5127.70   1
  -1   3  -7 125906. 5172.09   2
  -2   3  -7 122768. 5117.06   2
   1   2   7 128275. 4119.90   1
   2   1   7 117081. 4402.73   1
   3  -2  -7 137914. 5269.68   1
   1  -3   7 128334. 5268.66   1
  -3   2   7 132147. 5088.77   1
   2  -3   7 117523. 5123.34   1
  -1   3  -7 123117. 5207.86   1
   3  -2  -7 127804. 5184.99   2
   3  -1  -7 130768. 5255.16   2
   3  -1  -7 132687. 5379.19   1
  -3   1   4 254981. 6352.70   1
   2  -3   4 245519. 6189.18   1
  -2   3  -4 247415. 6342.68   1
   3  -2  -4 249214. 6174.28   1
  -1   3  -4 244103. 6244.56   1
  -2   3  -4 275654. 6814.22   2
  -1   3  -4 242586. 6434.40   2
   2   1   4 267107. 5469.49   1
   3  -1  -4 265238. 6632.95   1
   1  -3   4 262761. 6306.95   1
  -3   2   4 236810. 5851.66   1
  -2  -1  -2 127328. 3434.15   1
   2   1   2 112935. 2895.50   2
   3  -1  -2 109063. 3911.47   1
  -2   3  -2 123253. 4118.60   2
   2  -3   2 100702. 3463.48   1
  -1   3  -2 108152. 3822.13   2
  -3   1   2 108070. 3890.57   1
  -2   3  -2 113254. 3899.87   1
   3  -2  -2 105517. 3831.15   1
   2   1   2 99330.3 3100.29   1
   1  -3   2 111899. 3425.50   1
  -1   3  -2 102954. 3391.49   1
   1   2   2 100210. 2280.67   1
  -3   2   2 103585. 3693.11   1
  -3   2   1 257296. 5751.67   1
  -3   1   1 265329. 5994.95   1
   1  -3   0 311.357 79.3538   1
   1   2   0 17.7361 136.136   2
   2   1   0 419.987 201.867   2
  -2   3   0 1097.28 347.329   1
   1   2   0 362.315 162.230   1
   2   1   0 306.244 162.265   1
   2  -3   0 242.448 134.624   1
  -2   3   0 456.908 153.790   2
  -3   1   0 471.008 247.786   1
   3  -1   0 655.538 265.049   1
   3  -2   0 308.818 56.2366   1
  -3   2   0 141.653 216.322   1
  -1   3   0 761.890 353.499   2
  -1  -2   0 313.291 166.426   1
  -2  -1   0 362.866 178.125   1
  -1   3   0 464.236 173.583   1
   1   2  -1 173836. 4464.27   2
  -3   2  -1 156586. 4499.34   1
   1   2  -1 132155. 3459.09   1
   2   1  -1 187109. 4557.68   1
  -2  -1   1 175178. 4280.96   1
  -1   3   1 167248. 4183.97   2
  -3   1  -1 160749. 4511.97   1
   2  -3  -1 194878. 4081.07   1
  -1  -2   1 123540. 3358.54   1
   2   1  -1 180176. 4428.27   2
  -2   3   1 167760. 3684.37   1
   3  -1   1 166251. 4671.26   1
  -2   3   1 178887. 4953.62   2
   3  -2   1 146697. 4405.06   1
  -1   3   3 49211.9 1330.15   1
   3  -2   3 34883.5 2316.86   1
  -3   2  -3 41668.5 2531.47   1
   1   2  -3 39099.9 2472.59   2
   2   1  -3 40403.3 2377.57   2
  -2   3   3 44267.9 1909.94   1
   1   2  -3 49351.0 2601.45   1
  -3   2  -3 45624.6 2655.39   2
  -2  -1   3 41509.3 2367.37   1
   2   1  -3 40452.1 2414.69   1
   3  -1   3 36342.0 2336.04   1
  -3   1  -3 35872.4 2284.80   1
   2  -3  -3 34804.1 1746.95   1
   1  -3  -3 49270.4 1357.73   1
  -1  -2   3 38307.3 2258.57   1
  -2  -1   5 226272. 6400.44   1
   3  -1   5 204031. 6062.54   1
   2  -3  -5 271108. 5591.36   1
   2   1  -5 242511. 6767.40   1
  -1  -2   5 203538. 5933.05   1
  -3   2  -5 240300. 6392.10   2
   2   1  -5 218980. 6194.82   2
   1  -3  -5 206720. 4175.63   1
   1   2  -5 243237. 6623.81   1
  -3   2  -5 237828. 6971.83   1
  -3   1  -5 287495. 7216.05   1
   3  -2   5 257061. 6919.55   1
   1   2  -5 244680. 6737.13   2
  -2   3   7 443217. 8054.89   1
   1  -3  -8 16301.8 1637.03   1
   2  -3  -8 14878.7 1686.44   1
   1   2  -8 16638.5 1986.61   2
  -3   2  -8 17393.2 1849.46   2
  -3   1  -8 15730.0 1690.96   2
   1  -3  -8 6953.25 982.370   2
  -3   2  -8 13413.5 1782.69   1
  -2   3   8 23656.7 1932.52   1
   2   1  -8 17248.1 1938.17   2
   3  -2   8 17139.3 2000.07   1
   3  -1   8 16615.9 1926.02   1
   1   2  -8 17205.3 2033.84   1
  -1   3   8 17079.5 1546.34   1
  -2  -1   8 14904.0 1887.77   1
   2   1  -8 17626.7 2070.30   1
  -3   1  -8 20981.8 2372.26   1
   2  -3  -8 17306.8 1737.31   2
  -1  -2   8 15721.2 1897.07   1
  -1  -2   9 283529. 8544.24   1
   3  -2   9 315226. 8956.25   1
   3  -1   9 251055. 7828.01   1
  -2   3   9 291272. 7470.01   1
   2   1  -9 287849. 8875.94   1
  -3   2  -9 241436. 7628.93   2
   1   2  -9 242780. 8188.42   1
   2   1  -9 293641. 8691.45   2
   1   2  -9 282890. 8517.48   2
  -1   3   9 305352. 7093.81   1
  -2  -1   9 302802. 8708.63   1
   1  -3  -9 263698. 7106.87   1
   2  -3  -9 208368. 6261.62   2
  -3   2  -9 272231. 8547.43   1
  -3   1  -9 256848. 6904.25   2
   2  -3  -9 262006. 7537.44   1
  -1   3  10 85002.5 4070.31   1
   3  -2  10 110868. 5511.24   1
   1  -3 -10 141922. 5557.90   1
  -3   2 -10 114180. 5284.52   2
   1  -3 -10 138848. 4451.82   2
  -3   1 -10 112624. 4776.84   2
  -2  -1  10 113191. 5611.65   1
   2   1 -10 117618. 5859.08   1
   2  -3 -10 123364. 5375.96   1
   3  -1  10 107844. 5343.97   1
   1   2 -10 112109. 5685.33   1
  -3   2 -10 123666. 5974.06   1
   1   2 -10 114523. 5719.49   2
   2  -3 -10 83114.2 4060.78   2
   2   1 -10 108720. 5562.88   2
  -3   1 -10 110236. 5540.57   1
  -2   3  10 131745. 5320.78   1
  -1  -2  10 104984. 5394.32   1
   3  -1  11 15194.5 2071.29   1
   2  -3 -11 10056.3 1688.49   2
   1  -3 -11 14488.8 1483.38   2
  -1  -2  11 19868.6 2332.61   1
   1   2 -11 19739.8 2410.06   1
  -3   1 -11 19076.8 2067.46   2
  -3   2 -11 15926.8 2168.60   1
  -3   1 -11 18729.3 2343.51   1
   3  -2  11 17176.3 2215.89   1
  -1   3  11 23264.0 2247.21   1
   2   1 -11 18723.8 2421.63   2
  -3   2 -11 15713.0 2043.05   2
   1  -3 -11 22185.6 2316.31   1
  -2  -1  11 18800.4 2311.46   1
   2   1 -11 17572.0 2331.06   1
   1   2 -11 18785.5 2317.50   2
   2  -3 -11 21119.9 2432.49   1
  -2   3  11 21370.0 2242.03   1
   1   2 -12 1922.91 607.369   1
  -1   3  12 1999.48 657.593   1
  -1  -2  12 1414.88 556.417   1
  -2  -1  12 1176.30 642.071   1
  -3   2 -12 2333.25 850.782   1
   3  -1  12 2457.51 778.834   1
   1  -3 -12 1987.96 730.499   1
  -3   2 -12 2523.27 822.545   2
  -3   1 -12 2178.45 689.646   2
   2   1 -12 2035.45 913.787   1
  -3   1 -12 1507.48 648.332   1
  -2   3  12 2013.93 686.513   1
   2  -3 -12 1318.23 312.781   2
   1   2 -12 1942.55 766.676   2
   2   1 -12 2021.16 1046.38   2
   3  -2  12 1710.29 550.398   1
   2  -3 -12 2586.39 791.216   1
  -1   3  13 8973.94 1576.25   1
  -3   1 -13 9140.84 1698.00   1
   2   1 -13 12817.3 2147.55   1
   2   1 -13 10199.6 1884.75   2
  -2  -1  13 12297.2 2016.90   1
  -1  -2  13 9509.61 1698.65   1
   1   2 -13 10362.0 1957.82   1
   3  -2  13 12450.4 1979.32   1
  -3   2 -13 9164.02 1851.76   1
   2  -3 -13 10732.4 1846.80   1
   1  -3 -13 10602.8 1839.11   1
   1   2 -13 8264.79 1785.04   2
  -3   2 -13 12316.1 1921.26   2
  -2   3  13 7585.29 1440.01   1
   3  -1  13 9162.25 1715.14   1
   1  -3 -14 56255.0 4315.45   1
  -2  -1  14 54030.1 4377.79   1
   3  -1  14 58852.0 4545.47   1
   1   2 -14 53911.3 4435.22   2
  -3   2 -14 47771.4 4256.91   2
   3  -2  14 49407.1 4164.94   1
   2   1 -14 61144.9 4732.18   2
   2  -3 -14 57351.7 4417.11   1
  -3   2 -14 46262.4 4173.46   1
  -2   3  14 51399.6 4030.43   1
  -1   3  14 50850.1 3958.65   1
  -3   1 -14 61299.8 4719.00   1
  -1  -2  14 57020.0 4380.53   1
   2   1 -14 56167.0 4640.35   1
   1   2 -14 63688.5 4835.82   1
  -3   1 -15 13421.6 2251.81   1
   1   2 -15 15627.7 2388.65   2
   3  -2  15 15238.8 2317.62   1
  -2   3  15 15624.1 2248.59   1
   1  -3 -15 15821.7 2290.42   1
   2   1 -15 14687.0 2477.63   2
  -1   3  15 16388.5 2360.38   1
   3  -1  15 14206.6 2302.85   1
  -2  -1  15 14799.8 2208.76   1
   2   1 -15 13032.0 2331.66   1
   2  -3 -15 14232.3 2357.91   1
  -1  -2  15 13072.1 2135.11   1
   1   2 -15 16646.1 2629.35   1
  -3   2 -15 18455.0 2616.51   1
  -2   3  16 29300.4 3279.37   1
   3  -1  16 32700.7 3492.84   1
   3  -2  16 31114.2 3477.47   1
  -1  -2  16 28758.9 3356.70   1
  -3   1 -16 30345.0 3574.06   1
   1   2 -16 30987.8 3482.05   2
  -2  -1  16 34382.3 3509.36   1
   1   2 -16 33583.0 3737.00   1
  -3   2 -16 25375.5 3279.91   1
   2  -3 -16 29618.5 3538.87   1
   1  -3 -16 37494.4 3884.69   1
   2   1 -16 33202.6 3608.39   2
   2   1 -16 28962.6 3436.94   1
   1   2 -17 5935.39 1486.57   1
   3  -2  17 7044.56 1719.32   1
   2  -3 -17 5403.03 1507.64   1
  -2  -1  17 6704.05 1608.21   1
   2   1 -17 4255.47 1299.42   2
   3  -1  17 6754.78 1639.22   1
  -3   2 -17 5930.97 1568.72   1
  -1  -2  17 5476.10 1478.21   1
  -3   1 -17 5569.69 1586.34   1
   2   1 -17 5828.36 1308.07   1
  -2   3  17 10219.1 2000.41   1
   1   2 -17 5908.91 1668.73   2
  -3   2 -18 49790.0 4765.90   1
   1   2 -18 53677.4 4836.28   1
   3  -1  18 46557.5 4506.90   1
   1   2 -18 49912.4 4794.93   2
  -3   1 -18 47614.5 4693.16   1
  -1  -2  18 55407.3 4837.98   1
   3  -2  18 54347.4 4893.34   1
  -2  -1  18 57867.1 4911.03   1
   2   1 -18 47514.1 4724.26   2
   2   1 -18 54454.0 4872.49   1
   1   2 -19 8001.79 1906.71   1
  -1  -2  19 8358.95 1885.24   1
   2   1 -19 6839.55 1926.94   2
  -2  -1  19 8486.50 1929.08   1
   1   2 -19 5953.31 1670.58   2
  -3   2 -19 7011.39 1836.48   1
   3  -1  19 6881.40 1806.44   1
   2   1 -19 8324.74 2047.55   1
   3  -2  19 9029.49 1871.85   1
   1   2 -20 537.021 390.061   1
   3  -1  20 195.371 142.206   1
  -1  -2  20 55.7833 255.209   1
   3  -2  20 261.520 678.404   1
  -2  -1  20 615.361 778.177   1
  -3   2 -20 189.484 376.211   1
   2   1 -20 533.622 480.040   1
  -3   1 -20-613.026 776.576   1
   3  -2  21 6408.67 1745.49   1
   2   1 -21 5527.23 1697.15   1
  -2  -1  21 7150.22 1763.28   1
  -3   1 -21 4488.74 1433.50   1
   3  -1  21 5155.33 1471.18   1
  -3   2 -21 8165.33 2090.62   1
  -3   0   1 479.390 184.825   1
   0   3   1 638.452 116.511   1
   3   0   1 821.223 348.496   1
   0  -3   1 406.697 201.158   1
  -3   3  -1 363.823 326.999   2
  -3   3  -1 712.223 279.913   1
   3  -3  -1 381.792 226.492   1
  -3   0  -1 853.967 385.187   1
   0   3  -1 622.449 254.765   1
   0  -3  -1 483.445 108.553   1
   3  -3   1-165.147 293.621   1
   0   3  -1 547.445 266.482   2
  -3   3   1 467.315 264.024   1
   0   3   1 169.371 84.3861   2
   3   0  -1 537.684 132.013   1
   0   3  -2 26845.5 1921.09   2
   0   3  -2 31046.1 1844.16   1
  -3   3   2 28323.7 1859.31   1
  -3   0  -2 28220.2 1883.36   1
   3  -3   2 22856.9 1892.95   1
  -3   3  -2 28998.5 2186.66   2
   3   0  -2 27968.1 2001.92   1
   0  -3   2 24986.2 1677.99   1
   0   3   2 28896.8 1572.39   2
  -3   0   2 26552.7 1957.53   1
  -3   3  -2 29031.4 2006.23   1
   3   0  -2 28620.9 2124.82   2
   3  -3  -2 21810.5 1700.81   1
   3   0   2 24842.7 1848.93   1
   0  -3   3 11798.1 1320.25   1
   0   3  -3 16249.2 1491.62   1
  -3   3   3 14398.2 1378.02   1
   0   3  -3 14239.9 1514.36   2
  -3   3  -3 17210.1 1638.90   1
   0   3   3 15267.2 1058.12   2
  -3   3  -3 16956.0 1720.17   2
   3   0   3 17284.2 1568.20   1
  -3   0  -3 16280.6 1500.47   1
   3  -3  -3 13487.7 1389.81   1
   3  -3   3 17139.5 1702.77   1
   3   0  -3 20788.6 1830.33   2
   3   0  -3 15370.5 1612.11   1
  -3   0   3 17855.0 1676.34   1
   0   3   5 13845.6 849.279   1
   3   0  -5 12238.5 1557.17   1
   0  -3  -5 11911.6 851.115   1
   3  -3  -5 10889.1 1342.44   1
   3   0   5 11094.0 1335.58   1
  -3   3  -5 13971.9 1783.30   1
   0   3  -5 12809.7 1629.81   2
  -3   0  -5 11458.5 1401.05   1
  -3   3   5 12088.0 1325.83   1
  -3   0   5 11374.6 1456.99   1
   3  -3   5 12784.4 1596.00   1
   3   0  -5 14115.7 1637.98   2
  -3   3  -5 13643.9 1577.20   2
   0   3  -5 12782.2 1502.02   1
   0  -3   5 16425.2 1693.70   1
  -3   3   6 8225.45 1098.02   1
  -3   3  -6 6065.88 1069.89   2
   0   3   6 6916.95 743.152   1
   3   0  -6 5950.29 1228.51   1
   0   3  -6 8452.65 1351.86   1
   3  -3  -6 6196.20 993.921   1
   0  -3  -6 6800.47 781.326   1
  -3   0   6 7219.37 1272.24   1
  -3   0  -6 9023.02 1272.60   1
   3   0  -6 7034.91 1235.90   2
   3   0   6 7302.60 1135.08   1
   3  -3   6 7567.95 1293.44   1
   0   3  -6 6688.53 1198.08   2
  -3   3  -6 8305.57 1391.69   1
   0  -3   6 8774.00 1267.34   1
  -3   3   7 8513.82 1237.17   1
  -3   3  -7 5983.09 1160.28   2
   0  -3  -7 6366.90 902.826   1
   0   3   7 6188.22 809.738   1
   3   0  -7 7650.79 1293.08   2
   0  -3   7 8920.61 1389.68   1
   3   0  -7 6052.59 1272.17   1
   3  -3   7 7357.29 1268.46   1
   3  -3  -7 7773.73 1231.47   1
   3   0   7 8783.88 1346.30   1
  -3   0  -7 7322.72 1238.75   1
   0   3  -7 7924.80 1276.15   1
   0   3  -7 6684.46 1281.49   2
  -3   3  -7 8517.54 1424.78   1
  -3   0   7 5989.11 1193.32   1
   3  -3  -8 556272. 11073.2   1
  -3   3  -8 549158. 11593.2   2
   0   3  -8 583037. 12151.6   1
   0   3  -8 576950. 12088.1   2
   0  -3   8 599963. 11932.5   1
   3  -3   8 546849. 11694.8   1
  -3   3  -8 627523. 12695.0   1
   0   3  -9 12576.3 1841.00   2
  -3   0   9 8543.87 1447.38   1
   3  -3   9 10845.8 1618.97   1
  -3   3   9 10864.4 1541.81   1
   3   0  -9 13319.4 1936.44   1
   0   3  -9 10705.5 1741.19   1
   3   0   9 10884.6 1497.25   1
  -3   0  -9 9862.54 1579.20   1
  -3   3  -9 11018.7 1613.95   1
   3  -3  -9 9708.25 1539.73   2
   3   0  -9 10693.3 1607.43   2
  -3   3  -9 10550.7 1665.96   2
   0  -3   9 10986.6 1721.79   1
   0   3   9 13744.1 1467.44   1
   0  -3  -9 11557.3 1473.09   1
   3  -3  -9 9975.72 1638.83   1
   3   0  10-408.232 472.347   1
   3  -3 -10-172.016 349.034   1
   0  -3 -10 171.551 244.479   1
   0  -3  10 46.4308 190.541   1
   0   3 -10-87.4682 106.010   2
   3   0 -10-320.687 620.996   1
   3   0 -10 461.447 397.833   2
  -3   0 -10 87.7430 114.904   1
  -3   3  10-305.503 447.449   1
  -3   3 -10-397.312 351.181   2
  -3   0  10 429.606 420.042   1
   3  -3 -10-78.8771 172.636   2
   0   3 -10 397.122 314.977   1
  -3   0 -10-654.129 319.151   2
   3  -3  10 134.444 198.363   1
  -3   3 -10 0.99820 1775.72   1
   0   3  10-186.556 229.515   1
   0  -3 -11 389.059 349.943   1
   3   0  11 546.092 504.908   1
   3   0 -11 705.469 787.598   1
   0   3 -11-217.582 222.123   1
   3  -3 -11-13.1351 274.988   2
   3  -3  11-99.3271 200.735   1
  -3   3  11 591.502 566.198   1
  -3   3 -11 267.319 411.446   1
  -3   0  11-202.701 377.876   1
   0   3 -11 825.888 475.686   2
  -3   3 -11 68.0491 324.861   2
   0   3  11 313.678 329.490   1
   0  -3  11 686.647 502.628   1
   3   0 -11-209.290 668.260   2
  -3   0 -11 444.992 521.800   1
   3  -3 -11 694.560 460.434   1
   0   3 -12 187093. 8033.25   1
  -3   3 -12 207353. 8386.98   1
   3   0  12 232125. 8278.86   1
  -3   3  12 151724. 6620.51   1
   3  -3 -12 174528. 7470.83   1
   3   0 -12 200622. 7905.56   2
  -3   3 -12 175056. 7437.21   2
   3  -3  12 168180. 7360.19   1
   0  -3 -12 214893. 7673.67   1
   3   0 -12 168672. 7560.85   1
   0   3  12 211571. 7216.84   1
   0   3 -12 203415. 8096.77   2
   0  -3  12 183106. 7597.35   1
  -3   0 -12 179410. 8023.96   1
   3  -3 -12 181327. 6944.57   2
  -3   0  12 180849. 7567.41   1
  -3   0 -13 1484.91 944.135   1
   3  -3 -13 985.373 571.567   1
   3  -3  13 1846.23 947.656   1
  -3   3  13 882.980 706.039   1
  -3   3 -13 496.977 479.909   2
  -3   0  13 752.302 420.057   1
   3   0 -13 617.030 516.049   1
   0   3  13 825.578 536.989   1
   3   0 -13 905.062 705.297   2
   0  -3  13 384.884 629.413   1
   0   3 -13 396.407 615.120   1
   3  -3 -13 530.688 517.487   2
   0  -3 -13 567.850 510.136   1
  -3   3 -13 895.426 673.403   1
   0   3 -13-450.669 471.423   2
   3   0  13 494.785 232.051   1
   3  -3 -14 357.800 226.952   2
   0  -3  14 148.671 541.387   1
   0  -3 -14-472.034 554.171   1
  -3   3  14-650.899 522.124   1
  -3   3 -14 56.9986 300.299   2
   3   0  14 626.824 588.816   1
  -3   0 -14 58.3840 325.986   1
   0   3 -14 202.133 266.129   2
   0   3 -14 30.3280 468.284   1
   3   0 -14 15.3397 60.7770   1
   3   0 -14 679.611 675.749   2
   3  -3 -14 269.269 538.235   1
  -3   0  14 535.716 491.128   1
   3  -3  14 127.972 79.3468   1
  -3   3 -14 451.187 662.777   1
   3  -3  15 713.185 563.277   1
  -3   0 -15 69.1944 244.731   1
  -3   3 -15 1276.28 859.970   2
   3   0 -15 405.316 126.255   2
  -3   0  15 282.745 230.433   1
   3  -3 -15 541.407 266.089   1
   0   3 -15-787.003 862.871   2
  -3   3 -15 220.886 653.365   1
   0   3 -15 534.851 614.315   1
   3   0 -15-679.584 692.100   1
   3   0  15 587.150 449.475   1
   0  -3  15 782.526 192.612   1
  -3   3  15 465.074 568.199   1
  -3   3 -16 83696.3 5873.36   1
   0   3 -16 92568.0 6185.31   1
   3   0 -16 78849.7 5742.00   1
  -3   3 -16 82196.2 5852.81   2
   3   0 -16 84148.7 5960.03   2
  -3   0 -16 70965.5 5519.64   1
  -3   0  16 76831.3 5550.50   1
   0  -3  16 103236. 6337.18   1
   3   0  16 91582.3 5982.59   1
   3  -3 -16 76116.4 5723.76   1
   0   3 -16 91690.0 6200.63   2
   3  -3  16 84294.8 5712.05   1
  -3   3  16 64674.4 4982.93   1
   3   0 -17-585.458 636.669   1
  -3   3  17 693.216 531.535   1
   3  -3  17-175.050 363.000   1
   3  -3 -17 841.745 689.454   1
   0   3 -17-140.024 477.730   1
   0   3 -17 387.856 50.1517   2
   3   0 -17 553.331 688.391   2
  -3   0 -17-349.673 662.935   1
  -3   3 -17 407.242 164.524   1
   3   0  17 1150.54 609.926   1
  -3   0  17-594.976 555.299   1
   0  -3  17-79.9413 219.895   1
  -3   0 -18 174.719 365.352   1
   0  -3  18 778.538 670.078   1
   3   0 -18 935.838 816.849   1
   3   0  18-52.5193 61.7853   1
  -3   0  18-307.465 483.908   1
   3  -3  18 178.567 351.699   1
   0   3 -18 681.329 485.961   2
   3  -3 -18 124.826 209.828   1
   3   0 -18 201.515 647.240   2
  -3   3  18-259.877 430.038   1
  -3   3 -18 834.027 826.922   1
   0   3 -18-1007.47 763.287   1
   3  -3 -19 155.712 479.878   1
   3  -3  19-730.450 566.325   1
   3   0 -19 444.725 115.963   1
  -3   0  19 325.567 434.176   1
  -3   0 -19-568.218 665.055   1
   0   3 -19-358.422 576.984   2
   0  -3  19-7.53660 246.960   1
  -3   3 -19 344.070 582.797   1
   3   0  19 36.6746 214.430   1
   0  -3  20 25315.9 3459.13   1
   3  -3  20 24668.8 3424.10   1
  -3   0  20 24768.0 3375.92   1
   3   0 -20 21456.2 3295.20   1
  -3   0 -20 18915.0 2984.35   1
  -3   3 -20 22843.2 3252.07   1
   0   3 -20 27329.7 3686.86   1
   3   0 -21-623.190 966.480   1
  -3   0  21-312.580 454.155   1
  -4   2  21-358.840 467.116   1
   4  -2 -21-501.037 609.153   1
   4  -2 -20 23000.7 3401.50   1
   2  -4  20 25566.9 3441.77   1
  -4   2  20 21379.8 3051.20   1
  -2   4 -20 26319.5 3472.09   1
  -4   2  19-176.699 598.317   1
   4  -2 -19-485.064 124.453   1
   2  -4  19-99.1884 485.293   1
  -2   4 -19-915.852 359.821   1
  -2   4 -18 2064.85 874.489   1
   4  -2 -18 4205.83 1501.69   1
   2  -4  18 3462.57 1086.45   1
  -4   2  18 2719.46 1161.88   1
  -2   4 -18 1838.46 845.388   2
   2  -4  17-235.351 307.006   1
  -2   4 -17-224.208 375.990   1
   4  -2 -17 939.842 512.935   1
  -2   4 -17 361.673 542.957   2
  -4   2  17 139.568 302.554   1
   4  -2 -17-448.107 609.364   2
  -2   4 -16 87817.2 6035.50   1
  -2   4 -16 76745.1 5843.53   2
   4  -2 -16 93389.0 6326.62   1
  -4   2  16 92657.7 6053.44   1
   4  -2 -16 88413.9 6089.42   2
   2  -4  16 91024.6 6018.70   1
  -4   2  15 519.758 496.526   1
  -2   4 -15 248.299 450.430   1
   4  -2 -15-80.7412 356.357   2
  -2  -2 -15 131.024 217.053   1
  -2   4 -15 103.550 109.840   2
   4  -2 -15-174.537 140.200   1
   2  -4  15-279.080 404.581   1
  -4   2  14 39824.6 3766.72   1
  -2   4 -14 34941.0 3792.97   1
   2   2  14 37786.0 3466.03   1
  -2   4 -14 32697.6 3560.01   2
   4  -2 -14 37842.8 3678.18   2
  -2  -2 -14 23523.1 2897.42   1
   4  -2 -14 42359.3 3998.11   1
   2  -4  14 39927.2 3990.17   1
   4  -2 -13 275.016 384.103   2
   4  -2 -13-355.766 419.590   1
  -4   2  13-109.405 338.987   1
   2  -4  13 201.065 370.426   1
  -2   4 -13-76.4685 249.888   2
  -2  -2 -13-490.492 363.301   1
   2   2  13-32.0834 260.548   1
  -2   4 -13 622.473 500.574   1
   4  -2 -12 63720.0 4695.51   1
  -2   4 -12 70249.2 4981.63   1
   2   2  12 70138.9 4302.49   1
  -2  -2 -12 63672.4 4638.72   1
   2  -4  12 66123.2 4726.72   1
   4  -2 -12 62142.7 4398.71   2
  -2   4 -12 61415.5 4534.13   2
  -4   2  12 55352.3 4131.54   1
   2  -4  11 592.269 443.395   1
  -2   4 -11 349.683 439.450   2
   4  -2 -11-364.030 75.5965   2
   4  -2 -11-334.265 679.839   1
  -2   4 -11-491.610 255.699   1
  -2  -2 -11 1103.18 562.862   1
  -4   2  11-95.6341 328.127   1
   2   2  11 193.305 202.575   1
   2   2  10 112995. 4959.95   1
   4  -2 -10 101646. 5271.67   2
  -2   4 -10 99756.2 5579.60   1
  -2  -2 -10 119420. 5411.83   1
   4  -2 -10 108270. 5717.75   1
  -4   2  10 131946. 6065.53   1
  -2   4 -10 101478. 5504.96   2
   2  -4  10 118227. 5977.47   1
   4  -2  -9 89.4210 434.200   1
  -2   4  -9 133.028 45.1773   2
   2  -4   9-70.1068 55.1668   1
  -2   4  -9 681.856 471.689   1
   4  -2  -9-632.079 230.979   2
   2   2   9-370.859 338.082   1
  -2  -2  -9 136.100 209.234   1
  -4   2   9-79.1979 128.103   1
  -2   4  -7 132.057 348.350   1
  -2   4  -7 80.1179 162.394   2
   2  -4   7 108.156 325.642   1
   2   2   7 194.264 245.600   1
   4  -2  -7 326.802 319.449   1
  -2  -2  -7-98.2918 229.377   1
  -4   2   7 99.7184 176.464   1
   4  -2  -7-581.511 564.729   2
   4  -2  -6 58.5387 160.483   1
   2  -4   6 377.738 556.939   1
  -2   4  -6 592.701 480.513   2
  -2   4  -6 146.264 424.011   1
  -2  -2  -6 116.405 51.3504   1
   2   2   6 542.487 320.629   1
  -4   2   6 238.228 285.713   1
   2  -4   5 89.0494 305.115   1
  -2   4  -5 240.306 272.428   1
   2   2   5-77.4715 117.746   1
  -2  -2  -5-205.344 203.080   1
  -4   2   5-267.572 292.955   1
   4  -2  -5-46.0125 371.697   1
  -2   4  -5-29.9066 292.995   2
   2  -4   3 158.422 181.893   1
   4  -2  -3 199.236 134.437   1
   2   2   3 80.3087 145.639   1
  -2   4  -3 43.3860 223.467   1
   2   2   3 202.595 160.692   2
  -2  -2  -3 0.70955 63.9527   1
  -4   2   3 426.685 337.993   1
  -2   4  -3 46.5733 294.786   2
   2   2   1 118.654 132.860   1
   4  -2  -1-476.946 381.935   1
  -4   2   1 200.926 276.334   1
   2   2   1 89.4643 227.656   2
  -2  -2  -1 21.2062 89.3150   1
  -2   4  -1-102.137 185.318   2
   2  -4   1 16.4713 97.0831   1
  -2   4  -1 199.075 273.698   1
   4  -2   1 16.4147 66.8364   1
  -2  -2   1 171.960 205.166   1
   2   2  -1 193.825 128.665   1
   2  -4  -1 22.9952 92.3393   1
  -2   4   1-165.755 145.036   1
   2   2  -1 134.803 94.0168   2
  -4   2  -1 257.244 150.992   1
   2   2  -3-327.701 312.671   1
   2   2  -3 234.149 198.795   2
   2  -4  -3-44.3082 111.986   1
  -2   4   3 83.5207 96.0615   1
  -4   2  -3-31.5382 100.246   1
  -2  -2   3-6.83201 71.6176   1
   4  -2   3 43.3479 238.738   1
   2   2  -5 8.48577 172.258   1
   2  -4  -5-58.0820 150.825   1
   4  -2   5 77.3720 214.412   1
  -2  -2   5-17.4236 106.867   1
  -2   4   5 0.32160 10.8121   1
   2   2  -5-170.904 252.226   2
   4  -2   6 4923.88 950.190   1
   2   2  -6 5649.41 1172.08   2
   2  -4  -6 5400.14 815.258   1
  -2   4   6 6691.95 846.215   1
  -2  -2   6 4847.13 1016.03   1
  -4   2  -6 4748.49 1024.59   1
   2   2  -6 7733.90 1338.29   1
  -2  -2   7-246.182 333.668   1
   4  -2   7-25.0492 138.945   1
  -4   2  -7-275.634 420.498   1
   2  -4  -7 84.6522 246.434   1
  -2   4   7-133.878 108.693   1
  -4   2  -7 486.025 347.110   2
   2   2  -7-452.094 305.986   1
   2   2  -7-736.828 489.970   2
   2   2  -8 999999. 16262.7   2
   2  -4  -9 524.398 400.825   2
  -2   4   9 129.411 145.323   1
  -4   2  -9 274.661 370.871   1
   2   2  -9-195.200 118.704   2
  -4   2  -9 12.1954 185.385   2
   2   2  -9 1122.61 672.194   1
  -2  -2   9 455.974 263.311   1
   4  -2   9 153.690 405.283   1
   2  -4  -9 95.9787 154.029   1
   2   2 -10 38217.0 3405.52   2
   2  -4 -10 40421.7 2989.60   1
  -2  -2  10 38766.5 3352.55   1
  -4   2 -10 38101.5 3155.00   2
   4  -2  10 45293.7 3669.83   1
  -4   2 -10 44368.4 3919.11   1
   2   2 -10 40790.5 3480.82   1
  -2   4  10 29485.5 2433.07   1
  -2   4  11 530.965 395.406   1
   4  -2  11 415.160 582.871   1
   2   2 -11 3.33572 410.346   1
  -2  -2  11 590.325 472.613   1
   2  -4 -11 47.2384 268.166   2
   2   2 -11 1212.50 682.370   2
   2  -4 -11-179.254 397.521   1
  -4   2 -11 232.979 418.419   1
  -4   2 -11-284.588 361.769   2
  -2   4  12 33264.6 2867.02   1
  -4   2 -12 34485.5 3754.07   1
  -4   2 -12 28062.0 2946.54   2
   2   2 -12 32362.0 3306.92   2
   4  -2  12 32707.4 3250.90   1
   2  -4 -12 31708.4 3034.26   1
  -2  -2  12 31697.7 3151.50   1
   2   2 -12 31850.5 3302.13   1
   2  -4 -13-78.5656 413.338   1
  -4   2 -13 259.922 431.573   1
   2   2 -13-150.291 484.213   1
  -4   2 -13-263.114 446.952   2
  -2  -2  13-165.215 573.909   1
  -2   4  13-104.609 363.714   1
   2   2 -13-48.7708 185.595   2
   4  -2  13-297.552 402.602   1
   4  -2  14 10662.0 1867.77   1
   2  -4 -14 9426.83 1827.18   1
  -2  -2  14 8647.72 1870.84   1
  -4   2 -14 7309.73 1879.07   1
   2   2 -14 8199.76 1850.17   1
   2   2 -14 10235.5 2098.67   2
  -2  -2  15 270.911 251.693   1
   4  -2  15 32.5792 606.280   1
   2   2 -15-499.852 506.965   1
   2   2 -15-54.7199 613.579   2
  -4   2 -15 832.788 751.094   1
   4  -2  16 139065. 7486.51   1
  -4   2 -16 141241. 7951.91   1
   2   2 -16 156874. 8180.91   1
  -2  -2  16 164301. 7996.28   1
   2   2 -16 159554. 8133.77   2
  -2  -2  17-269.840 225.624   1
  -4   2 -17-68.5901 742.215   1
   4  -2  17 147.810 389.746   1
   2   2 -17 672.816 267.105   2
   2   2 -17 185.115 381.793   1
   2   2 -18 1450.57 1005.53   1
  -2  -2  18 658.232 609.183   1
   2   2 -18 394.692 461.431   2
   4  -2  18 714.293 532.301   1
  -4   2 -18 345.181 211.082   1
   2   2 -19 213.388 237.130   2
  -4   2 -19-652.036 688.045   1
  -2  -2  19 601.656 793.231   1
   4  -2  19 716.037 679.825   1
   2   2 -19 283.520 251.179   1
   2   2 -20 17787.1 2895.97   1
  -2  -2  20 19537.0 2962.41   1
   2   2 -20 14688.4 2681.04   2
   4  -2  20 16476.3 2721.76   1
   4  -2  21-83.6589 241.593   1
  -4   2 -21-410.582 483.873   1
  -1   4 -20 4136.85 1393.41   1
   3  -4  20 4027.83 1377.45   1
  -4   1  20 4648.86 1444.04   1
  -3   4 -20 4544.69 1336.68   1
   1  -4  20 4303.18 1470.13   1
   4  -1 -20 3796.03 1265.78   1
   4  -3 -20 3596.86 1254.00   1
   4  -3 -19 1756.71 831.242   1
  -1   4 -19 1365.33 643.888   2
  -4   1  19 2616.04 1127.99   1
   4  -1 -19 3511.00 1335.00   1
  -4   3  19 2088.33 936.653   1
  -1   4 -19 2125.89 791.730   1
   3  -4  19 2856.48 1141.33   1
   1  -4  19 1348.89 643.158   1
  -3   4 -19 2887.03 1296.11   1
  -4   1  18 28825.0 3487.30   1
   4  -1 -18 25261.5 3610.75   2
   1  -4  18 25899.5 3364.60   1
   4  -3 -18 25927.2 3453.87   1
   3  -4  18 35319.5 3951.84   1
  -3   4 -18 28967.2 3591.26   1
  -1   4 -18 27111.8 3618.37   2
  -4   3  18 26946.5 3435.32   1
   4  -1 -18 28034.5 3636.19   1
  -1   4 -18 27486.8 3553.85   1
   4  -3 -17 1437.13 796.364   1
  -3  -1 -17 340.350 462.480   1
  -1   4 -17 1969.41 799.879   1
  -3   4 -17 1554.47 989.821   1
  -3   4 -17 1880.42 868.856   2
   1  -4  17 1574.93 833.262   1
  -4   1  17 1565.97 845.315   1
   4  -1 -17 1492.45 644.131   1
   4  -1 -17 1203.92 759.329   2
  -4   3  17 2241.28 1032.40   1
  -1   4 -17 2192.26 991.795   2
   3   1  16 653.957 382.063   1
  -3   4 -16 995.128 572.046   2
  -1   4 -16 1190.78 950.498   2
   1  -4  16 1216.44 902.244   1
  -1   4 -16 2498.23 1178.40   1
  -4   1  16 903.068 615.301   1
   4  -3 -16 808.237 658.678   1
  -4   3  16 1700.72 889.161   1
  -3  -1 -16 1350.92 778.191   1
   4  -1 -16 1480.76 801.418   1
  -3   4 -16-328.743 701.883   1
   3  -4  16 1502.82 917.907   1
   4  -1 -16 903.394 747.814   2
  -3   4 -15 38932.7 3933.28   2
   4  -1 -15 34734.9 3730.96   2
   4  -3 -15 30972.2 3375.55   2
  -3   4 -15 37260.5 3880.13   1
  -1   4 -15 32205.5 3606.71   2
  -4   3  15 36334.8 3717.16   1
   4  -1 -15 30569.3 3561.18   1
   4  -3 -15 31323.0 3547.37   1
   1  -4  15 39817.8 3859.64   1
  -4   1  15 34612.3 3712.90   1
   3   1  15 34556.5 3642.52   1
  -1   4 -15 36190.9 3803.96   1
   3  -4  15 33536.4 3692.32   1
  -3  -1 -15 21686.2 3080.77   1
  -1   4 -14 34746.0 3664.62   1
   4  -1 -14 38021.9 3909.71   1
  -4   3  14 49374.1 4184.89   1
   3   1  14 38571.3 3599.04   1
   4  -3 -14 34731.7 3651.51   1
   3  -4  14 32085.1 3434.68   1
  -3   4 -14 32635.9 3538.44   2
  -3  -1 -14 30726.8 3371.10   1
   4  -1 -14 33212.5 3543.30   2
  -4   1  14 33904.2 3528.66   1
  -1   4 -14 34597.5 3664.75   2
  -3   4 -14 31043.6 3496.82   1
   1  -4  14 31570.4 3440.17   1
   4  -3 -14 33504.6 3355.90   2
   3  -4  13 89744.4 5632.76   1
  -1   4 -13 93178.6 5838.68   2
  -4   3  13 91875.1 5369.83   1
   4  -1 -13 97530.5 6014.29   1
   4  -3 -13 96077.6 5442.44   2
   1  -4  13 87916.3 5618.94   1
  -3   4 -13 98201.9 6031.00   1
   3   1  13 108668. 5968.78   1
   4  -3 -13 98010.5 5956.76   1
  -1   4 -13 87416.1 5758.54   1
  -4   1  13 97497.0 5770.69   1
   4  -1 -13 93356.7 5657.09   2
  -3   4 -13 95553.0 5822.45   2
  -3  -1 -13 95252.2 5857.90   1
   4  -1 -12 10980.7 2024.21   1
  -3   4 -12 8099.81 1727.35   2
  -3   4 -12 8850.99 1767.82   1
   3  -4  12 5386.13 1332.35   1
   4  -3 -12 7730.22 1638.55   1
  -4   3  12 11922.4 1842.42   1
  -1   4 -12 7611.06 1638.99   1
   1  -4  12 9119.38 1754.88   1
   4  -1 -12 8265.54 1704.39   2
  -1   4 -12 8929.66 1735.37   2
  -4   1  12 8421.42 1531.50   1
   4  -3 -12 6779.42 1450.61   2
  -1  -3 -12 8059.52 1413.68   1
   3   1  12 8352.74 1653.54   1
  -3  -1 -12 7794.20 1498.16   1
   1  -4  11 9692.76 1833.56   1
  -4   3  11 10236.3 1664.77   1
   1   3  11 10705.8 1553.65   1
  -1   4 -11 8732.54 1681.15   1
  -3  -1 -11 10635.0 1653.82   1
  -4   1  11 9999.93 1786.81   1
   4  -1 -11 8697.16 1659.90   1
   4  -3 -11 10204.3 1859.83   1
   4  -1 -11 8416.00 1603.11   2
  -3   4 -11 11101.3 1934.41   1
  -1   4 -11 9423.95 1707.71   2
  -1  -3 -11 10072.8 1609.69   1
   4  -3 -11 9861.00 1638.55   2
  -3   4 -11 9313.93 1802.68   2
   3  -4  11 9014.54 1624.31   1
   3   1  11 12015.9 1811.64   1
  -1   4 -10 358391. 10454.8   2
  -4   1  10 310454. 9539.70   1
  -3   4 -10 306722. 9755.76   2
  -4   3  10 248247. 8238.36   1
   4  -1 -10 334312. 9582.93   2
   4  -3 -10 315868. 9332.03   2
   4  -3 -10 319960. 9746.81   1
  -1   4 -10 306036. 9833.92   1
   3  -4  10 355941. 10333.5   1
   1   3  10 329762. 7907.81   1
  -3  -1 -10 349459. 9844.29   1
   3   1  10 292268. 8724.38   1
   4  -1 -10 317956. 9986.20   1
   1  -4  10 288814. 9375.33   1
  -3   4 -10 308474. 9852.82   1
   4  -3  -9 2888.01 905.584   2
  -1   4  -9 3525.11 1068.72   2
  -3   4  -9 2061.54 662.326   2
   1   3   9 3410.43 760.968   1
   1  -4   9 2534.08 736.118   1
  -4   3   9 4353.70 1071.98   1
  -1   4  -9 3444.61 1029.80   1
   3  -4   9 3983.41 1005.34   1
   4  -3  -9 2777.61 862.006   1
  -1  -3  -9 2613.23 704.274   1
  -4   1   9 4552.46 1249.40   1
   3   1   9 1782.59 614.396   1
  -3   4  -9 3136.24 904.715   1
  -3  -1  -9 2575.73 777.110   1
   4  -1  -9 4025.20 937.040   2
   4  -1  -9 3910.53 983.477   1
  -1  -3  -8 139858. 4882.58   1
   4  -3  -8 154799. 6117.40   1
   4  -3  -8 161524. 6865.62   2
  -4   3   8 159208. 6007.01   1
   3   1   8 192830. 6341.39   1
  -4   1   8 168645. 6731.80   1
   1  -4   8 163230. 6592.05   1
   4  -1  -8 159902. 6433.75   2
   4  -1  -8 156953. 6440.96   1
  -1   4  -8 163064. 6740.88   2
   3  -4   8 153205. 6379.76   1
  -3   4  -8 160585. 6716.30   2
   1   3   8 155776. 4708.02   1
  -3  -1  -8 188096. 6434.92   1
  -1   4  -8 136025. 6118.37   1
  -3   4  -8 156804. 6528.80   1
  -4   3   7 207296. 6624.48   1
  -3   4  -7 194599. 7044.91   1
  -3  -1  -7 241452. 6963.35   1
  -1   4  -7 185898. 6983.96   2
   1   3   7 208056. 4951.09   1
  -3   4  -7 154413. 6368.57   2
   4  -1  -7 206112. 7255.37   2
   1  -4   7 202669. 7073.92   1
   3   1   7 228741. 6587.58   1
  -1  -3  -7 241247. 5414.60   1
   4  -3  -7 196817. 6715.78   1
  -1   4  -7 196538. 7055.70   1
   4  -1  -7 176709. 6667.54   1
  -4   1   7 208968. 6919.40   1
   3  -4   7 195537. 7004.78   1
   1  -4   6 316802. 8347.50   1
  -4   3   6 294130. 7666.31   1
   4  -1  -6 289386. 8326.24   1
   4  -1  -6 335657. 8837.61   2
   4  -3  -6 328358. 8390.11   1
  -1   4  -6 340749. 8979.72   2
  -4   1   6 342219. 8781.77   1
  -3   4  -6 323996. 8726.12   1
   3   1   6 422935. 8543.44   1
  -3  -1  -6 378266. 8309.83   1
  -1   4  -6 359582. 9043.38   1
   3  -4   6 309317. 8478.89   1
  -3   4  -6 337833. 8845.14   2
  -3   4  -5 198242. 6625.88   2
   4  -1  -5 196797. 6624.89   1
  -1   4  -5 190129. 6447.85   2
   4  -3  -5 186367. 6134.01   1
  -4   3   5 160874. 5484.85   1
   4  -1  -5 208319. 6921.81   2
   1  -4   5 183284. 6062.43   1
  -3  -1  -5 165780. 5249.93   1
  -1   4  -5 191541. 6275.69   1
  -4   1   5 187600. 6321.92   1
   3   1   5 228254. 5990.19   1
  -1  -3  -5 162243. 3541.57   1
   3  -4   5 195790. 6435.47   1
  -1   4  -4 9721.87 1323.60   1
  -4   1   4 8420.83 1253.36   1
  -3   4  -4 7830.46 1235.50   2
   4  -1  -4 8537.61 1340.29   1
   1   3   4 7467.05 629.292   1
   4  -3  -4 7457.96 1192.55   1
   1   3   4 9067.11 706.306   2
   3   1   4 9664.73 1143.74   1
  -1  -3  -4 8975.01 697.934   1
  -3  -1  -4 8688.35 1150.64   1
  -4   3   4 8894.53 1221.77   1
  -3   4  -4 10732.9 1447.18   1
   3   1   4 9779.82 934.258   2
  -1   4  -4 9890.23 1488.27   2
   1  -4   4 9142.23 1258.68   1
   4  -1  -4 9138.36 1372.13   2
   3  -4   4 9190.42 1310.19   1
   3   1   3 167187. 4168.32   2
  -3  -1  -3 177972. 5058.83   1
  -3   4  -3 175412. 5925.48   2
   3   1   3 144014. 4627.04   1
  -1   4  -3 187797. 5903.44   2
  -4   1   3 152204. 5283.00   1
  -3   4  -3 160816. 5469.86   1
   1   3   3 172416. 3603.37   2
  -4   3   3 154729. 5097.17   1
   4  -3  -3 200438. 6017.02   1
   3  -4   3 158765. 5427.10   1
   1  -4   3 169516. 5051.28   1
   4  -1  -3 178365. 5913.17   1
  -1   4  -3 164268. 5047.69   1
  -4   1   2 570365. 10166.9   1
  -1  -3  -1 291091. 4651.79   1
   3   1   1 449402. 7641.24   2
   4  -1   0 53261.8 2979.90   1
  -1   4   0 53902.4 2836.93   2
  -4   3   0 45724.6 2747.44   1
  -4   1   0 41781.5 2697.53   1
  -1   4   0 48835.7 2027.32   1
  -3  -1   0 42492.9 2511.25   1
   3   1   0 50710.4 2647.60   2
   4  -3   0 46129.1 2867.86   1
   1  -4   0 44152.2 1866.59   1
  -3   4   0 53059.3 3282.72   2
   3  -4   0 48255.6 2558.66   1
   1   3   0 41488.9 2350.74   2
   1   3   0 56022.9 2256.00   1
  -3   4   0 40767.7 2301.89   1
  -1  -3   0 52443.7 2205.97   1
   3   1   0 45105.6 2527.26   1
  -1  -3   1 257409. 5348.29   1
   1   3  -1 282187. 5656.61   1
   4  -1   1 346134. 7903.90   1
  -3   4   1 342085. 6479.61   1
   1   3  -1 317621. 6851.93   2
  -4   1  -1 349135. 7967.54   1
   3   1  -1 336251. 7222.90   1
  -3  -1   1 361603. 7306.95   1
   4  -3   1 324199. 7578.88   1
  -4   3  -1 347706. 7696.59   1
   3  -4  -3 59999.1 2789.09   1
  -1  -3   3 49696.2 2777.31   1
  -4   3  -3 49728.1 3120.74   1
   1   3  -3 63122.4 3189.54   1
   4  -1   3 50958.9 3034.55   1
  -1   4   3 55972.6 2805.69   2
   3   1  -3 61476.8 3304.73   1
   4  -3   3 54795.0 3244.36   1
  -4   1  -3 58334.0 3265.21   1
   1   3  -3 68477.5 3544.11   2
   3   1  -3 59064.9 3184.37   2
  -3   4   3 63078.6 2750.68   1
  -3  -1   3 52788.2 2998.44   1
   1   3  -4 242899. 6689.60   1
   3   1  -4 233830. 6668.58   2
  -3   4   4 259958. 5605.64   1
   1   3  -4 233527. 6850.64   2
   3  -4  -4 219016. 5528.25   1
  -4   3  -4 221769. 6806.42   1
  -4   3  -4 232463. 7233.30   2
  -4   1  -4 221830. 6513.59   1
   4  -3   4 210068. 6636.27   1
  -1  -3   4 212650. 6148.27   1
   3   1  -4 213755. 6457.68   1
  -3  -1   4 225588. 6610.70   1
   1   3  -5 22138.3 2147.49   2
  -1  -3   5 18526.3 1945.41   1
  -4   1  -5 18274.5 1957.91   1
   4  -3   5 20742.5 2094.67   1
  -4   3  -5 20538.1 2099.54   2
  -3   4   5 19662.4 1659.01   1
   1  -4  -5 18265.8 940.204   1
  -4   3  -5 20976.2 2054.95   1
  -3  -1   5 21614.0 2149.34   1
   3   1  -5 18875.9 1996.06   1
   3   1  -5 24276.6 2129.55   2
   1   3  -5 25293.4 2219.63   1
   3  -4  -5 23179.8 1870.71   1
   4  -1   5 23656.0 2171.96   1
  -1   4   5 18747.8 873.296   1
  -1  -3   6 528236. 10845.3   1
  -4   1  -6 544141. 11044.2   1
   1   3  -6 559359. 11404.9   2
   3  -4  -6 562777. 9675.87   1
  -4   3  -6 605932. 11596.9   2
   3   1  -6 619914. 11988.4   1
   1   3  -6 620807. 11867.9   1
   4  -1   6 546907. 10896.0   1
   1   3  -7 109907. 5303.50   1
   4  -1   7 131036. 5567.75   1
   1  -4  -7 144365. 3884.58   1
   1   3  -7 143079. 5934.36   2
  -3   4   7 139837. 4924.95   1
  -4   1  -7 124150. 5488.39   1
  -4   3  -7 151216. 6427.07   1
   3   1  -7 132780. 5853.48   1
  -3  -1   7 149151. 6032.42   1
   3  -4  -7 135466. 4981.04   1
  -4   3  -7 136447. 5806.98   2
  -1  -3   7 137622. 5804.32   1
  -1   4   7 169066. 3929.85   1
   3   1  -7 139182. 5810.99   2
   4  -3   7 172812. 6516.46   1
   1   3  -8 16268.6 2039.10   2
  -4   3  -8 14013.7 2136.75   1
   3   1  -8 20013.5 2296.03   1
  -3  -1   8 16113.1 1983.82   1
  -4   1  -8 17676.9 2160.72   1
  -1  -3   8 15536.1 2061.96   1
   4  -1   8 19796.0 2201.81   1
  -3   4   8 13598.1 1557.09   1
   4  -3   8 16001.0 2084.16   1
   3  -4  -8 18945.0 1965.43   1
  -4   3  -8 18196.4 2111.76   2
   1   3  -8 17835.5 2141.58   1
   3   1  -8 15546.6 2023.94   2
  -1   4   8 16565.2 1403.54   1
   1  -4  -8 16837.6 1514.05   1
   1   3  -9 228332. 8165.79   1
   3  -4  -9 205230. 6997.68   1
   3  -4  -9 114690. 5189.69   2
  -4   3  -9 167503. 6725.56   2
  -4   3  -9 215793. 8250.21   1
  -1   4   9 183457. 5196.43   1
   3   1  -9 229964. 8325.97   1
   1  -4  -9 256615. 6523.10   1
  -4   1  -9 203559. 7688.83   1
   1   3  -9 210103. 7811.84   2
   4  -1   9 236013. 8029.57   1
  -3  -1   9 209609. 7682.71   1
   3   1  -9 190882. 7343.06   2
  -1  -3   9 190273. 7371.53   1
   4  -3   9 213962. 7735.37   1
  -3   4   9 269660. 7408.67   1
   3   1 -10 78889.7 4966.75   1
  -3   4  10 84328.9 4298.27   1
   1   3 -10 81125.3 5097.36   1
  -3  -1  10 72146.8 4594.73   1
  -4   3 -10 75204.8 4964.39   1
   1  -4 -10 83160.9 4049.79   1
  -4   1 -10 74875.9 4847.53   1
  -4   3 -10 58220.5 4334.54   2
   4  -3  10 70792.5 4592.38   1
   3   1 -10 75257.6 4689.85   2
   3  -4 -10 92432.6 4871.20   1
   1   3 -10 82610.0 4973.16   2
   3  -4 -10 60368.1 3812.15   2
   4  -1  10 74593.3 4593.91   1
  -1  -3  10 67287.7 4518.79   1
  -1   4  10 62389.5 3343.62   1
   1  -4 -11 58645.3 3688.95   1
   1   3 -11 58698.4 4467.76   1
   3   1 -11 61626.1 4628.39   1
   3  -4 -11 63825.3 4255.59   1
  -3  -1  11 68879.6 4634.91   1
  -3   4  11 52698.5 3658.74   1
   4  -3  11 52317.5 4023.56   1
  -4   1 -11 60443.6 3796.73   2
   3   1 -11 60480.8 4492.41   2
  -4   3 -11 56458.1 4207.23   2
  -1  -3  11 61996.3 4437.51   1
  -4   1 -11 75055.5 4903.66   1
   3  -4 -11 33777.1 2893.94   2
   1   3 -11 61636.4 4382.56   2
   4  -1  11 64043.3 4483.76   1
  -4   3 -11 63292.3 4920.49   1
  -1   4  11 48356.6 3176.87   1
   4  -1  12 2156.47 1016.49   1
  -3   4  12 1667.87 714.727   1
  -4   1 -12 1989.66 959.433   1
   3   1 -12 1463.35 783.876   2
   1   3 -12 1776.48 862.849   1
   3   1 -12 1780.47 905.052   1
  -4   3 -12 3910.13 1325.13   1
   3  -4 -12 1587.64 670.814   1
  -1  -3  12 1327.97 699.366   1
  -4   3 -12 2180.35 905.273   2
  -3  -1  12 1152.65 344.793   1
   1   3 -12 869.747 489.755   2
   3  -4 -12 1555.52 400.265   2
   4  -3  12 1408.61 588.634   1
   4  -3  13 3703.63 1213.64   1
   1   3 -13 3347.38 1095.75   1
   3   1 -13 3647.79 1179.12   1
  -4   1 -13 3897.94 1376.17   1
   3  -4 -13 4057.02 1194.62   1
  -3   4  13 3128.90 892.837   1
  -1  -3  13 2049.23 802.796   1
  -4   3 -13 3076.46 971.397   2
   4  -1  13 2977.18 931.776   1
  -3  -1  13 2146.25 775.746   1
   1   3 -13 1756.96 697.446   2
   3   1 -13 2003.08 971.718   2
  -4   3 -14 103517. 6138.19   2
  -1  -3  14 95798.8 5937.68   1
   3   1 -14 106026. 6497.21   1
   4  -3  14 98367.0 6061.67   1
  -3  -1  14 111534. 6432.48   1
   3  -4 -14 131666. 7029.44   1
  -3   4  14 94752.5 5557.62   1
   1   3 -14 121441. 6725.63   2
   1   3 -14 116031. 6772.06   1
   4  -1  14 108988. 6363.25   1
  -4   1 -14 105786. 6453.16   1
   3   1 -14 112467. 6541.65   2
  -1  -3  15 13421.2 2235.03   1
   4  -1  15 14401.3 2206.14   1
   1   3 -15 10994.2 2104.16   2
   4  -3  15 13023.3 2279.55   1
   3   1 -15 14776.3 2528.47   2
  -4   1 -15 14617.6 2569.19   1
   1   3 -15 12986.0 2310.11   1
   3  -4 -15 11132.4 2141.84   1
  -3  -1  15 14950.2 2363.87   1
   3   1 -15 12120.7 2321.26   1
  -3   4  15 11846.5 2081.11   1
  -3  -1  16 21578.2 2978.63   1
   3   1 -16 22656.1 3163.30   1
  -4   3 -16 15244.5 2622.91   1
   1   3 -16 19770.8 2891.66   2
   1   3 -16 22698.5 3095.66   1
   4  -1  16 21530.2 2876.88   1
  -4   1 -16 23038.2 3337.89   1
   4  -3  16 19795.0 2760.70   1
  -1  -3  16 21237.9 2837.66   1
   3   1 -16 19970.7 2824.54   2
  -1  -3  17 18079.2 2715.31   1
   3   1 -17 20977.0 3079.45   1
  -4   1 -17 23414.5 3185.19   1
   4  -3  17 23927.4 3100.66   1
  -4   3 -17 15562.0 2888.57   1
   1   3 -17 17790.2 2817.26   1
   4  -1  17 18228.0 2849.68   1
   3   1 -17 19883.4 2999.80   2
   1   3 -17 19353.7 2985.06   2
  -3  -1  17 25720.6 3152.19   1
   1   3 -18 24886.9 3342.49   1
  -3  -1  18 27392.4 3394.74   1
   3   1 -18 16927.2 2991.13   2
   4  -3  18 22980.9 3178.54   1
  -4   1 -18 22704.5 3325.90   1
   1   3 -18 18784.7 2962.29   2
  -4   3 -18 17388.1 3226.16   1
   4  -1  18 20654.0 3034.36   1
  -1  -3  18 27637.5 3458.72   1
   3   1 -18 21407.9 3102.47   1
   4  -3  19 3497.99 1354.96   1
   3   1 -19 2814.86 1163.98   1
  -4   3 -19 1513.56 1083.22   1
  -1  -3  19 2385.75 1013.38   1
  -4   1 -19 2828.97 1134.27   1
  -3  -1  19 3626.25 1350.14   1
   3   1 -19 2695.29 1320.45   2
   1   3 -19 2530.17 1205.46   1
   4  -1  19 2402.16 1109.67   1
   1   3 -19 1836.15 986.459   2
   1   3 -20-648.530 669.349   2
   3   1 -20-123.234 176.856   1
   4  -3  20 1399.81 955.006   1
   1   3 -20 181.117 629.714   1
  -3  -1  20-105.715 525.280   1
  -1  -3  20-224.729 310.327   1
   4  -1  20-55.1403 153.270   1
  -4   3 -20-110.331 222.898   1
   3   1 -20-1010.03 701.962   2
  -4   1 -20 41.3401 325.207   1
   0   4   0 34452.8 2317.29   2
  -4   4   0 33063.1 2364.66   1
   4   0   0 42424.7 2777.54   1
   0   4   0 34948.0 1716.35   1
   0  -4   0 23577.9 1395.16   1
   4  -4   0 29849.6 2324.96   1
  -4   0   0 30320.1 2304.77   1
  -4   0  -1 363996. 8120.95   1
   4   0  -1 418047. 8826.71   1
  -4   4   1 386479. 8004.48   1
   4  -4  -1 351893. 8003.92   1
  -4   4  -1 318250. 7507.51   1
   0   4  -1 355590. 7786.61   2
   4  -4   1 366328. 8166.59   1
  -4   0   1 321236. 7760.15   1
   4   0  -3 503415. 10144.0   2
   4  -4  -3 424078. 8816.66   1
   4  -4   3 456065. 9678.65   1
  -4   0  -3 447242. 9105.90   1
   0   4  -3 419189. 9182.40   2
   4   0  -3 421876. 9233.07   1
  -4   4  -3 466791. 10583.4   2
  -4   4  -3 479498. 9736.53   1
  -4   0   3 440780. 9405.54   1
   0   4  -4 122193. 4712.38   1
  -4   0   4 133810. 5354.40   1
   4   0  -4 111885. 4997.29   1
   4   0   4 107296. 4563.02   1
  -4   4  -4 129402. 5480.17   2
   0   4   4 117067. 3493.41   2
  -4   4  -4 129449. 5364.94   1
  -4   0  -4 139457. 5140.63   1
   0  -4   4 120092. 4687.47   1
   0   4  -4 126008. 5163.37   2
   4   0  -4 152122. 5751.29   2
   4  -4   4 123958. 5268.52   1
  -4   4   4 121577. 4543.60   1
   4  -4  -4 113092. 4636.24   1
   0   4  -5 33473.9 2631.50   1
   0  -4   5 34591.3 2629.23   1
   4   0  -5 41997.5 3045.04   1
  -4   4  -5 36854.8 3074.99   2
  -4   4  -5 34401.2 2945.35   1
  -4   4   5 31340.3 2301.52   1
   4   0  -5 35023.9 2907.59   2
   4  -4   5 35493.0 2855.79   1
  -4   0  -5 32086.3 2565.33   1
   4   0   5 32217.4 2464.32   1
  -4   0   5 31706.8 2678.03   1
   4  -4  -5 25015.5 2169.67   1
   0   4  -5 35043.3 2744.05   2
   0  -4   6 41728.6 3058.28   1
  -4   4  -6 42729.9 3393.37   2
   4  -4  -6 47291.2 3121.37   1
   4  -4   6 44123.8 3255.34   1
   0   4  -6 44420.1 3155.04   1
   0   4  -6 49705.1 3507.76   2
   4   0   6 50469.7 3266.38   1
   4   0  -6 40768.8 3216.71   1
  -4   0  -6 45681.5 3134.83   1
   4   0  -6 49175.7 3419.73   2
  -4   4   6 48382.0 3106.36   1
  -4   4  -6 51954.5 3728.78   1
  -4   0   6 42790.9 3162.13   1
   0  -4  -6 36033.1 1185.77   1
   4   0  -7 10396.7 1585.64   1
   4  -4   7 8159.98 1564.78   1
  -4   0  -7 7974.91 1414.23   1
   4   0   7 9736.74 1498.99   1
   0  -4   7 10752.6 1520.09   1
   0   4  -7 8971.86 1495.16   1
   0   4   7 7900.85 747.207   1
  -4   4  -7 8121.21 1681.69   1
  -4   4   7 10337.7 1441.05   1
   0  -4  -7 11351.7 953.747   1
   4   0  -7 9084.14 1498.35   2
  -4   0   7 9170.73 1496.30   1
   0   4  -7 9357.07 1542.61   2
  -4   4  -7 9904.75 1577.59   2
   4  -4  -7 8688.82 1377.75   1
  -4   0  -8 3856.63 969.745   1
  -4   0   8 3619.64 998.061   1
  -4   4   8 3649.60 840.880   1
   0   4  -8 3937.89 1201.14   1
   4   0  -8 3432.01 970.554   2
   4   0  -8 4898.98 1171.78   1
   4  -4  -8 3969.18 928.092   1
  -4   4  -8 3532.20 1136.28   1
  -4   4  -8 3928.42 1145.68   2
   0   4  -8 3574.22 1047.47   2
   0  -4   8 2829.98 758.846   1
   4  -4   8 3342.77 862.127   1
   4   0   8 4061.69 1020.51   1
   0   4  -9 47699.3 3827.47   1
   4   0  -9 40973.2 3525.65   1
   4  -4  -9 39401.2 3221.19   1
   0  -4   9 46474.4 3554.08   1
  -4   0  -9 51114.9 3728.49   1
  -4   4   9 45086.0 3320.34   1
  -4   4  -9 47731.5 3930.45   1
   0   4  -9 41654.4 3501.45   2
   0  -4  -9 40247.0 2459.15   1
   4  -4   9 43965.5 3512.25   1
   4   0  -9 40254.4 3337.62   2
  -4   4  -9 44903.8 3596.54   2
   4   0   9 59371.7 3909.41   1
  -4   0   9 49183.4 3716.05   1
   0   4 -10 243024. 8803.86   1
   0  -4  10 207171. 7877.81   1
   4  -4 -10 223161. 8078.77   1
   4   0  10 176273. 7149.11   1
  -4   0  10 219407. 8225.31   1
  -4   4  10 276493. 8443.35   1
   0   4 -10 191692. 7727.77   2
  -4   0 -10 201061. 7732.73   1
   4  -4  10 205180. 8020.30   1
   4   0 -10 210978. 7971.34   2
  -4   4 -10 208222. 8185.21   2
  -4   4 -10 202026. 8593.49   1
   4  -4 -10 246203. 8393.61   2
   4   0 -10 218072. 8522.75   1
   0  -4  11 128117. 6472.01   1
   4   0  11 146490. 6671.55   1
  -4   0  11 158516. 7039.51   1
   4  -4 -11 129926. 6502.13   1
  -4   4  11 142599. 6273.33   1
   4  -4 -11 146820. 6530.67   2
   0   4 -11 135151. 6793.81   1
   0   4 -11 146361. 6951.17   2
   4  -4  11 144859. 6801.58   1
   4   0 -11 128595. 6406.06   2
   4   0 -11 149153. 7167.52   1
  -4   4 -11 143642. 6925.79   2
  -4   0 -11 174017. 7439.46   1
   4   0 -12 31728.8 3405.41   1
   0   4 -12 30420.0 3243.51   2
   4  -4 -12 25521.9 2805.92   2
  -4   4  12 27029.2 2822.26   1
   4  -4  12 43498.1 3871.02   1
   4   0 -12 29965.6 3166.34   2
  -4   4 -12 27199.8 3316.12   2
   0  -4  12 31827.6 3292.12   1
   4   0  12 35806.7 3460.61   1
   0   4 -12 31080.8 3280.97   1
   4  -4 -12 29429.8 3108.20   1
  -4   0 -12 36792.7 3518.31   1
  -4   4 -12 32958.0 3378.62   1
  -4   0  12 29583.8 3202.90   1
   4   0 -13 64155.6 4718.06   2
   0   4 -13 59465.0 4772.63   1
   4   0  13 62360.2 4780.48   1
  -4   0  13 66155.6 4858.91   1
  -4   0 -13 55355.4 4595.08   1
  -4   4 -13 65175.8 4922.38   2
   4  -4 -13 60551.9 4721.37   1
   0   4 -13 65518.4 4952.68   2
   0  -4  13 65564.2 4797.34   1
   4  -4  13 57633.6 4516.06   1
   4  -4 -13 45589.5 3779.39   2
  -4   4 -13 53247.3 4586.63   1
  -4   4  13 66218.9 4618.25   1
   4   0 -13 71964.4 5201.65   1
   0   4 -14 114467. 6772.76   1
  -4   0  14 107884. 6394.98   1
  -4   4 -14 93912.9 6403.94   2
   4  -4  14 133027. 7151.21   1
   4  -4 -14 83271.2 5348.18   2
   0  -4  14 109280. 6529.55   1
   4  -4 -14 137142. 7286.12   1
   4   0 -14 118333. 6695.72   2
   4   0  14 107964. 6317.31   1
  -4   0 -14 135092. 7231.73   1
  -4   4  14 110060. 6196.14   1
   4   0 -14 124621. 6929.55   1
   0   4 -14 110011. 6588.38   2
  -4   4 -14 107990. 6453.07   1
   0  -4  15 11336.7 2139.95   1
  -4   4 -15 9492.70 2029.72   1
  -4   4 -15 8856.04 1990.67   2
   4   0 -15 7868.19 1817.75   2
   4  -4 -15 10050.4 2062.14   1
   4   0 -15 7729.72 1699.38   1
   4  -4  15 9142.35 1737.14   1
   0   4 -15 9031.73 1942.97   1
  -4   4  15 10172.7 1913.08   1
   0   4 -15 12271.0 2241.74   2
  -4   0  15 12087.5 2177.06   1
   4   0  15 10402.2 2037.74   1
  -4   0 -15 6677.32 1551.22   1
  -4   0  16 2558.14 1062.87   1
   4   0  16 2906.94 1055.66   1
   0   4 -16 2985.14 1088.31   1
   4  -4 -16 2178.91 949.736   1
   4   0 -16 1599.99 742.429   1
   0  -4  16 2588.72 1088.97   1
   4   0 -16 3052.82 1262.31   2
   4  -4  16 2076.73 1026.38   1
  -4   4  16 2874.30 1023.71   1
  -4   0 -16 3087.70 1154.67   1
   0   4 -16 2335.38 1034.39   2
  -4   4 -16 4447.36 1506.68   2
  -4   4 -16 3171.39 1176.93   1
  -4   0 -17 1567.72 916.292   1
   4   0  17 2208.20 994.317   1
   4  -4  17 2481.25 1035.70   1
   0   4 -17 2629.15 1107.42   1
   4  -4 -17 1637.83 858.997   1
   0  -4  17 3224.23 1181.10   1
   0   4 -17 1645.30 926.261   2
  -4   0  17 2400.22 1014.05   1
   4   0 -17 3206.67 1280.65   1
   4   0 -17 1634.89 1121.86   2
   4  -4  18 9875.42 2154.10   1
   4   0 -18 4542.12 1756.11   2
   4   0 -18 7698.02 1781.14   1
   0   4 -18 6441.67 1672.43   2
  -4   0  18 6959.59 1757.41   1
   0   4 -18 5193.11 1595.50   1
  -4   0 -18 7544.85 1822.50   1
   0  -4  18 8818.16 1991.20   1
   4   0  18 5748.05 1655.25   1
  -4   0  19 4341.92 1376.01   1
   4  -4  19 3917.77 1285.13   1
   0  -4  19 5408.96 1578.11   1
   4   0 -19 4361.51 1508.49   1
  -4   4 -19-238.227 361.310   1
   0   4 -19 4728.29 1526.37   1
   4   0 -19 4193.49 1649.42   2
   0   4 -19 3384.76 1214.65   2
   4  -4  20 1068.13 400.716   1
  -4   4 -20-821.214 665.994   1
   0   4 -20 851.315 698.441   2
  -4   0  20 1265.14 866.342   1
   4   0 -20 950.388 581.200   1
   5  -3 -20 100.536 159.688   1
  -5   2  20 666.538 326.888   1
  -5   3  20 4.99298 609.097   1
  -5   2  19 3495.40 1185.12   1
  -3   5 -19 4369.15 1273.25   1
  -2   5 -19 6387.63 1800.25   1
   5  -3 -19 4726.12 1557.79   1
   2  -5  19 5583.78 1643.50   1
   5  -2 -19 4905.48 1569.08   1
   3  -5  19 5532.46 1538.66   1
  -2   5 -19 3129.78 1380.46   2
  -5   3  19 3977.47 1346.11   1
  -5   3  18 17691.7 2837.25   1
   5  -3 -18 21968.6 3311.32   1
   5  -2 -18 19919.1 3075.02   1
  -5   2  18 21788.2 3164.10   1
   5  -2 -18 18358.9 3203.39   2
  -2   5 -18 18508.1 3020.04   2
  -3   5 -18 20298.1 3143.77   2
  -3   5 -18 20280.7 3062.83   1
   2  -5  18 23305.0 3158.06   1
  -2   5 -18 23267.2 3227.13   1
   3  -5  18 20079.3 2997.26   1
  -3   5 -17 10576.3 2198.85   1
  -2   5 -17 11234.4 2295.80   1
   5  -2 -17 9974.47 2081.87   2
   2  -5  17 13293.3 2340.19   1
   5  -3 -17 10889.1 2256.03   1
   5  -2 -17 8679.63 2031.59   1
  -5   3  17 10507.3 2143.16   1
  -5   2  17 10405.7 2137.00   1
   3  -5  17 14022.1 2494.99   1
  -2   5 -17 8675.82 2095.41   2
  -3   5 -17 12199.0 2299.41   2
  -2   5 -16 9424.73 1973.71   1
  -3   5 -16 8650.66 1885.71   1
   2  -5  16 10135.5 2109.68   1
   3  -5  16 9912.79 2020.78   1
  -5   3  16 10263.6 2054.08   1
   5  -2 -16 7979.20 1809.25   1
  -3   5 -16 8166.47 1878.19   2
  -5   2  16 8372.24 1819.30   1
   5  -3 -16 10078.8 2146.68   1
  -2   5 -16 8737.33 2003.03   2
   5  -2 -16 8877.76 2036.52   2
   5  -3 -16 7192.85 1694.39   2
  -2   5 -15 5174.73 1515.96   1
   3  -5  15 5523.09 1482.93   1
   2  -5  15 5445.99 1495.73   1
   5  -3 -15 4522.38 1305.77   1
   5  -2 -15 4230.22 1379.06   1
  -5   3  15 6159.38 1532.21   1
  -3   5 -15 5956.83 1495.90   2
  -3   5 -15 4576.34 1451.31   1
   5  -3 -15 4263.19 1241.16   2
  -5   2  15 6307.38 1614.75   1
  -2   5 -15 5376.33 1532.10   2
   5  -2 -15 4060.17 1243.56   2
  -2   5 -14 53555.9 4642.61   1
  -5   3  14 66285.0 4880.03   1
  -5   2  14 45017.4 4049.92   1
   5  -2 -14 50136.9 4530.77   1
   5  -3 -14 57353.6 4563.14   2
   5  -3 -14 53699.2 4613.20   1
  -3   5 -14 45923.0 4361.47   2
  -2   5 -14 50399.8 4484.98   2
   5  -2 -14 48945.0 4295.50   2
   2  -5  14 49050.4 4419.30   1
   3  -5  14 60525.0 4782.27   1
  -3   5 -14 52201.0 4477.52   1
   5  -3 -13 5434.92 1267.13   2
  -2   5 -13 6947.01 1519.25   1
  -3   5 -13 5395.87 1483.92   2
  -2   5 -13 6468.22 1561.13   2
   5  -2 -13 5548.71 1557.82   1
   5  -3 -13 6697.00 1632.74   1
  -3  -2 -13 6760.16 1454.12   1
   3  -5  13 5318.41 1358.61   1
  -3   5 -13 6174.36 1565.30   1
  -5   3  13 5990.92 1433.43   1
   5  -2 -13 6837.52 1464.05   2
   2  -5  13 6188.72 1525.54   1
  -5   2  13 6675.70 1558.97   1
   3   2  12 1871.49 762.249   1
  -5   3  12 2523.85 795.172   1
   3  -5  12 1976.55 870.317   1
  -2   5 -12 2891.44 874.418   1
  -3  -2 -12 2912.84 997.664   1
   2  -5  12 1307.08 766.729   1
   5  -2 -12 1567.28 615.615   1
   5  -3 -12 1817.21 685.097   1
   5  -2 -12 2271.24 901.410   2
  -5   2  12 1141.55 510.305   1
   5  -3 -12 3485.58 1006.76   2
  -3   5 -12 2095.50 697.651   2
  -2   5 -12 1512.17 787.399   2
  -3   5 -12 1789.79 814.942   1
  -3   5 -11 73131.2 5052.64   1
   3   2  11 79470.4 4639.78   1
  -3  -2 -11 62836.9 4158.95   1
  -5   2  11 61395.1 4485.20   1
  -5   3  11 93941.8 5387.86   1
   3  -5  11 65854.9 4736.79   1
   5  -3 -11 74184.9 4908.78   2
   5  -2 -11 76617.0 5148.67   1
  -2   5 -11 62646.4 4733.76   1
   5  -2 -11 72638.4 4837.16   2
   2  -5  11 79528.9 5235.12   1
  -3   5 -11 76369.2 5142.21   2
   5  -3 -11 69585.6 4918.48   1
  -2   5 -11 70615.2 4972.41   2
  -3  -2 -10 115747. 5441.73   1
   5  -3 -10 111117. 5825.01   2
   3   2  10 101278. 4983.83   1
   2  -5  10 109505. 5974.83   1
   3  -5  10 115343. 6079.75   1
   5  -3 -10 114939. 6067.61   1
  -2   5 -10 119026. 6254.41   2
  -5   3  10 117130. 5958.62   1
   5  -2 -10 115576. 5891.33   2
   5  -2 -10 111776. 6025.94   1
  -2   5 -10 115996. 6266.19   1
  -3   5 -10 102970. 5878.37   2
  -5   2  10 141226. 6629.62   1
  -2  -3 -10 132500. 5415.75   1
  -3   5 -10 111339. 5992.68   1
  -3  -2  -9 140112. 5705.80   1
   2   3   9 144654. 5082.76   1
  -5   3   9 164099. 6712.66   1
   3  -5   9 116801. 6001.47   1
  -5   2   9 114837. 5876.24   1
  -3   5  -9 132083. 6506.40   2
   5  -3  -9 120173. 5826.05   1
  -3   5  -9 126589. 6252.69   1
  -2  -3  -9 131572. 5160.09   1
   3   2   9 166599. 6034.10   1
  -2   5  -9 127282. 6294.92   2
   5  -2  -9 137104. 6372.36   2
   5  -3  -9 133074. 6387.07   2
   5  -2  -9 125306. 6043.80   1
   2  -5   9 128399. 6281.72   1
  -2   5  -9 111758. 5952.79   1
  -3   5  -8 36128.1 3264.65   2
  -5   2   8 32343.4 2900.68   1
   5  -3  -8 27696.2 2767.38   1
  -3   5  -8 35140.3 3163.87   1
  -5   3   8 28998.3 2757.52   1
  -2  -3  -8 36320.8 2467.46   1
   2   3   8 24891.4 1962.35   1
   5  -2  -8 40256.5 3385.33   2
   3   2   8 42846.8 2884.39   1
   5  -2  -8 31292.6 2974.50   1
  -3  -2  -8 44276.0 3027.69   1
  -2   5  -8 31966.5 3142.00   2
   2  -5   8 38198.6 3293.42   1
   3  -5   8 33199.7 3122.33   1
   5  -3  -8 32670.9 3220.64   2
  -2   5  -8 36324.1 3171.60   1
  -3  -2  -7 93098.8 4236.94   1
   5  -3  -7 86570.9 4700.30   1
   5  -2  -7 73981.1 4571.82   1
   2   3   7 75387.3 3200.14   1
   2  -5   7 90943.6 4979.67   1
  -2   5  -7 79376.2 4839.48   2
  -5   2   7 90134.0 4745.26   1
  -2  -3  -7 86062.0 3549.22   1
  -5   3   7 81734.4 4443.94   1
   3  -5   7 75783.2 4538.62   1
   5  -2  -7 82922.0 4942.44   2
  -3   5  -7 76429.3 4800.27   2
  -3   5  -7 92398.5 4999.80   1
   3   2   7 95959.7 4197.04   1
  -2   5  -7 81038.9 4754.04   1
   3  -5   6 587506. 12010.8   1
  -2   5  -6 562176. 12372.7   2
   5  -2  -6 556207. 12077.0   1
   5  -3  -6 567447. 12016.7   1
  -3   5  -6 571897. 12494.1   2
  -5   2   6 558228. 11645.9   1
  -5   3   6 540833. 11360.3   1
   5  -2  -6 612094. 13090.8   2
   2  -5   6 580706. 11907.4   1
  -5   3   5 113087. 4924.49   1
   5  -2  -5 129607. 5681.27   1
   3  -5   5 149335. 5963.94   1
  -2  -3  -5 138589. 3968.07   1
   5  -3  -5 139534. 5791.87   1
   3   2   5 120884. 4443.82   1
   2  -5   5 123717. 5338.03   1
  -3   5  -5 139087. 6044.25   2
   3   2   5 136785. 3145.55   2
  -5   2   5 137686. 5647.72   1
  -3  -2  -5 135693. 4752.14   1
  -2   5  -5 130913. 5424.60   1
  -2   5  -5 132220. 5826.56   2
   2  -5   4 107118. 4701.07   1
  -3  -2  -4 83326.9 3634.88   1
  -2   5  -4 108826. 5093.13   2
  -3   5  -4 108609. 5179.73   2
  -5   3   4 81292.0 4178.52   1
   3   2   4 108792. 3136.67   2
   3   2   4 128224. 4374.62   1
   2   3   4 92598.2 3069.12   1
   3  -5   4 103468. 4676.82   1
   2   3   4 93371.6 2755.40   2
   5  -3  -4 119161. 5292.67   1
  -5   2   4 91813.6 4533.39   1
  -3   5  -4 121952. 5290.28   1
   5  -2  -4 106028. 4917.08   1
  -2  -3  -4 103946. 3318.27   1
  -2   5  -4 98512.0 4510.10   1
  -2  -3  -3 96068.5 3165.46   1
  -3  -2  -3 89760.3 3743.19   1
   2   3   3 83802.4 2970.51   2
   5  -3  -3 80945.0 4184.80   1
   3   2   3 94238.0 3720.74   1
  -5   2   3 74516.6 4081.27   1
   3   2   3 108992. 3475.51   2
  -2   5  -3 88782.6 4558.38   2
   2   3   3 95704.0 3085.37   1
  -3   5  -3 99750.0 4796.10   2
   3  -5   3 81633.8 4066.27   1
   2  -5   3 79976.3 3863.25   1
  -3   5  -3 93358.6 4294.88   1
   5  -2  -3 87843.8 4418.19   1
  -2   5  -3 87298.4 3921.74   1
  -5   3   3 85915.7 4262.69   1
  -5   2   2 281805. 7787.54   1
  -3  -2  -2 226912. 5975.88   1
  -3   5  -2 292309. 8180.23   2
   5  -3  -2 260413. 7610.86   1
  -3   5  -2 254353. 6712.59   1
  -2  -3  -2 274817. 5356.26   1
   3  -5   2 227675. 6643.28   1
   3   2   2 264072. 6303.77   1
   2   3   2 247441. 5554.59   2
   3   2   2 204271. 5074.37   2
  -2   5  -2 277920. 7744.42   2
   5  -2  -2 273394. 7825.02   1
   2  -5   2 255654. 6466.07   1
  -2   5  -2 290921. 7050.43   1
  -5   3   2 278996. 7640.39   1
  -2   5  -1 35435.5 2754.29   2
   2   3   1 30193.6 2119.07   2
  -5   2   1 34381.5 2689.60   1
   2   3   1 42466.2 2193.15   1
  -3   5  -1 36123.8 2344.41   1
  -5   3   1 33969.5 2663.28   1
  -3  -2  -1 30403.8 2199.57   1
  -2  -3  -1 37078.0 2115.78   1
   3   2   1 38377.3 2406.11   1
   5  -2  -1 35265.0 2810.29   1
   5  -3  -1 33028.3 2672.33   1
   3   2   1 30273.6 2105.60   2
  -2   5  -1 33333.6 2121.84   1
   3  -5   1 32580.6 2335.47   1
   2  -5   1 31549.8 2105.52   1
  -3   5  -1 35638.1 2828.27   2
  -5   3   0 35612.8 2745.96   1
  -2   5   0 33123.9 2611.75   2
  -2   5   0 34217.6 1929.86   1
   2   3   0 22638.0 1711.26   1
   5  -2   0 32298.4 2579.07   1
  -5   2   0 33926.1 2619.16   1
   3  -5   0 31648.4 2188.51   1
   2   3   0 37143.7 2436.75   2
   5  -3   0 35215.7 2700.64   1
  -3  -2   0 35384.8 2315.34   1
   3   2   0 31169.1 2232.74   2
   3   2   0 26868.0 2062.36   1
   2  -5   0 32606.1 1965.54   1
  -3   5   0 38928.2 2986.20   2
  -3   5   0 27279.3 1943.60   1
  -2  -3   0 37325.0 2216.26   1
  -2   5   1 155847. 3781.92   1
   2  -5  -1 130847. 3552.15   1
   3   2  -1 119532. 4577.00   1
  -3  -2   1 100893. 4203.13   1
  -5   3  -1 126355. 5032.67   1
  -5   2  -1 119505. 5105.33   1
   2   3  -1 133340. 4408.79   1
  -2  -3   1 119295. 4300.85   1
   5  -2   1 120365. 5065.76   1
  -3   5   1 131804. 4095.98   1
   3  -5  -1 125939. 4205.30   1
  -3   5   1 137044. 5670.72   2
   2   3  -1 128277. 4725.70   2
   3   2  -1 123372. 4583.20   2
   5  -3   1 127590. 5208.53   1
  -2   5   1 123584. 4940.01   2
   2   3  -2 384456. 8138.26   1
   5  -3   2 443095. 9890.60   1
  -2  -3   2 499148. 9202.83   1
  -5   2  -2 450185. 9646.49   1
   5  -2   2 532303. 10830.0   1
  -3  -2   2 544561. 10047.2   1
  -5   3  -2 484534. 10092.0   1
   3   2  -2 433046. 9023.49   2
   3   2  -2 432918. 8944.68   1
  -3   5   3 237910. 5302.19   1
   2   3  -3 251882. 7214.56   2
  -3  -2   3 274707. 7331.69   1
   3   2  -3 201372. 6329.94   1
  -2  -3   3 284260. 7270.41   1
   2  -5  -3 224460. 3943.06   1
   3  -5  -3 221495. 5434.62   1
  -5   2  -3 276832. 7808.94   1
   5  -2   3 241348. 7269.90   1
  -5   3  -3 253423. 7509.44   1
   5  -3   3 253543. 7479.62   1
   3   2  -3 265696. 7294.82   2
   2   3  -3 257482. 6980.95   1
   3   2  -4 32671.1 2577.29   1
  -2  -3   4 28188.7 2416.03   1
   3  -5  -4 23471.7 1749.27   1
  -3   5   4 32510.9 1909.62   1
  -2   5   4 18849.6 1028.00   1
   2   3  -4 34156.5 2753.71   2
   5  -3   4 30648.6 2618.88   1
   2  -5  -4 21314.9 1179.62   1
   2   3  -4 26879.6 2409.65   1
   3   2  -4 37057.9 2816.20   2
  -5   2  -4 33390.3 2662.81   1
  -5   3  -4 34742.2 2754.05   1
  -3  -2   4 28413.1 2542.00   1
   5  -2   4 30368.3 2576.31   1
  -5   3  -5 240833. 7788.15   1
   2   3  -5 229983. 7342.68   1
  -5   2  -5 264259. 7996.03   1
   5  -3   5 243814. 7791.11   1
   2   3  -5 306713. 8553.36   2
   3  -5  -5 240331. 5797.55   1
  -2  -3   5 267252. 7675.43   1
  -3  -2   5 290638. 8354.98   1
   5  -2   5 276802. 8095.75   1
  -3   5   5 339681. 6486.83   1
   3   2  -5 305233. 8500.33   1
  -2   5   5 188493. 3479.22   1
   3   2  -5 269420. 8027.80   2
  -5   2  -6 544047. 11773.9   1
  -5   3  -6 547652. 12024.5   1
  -2  -3   6 497241. 10931.2   1
   3   2  -6 546852. 11916.3   1
   3   2  -6 544596. 11855.9   2
   5  -3   6 548863. 11990.9   1
   2   3  -6 533492. 11711.3   2
   2   3  -6 455355. 10613.4   1
   5  -2   6 445515. 10637.1   1
  -3  -2   6 478589. 11047.7   1
   2   3  -7 142953. 6257.39   1
  -2   5   7 141126. 3726.29   1
   3   2  -7 134691. 6158.30   1
  -5   2  -7 128377. 5950.69   1
  -3   5   7 109827. 4114.07   1
   2   3  -7 148749. 6430.95   2
  -3  -2   7 136439. 5994.13   1
   3   2  -7 150323. 6329.47   2
   2  -5  -7 141941. 4085.25   1
   5  -2   7 158802. 6489.57   1
  -5   3  -7 135095. 6089.61   1
   3  -5  -7 140858. 4925.02   1
   5  -3   7 129510. 6070.08   1
  -2  -3   7 137567. 6018.12   1
  -3   5   8 35456.0 2393.53   1
   2   3  -8 36367.5 3217.51   1
   3   2  -8 30018.6 2976.95   1
  -2  -3   8 29817.1 2759.01   1
  -5   2  -8 32462.6 3062.75   1
  -5   3  -8 33415.6 3094.02   2
  -3  -2   8 27960.6 2851.69   1
   2   3  -8 30108.1 3041.34   2
   2  -5  -8 23444.3 1851.87   1
  -5   3  -8 28601.3 2875.02   1
   3  -5  -8 28506.2 2400.67   1
   5  -3   8 33328.2 3103.59   1
   3   2  -8 35776.2 3093.25   2
   5  -2   8 32483.8 3017.50   1
   5  -3   9 13445.9 2037.02   1
   3  -5  -9 13014.3 1646.65   1
   5  -2   9 12763.2 1969.82   1
  -2  -3   9 16999.5 2272.65   1
  -3   5   9 12623.8 1528.51   1
  -3  -2   9 14886.9 2098.06   1
   3   2  -9 14650.7 2042.98   1
   2   3  -9 14571.2 2139.23   2
  -5   3  -9 13933.0 1933.20   1
  -5   2  -9 12050.0 1893.49   1
   2   3  -9 15805.6 2282.33   1
   3   2  -9 17523.9 2163.44   2
  -5   3  -9 15125.5 2160.33   2
  -2  -3  10 130780. 6497.20   1
   3  -5 -10 112678. 5218.57   1
   2   3 -10 111915. 6103.62   2
   3   2 -10 113611. 6285.29   1
  -3   5  10 121237. 5170.56   1
  -3  -2  10 114497. 5912.70   1
  -5   3 -10 90839.7 5470.57   2
  -5   2 -10 105455. 5950.66   1
   3   2 -10 114719. 6186.89   2
  -5   3 -10 114015. 6158.08   1
   5  -3  10 110896. 6027.62   1
   5  -2  10 88271.5 5295.43   1
   2   3 -10 119480. 6311.06   1
   5  -3  11 9115.13 1703.99   1
   3   2 -11 6944.69 1567.07   2
  -5   3 -11 7456.95 1747.48   1
   2   3 -11 8785.87 1743.89   1
   3  -5 -11 8113.94 1466.22   1
  -5   3 -11 4057.60 1670.28   2
   2   3 -11 8336.35 1796.49   2
  -2  -3  11 8219.38 1697.23   1
   3   2 -11 11520.9 1958.67   1
  -5   2 -11 7081.43 1575.86   1
  -3  -2  11 8239.75 1657.39   1
   5  -2  11 10231.2 1855.98   1
  -2  -3  12 24055.1 2894.98   1
  -3  -2  12 21895.0 2654.25   1
   5  -3  12 22943.5 2899.97   1
  -5   3 -12 17293.0 2340.39   2
   3   2 -12 25120.2 2986.57   1
   5  -2  12 21438.9 2828.59   1
   3   2 -12 20061.7 2650.25   2
  -5   2 -12 22935.3 2807.08   1
   2   3 -12 21289.4 2748.79   2
  -5   3 -12 22389.1 3047.30   1
   2   3 -12 21615.6 2759.75   1
   3   2 -13 34595.1 3609.34   2
  -5   3 -13 37737.6 3753.02   2
  -5   2 -13 34306.6 3642.87   1
  -3  -2  13 34881.4 3633.08   1
   3   2 -13 35168.0 3731.68   1
   5  -3  13 40214.6 3888.58   1
   5  -2  13 42285.8 4024.44   1
   2   3 -13 33603.0 3618.94   2
  -5   3 -13 30646.0 3732.98   1
  -2  -3  13 42366.6 3853.74   1
   2   3 -13 36285.4 3748.74   1
   2   3 -14 50209.8 4566.46   1
   3   2 -14 49090.5 4619.96   1
   5  -3  14 42356.2 4063.96   1
  -2  -3  14 51870.9 4380.37   1
  -5   2 -14 55690.4 4794.10   1
   2   3 -14 50418.4 4320.82   2
   3   2 -14 45129.8 4336.47   2
  -5   3 -14 41386.8 4064.84   1
  -3  -2  14 41959.7 4081.93   1
   5  -2  14 41248.3 4100.40   1
   3   2 -15 18948.3 2929.49   1
  -2  -3  15 23571.7 2960.92   1
  -3  -2  15 18110.6 2655.31   1
  -5   3 -15 20607.9 2908.02   1
   2   3 -15 15934.3 2517.35   1
   5  -3  15 22436.1 2896.68   1
   2   3 -15 17401.0 2728.65   2
  -5   2 -15 24833.3 3300.99   1
   5  -2  15 21703.0 3023.56   1
   3   2 -15 21303.0 2924.83   2
   5  -2  16 1558.49 875.397   1
   5  -3  16 1905.11 849.252   1
   2   3 -16 1749.86 994.913   1
   3   2 -16 1751.45 1026.34   1
  -5   3 -16 2559.21 908.361   1
  -3  -2  16 2169.89 935.367   1
  -2  -3  16 1632.43 757.547   1
   2   3 -16 3229.66 1133.19   2
   3   2 -16 704.375 152.774   2
  -5   2 -16 2534.22 878.549   1
   5  -2  17 5737.38 1644.70   1
   5  -3  17 7813.37 1854.74   1
   3   2 -17 7888.97 1849.67   1
  -5   3 -17 6834.37 1906.76   1
   2   3 -17 7287.81 1887.70   1
  -3  -2  17 8429.44 1901.54   1
   2   3 -17 4707.12 1546.18   2
  -2  -3  17 8221.20 1879.86   1
  -5   2 -17 7034.18 1710.88   1
   3   2 -17 5023.92 1679.62   2
   2   3 -18 23008.7 3297.50   1
  -2  -3  18 28537.9 3505.04   1
   3   2 -18 17727.8 2921.14   1
  -3  -2  18 26592.4 3367.02   1
  -5   2 -18 25505.2 3627.54   1
  -5   3 -18 14539.0 2912.19   1
   3   2 -18 17000.4 3165.75   2
   2   3 -18 20988.9 3138.83   2
   5  -2  18 23926.4 3374.90   1
   5  -3  18 24569.2 3401.45   1
   5  -2  19 5064.02 1633.50   1
   2   3 -19 4356.51 1451.13   1
   3   2 -19 8105.74 1882.85   1
  -5   3 -19 6418.51 1935.60   1
   3   2 -19 4038.51 1450.32   2
  -5   2 -19 4114.05 1412.85   1
  -2  -3  19 7499.53 1838.42   1
  -3  -2  19 6413.47 1656.93   1
   2   3 -19 5584.93 1772.26   2
   5  -3  19 4877.08 1553.46   1
   5  -3  20 1527.17 849.530   1
  -5   3 -20 1076.17 674.395   1
   5  -2  20 711.577 312.983   1
  -5   2 -20 592.819 400.892   1
   2   3 -20 1148.57 936.976   2
   3   2 -20 1508.86 1064.68   2
  -1   5 -20 16466.9 2907.58   2
   4  -5  19 672.008 681.445   1
   5  -1 -19 111.071 485.875   1
   1  -5  19 128.273 302.543   1
  -5   1  19 657.969 716.374   1
  -1   5 -19-15.6308 270.736   2
   5  -1 -19 266.876 509.543   2
  -1   5 -19 211.858 174.231   1
  -5   1  18 577.135 539.337   1
  -1   5 -18 354.575 268.593   2
  -1   5 -18 987.699 899.771   1
   4  -5  18 43.4136 259.325   1
   5  -1 -18 418.983 348.521   1
   5  -4 -18-430.611 789.253   1
   5  -1 -18-127.866 442.619   2
   1  -5  18 762.482 492.764   1
  -1   5 -17 867.874 673.124   2
   5  -1 -17-332.792 497.361   1
  -5   1  17 522.024 513.036   1
  -1   5 -17-360.604 611.479   1
   1  -5  17 482.877 444.498   1
   5  -4 -17 1280.11 800.649   1
  -5   4  17 166.246 399.998   1
   4  -5  17-67.5352 503.922   1
  -4   5 -17 1317.30 807.052   1
  -4   5 -17-425.645 580.654   2
   5  -1 -17 317.142 514.089   2
  -1   5 -16 24430.9 3193.34   1
   5  -1 -16 25581.3 3416.25   1
  -4   5 -16 23256.9 3313.33   2
  -5   4  16 29292.0 3460.53   1
  -5   1  16 28036.9 3438.39   1
   1  -5  16 20899.5 3000.04   1
   5  -1 -16 23100.9 3241.82   2
  -4   5 -16 23056.8 3148.10   1
  -1   5 -16 22690.2 3186.92   2
   4  -5  16 23700.3 3181.37   1
   5  -4 -16 26371.0 3454.36   1
  -4   5 -15 335.457 594.946   1
  -1   5 -15-427.757 514.152   1
  -5   1  15 679.702 821.139   1
   5  -4 -15-101.989 203.441   1
  -4  -1 -15 202.477 286.632   1
   1  -5  15 647.408 707.995   1
  -4   5 -15 499.048 492.421   2
  -1   5 -15 369.495 415.092   2
   5  -1 -15-369.055 214.021   1
   5  -4 -15 431.118 438.659   2
  -5   4  15-251.918 463.473   1
   4  -5  15 194.551 572.935   1
   5  -1 -15 215.990 269.121   2
   4   1  14-367.960 468.714   1
  -5   1  14-578.126 684.098   1
   4  -5  14 1025.17 904.887   1
  -1   5 -14 409.424 273.603   1
  -4   5 -14 460.697 600.526   2
  -4  -1 -14 164.116 244.668   1
   5  -1 -14 188.668 306.235   1
   1  -5  14 1842.65 928.586   1
  -4   5 -14-491.167 695.012   1
  -1   5 -14 333.975 514.525   2
   5  -4 -14 166.659 597.035   1
  -5   4  14-545.465 619.854   1
   5  -1 -14 1184.47 777.452   2
   5  -4 -14 221.998 599.737   2
  -1   5 -13-127.107 580.840   1
   4  -5  13 14.1912 253.831   1
  -4  -1 -13-313.972 295.319   1
  -1   5 -13-10.5103 639.681   2
   5  -4 -13 92.2965 650.066   1
   5  -1 -13 970.317 1001.95   1
   1  -5  13-267.599 272.635   1
  -4   5 -13 275.583 338.064   2
   5  -1 -13-270.808 569.633   2
   4   1  13-324.590 354.157   1
   5  -4 -13 678.506 701.443   2
  -5   1  13 65.0251 406.852   1
  -4   5 -13 105.562 440.726   1
  -5   4  13-97.9243 247.243   1
  -5   4  12 382898. 11255.2   1
   5  -1 -12 397140. 12332.3   1
   5  -4 -12 348617. 11396.6   1
   4   1  12 353608. 10724.2   1
   5  -4 -12 330690. 10670.4   2
  -5   1  12 392865. 11617.5   1
  -4   5 -12 363982. 11712.3   1
  -4   5 -12 371393. 12154.1   2
  -4  -1 -12 419540. 11796.7   1
  -1   5 -12 371932. 12090.4   1
   4  -5  12 376185. 11709.8   1
   5  -1 -12 419217. 11905.1   2
  -1   5 -12 356291. 11570.5   2
   1  -5  12 392546. 11901.7   1
  -5   1  11 2949.47 1025.54   1
  -4   5 -11 2497.00 948.616   1
  -1   5 -11 2543.62 895.060   1
   1  -5  11 3150.35 1135.57   1
   5  -1 -11 3486.03 1167.79   1
   4  -5  11 2666.02 953.020   1
  -4  -1 -11 2931.60 958.492   1
  -1   5 -11 1982.82 896.909   2
   5  -4 -11 2729.27 987.444   1
  -4   5 -11 2379.22 997.159   2
  -5   4  11 2228.70 840.394   1
   5  -4 -11 2038.91 860.891   2
   4   1  11 2021.78 740.358   1
   5  -1 -11 2299.75 742.477   2
   4  -5  10 716.850 88.1739   1
   1  -5  10 694.851 430.769   1
  -1   5 -10 489.693 394.621   1
   5  -1 -10 923.925 505.060   1
   4   1  10 755.697 486.417   1
   5  -1 -10 1272.80 614.742   2
   5  -4 -10 879.875 358.319   2
   5  -4 -10 1427.57 568.545   1
  -1   5 -10 1572.25 655.219   2
  -4  -1 -10 1219.14 603.327   1
  -5   1  10 417.496 388.090   1
  -4   5 -10 1018.74 427.224   2
  -5   4  10 1403.97 659.645   1
  -4   5  -9 5109.94 1278.64   1
  -5   1   9 4398.96 1131.15   1
   4  -5   9 5796.97 1305.69   1
  -1   5  -9 3454.32 1085.39   1
  -5   4   9 4343.02 1090.27   1
   5  -4  -9 4426.49 1149.29   1
   1  -5   9 4365.33 1147.54   1
  -4  -1  -9 4201.78 1124.60   1
  -4   5  -9 4903.23 1298.03   2
   5  -1  -9 4763.59 1334.59   1
  -1   5  -9 4505.20 1192.78   2
   4   1   9 3923.46 976.877   1
   5  -1  -9 5975.31 1414.20   2
  -1   5  -8 143399. 6555.61   1
  -1   5  -8 143530. 6665.29   2
   5  -1  -8 139491. 6302.83   1
   5  -4  -8 128340. 5914.41   1
  -5   4   8 126328. 5637.01   1
  -5   1   8 153616. 6543.61   1
  -4   5  -8 151518. 6943.57   2
   4   1   8 187090. 6662.37   1
  -4  -1  -8 146288. 5998.82   1
   4  -5   8 155902. 6754.94   1
   5  -1  -8 141317. 6432.86   2
  -4   5  -8 140266. 6999.51   1
   1  -5   8 164071. 6872.23   1
   4  -5   7 8393.63 1559.25   1
  -1   5  -7 7856.75 1504.85   1
  -5   1   7 9767.35 1454.25   1
   1  -5   7 7702.84 1483.36   1
  -4   5  -7 8591.60 1665.07   1
   5  -4  -7 7875.95 1455.16   1
  -4   5  -7 8559.61 1706.30   2
  -5   4   7 7452.26 1296.64   1
   5  -1  -7 9259.05 1564.06   2
  -4  -1  -7 8925.60 1489.90   1
   5  -1  -7 8502.08 1568.74   1
   4   1   7 8262.91 1323.03   1
  -1   5  -7 8919.20 1646.09   2
   4  -5   6 10297.0 1673.40   1
   5  -1  -6 13034.6 1936.91   1
   5  -1  -6 11724.7 1836.63   2
  -4  -1  -6 10242.5 1495.38   1
   4   1   6 10963.8 1533.75   1
   5  -4  -6 9747.18 1526.86   1
  -4   5  -6 12483.3 1924.27   1
  -5   4   6 11875.9 1645.61   1
  -1   5  -6 9938.03 1582.16   1
  -1   5  -6 10286.6 1649.06   2
  -5   1   6 10686.2 1750.39   1
   4   1   6 3502.45 652.737   2
  -4   5  -6 9482.00 1622.73   2
   1  -5   6 11411.5 1682.54   1
  -1   5  -5 24104.9 2501.72   2
  -4   5  -5 24814.0 2507.98   1
  -5   1   5 23283.0 2420.71   1
   5  -1  -5 22136.2 2432.43   1
   5  -4  -5 24751.7 2423.95   1
  -4   5  -5 22337.6 2478.84   2
  -4  -1  -5 26298.2 2277.26   1
   4   1   5 20754.0 2072.85   1
   1  -5   5 24551.2 2286.10   1
  -1   5  -5 22364.1 2290.29   1
   5  -1  -5 24603.1 2597.97   2
   4  -5   5 23320.8 2461.03   1
  -5   4   5 30786.0 2513.14   1
   1   4   5 21321.1 1242.21   2
   4   1   5 19245.3 1704.34   2
  -1   5  -4 334763. 8378.51   1
  -5   4   4 346589. 8600.87   1
  -4   5  -4 396834. 10261.5   2
   5  -4  -4 376642. 9300.32   1
  -4   5  -4 361842. 9293.79   1
   4   1   4 315501. 7967.49   1
  -1   5  -4 358937. 9455.60   2
   4   1   4 349246. 7014.18   2
   4  -5   4 367609. 9480.08   1
   1  -5   4 343512. 8331.46   1
  -5   1   4 380873. 9370.32   1
  -4  -1  -4 378772. 8715.40   1
   5  -1  -4 403052. 10237.9   2
   5  -1  -4 357097. 9271.84   1
  -1   5  -3 1822.79 582.721   1
   4   1   3 2442.44 712.344   1
   1  -5   3 1439.44 498.547   1
  -4  -1  -3 1216.19 452.029   1
   1   4   3 1723.72 490.183   2
  -1  -4  -3 1325.83 204.028   1
  -1   5  -3 1010.89 223.746   2
   5  -4  -3 1416.91 584.825   1
  -4   5  -3 1469.88 539.801   2
  -5   1   3 2253.84 692.960   1
  -5   4   3 2598.27 762.337   1
   4   1   3 2900.05 690.000   2
  -4   5  -3 2898.34 783.950   1
   5  -1  -3 998.946 433.081   1
   4  -5   3 1646.21 638.777   1
   1   4   2 52438.9 1708.46   1
  -4  -1  -2 48244.1 3061.48   1
  -5   4   2 58115.3 3488.19   1
  -1  -4  -2 57614.7 1868.03   1
   4   1   2 48848.1 3117.36   1
   5  -1  -2 62815.0 3818.97   1
   5  -4  -2 45305.3 3181.56   1
   4   1   2 66195.4 3302.04   2
  -4   5  -2 60948.5 3993.34   2
   4  -5   2 56741.7 3407.45   1
   1   4   2 50605.8 2741.50   2
   1  -5   2 53918.4 2904.68   1
  -1   5  -2 53791.0 3444.18   2
  -4   5  -2 50571.8 3169.64   1
  -5   1   2 55894.6 3477.82   1
  -1   5  -2 56408.4 2963.27   1
   4   1   1 924.495 460.671   2
  -1   5  -1 1198.05 434.460   1
   1  -5   1 911.105 361.644   1
   5  -1  -1 1494.00 539.445   1
   5  -4  -1 278.437 164.924   1
   1   4   1 944.263 222.399   1
  -4   5  -1 567.195 210.908   1
  -1   5  -1 1392.50 613.179   2
  -5   4   1 956.155 305.471   1
  -4  -1  -1 1340.24 582.993   1
  -4   5  -1 1383.02 723.270   2
   4   1   1 1091.05 396.475   1
  -1  -4  -1 767.748 239.598   1
   1   4   1 948.850 415.203   2
   4  -5   1 1374.71 581.057   1
  -5   1   1 1597.07 685.237   1
   1   4  -1 9156.98 1098.81   1
  -5   4  -1 6471.75 1082.05   1
  -1   5   1 7711.67 1198.81   2
   1  -5  -1 7159.46 714.714   1
   4   1  -1 8068.54 1252.68   1
  -5   1  -1 10005.5 1450.37   1
  -4   5   1 7920.31 1167.26   1
   5  -4   1 8331.56 1390.65   1
   4  -5  -1 9088.54 1310.19   1
  -1   5   1 5344.22 580.641   1
   5  -1   1 7630.80 1318.35   1
  -1  -4   1 8201.33 1072.03   1
   1   4  -1 6627.29 1130.03   2
  -4  -1   1 9441.20 1376.83   1
   4   1  -1 7779.56 1248.14   2
   1   4  -2 83473.1 3634.61   1
   5  -1   2 70630.7 4000.06   1
   4  -5  -2 85048.9 3878.54   1
  -1  -4   2 69082.7 3329.03   1
   4   1  -2 66106.6 3646.32   1
  -5   1  -2 61465.5 3727.98   1
  -4  -1   2 56432.1 3421.33   1
   4   1  -2 66704.6 3710.21   2
  -4   5   2 78371.7 3618.54   1
  -1   5   2 68055.3 3434.13   2
   1   4  -2 70297.2 3754.06   2
   5  -4   2 65061.6 3806.74   1
  -5   4  -2 65467.5 3778.16   1
  -4   5   3 4810.35 880.833   1
   1   4  -3 4502.78 911.383   1
  -4  -1   3 5788.65 1132.12   1
  -5   1  -3 3842.74 885.290   1
   4   1  -3 4825.72 967.698   1
  -5   4  -3 3827.28 791.517   1
   5  -4   3 5069.94 988.524   1
  -1   5   3 5077.19 931.879   2
   4  -5  -3 5250.16 972.790   1
   1   4  -3 5074.60 965.972   2
   5  -1   3 4787.01 1094.30   1
  -1  -4   3 6727.16 1078.62   1
   4   1  -3 5436.46 1125.41   2
  -5   4  -4 463044. 10616.6   1
  -1  -4   4 393297. 9008.31   1
   4   1  -4 420934. 9865.11   1
   1   4  -4 399717. 9183.43   1
   5  -4   4 407393. 10063.0   1
  -4  -1   4 426112. 9838.85   1
   5  -1   4 502994. 10713.3   1
  -5   1  -4 413222. 9764.06   1
   4   1  -4 423275. 9761.63   2
   1   4  -4 463720. 10353.9   2
  -5   1  -5 868.284 556.081   1
  -1  -4   5 932.041 290.435   1
   4   1  -5 984.861 426.111   1
  -4   5   5 1982.01 589.268   1
   1   4  -5 1050.48 555.622   2
  -5   4  -5 1179.72 613.188   2
   4  -5  -5 1247.33 394.225   1
  -5   4  -5 1663.45 837.272   1
   1   4  -5 1348.58 556.733   1
   4   1  -5 1952.55 764.616   2
   5  -1   5 1808.36 608.461   1
  -4  -1   5 1310.31 727.931   1
   5  -4   5 1015.62 353.527   1
   1   4  -6 17776.9 2124.98   1
   4  -5  -6 15912.2 1777.22   1
  -5   4  -6 13556.9 2041.96   2
  -1  -4   6 20013.6 2228.79   1
   4   1  -6 19149.6 2181.77   1
   5  -1   6 20181.0 2223.92   1
  -5   4  -6 19729.8 2267.70   1
   4   1  -6 17451.7 2059.51   2
   1   4  -6 23019.1 2404.98   2
   5  -4   6 17969.4 2218.49   1
  -4  -1   6 16619.3 2132.23   1
  -4   5   6 16478.6 1735.31   1
  -5   1  -6 17327.1 2076.11   1
   1   4  -7 18398.4 2254.97   1
  -1  -4   7 18525.7 2230.10   1
   4   1  -7 18789.3 2275.40   1
   4  -5  -7 19503.8 2057.00   1
  -5   4  -7 19748.1 2363.70   1
  -4  -1   7 17872.9 2321.82   1
  -4   5   7 18334.5 1913.35   1
   5  -1   7 16535.7 2049.97   1
   1   4  -7 15275.1 2148.53   2
  -5   4  -7 19555.1 2482.39   2
  -5   1  -7 21964.3 2312.26   1
   4   1  -7 20035.8 2292.45   2
   5  -4   7 19833.6 2393.98   1
   1   4  -8 179636. 7420.22   1
  -1  -4   8 170126. 7071.72   1
   4   1  -8 141965. 6626.83   1
   4  -5  -8 153241. 5941.57   1
   5  -1   8 146829. 6323.82   1
  -4  -1   8 156548. 6783.68   1
  -4   5   8 143796. 5645.53   1
  -5   4  -8 158719. 6929.04   1
   4   1  -8 157303. 6673.18   2
   1   4  -8 164884. 6966.78   2
   5  -4   8 175863. 7403.34   1
  -5   4  -8 150918. 6775.08   2
  -5   1  -8 161132. 6631.34   1
   4   1  -9-93.3799 289.665   2
   1   4  -9-603.127 666.318   1
  -5   1  -9 433.703 584.634   1
   4   1  -9-201.205 151.577   1
   4  -5  -9 77.6714 121.858   1
  -1  -4   9 594.857 504.314   1
   5  -4   9 64.8283 515.182   1
   1   4  -9 218.154 170.932   2
  -5   4  -9 214.474 355.477   2
  -5   4  -9-84.3672 451.052   1
  -4  -1   9 971.025 589.579   1
  -4   5   9 304.666 169.548   1
   5  -1   9 88.7824 202.412   1
   5  -4  10 5363.26 1333.16   1
   5  -1  10 2667.16 842.936   1
   1   4 -10 4494.80 1202.63   1
  -5   4 -10 6096.40 1316.52   1
  -4   5  10 5414.48 1137.04   1
  -1  -4  10 4693.71 1238.43   1
  -5   4 -10 4748.12 1234.05   2
  -4  -1  10 5749.47 1402.55   1
   1   4 -10 3470.93 1079.17   2
   4  -5 -10 5375.85 1294.17   1
   4   1 -10 7131.68 1530.75   1
   4   1 -10 3772.19 1015.08   2
  -5   1 -10 5986.91 1430.68   1
   1   4 -11 2985.49 1072.73   1
   1   4 -11 3707.01 1200.41   2
  -5   1 -11 2739.73 1044.44   1
   4   1 -11 4445.98 1227.81   1
   4  -5 -11 3576.31 1112.19   1
  -5   4 -11 5184.74 1575.72   1
  -4   5  11 3060.68 870.462   1
  -1  -4  11 3051.15 1019.72   1
   4   1 -11 5682.59 1416.95   2
  -4  -1  11 4634.70 1169.92   1
  -5   4 -11 4599.51 1290.29   2
   4  -5 -11 375.194 567.355   2
   5  -4  11 5086.60 1428.82   1
   5  -1  11 4615.74 1212.92   1
   1   4 -12 313143. 10745.3   1
  -1  -4  12 283929. 10098.2   1
   4   1 -12 293051. 10435.5   1
  -5   4 -12 256661. 10203.3   2
  -4   5  12 310137. 9483.36   1
  -4  -1  12 345251. 10896.5   1
   4  -5 -12 295823. 9898.27   1
   1   4 -12 312031. 10652.2   2
   4   1 -12 323376. 10912.0   2
  -5   1 -12 274760. 10096.6   1
  -5   4 -12 318057. 11354.2   1
   5  -4  12 296860. 10446.9   1
   5  -1  12 287062. 10100.8   1
   5  -1  13-160.507 171.306   1
   5  -4  13 34.9078 128.573   1
   1   4 -13 557.872 497.129   1
   4  -5 -13 599.782 425.038   1
  -4  -1  13 587.006 477.474   1
   4   1 -13 891.717 623.234   1
  -5   1 -13-685.972 605.810   1
  -1  -4  13-275.001 524.518   1
  -5   4 -13 72.6598 314.054   2
   4   1 -13-1028.01 881.884   2
  -5   4 -13-516.755 380.032   1
   1   4 -13 59.6995 535.497   2
  -5   4 -14 5059.82 1478.80   2
   4   1 -14 4774.76 1338.97   2
   4   1 -14 4092.20 1266.56   1
   5  -4  14 9040.71 1893.24   1
  -4  -1  14 5327.94 1454.35   1
  -5   1 -14 6922.35 1579.16   1
  -1  -4  14 7230.82 1589.46   1
   1   4 -14 4160.44 1285.64   1
   1   4 -14 6062.05 1556.11   2
   5  -1  14 6046.61 1378.50   1
  -5   4 -14 6963.01 1608.08   1
   5  -1  15 878.266 763.549   1
   1   4 -15-512.764 581.702   1
   4   1 -15 385.753 612.203   1
   4   1 -15-29.6026 382.082   2
  -1  -4  15-263.902 577.627   1
   5  -4  15 451.806 539.393   1
  -5   1 -15 431.872 606.297   1
  -4  -1  15-121.051 757.658   1
   1   4 -15 743.456 594.924   2
  -5   4 -15-291.607 644.495   1
  -1  -4  16 46239.7 4398.78   1
   1   4 -16 41753.9 4316.31   1
   4   1 -16 53461.6 4868.80   1
  -4  -1  16 49419.5 4521.01   1
   1   4 -16 41384.2 4310.40   2
   4   1 -16 45137.5 4609.31   2
  -5   1 -16 42672.5 4282.15   1
   5  -1  16 48653.6 4564.32   1
   5  -4  16 50356.0 4620.06   1
  -5   4 -16 35608.8 4061.74   1
   5  -1  17 590.248 469.853   1
   1   4 -17 166.304 417.373   1
   1   4 -17-141.381 678.011   2
  -1  -4  17-56.5723 536.149   1
  -5   4 -17-407.423 496.225   1
  -5   1 -17 228.158 381.776   1
  -4  -1  17-290.522 325.567   1
   4   1 -17 386.381 37.1871   2
   5  -4  17-269.454 454.177   1
   4   1 -17 279.586 447.687   1
   5  -1  18-33.2301 448.612   1
   1   4 -18 1267.18 855.202   1
   4   1 -18 1948.43 1034.99   1
  -1  -4  18 2338.74 1012.02   1
  -5   1 -18 2207.81 878.056   1
   1   4 -18 1122.78 548.536   2
   5  -4  18 1524.15 873.624   1
   4   1 -18 1205.75 845.824   2
  -5   4 -18 1529.67 949.953   1
  -4  -1  18 1975.30 1004.38   1
   5  -1  19 811.920 705.342   1
   1   4 -19 1160.96 910.695   2
   5  -4  19 633.361 847.081   1
   1   4 -19 363.326 551.841   1
   4   1 -19-72.3201 446.360   1
   4   1 -19 532.756 455.527   2
  -5   1 -19 1415.16 990.483   1
  -4  -1  19 232.146 494.497   1
  -5   4 -19 293.258 453.870   1
  -1  -4  19-50.3223 308.275   1
   4   1 -20 5999.88 2030.51   2
   1   4 -20 8543.34 2121.90   2
   0   5   0 119418. 3438.97   1
   5   0   0 116506. 5139.00   1
   0   5   0 125452. 4989.28   2
  -5   5   0 134424. 5258.95   1
   5  -5   0 103490. 4835.75   1
  -5   0   0 110111. 4979.08   1
   5   0   0 144734. 5879.58   2
   0  -5   0 134091. 3687.71   1
   5   0   1 335476. 8833.06   1
   5   0  -1 339419. 8865.97   1
   5  -5   1 352872. 8992.65   1
   0   5   1 367271. 8468.77   2
   5  -5  -1 350920. 9017.81   1
  -5   5  -1 324628. 8419.51   1
  -5   5   1 329255. 8464.92   1
   5   0  -1 419860. 9963.30   2
  -5   0   1 380564. 9356.62   1
   0   5  -1 375248. 8978.40   2
  -5   0  -1 312724. 8464.84   1
   0  -5   3 173268. 5623.44   1
  -5   5   3 240256. 7042.82   1
   0   5   3 189857. 5522.92   2
   5   0  -3 180344. 6555.38   1
  -5   0  -3 206739. 7034.92   1
   5  -5   3 171930. 6537.42   1
   5   0   3 228961. 7151.45   1
   0   5  -3 198746. 6059.04   1
  -5   0   3 188862. 6662.37   1
   0   5  -3 199530. 6947.20   2
   5   0  -3 228356. 7505.55   2
   5  -5  -3 200907. 6845.64   1
  -5   5  -3 195516. 6809.38   1
   5  -5  -4 18245.9 1988.40   1
   0   5   4 21343.1 1866.43   2
   0   5  -4 19931.9 2067.57   1
   5   0  -4 24183.0 2476.37   1
   0  -5   4 21017.3 2044.04   1
  -5   5  -4 21409.7 2628.23   2
  -5   5  -4 23700.0 2429.71   1
   5   0   4 18573.7 2067.94   1
   0   5  -4 25139.8 2481.37   2
   5  -5   4 18445.3 2245.46   1
  -5   0   4 23083.2 2354.80   1
  -5   5   4 13059.2 1678.46   1
   5   0  -4 24652.7 2542.84   2
  -5   0  -4 17838.2 2104.31   1
   5   0   5 6160.25 1209.15   1
  -5   0  -5 4620.06 1231.14   1
  -5   5  -5 4963.19 1200.01   1
   5   0  -5 4802.56 1107.02   2
  -5   0   5 5745.37 1190.74   1
   0   5  -5 5014.11 1054.64   1
   0  -5   5 5994.39 1169.57   1
   5   0  -5 5265.15 1120.73   1
  -5   5   5 6951.32 1167.09   1
   0   5  -5 4810.17 1057.89   2
   5  -5  -5 4945.30 1063.68   1
  -5   5  -5 4666.69 1279.84   2
   5  -5   5 4785.81 1247.09   1
   5  -5  -6 1782.71 552.645   1
   0   5  -6 2711.01 842.386   1
  -5   0   6 1484.07 631.107   1
  -5   0  -6 1645.88 777.625   1
   0  -5   6 1375.43 590.075   1
  -5   5  -6 1960.91 759.535   1
  -5   5   6 1435.12 586.426   1
   5   0  -6 1798.14 689.086   1
  -5   5  -6 2514.91 830.348   2
   0   5  -6 2593.47 867.196   2
   5   0  -6 1874.39 670.435   2
   5  -5   6 2531.84 784.179   1
   5   0   6 3739.53 946.469   1
   5   0  -7 848.345 616.885   2
  -5   0   7 618.818 330.448   1
   0   5  -7 393.065 150.788   1
  -5   5   7-509.477 396.395   1
  -5   5  -7 525.424 257.372   1
  -5   0  -7 380.391 401.243   1
   5   0  -7 682.943 570.384   1
   0  -5   7 859.246 166.555   1
   5  -5  -7 937.812 553.323   1
   5  -5   7 83.2568 346.244   1
  -5   5  -7-675.497 647.544   2
   0   5  -7 721.923 518.371   2
   5   0   7 790.824 467.891   1
  -5   0   8 530.456 588.847   1
   5  -5   8 673.985 563.624   1
  -5   5  -8-16.6658 376.318   2
   0   5  -8 30.4698 421.669   1
   0   5  -8 759.458 477.092   2
   5   0  -8 492.886 389.987   1
   5  -5  -8 249.614 421.054   1
   0  -5   8 727.118 515.016   1
  -5   0  -8 367.419 288.310   1
  -5   5   8 499.751 471.322   1
   5   0   8 45.1556 353.245   1
  -5   5  -8-453.031 447.888   1
   5   0  -8 404.876 379.884   2
   0   5  -9 46262.6 3804.00   1
   0  -5   9 57317.7 4252.99   1
   5  -5  -9 45593.1 3652.77   1
  -5   5   9 54930.2 3812.30   1
  -5   5  -9 48430.7 4100.89   2
   5  -5   9 49587.7 4055.17   1
  -5   0   9 53571.3 4156.96   1
   5   0  -9 52305.6 4163.66   1
   5   0  -9 53745.0 3943.62   2
   5   0   9 52524.7 3954.66   1
   0   5  -9 51082.3 4078.34   2
  -5   5  -9 51653.7 4198.01   1
  -5   0  -9 52699.0 4052.86   1
   0   5 -10 224373. 8809.70   1
   0  -5  10 250994. 9090.37   1
  -5   0 -10 262942. 9082.04   1
   0   5 -10 224021. 8802.23   2
   5   0  10 249495. 8763.93   1
  -5   0  10 248736. 9117.46   1
  -5   5  10 266315. 8700.24   1
  -5   5 -10 242313. 9373.36   2
   5  -5  10 244425. 9239.36   1
   5   0 -10 229996. 9091.63   1
  -5   5 -10 260236. 9914.31   1
   5   0 -10 226866. 8603.43   2
   5  -5 -10 236721. 8620.75   1
   0  -5  11 99916.5 5890.21   1
  -5   0  11 112210. 6239.79   1
  -5   5  11 105514. 5677.31   1
   5   0  11 103919. 5844.55   1
  -5   5 -11 97851.2 6085.97   2
   0   5 -11 102053. 5991.17   2
   0   5 -11 96399.3 5902.53   1
   5   0 -11 104165. 5848.85   2
  -5   5 -11 100687. 6290.67   1
   5  -5  11 110268. 6282.56   1
   5   0 -11 105734. 6291.80   1
  -5   0 -11 108765. 6064.54   1
   5  -5 -11 110320. 6170.90   1
   0  -5  12 46065.0 4114.36   1
   5   0 -12 49404.5 4400.30   1
   0   5 -12 43715.4 4103.42   1
  -5   5  12 46691.5 3880.46   1
   5  -5 -12 51678.6 4420.24   1
  -5   0  12 43723.5 3904.81   1
   5   0  12 52498.3 4266.36   1
   0   5 -12 42852.7 4070.54   2
  -5   5 -12 45304.9 4055.77   2
  -5   5 -12 38378.1 3944.47   1
   5  -5  12 47968.0 4211.16   1
   5   0 -12 36833.8 3736.25   2
  -5   0 -12 55261.1 4460.06   1
   0  -5  13 38936.4 3901.08   1
   0   5 -13 40068.8 3927.25   1
   0   5 -13 37691.7 3723.33   2
  -5   5 -13 38196.9 3937.99   2
   5   0 -13 37929.7 3849.97   1
   5  -5 -13 42511.0 4095.56   1
  -5   0 -13 42284.0 3939.18   1
  -5   0  13 43877.7 3887.64   1
  -5   5 -13 30821.4 3486.21   1
   5   0  13 52990.7 4386.21   1
   5  -5  13 42071.3 4006.91   1
   5   0 -13 41453.9 3884.06   2
  -5   5  13 40873.3 3699.68   1
   5  -5 -14 97354.4 6349.08   1
   5   0 -14 103615. 6609.69   1
  -5   5  14 109522. 6287.57   1
  -5   0 -14 97815.0 6221.20   1
  -5   5 -14 86932.1 6132.67   2
   0   5 -14 88734.9 6019.63   2
   5   0  14 94162.2 6027.41   1
   5  -5  14 91812.0 6056.05   1
   0   5 -14 75700.3 5760.44   1
   5   0 -14 93408.8 6125.20   2
   0  -5  14 91645.3 6096.26   1
  -5   5 -14 72014.9 5567.13   1
  -5   0  14 92232.4 5924.78   1
   5  -5  15 5915.46 1531.01   1
   0   5 -15 7271.87 1657.06   1
  -5   5 -15 4450.46 1413.28   1
  -5   0 -15 6987.44 1708.08   1
   5  -5 -15 5884.75 1487.97   1
   5   0 -15 7573.30 1931.70   1
   0  -5  15 8042.30 1871.45   1
  -5   5 -15 6828.86 1800.13   2
   0   5 -15 7979.67 1749.48   2
  -5   0  15 6313.45 1569.91   1
   5   0 -15 4665.23 1597.22   2
   5   0  15 8821.12 1961.50   1
  -5   0 -16 1238.29 715.035   1
   0   5 -16 2210.85 1010.73   1
   5   0  16 1799.78 933.969   1
   0   5 -16 552.024 541.627   2
  -5   5 -16 822.450 170.447   1
   5   0 -16 1340.40 919.157   1
   0  -5  16 1791.69 937.168   1
   5  -5  16 1422.90 734.205   1
  -5   5 -16 844.894 870.870   2
  -5   0  16 1526.69 942.514   1
   5   0 -16 2521.32 1034.02   2
  -5   5 -17 2883.06 1116.47   1
  -5   0 -17 2396.59 1038.66   1
   0  -5  17 2588.85 1066.89   1
  -5   0  17 3749.09 1190.17   1
   0   5 -17 1933.47 957.185   2
   5   0 -17 3719.37 1315.37   1
   0   5 -17 2074.24 1032.32   1
   5  -5  17 2199.11 955.420   1
   5   0 -17 2428.46 1285.17   2
   0   5 -18 3193.77 1167.56   2
   5  -5  18 2163.77 868.813   1
   0   5 -18 3598.15 1293.29   1
   0  -5  18 3169.74 1121.83   1
   5   0 -18 4677.61 1512.76   1
  -5   0  18 2758.48 1093.20   1
   5   0 -18 2280.96 1174.69   2
  -5   5 -18 1187.35 933.233   1
  -5   0  19 3222.79 1336.66   1
   0  -5  19 3031.97 1184.33   1
   5   0 -19 3607.15 1551.69   1
   5  -5  19 3471.17 1071.69   1
   0   5 -19 2470.98 965.067   1
   0   5 -19 3739.09 1416.66   2
  -5   5 -19 2920.09 1477.83   1
   5   0 -19 1765.62 957.583   2
   5   0 -20 598.189 561.743   2
   6  -3 -19-452.740 391.736   1
  -3   6 -19 644.005 551.716   2
  -6   3  19-109.497 382.638   1
  -3   6 -18 158.789 420.935   1
   3  -6  18 374.093 486.362   1
   6  -3 -18 541.885 540.252   1
  -3   6 -18 512.843 582.530   2
  -6   3  18 774.874 303.466   1
   6  -3 -17 162.691 303.338   2
  -6   3  17 628.387 625.493   1
  -3   6 -17 6.66968 145.642   2
   3  -6  17-342.285 401.374   1
   6  -3 -17 1150.25 813.110   1
   6  -3 -16 67522.9 5672.34   1
   6  -3 -16 61761.4 5223.97   2
   3  -6  16 80917.8 5884.94   1
  -3   6 -16 60000.8 5313.52   2
  -3   6 -16 61478.1 5305.55   1
  -6   3  16 73094.2 5566.46   1
  -3   6 -15-569.622 556.785   1
   6  -3 -15-496.226 662.069   1
   3  -6  15 784.835 703.253   1
   6  -3 -15 452.347 469.094   2
  -3   6 -15 30.3716 340.569   2
  -6   3  15 455.876 727.322   1
   6  -3 -14 40003.3 4260.70   1
  -6   3  14 43617.7 4146.70   1
  -3   6 -14 41753.1 4316.60   2
   6  -3 -14 45841.9 4112.09   2
   3  -6  14 48836.9 4470.87   1
  -3   6 -14 42792.3 4270.39   1
  -3   6 -13-30.2997 248.269   1
   3  -6  13-156.592 457.212   1
  -3   6 -13 347.822 586.497   2
   6  -3 -13-435.608 565.594   1
  -6   3  13-453.141 527.925   1
   6  -3 -13 342.485 315.569   2
  -6   3  12 54028.9 4292.99   1
   6  -3 -12 56492.6 4600.14   1
  -3   6 -12 51734.4 4529.63   2
   6  -3 -12 56304.4 4529.05   2
   3  -6  12 51412.2 4428.63   1
  -3   6 -12 52043.4 4483.12   1
  -6   3  11 79.0448 475.828   1
  -3   6 -11 130.605 240.690   1
   3  -6  11-767.525 720.996   1
   6  -3 -11-55.0183 125.013   1
  -3   6 -11 622.721 546.304   2
   6  -3 -11-29.1609 468.425   2
   6  -3 -10 147442. 7086.29   1
  -3   6 -10 154967. 7440.18   2
  -6   3  10 145956. 6962.04   1
   6  -3 -10 133257. 6743.76   2
   3  -6  10 169241. 7684.10   1
  -3   6 -10 159345. 7472.51   1
  -6   3   9-419.874 340.829   1
  -3   6  -9 770.802 611.169   1
   3  -6   9-592.738 168.877   1
   6  -3  -9-808.589 567.321   1
  -3   6  -9-618.981 401.296   2
   6  -3  -9 751.215 575.644   2
   6  -3  -8 435875. 12147.9   2
   6  -3  -8 449437. 11896.6   1
  -6   3   8 495658. 12135.1   1
  -3   6  -8 419569. 11836.8   2
   3  -6   8 468963. 12097.3   1
  -3   6  -8 407633. 11346.1   1
  -3   6  -7 1639.10 782.096   1
   3  -6   7 304.372 454.786   1
  -6   3   7 312.002 235.173   1
   6  -3  -7 208.516 486.015   1
   3   3   7 92.1462 96.4903   1
  -3  -3  -7 406.942 339.646   1
  -3   6  -7 530.331 566.653   2
   6  -3  -6 45222.8 3586.47   1
  -3  -3  -6 43295.9 2742.37   1
  -6   3   6 46663.9 3549.38   1
  -3   6  -6 39910.6 3499.21   2
   3   3   6 45235.8 2733.82   1
   3  -6   6 42126.0 3439.75   1
  -3   6  -6 39626.3 3248.64   1
  -3  -3  -5 286.381 286.925   1
   3   3   5 252.083 314.932   1
  -6   3   5 428.954 498.854   1
   6  -3  -5 107.749 128.757   1
  -3   6  -5 502.707 401.100   2
   3  -6   5 209.500 168.003   1
   6  -3  -3-288.701 348.006   1
  -3   6  -3-237.585 171.952   1
  -3  -3  -3-33.9906 295.827   1
   3   3   3 105.879 158.840   1
   3  -6   3-112.326 146.577   1
  -6   3   3-647.771 563.900   1
   3   3   3 25.9918 120.029   2
  -3   6  -3 2.73961 326.358   2
  -6   3   2 158293. 6259.48   1
   3   3   2 138834. 4665.88   1
  -3   6  -2 146743. 6212.31   2
   6  -3  -2 149943. 6338.88   1
  -3   6  -2 159668. 5506.16   1
   3  -6   2 159659. 5821.28   1
  -3  -3  -2 145447. 4767.45   1
  -3   6  -1 55.2376 128.133   2
  -6   3   1-118.940 424.035   1
   3   3   1 31.1342 54.3007   2
  -3  -3  -1 121.993 268.011   1
   3   3   1 432.166 403.980   1
   6  -3  -1 730.758 329.785   1
  -3   6  -1 321.353 166.936   1
   3  -6   1-25.7081 63.2405   1
   3   3   0 65688.9 3399.36   1
  -6   3   0 83130.2 4507.90   1
   6  -3   0 85902.0 4574.00   1
  -3   6   0 88513.5 4839.13   2
  -3  -3   0 66187.1 3453.59   1
  -3   6   0 75078.4 3465.35   1
   3   3   0 86261.0 4093.00   2
   3  -6   0 75089.2 3494.59   1
  -3   6   1 121.140 303.456   1
  -3  -3   1 313.825 253.043   1
   3   3  -1 105.981 192.579   1
  -6   3  -1 118.522 380.327   1
  -3   6   1-201.264 382.796   2
   3   3  -1 110.162 228.363   2
   6  -3   1 103.681 139.339   1
   3  -6  -1-32.9264 110.937   1
   3   3  -2 139680. 5581.06   2
   3   3  -2 134836. 5207.09   1
  -3   6   2 134865. 4036.64   1
  -6   3  -2 140680. 5949.41   1
  -3  -3   2 158595. 5753.23   1
   6  -3   2 142320. 6128.73   1
  -3  -3   3 292.153 161.910   1
   3  -6  -3 44.7739 126.408   1
  -6   3  -3 377.838 409.720   1
   3   3  -3-86.3444 311.343   1
   6  -3   3 174.648 412.718   1
  -3   6   3-187.931 194.464   1
   3   3  -3-538.484 493.472   2
  -3   6   5-114.747 144.065   1
   3   3  -5 320.021 381.678   1
  -6   3  -5-223.041 270.803   1
   3  -6  -5 141.657 94.6804   1
   3   3  -5-14.6965 286.373   2
  -3  -3   5-186.303 329.834   1
   6  -3   5-141.928 247.871   1
   3   3  -6 44723.2 3606.99   1
   3   3  -6 48136.3 3614.94   2
  -3  -3   6 39168.4 3192.34   1
   6  -3   6 41960.4 3434.01   1
  -6   3  -6 42589.1 3444.13   1
   6  -3   7-13.0730 531.874   1
   3   3  -7-58.1530 84.0159   1
  -6   3  -7-157.492 310.742   1
  -3  -3   7-636.408 473.999   1
  -6   3  -8 261665. 9086.07   1
   3   3  -8 258811. 9136.68   1
  -3  -3   8 259029. 8840.76   1
   3   3  -8 243648. 8753.25   2
   6  -3   8 253744. 8906.36   1
   3   3  -9 561.190 690.782   1
   3   3  -9-698.028 696.478   2
  -6   3  -9 478.178 420.038   1
  -3  -3   9 327.234 504.376   1
   6  -3   9 800.993 509.985   1
   3   3 -10 156754. 7477.78   1
  -3  -3  10 129045. 6566.11   1
  -6   3 -10 156111. 7401.38   1
   3   3 -10 147527. 7212.81   2
   6  -3  10 157473. 7377.54   1
  -6   3 -11-1167.67 622.768   1
  -3  -3  11 133.660 111.874   1
   3   3 -11-281.712 419.069   1
   3   3 -11-184.770 613.638   2
   6  -3  11-619.897 430.221   1
   3   3 -12 127894. 7128.68   1
  -3  -3  12 138289. 7180.05   1
  -6   3 -12 106963. 6441.77   1
   3   3 -12 121652. 6995.27   2
   6  -3  12 124053. 6832.15   1
   6  -3  13-204.072 55.6468   1
   3   3 -13-577.541 615.082   1
  -6   3 -13-27.5459 408.287   1
   3   3 -13-101.770 655.095   2
  -3  -3  13-187.685 437.634   1
   3   3 -14 25150.9 3278.74   1
   6  -3  14 30581.6 3578.42   1
  -3  -3  14 21236.2 2914.47   1
  -6   3 -14 29907.5 3556.08   1
   3   3 -14 23156.4 2984.80   2
   6  -3  15 1269.26 856.286   1
   3   3 -15 1562.66 670.979   1
  -6   3 -15-271.701 399.767   1
  -3  -3  15 446.620 390.590   1
   3   3 -15-369.186 318.526   2
   3   3 -16 34737.1 3955.13   1
  -3  -3  16 33196.2 3692.67   1
  -6   3 -16 37922.8 4246.05   1
   3   3 -16 26841.5 3421.56   2
   6  -3  16 33736.7 3840.79   1
   6  -3  17 206.993 220.781   1
   3   3 -17 755.307 606.532   1
  -6   3 -17 193.448 195.147   1
  -3  -3  17 515.407 877.747   1
   3   3 -17 578.621 367.787   2
   6  -3  18-489.823 466.952   1
   3   3 -18-221.268 274.862   1
  -6   3 -18 210.913 407.086   1
  -3  -3  18-854.650 748.395   1
   3   3 -18 646.561 589.009   2
   6  -3  19-792.240 725.341   1
  -6   3 -19-141.651 561.616   1
   3   3 -19 421.646 472.112   2
   6  -4 -19 8431.00 2100.43   1
   6  -2 -19 8931.11 2184.20   1
  -2   6 -19 6678.74 1938.01   2
  -6   2  19 10063.7 2081.13   1
   6  -2 -19 4992.37 1577.51   2
   4  -6  18 23292.1 3322.34   1
  -6   4  18 15476.8 2609.95   1
  -6   2  18 18483.1 2971.14   1
   6  -4 -18 16023.5 2858.22   1
   6  -2 -18 18527.6 3031.26   1
  -2   6 -18 17530.2 3051.34   2
  -4   6 -18 15450.3 2788.57   2
   6  -2 -18 15873.3 2866.57   2
   2  -6  18 22631.9 3242.62   1
  -2   6 -18 17826.2 3013.37   1
  -2   6 -17 2766.60 995.706   1
  -4   6 -17 4352.27 1223.37   1
  -4   6 -17 2203.44 1193.19   2
   6  -2 -17 3930.68 1350.56   1
  -2   6 -17 3434.84 1341.30   2
   4  -6  17 5141.49 1501.53   1
  -6   2  17 5835.88 1590.33   1
   2  -6  17 3605.49 1209.83   1
   6  -4 -17 3849.23 1392.43   1
   6  -2 -17 2610.05 1138.77   2
  -6   4  17 4850.12 1568.94   1
  -4   6 -16 12228.5 2364.15   1
  -2   6 -16 8939.59 2058.11   1
   4  -6  16 11669.0 2248.85   1
   2  -6  16 13671.0 2291.84   1
   6  -4 -16 13481.6 2454.44   1
   6  -2 -16 9682.71 1989.67   1
   6  -4 -16 7285.42 1673.32   2
  -6   4  16 10009.4 2126.13   1
  -4   6 -16 7900.60 2044.74   2
  -2   6 -16 8077.17 1995.38   2
  -6   2  16 12047.2 2240.07   1
   6  -2 -16 9479.13 2043.52   2
  -6   2  15 7256.73 1705.97   1
  -4   6 -15 5538.51 1566.20   1
   4  -6  15 6543.03 1632.97   1
   2  -6  15 6208.93 1626.90   1
   6  -2 -15 6395.42 1842.74   1
   6  -4 -15 5639.79 1569.84   1
  -2   6 -15 5416.25 1593.83   2
  -2   6 -15 4988.39 1476.89   1
   6  -2 -15 3922.74 1196.82   2
  -4   6 -15 6421.02 1734.50   2
   6  -4 -15 7551.63 1631.76   2
  -6   4  15 4459.08 1292.11   1
   6  -4 -14 52239.7 4649.45   1
  -6   2  14 44100.5 4147.06   1
  -6   4  14 39360.9 3913.67   1
   6  -4 -14 47021.7 4285.52   2
   6  -2 -14 49116.5 4609.56   1
  -2   6 -14 46885.4 4409.66   2
   4  -6  14 45933.0 4342.62   1
   6  -2 -14 48596.6 4254.58   2
   2  -6  14 42866.2 4228.01   1
  -4   6 -14 41652.6 4367.76   2
  -4   6 -14 42510.9 4261.00   1
  -2   6 -14 49373.0 4592.56   1
   6  -4 -13 10716.4 2010.74   2
  -4   6 -13 8736.45 1819.81   1
  -2   6 -13 10807.0 2117.71   1
   6  -2 -13 11053.8 2141.87   1
  -6   2  13 12356.5 2206.80   1
   4  -6  13 10071.9 2025.15   1
  -2   6 -13 10354.8 2062.04   2
   6  -4 -13 9284.96 1902.64   1
   2  -6  13 9730.88 1917.30   1
  -6   4  13 10838.2 1974.51   1
  -4   6 -13 9757.68 2133.13   2
   6  -2 -13 13625.7 2072.52   2
  -4   6 -12 9749.13 1991.05   1
  -6   4  12 7769.81 1648.72   1
   2  -6  12 11875.1 2015.93   1
   6  -2 -12 13544.8 2275.60   1
   6  -4 -12 10111.6 1985.11   1
  -4   6 -12 8922.94 2000.73   2
  -2   6 -12 13308.1 2156.07   1
  -2   6 -12 9296.54 1979.39   2
   6  -4 -12 9318.52 1775.72   2
   6  -2 -12 13158.2 2132.17   2
  -6   2  12 9136.84 1862.71   1
   4  -6  12 12546.2 2254.61   1
  -2   6 -11 15751.2 2355.97   1
   6  -2 -11 17284.1 2329.03   2
   6  -2 -11 20996.9 2702.71   1
   6  -4 -11 19181.9 2637.51   1
  -6   2  11 24096.3 2897.76   1
  -6   4  11 22029.9 2743.73   1
   6  -4 -11 15364.6 2347.16   2
  -4  -2 -11 19710.4 2486.93   1
  -2   6 -11 18793.3 2615.16   2
  -4   6 -11 15023.5 2493.76   2
   4  -6  11 18473.8 2562.62   1
   2  -6  11 19382.9 2648.15   1
  -4   6 -11 19170.1 2570.11   1
   4  -6  10 89857.3 5610.11   1
   6  -4 -10 84408.8 5337.41   1
   4   2  10 96438.6 5139.49   1
   6  -2 -10 80766.7 5367.05   1
  -6   2  10 96204.5 5802.80   1
  -6   4  10 89465.4 5355.36   1
  -4   6 -10 86692.4 5695.09   2
  -2   6 -10 90071.8 5587.31   2
  -4  -2 -10 103368. 5487.74   1
   6  -2 -10 102977. 5840.55   2
   6  -4 -10 78377.4 5273.20   2
   2  -6  10 84169.6 5448.20   1
  -2   6 -10 82123.7 5472.55   1
   6  -2  -9 99342.5 5737.14   1
   6  -4  -9 108600. 5898.67   1
  -4  -2  -9 90182.1 4956.05   1
  -2   6  -9 101619. 5921.49   2
   4   2   9 104052. 5261.10   1
   2  -6   9 100264. 5706.42   1
  -6   2   9 93943.6 5431.07   1
  -4   6  -9 99913.2 5867.86   2
  -4   6  -9 89020.8 5882.71   1
   4  -6   9 106417. 5986.64   1
   6  -2  -9 102927. 5809.36   2
   6  -4  -9 92881.0 5680.49   2
  -2   6  -9 99729.0 5768.78   1
   4  -6   8 4459.67 1130.23   1
  -4  -2  -8 3664.40 998.123   1
  -6   2   8 3547.36 950.054   1
  -4   6  -8 3702.76 981.828   1
  -6   4   8 3578.63 1037.78   1
   2  -6   8 5727.50 1414.61   1
   6  -2  -8 3950.27 1187.44   1
   6  -4  -8 3755.18 1036.88   1
  -2   6  -8 4533.11 1265.92   1
   4   2   8 4044.15 1030.23   1
  -2   6  -8 3609.85 1070.75   2
  -4   6  -8 4516.75 1218.02   2
   6  -2  -8 4987.98 1177.31   2
   4  -6   7 99837.1 5507.30   1
   6  -2  -7 99822.1 5463.78   1
   6  -2  -7 106974. 5918.44   2
  -4  -2  -7 87732.1 4511.62   1
   6  -4  -7 78658.4 4915.78   1
   4   2   7 128648. 5439.61   1
  -6   4   7 103763. 5400.17   1
  -4   6  -7 97042.8 5522.09   1
  -2   6  -7 92748.4 5474.60   2
   2  -6   7 104113. 5587.26   1
  -4   6  -7 93350.2 5559.59   2
  -6   2   7 110700. 5656.30   1
  -2   6  -7 92254.4 5258.18   1
   6  -2  -6 296010. 9400.85   1
   6  -4  -6 308026. 9323.04   1
   6  -2  -6 310081. 9916.26   2
  -4  -2  -6 251610. 7520.48   1
   4   2   6 294239. 8059.65   1
  -2   6  -6 291067. 8959.59   1
  -2   6  -6 302960. 9469.07   2
  -6   4   6 301720. 8819.58   1
  -4   6  -6 282135. 9404.97   2
  -4   6  -6 309605. 9709.52   1
  -6   2   6 320655. 9547.86   1
   2  -6   6 285412. 8908.88   1
   4  -6   6 263211. 8826.51   1
  -4  -2  -5 60678.5 3570.21   1
   6  -2  -5 48924.2 3600.90   1
   6  -4  -5 49351.8 3723.18   1
   4   2   5 48574.1 2395.55   2
   4   2   5 54048.8 3388.86   1
  -6   2   5 49099.4 3616.86   1
  -4   6  -5 50397.5 3948.68   2
  -2   6  -5 52699.1 3901.65   2
  -4   6  -5 49826.5 3727.44   1
  -6   4   5 46787.8 3405.76   1
   2  -6   5 50246.6 3585.75   1
   4  -6   5 48914.3 3635.38   1
  -2   6  -5 53199.5 3597.88   1
  -4   6  -4 262946. 8794.08   2
   6  -4  -4 225204. 7808.23   1
  -4  -2  -4 236791. 7122.49   1
   6  -2  -4 221477. 7960.29   1
   4   2   4 300443. 7760.55   1
  -2  -4  -4 201478. 4419.91   1
  -4   6  -4 228598. 7669.60   1
   2   4   4 231267. 5160.70   2
  -2   6  -4 245744. 8187.88   2
   4  -6   4 225406. 7828.39   1
   4   2   4 292018. 6355.62   2
  -6   2   4 243886. 7940.23   1
   2  -6   4 234318. 7355.76   1
  -6   4   4 252097. 7918.79   1
  -2   6  -4 247038. 7522.48   1
  -6   4   3 169643. 6554.75   1
  -4   6  -3 159664. 6819.28   2
   2   4   3 183275. 4191.22   1
  -4   6  -3 145286. 5788.01   1
   6  -2  -3 148306. 6454.85   1
   6  -4  -3 170438. 6797.50   1
   4   2   3 167351. 5831.60   1
  -4  -2  -3 167110. 5875.82   1
   2   4   3 122622. 4179.94   2
  -2   6  -3 173343. 6872.35   2
   4  -6   3 146132. 5944.33   1
  -2  -4  -3 172434. 4216.08   1
   4   2   3 178792. 5261.02   2
   2  -6   3 154510. 5603.12   1
  -6   2   3 143134. 6121.35   1
  -2   6  -3 150591. 5536.30   1
  -6   2   2 331313. 9305.03   1
   4   2   2 379900. 7973.52   2
  -6   4   2 298189. 8667.40   1
  -4   6  -2 356996. 8740.32   1
   4   2   2 382590. 8628.71   1
   6  -2  -2 369946. 9802.04   1
   4  -6   2 349181. 8860.88   1
   6  -4  -2 370208. 9888.13   1
  -4   6  -2 361066. 10144.5   2
  -2   6  -2 378502. 9912.81   2
   2  -6   2 350610. 8040.62   1
  -2   6  -2 378891. 8594.74   1
  -4  -2  -2 351382. 8567.32   1
  -6   2   1 31535.9 2789.41   1
  -4   6  -1 34121.5 3110.87   2
   4  -6   1 31837.4 2589.28   1
   2   4   1 31115.8 1993.22   1
  -6   4   1 27918.8 2583.41   1
   2   4   1 29771.2 2358.30   2
  -2   6  -1 28896.6 2732.72   2
   4   2   1 36077.7 2739.97   1
   4   2   1 33337.1 2490.77   2
   6  -2  -1 31844.0 2937.36   1
  -2  -4  -1 42396.5 2434.61   1
   6  -4  -1 31057.4 2848.59   1
  -2   6  -1 35387.1 2347.32   1
   2  -6   1 26676.4 2105.29   1
  -4   6  -1 32858.4 2514.98   1
  -4  -2  -1 31738.1 2548.17   1
   6  -2   0 8062.73 1447.55   1
   2   4   0 6756.76 1011.92   1
  -2   6   0 6096.10 857.039   1
  -4   6   0 6121.17 1092.09   1
  -2   6   0 6055.32 1167.73   2
   4   2   0 4941.64 1008.33   2
  -2  -4   0 8108.83 1087.43   1
  -4  -2   0 5752.44 1105.65   1
   4   2   0 4804.58 979.012   1
  -6   4   0 5473.78 1158.22   1
   2  -6   0 6718.37 968.844   1
  -6   2   0 7116.99 1422.34   1
   6  -4   0 6784.67 1192.98   1
   4  -6   0 6342.18 1097.01   1
  -4   6   0 6580.96 1405.71   2
   2   4   0 4327.81 1028.54   2
   2   4  -1 5066.73 928.386   1
  -2   6   1 3470.90 618.466   1
  -4  -2   1 4101.68 944.815   1
  -6   2  -1 5093.72 1080.13   1
   2   4  -1 5226.62 1013.63   2
   4   2  -1 6013.45 1145.52   1
  -6   4  -1 5195.45 1133.71   1
   2  -6  -1 5314.43 716.032   1
  -2   6   1 4285.20 1003.09   2
   4   2  -1 5424.10 1022.18   2
   6  -2   1 4744.42 1117.05   1
   6  -4   1 4884.82 1101.35   1
   4  -6  -1 4903.77 985.202   1
  -4   6   1 3471.95 843.217   1
  -2  -4   1 5070.72 924.999   1
   2   4  -2 382376. 8643.65   1
  -4   6   2 335646. 7557.51   1
   4   2  -2 364507. 9074.66   1
  -2  -4   2 272338. 7210.93   1
  -2   6   2 320645. 8707.69   2
  -6   2  -2 291327. 8784.94   1
  -4  -2   2 307315. 8359.40   1
   2  -6  -2 224148. 4149.21   1
   4  -6  -2 324664. 7710.36   1
   2   4  -2 329170. 8622.24   2
   6  -2   2 247197. 8148.99   1
   6  -4   2 283697. 8728.34   1
  -6   4  -2 294051. 8502.65   1
   4   2  -2 311451. 8349.29   2
  -4   6   3 333197. 7358.61   1
  -2   6   3 343973. 8983.70   2
   4   2  -3 328938. 8918.76   1
   4  -6  -3 278357. 7245.10   1
  -2  -4   3 333168. 8361.07   1
  -4  -2   3 273247. 8194.59   1
  -6   2  -3 274144. 8412.41   1
   6  -2   3 281521. 8676.99   1
   6  -4   3 318804. 9302.50   1
   2   4  -3 349852. 8664.19   1
  -6   4  -3 316413. 9126.16   1
   4   2  -3 341961. 9023.31   2
   2   4  -3 329647. 8896.18   2
  -6   2  -4 409.588 351.900   1
  -4  -2   4 610.470 418.305   1
   2   4  -4 254.762 478.784   1
   4  -6  -4 110.491 159.300   1
  -6   4  -4 108.602 306.050   1
   4   2  -4 336.483 367.711   1
   6  -4   4-44.7569 370.092   1
  -4   6   4 448.603 366.325   1
   2   4  -4 857.278 583.288   2
   6  -2   4 160.097 370.250   1
   4   2  -4-225.320 251.509   2
  -2  -4   4 385.428 257.960   1
   2   4  -5 223035. 7557.35   1
   4   2  -5 225810. 7811.82   1
  -2  -4   5 254550. 7950.89   1
   4  -6  -5 293775. 7318.33   1
  -6   2  -5 246094. 8221.96   1
   2   4  -5 252223. 8266.55   2
  -4  -2   5 226553. 7936.78   1
   6  -4   5 272824. 8797.61   1
  -4   6   5 285806. 6808.57   1
   4   2  -5 287272. 8671.30   2
  -6   4  -5 244474. 8230.28   1
   6  -2   5 248832. 8355.30   1
  -6   4  -6 199669. 7617.71   1
   2   4  -6 227847. 8107.38   1
   4   2  -6 259965. 8668.90   1
   4  -6  -6 249155. 6854.62   1
   6  -2   6 231712. 8148.61   1
   2   4  -6 207935. 7862.13   2
  -4  -2   6 224090. 8023.85   1
   4   2  -6 207965. 7672.39   2
  -4   6   6 177047. 5579.37   1
  -6   2  -6 202887. 7655.55   1
  -2  -4   6 231567. 7949.93   1
   6  -4   6 191608. 7545.31   1
   2   4  -7 17893.7 2315.13   2
  -6   4  -7 15205.5 2126.30   1
   4   2  -7 15381.7 2157.16   1
  -2  -4   7 13761.8 2024.23   1
   4  -6  -7 16187.3 1787.35   1
  -6   2  -7 15337.9 2138.81   1
   2   4  -7 11688.9 1851.55   1
  -4   6   7 20743.3 1891.59   1
  -4  -2   7 14440.6 2056.88   1
   6  -2   7 13566.4 2015.53   1
   4   2  -7 18328.3 2347.97   2
   6  -4   7 12835.8 1956.88   1
   2   4  -8 63593.2 4584.14   1
   4   2  -8 74605.8 4993.37   1
   4  -6  -8 69104.1 3927.63   1
  -2  -4   8 76899.4 4920.21   1
  -6   4  -8 76598.7 4947.37   1
  -6   2  -8 66290.2 4503.93   1
  -4   6   8 53747.5 3312.81   1
   2   4  -8 67561.1 4575.74   2
   4   2  -8 69815.0 4629.62   2
  -4  -2   8 69625.4 4697.44   1
   6  -4   8 68052.2 4708.28   1
   6  -2   8 73442.9 4664.87   1
  -6   2  -9 19697.2 2455.11   1
   2   4  -9 21694.7 2664.76   1
   4   2  -9 18222.0 2542.12   1
  -2  -4   9 22388.3 2720.12   1
  -6   4  -9 23863.4 2777.70   1
   6  -2   9 25094.1 2870.31   1
  -4  -2   9 20910.1 2508.09   1
   6  -4   9 19067.8 2508.67   1
   2   4  -9 21824.3 2664.18   2
   4   2  -9 20582.8 2640.10   2
   2   4 -10 160208. 7603.43   1
  -6   2 -10 172489. 7752.60   1
  -2  -4  10 173073. 7812.26   1
  -4  -2  10 147420. 7048.63   1
   4   2 -10 197577. 8356.94   1
   2   4 -10 178078. 7896.57   2
  -6   4 -10 180548. 7948.25   1
   4   2 -10 160407. 7516.37   2
   6  -4  10 147379. 7161.42   1
   6  -2  10 144263. 6986.73   1
   2   4 -11 32016.3 3542.62   1
  -2  -4  11 31858.2 3433.17   1
  -4  -2  11 31140.5 3257.53   1
  -6   4 -11 32410.6 3495.57   1
  -6   4 -11 28312.9 3241.36   2
   4   2 -11 31747.7 3410.37   1
   6  -2  11 35573.3 3541.55   1
   2   4 -11 30822.3 3226.46   2
   6  -4  11 32877.6 3523.72   1
   4   2 -11 25919.9 3157.76   2
  -6   2 -11 33151.8 3481.88   1
  -4  -2  12 11836.7 2136.33   1
   4   2 -12 11474.4 2188.58   1
   2   4 -12 9602.12 1984.46   1
   4   2 -12 10875.9 2081.23   2
  -6   4 -12 9014.65 1879.09   2
  -6   4 -12 10806.1 1968.70   1
  -2  -4  12 12809.5 2201.76   1
   6  -4  12 12749.4 2239.82   1
   2   4 -12 11386.5 2073.77   2
   6  -2  12 10597.5 2004.18   1
  -6   2 -12 9002.67 1779.83   1
   6  -4  13 12867.4 2230.92   1
   6  -2  13 12507.9 2263.55   1
   2   4 -13 10052.2 1981.61   1
  -6   2 -13 14918.8 2379.02   1
   4   2 -13 10603.1 2018.58   1
   4   2 -13 10705.5 2108.80   2
  -6   4 -13 10899.4 2066.94   1
  -2  -4  13 12380.1 2143.25   1
  -4  -2  13 9301.95 1953.64   1
  -6   4 -13 7994.94 1777.18   2
   2   4 -13 11874.7 2057.34   2
   2   4 -14 31442.0 3620.47   1
   4   2 -14 35422.2 3932.42   1
  -2  -4  14 36659.2 3759.31   1
  -4  -2  14 37927.6 3951.18   1
  -6   2 -14 42561.6 4150.73   1
   6  -4  14 35699.0 3900.44   1
  -6   4 -14 40339.4 3998.21   1
   4   2 -14 36352.5 4002.48   2
   2   4 -14 35567.0 3822.70   2
   6  -2  14 35525.3 3808.53   1
   2   4 -15 12436.0 2304.12   2
   2   4 -15 14633.3 2397.32   1
   4   2 -15 12209.0 2188.42   1
  -4  -2  15 15797.1 2442.02   1
  -2  -4  15 12572.2 2237.63   1
   6  -4  15 13435.7 2434.93   1
  -6   2 -15 15809.2 2433.24   1
  -6   4 -15 10557.7 2122.98   1
   4   2 -15 10279.2 2245.51   2
   6  -2  15 16090.3 2678.35   1
   6  -4  16 303.361 531.591   1
  -6   2 -16 1134.74 858.665   1
   2   4 -16 427.157 205.153   1
   4   2 -16-586.417 589.094   1
   4   2 -16 103.858 399.388   2
  -2  -4  16 77.1295 220.052   1
  -4  -2  16-189.880 341.980   1
  -6   4 -16 952.472 627.189   1
   2   4 -16-162.595 437.915   2
   6  -2  16 185.205 44.9357   1
   6  -4  17 11256.0 2340.57   1
   2   4 -17 7769.36 1993.54   2
  -6   2 -17 9041.22 2026.99   1
   2   4 -17 7667.02 1936.33   1
  -2  -4  17 6896.51 1712.49   1
   4   2 -17 7725.10 1942.67   1
   4   2 -17 5573.12 1992.15   2
  -6   4 -17 8147.79 2027.41   1
  -4  -2  17 9202.39 2069.53   1
   6  -2  17 7893.13 1933.92   1
   6  -4  18 15359.0 2739.22   1
  -6   2 -18 10212.4 2230.98   1
   2   4 -18 10981.3 2287.55   1
   4   2 -18 7489.21 2250.75   2
   4   2 -18 14095.5 2592.92   1
  -2  -4  18 11763.1 2235.90   1
  -4  -2  18 11124.4 2190.86   1
   2   4 -18 11620.4 2459.31   2
  -6   4 -18 5590.87 1827.13   1
   6  -2  18 11862.7 2361.78   1
   6  -4  19 3102.63 1226.16   1
  -6   2 -19 3270.82 1284.12   1
  -6   4 -19 5083.85 1723.66   1
   2   4 -19 3843.47 1204.49   2
   4   2 -19 1576.02 1115.04   2
   6  -2  19 4587.18 1477.17   1
  -1   6 -19 1257.93 644.753   2
   6  -1 -19 1403.61 1071.41   2
  -5   6 -18 7751.13 2197.63   1
  -1   6 -18 14337.8 2683.56   1
   6  -1 -18 13741.3 2534.79   1
   5  -6  18 14357.1 2462.83   1
  -6   1  18 16384.8 2767.66   1
   6  -1 -18 10579.3 2470.57   2
   1  -6  18 15447.9 2682.40   1
  -1   6 -18 14324.6 2555.79   2
   5  -6  17 5382.03 1601.09   1
  -1   6 -17 5192.12 1624.43   1
  -5   6 -17 1576.20 1024.09   1
  -5   6 -17 4269.17 1514.93   2
   1  -6  17 3334.83 1275.84   1
  -6   1  17 3619.88 1333.04   1
   6  -1 -17 4713.88 1499.77   1
   6  -1 -17 2837.84 1413.14   2
  -1   6 -17 4215.09 1501.36   2
   5  -6  16 1391.16 876.062   1
  -1   6 -16 870.664 872.072   1
   6  -5 -16 867.319 514.867   1
   6  -1 -16 1087.67 559.349   1
  -1   6 -16 1142.68 813.560   2
   1  -6  16 584.302 413.273   1
  -5   6 -16 1034.19 826.328   1
   6  -1 -16 919.346 624.072   2
  -5   6 -16 1602.56 919.601   2
  -6   1  16 1816.84 843.241   1
   6  -1 -15 17790.2 2830.24   1
   5  -6  15 15257.1 2546.50   1
  -1   6 -15 12095.4 2375.92   1
  -6   5  15 13985.2 2402.72   1
  -5   6 -15 10421.7 2137.53   2
   6  -5 -15 14643.8 2514.85   1
  -5   6 -15 12980.8 2480.03   1
   1  -6  15 14178.9 2468.93   1
  -6   1  15 13031.1 2282.67   1
   6  -1 -15 15180.8 2492.95   2
  -1   6 -15 13715.9 2372.56   2
  -1   6 -14 40634.7 4197.32   1
   6  -1 -14 38716.1 4181.68   1
   6  -5 -14 37744.8 4004.70   1
  -6   1  14 40971.9 4007.55   1
  -6   5  14 42076.3 4044.24   1
  -5   6 -14 42871.8 4447.70   2
   6  -5 -14 29781.9 3372.62   2
  -1   6 -14 37213.0 4028.91   2
   6  -1 -14 39963.8 3987.79   2
   5  -6  14 39607.8 4027.92   1
  -5   6 -14 33720.9 3948.47   1
   1  -6  14 40546.7 4161.73   1
  -1   6 -13 22029.3 3038.19   1
   6  -1 -13 19679.2 2929.69   1
   1  -6  13 24018.7 3085.59   1
   6  -5 -13 21861.2 3069.54   1
   6  -1 -13 25963.1 3133.44   2
  -6   1  13 25432.4 3130.68   1
  -5   6 -13 17566.5 2813.94   1
  -6   5  13 30083.9 3249.01   1
   5  -6  13 18269.4 2750.92   1
  -1   6 -13 20739.7 2934.29   2
  -5   6 -13 22233.7 3139.58   2
   6  -5 -13 13937.6 2209.55   2
  -5  -1 -13 25032.2 3164.25   1
  -1   6 -12 22120.7 3032.94   1
  -5   6 -12 18922.9 2704.24   1
   6  -1 -12 25831.4 3240.40   1
   6  -5 -12 25772.1 3171.69   1
  -1   6 -12 23232.6 2945.48   2
  -6   1  12 24638.3 3057.90   1
  -6   5  12 27367.5 3128.26   1
  -5   6 -12 23757.0 3029.88   2
   5   1  12 29127.6 3168.07   1
   5  -6  12 20730.0 2822.09   1
   6  -1 -12 20252.1 2726.59   2
   6  -5 -12 15663.3 2397.70   2
   1  -6  12 27117.5 3215.80   1
  -5  -1 -12 30598.2 3292.48   1
  -1   6 -11 16155.3 2466.80   2
   6  -1 -11 16712.1 2574.89   1
   6  -5 -11 18740.8 2550.00   1
  -5   6 -11 17777.3 2660.24   1
  -6   1  11 17303.9 2465.72   1
  -6   5  11 12471.7 2096.65   1
  -1   6 -11 17406.5 2516.02   1
   5   1  11 18198.4 2340.98   1
  -5   6 -11 15221.6 2469.12   2
  -5  -1 -11 18815.6 2629.10   1
   5  -6  11 16329.3 2420.75   1
   6  -1 -11 14800.3 2319.77   2
   1  -6  11 15731.6 2447.46   1
   6  -5 -11 9077.68 1932.88   2
  -1   6 -10 175086. 8148.69   1
  -5  -1 -10 167445. 7462.89   1
   6  -1 -10 187591. 8262.71   1
   6  -5 -10 203927. 8258.43   1
  -5   6 -10 186838. 8289.17   2
   6  -1 -10 196901. 8172.61   2
  -6   1  10 178309. 8051.77   1
  -5   6 -10 178540. 8454.75   1
  -6   5  10 201297. 7979.44   1
   5   1  10 182159. 7498.89   1
   5  -6  10 176257. 8017.30   1
  -1   6 -10 173189. 7993.99   2
   1  -6  10 182727. 7959.77   1
  -1   6  -9 16954.0 2448.40   1
   6  -5  -9 14763.8 2180.10   1
   6  -1  -9 15102.7 2279.94   2
   6  -1  -9 13772.8 2106.49   1
  -6   1   9 14302.7 2218.07   1
  -6   5   9 14298.1 2048.42   1
   5   1   9 18526.4 2294.63   1
  -1   6  -9 14999.8 2316.41   2
   5  -6   9 14429.5 2250.51   1
  -5   6  -9 16722.1 2496.63   1
  -5   6  -9 19507.2 2646.31   2
  -5  -1  -9 11819.3 2036.80   1
   1  -6   9 15637.1 2228.94   1
  -1   6  -8 12426.7 1980.62   1
  -5   6  -8 11057.1 1901.92   2
  -6   1   8 13364.9 1965.12   1
   6  -1  -8 15910.5 2210.37   1
   6  -5  -8 14169.4 2104.15   1
  -6   5   8 8235.39 1521.75   1
  -5  -1  -8 15208.3 2145.94   1
   5   1   8 13678.0 1911.16   1
   6  -1  -8 12537.4 2055.29   2
  -1   6  -8 15265.5 2247.45   2
   5  -6   8 15140.3 2328.30   1
  -5   6  -8 15111.4 2283.14   1
   1  -6   8 14505.4 2123.90   1
  -1   6  -7 88434.5 5218.98   1
   6  -1  -7 86161.1 5141.96   1
  -1   6  -7 83047.3 5201.61   2
   6  -5  -7 89408.1 5117.92   1
  -5   6  -7 85981.7 5179.63   1
  -5  -1  -7 76658.1 4668.04   1
   5   1   7 96190.6 5065.53   1
  -5   6  -7 82672.3 5433.54   2
  -6   1   7 75360.9 4724.29   1
   5  -6   7 89730.5 5460.88   1
   1  -6   7 78937.7 4828.11   1
   6  -1  -7 89139.5 5295.75   2
  -1   6  -6 28672.6 2884.11   1
   6  -5  -6 26803.6 2756.55   1
  -5   6  -6 30651.9 3184.23   2
  -5   6  -6 27813.0 2883.16   1
   6  -1  -6 26769.4 2874.68   1
  -5  -1  -6 19929.3 2408.87   1
   5   1   6 26257.5 2637.15   1
  -1   6  -6 30963.6 3027.21   2
  -6   1   6 26331.1 2797.31   1
   5  -6   6 32118.8 3098.40   1
   1  -6   6 27503.2 2732.63   1
   6  -1  -6 30948.8 2956.62   2
  -6   5   6 32604.2 2907.67   1
  -1   6  -5 137205. 5944.10   1
  -1   6  -5 142327. 6459.47   2
   6  -1  -5 147252. 6619.19   1
  -5   6  -5 141566. 6413.01   1
   6  -5  -5 141431. 6306.73   1
  -5  -1  -5 125126. 5722.38   1
   5   1   5 152179. 6118.80   1
  -5   6  -5 163983. 7217.19   2
   5  -6   5 172429. 7087.97   1
   5   1   5 119286. 4619.62   2
   6  -1  -5 142462. 6512.00   2
  -6   5   5 131028. 5695.38   1
  -6   1   5 150354. 6646.27   1
   1  -6   5 155575. 6284.32   1
  -1   6  -4 3035.26 851.169   1
   1  -6   4 2785.46 812.458   1
  -5   6  -4 2810.72 995.536   2
  -5  -1  -4 4387.81 1006.64   1
  -6   1   4 1684.83 705.090   1
   6  -1  -4 3032.77 745.630   1
   6  -5  -4 3017.19 901.714   1
   1   5   4 3228.04 673.031   2
  -6   5   4 2712.53 826.808   1
   5   1   4 2756.53 816.473   1
  -1   6  -4 2337.63 883.499   2
  -5   6  -4 3441.98 821.080   1
   5   1   4 1775.79 697.430   2
   6  -1  -4 2504.39 876.537   2
   5  -6   4 2936.06 990.672   1
  -5   6  -3 14265.4 1858.54   1
  -6   5   3 15552.9 1936.14   1
  -5  -1  -3 21132.9 2240.18   1
   6  -1  -3 12875.6 1936.96   1
  -5   6  -3 16755.5 2371.94   2
   6  -5  -3 17255.2 2169.38   1
   5   1   3 19655.0 2203.10   1
  -6   1   3 13352.9 1911.36   1
   1   5   3 15019.2 1581.86   2
   5   1   3 12422.0 1618.86   2
   5  -6   3 15119.8 1961.97   1
   6  -1  -3 14486.7 2174.23   2
  -1   6  -3 12927.1 1969.59   2
   1  -6   3 15975.2 1808.90   1
  -1   6  -3 17595.1 1904.36   1
  -5  -1  -2 612810. 12369.8   1
   6  -1  -2 660051. 13385.3   1
   6  -5  -2 610448. 12682.8   1
   5  -6   2 623751. 12496.1   1
  -5   6  -2 642495. 14215.4   2
  -5   6  -2 631202. 12227.7   1
   1  -6   2 601121. 10471.9   1
  -6   1   1 70041.2 4345.12   1
   1   5   1 78174.7 2679.28   1
  -1  -5  -1 57936.6 2385.85   1
  -6   5   1 63207.5 3988.73   1
   5   1   1 59244.8 3732.33   1
   6  -1  -1 72750.6 4279.73   1
   1  -6   1 71254.3 3243.03   1
   6  -5  -1 69750.7 4173.25   1
  -5   6  -1 71769.4 4072.81   1
   1   5   1 67847.1 3711.28   2
  -1   6  -1 73025.0 4234.41   2
   5  -6   1 71706.0 4214.16   1
   5   1   1 80845.5 4222.15   2
  -1   6  -1 69460.1 3185.78   1
  -5  -1  -1 83430.0 4485.59   1
   1   5   0 189559. 4886.55   1
   5   1   0 219586. 7074.72   2
  -6   1   0 180682. 6862.40   1
  -1  -5   0 174828. 4766.64   1
   5   1   0 168594. 6359.24   1
  -6   5   0 190664. 6933.25   1
   6  -1   0 183592. 7066.60   1
   6  -5   0 219196. 7769.28   1
  -5   6   0 177238. 6237.49   1
   5  -6   0 170048. 6350.65   1
  -1   6   0 179143. 4579.87   1
   1   5   0 198746. 6571.55   2
   1  -6   0 181541. 4589.26   1
  -5  -1   0 184587. 6723.57   1
  -1   6   0 175742. 6689.51   2
   1   5  -1 299127. 6867.29   1
  -1  -5   1 313197. 7133.41   1
  -6   1  -1 305923. 8985.74   1
   5   1  -1 326207. 8917.75   1
  -5  -1   1 346518. 9033.50   1
  -5   6   1 280112. 7849.25   1
   6  -1   1 310067. 9011.47   1
  -6   5  -1 394015. 9880.88   1
   6  -5   1 300744. 9096.62   1
   1   5  -1 350628. 9063.74   2
  -1   6   1 377826. 9342.63   2
   5   1  -1 313416. 8581.52   2
  -1  -5   2 212928. 6313.52   1
  -5   6   2 149278. 5659.18   1
   5   1  -2 245151. 7756.47   2
  -6   1  -2 240986. 7960.42   1
   5   1  -2 219471. 7460.21   1
   5  -6  -2 268637. 7887.01   1
   6  -1   2 174895. 6877.54   1
  -6   5  -2 217766. 7510.95   1
   1   5  -2 237633. 7649.83   2
   1   5  -2 249902. 6819.04   1
  -5  -1   2 221636. 7391.58   1
  -1   6   2 231053. 7072.20   2
   6  -5   2 202703. 7405.87   1
   1   5  -3 48235.2 3205.94   1
  -5   6   3 85667.4 4272.62   1
  -1  -5   3 67110.3 3743.06   1
  -1   6   3 59827.9 3582.89   2
   6  -5   3 50014.3 3759.61   1
   5   1  -3 56298.0 3775.54   2
   5   1  -3 53948.3 3723.26   1
  -6   1  -3 52248.3 3853.14   1
   5  -6  -3 63293.9 3878.49   1
   1   5  -3 58947.5 3918.22   2
   6  -1   3 59206.4 4026.44   1
  -5  -1   3 69680.4 4247.62   1
  -6   5  -3 64525.9 4061.73   1
  -1  -5   4 12529.0 1715.55   1
   1   5  -4 8349.75 1344.96   1
  -5  -1   4 12627.9 1781.35   1
   5  -6  -4 9513.41 1486.99   1
  -6   1  -4 11681.3 1829.85   1
   5   1  -4 9628.02 1589.33   1
  -6   5  -4 10953.1 1656.11   1
   6  -5   4 10537.8 1769.88   1
   1   5  -4 8321.25 1490.64   2
   5   1  -4 11481.9 1667.44   2
  -1   6   4 9773.97 1514.23   2
   6  -1   4 9954.28 1702.59   1
  -5   6   4 14820.4 1785.70   1
  -6   5  -5 4363.98 1077.95   1
  -5  -1   5 3926.65 1059.94   1
   1   5  -5 4120.93 948.552   1
   6  -5   5 4869.32 1146.90   1
  -6   1  -5 3005.73 889.543   1
   5   1  -5 3798.88 1052.81   1
  -1  -5   5 4097.09 1025.75   1
   6  -1   5 3551.02 964.571   1
   5  -6  -5 4149.20 881.446   1
   1   5  -5 4539.87 1203.98   2
   5   1  -5 3733.27 997.023   2
  -5   6   5 3398.12 814.889   1
   1   5  -6 120409. 5869.55   1
  -6   5  -6 136242. 6340.75   1
  -1  -5   6 113027. 5623.23   1
   5   1  -6 105371. 5594.75   1
   5  -6  -6 95545.1 4861.88   1
   5   1  -6 109874. 5577.36   2
   6  -5   6 110827. 5757.44   1
  -5  -1   6 117479. 5820.26   1
   6  -1   6 131202. 6059.74   1
   1   5  -6 117854. 5800.30   2
  -6   1  -6 142415. 6456.33   1
  -5   6   6 99747.7 4747.29   1
   1   5  -7 57783.8 4248.33   1
  -1  -5   7 58267.8 4277.41   1
   5   1  -7 55817.6 4017.28   2
   6  -5   7 60958.1 4494.44   1
   5   1  -7 63254.0 4351.77   1
  -6   5  -7 60235.4 4349.72   1
   5  -6  -7 55747.3 3787.38   1
   6  -1   7 48197.6 3780.17   1
  -5  -1   7 54782.9 4137.72   1
  -6   1  -7 50571.6 3964.66   1
   1   5  -7 62229.3 4315.43   2
   1   5  -8 15764.5 2339.74   1
  -1  -5   8 15201.6 2093.28   1
   5   1  -8 15642.2 2320.21   1
   5  -6  -8 18012.9 2209.60   1
  -6   5  -8 13832.3 2144.80   1
  -5  -1   8 11702.6 1996.27   1
  -5   6   8 13974.9 1788.66   1
   6  -1   8 13290.4 1946.23   1
   6  -5   8 16657.7 2295.83   1
  -6   5  -8 13435.4 2135.41   2
  -6   1  -8 13517.1 2175.42   1
   1   5  -8 14022.3 2090.72   2
   5   1  -8 14651.2 2053.83   2
   1   5  -9 133234. 6730.07   1
  -1  -5   9 134186. 6706.38   1
   5   1  -9 120811. 6574.39   1
   5  -6  -9 176176. 7079.17   1
  -6   5  -9 151370. 7368.68   1
  -5  -1   9 126289. 6499.99   1
  -5   6   9 144808. 6276.55   1
   1   5  -9 133964. 6701.87   2
   6  -1   9 156354. 7126.81   1
   6  -5   9 136485. 6902.58   1
   5   1  -9 126424. 6396.96   2
  -6   1  -9 137365. 6663.90   1
  -6   5  -9 127362. 6844.06   2
   1   5 -10 145753. 7275.49   1
  -1  -5  10 137918. 6911.09   1
   5   1 -10 143631. 7234.40   1
   5  -6 -10 160850. 7142.20   1
  -6   5 -10 127097. 6992.25   2
   5   1 -10 138934. 6898.62   2
  -5   6  10 170577. 6947.88   1
  -6   5 -10 176540. 7894.01   1
   6  -5  10 152867. 7392.49   1
  -5  -1  10 139578. 7016.72   1
   6  -1  10 125036. 6528.16   1
   1   5 -10 141551. 7094.45   2
  -6   1 -10 165644. 7565.88   1
  -1  -5  11 31357.8 3358.31   1
  -6   5 -11 24617.0 3286.36   2
   5   1 -11 32396.5 3478.13   1
   5  -6 -11 34762.8 3490.06   1
  -5  -1  11 30707.0 3231.64   1
   6  -5  11 31640.0 3432.13   1
  -6   5 -11 32444.3 3488.29   1
   6  -1  11 26733.5 3098.63   1
   1   5 -11 29892.6 3304.37   2
   1   5 -11 25899.8 3206.99   1
   5   1 -11 28840.0 3250.59   2
  -6   1 -11 32399.5 3436.73   1
   6  -5  12 12479.1 2326.42   1
  -1  -5  12 12026.3 2188.77   1
   1   5 -12 10521.9 2065.79   1
   5   1 -12 14163.3 2403.02   1
   1   5 -12 14321.8 2256.82   2
  -6   5 -12 14159.8 2282.12   1
   6  -1  12 13586.6 2152.31   1
  -6   5 -12 11287.9 2055.13   2
  -5  -1  12 12694.0 2189.98   1
  -6   1 -12 11995.6 2171.90   1
   5   1 -12 11706.1 2154.05   2
  -5  -1  13 9947.51 1854.95   1
   6  -5  13 13124.1 2176.17   1
  -6   5 -13 10637.4 2072.90   1
   1   5 -13 10991.2 2076.50   1
   5   1 -13 11062.3 2120.86   1
  -1  -5  13 10649.5 2046.63   1
  -6   5 -13 6646.85 1580.10   2
  -6   1 -13 9152.20 1855.61   1
   1   5 -13 10469.5 2018.86   2
   5   1 -13 8051.28 1898.64   2
   6  -1  13 10690.8 2044.02   1
   1   5 -14 46240.5 4507.31   1
   5   1 -14 48264.9 4659.88   1
  -6   1 -14 52282.9 4713.10   1
  -5  -1  14 53613.8 4643.61   1
   6  -1  14 53329.6 4702.07   1
  -1  -5  14 53012.9 4662.27   1
  -6   5 -14 49068.5 4585.50   1
  -6   5 -14 33641.2 3943.65   2
   1   5 -14 49564.1 4549.79   2
   5   1 -14 50321.9 4668.97   2
   6  -5  14 55853.6 4946.30   1
   6  -5  15 10399.3 2150.55   1
   1   5 -15 8015.72 1823.59   1
   5   1 -15 7935.31 1813.05   1
  -5  -1  15 8503.41 1871.21   1
  -1  -5  15 7812.41 1843.31   1
   6  -1  15 10250.9 2174.56   1
   5   1 -15 6200.69 1697.95   2
  -6   5 -15 6023.49 1584.46   2
   1   5 -15 9359.23 1996.82   2
  -6   1 -15 8166.79 1927.38   1
  -6   5 -15 6177.55 1777.57   1
   6  -5  16 8393.90 2005.65   1
   1   5 -16 6013.37 1688.00   1
   5   1 -16 7144.27 1755.99   1
  -1  -5  16 5888.51 1525.63   1
  -6   5 -16 4638.60 1454.71   1
   1   5 -16 5399.67 1548.29   2
   5   1 -16 2285.94 1271.41   2
  -5  -1  16 6708.69 1786.58   1
  -6   1 -16 5613.86 1624.00   1
   6  -1  16 6224.96 1576.33   1
   6  -5  17 6257.04 1781.10   1
   1   5 -17 6555.57 1745.51   1
  -5  -1  17 6569.89 1682.69   1
  -6   5 -17 2128.18 1073.12   1
  -1  -5  17 6861.76 1870.97   1
   5   1 -17 5127.86 1668.03   1
   1   5 -17 6257.65 1708.54   2
   6  -1  17 3942.24 1374.02   1
   5   1 -17 3755.57 1630.23   2
  -6   1 -17 5886.53 1535.19   1
   6  -5  18 12337.5 2417.71   1
   1   5 -18 7501.53 2004.46   1
   5   1 -18 9530.12 2143.51   1
  -1  -5  18 9815.27 2134.09   1
   1   5 -18 9097.29 2092.95   2
   5   1 -18 6965.52 2183.68   2
  -5  -1  18 11657.1 2216.41   1
  -6   1 -18 9035.42 2076.44   1
  -6   5 -18 3066.34 1395.38   1
   1   5 -19 1483.10 879.233   2
   5   1 -19 775.241 607.448   2
  -6   6  -1 2085.12 746.972   1
  -6   0  -1 2401.73 869.845   1
   6  -6  -1 2763.18 759.021   1
   6   0   1 2634.50 899.727   1
   0  -6   1 1635.51 548.267   1
   6   0  -1 2133.18 819.288   1
  -6   6   1 765.241 328.813   1
   0   6  -1 1707.45 776.770   2
   6   0   1 1609.10 647.705   2
  -6   0   1 1887.54 793.334   1
   0   6   1 1459.48 565.283   2
   0   6  -1 1994.97 569.034   1
   6  -6   1 2453.47 825.111   1
   6   0  -1 1309.25 674.739   2
   0   6  -2 7625.16 1147.41   1
  -6   0  -2 7308.85 1375.77   1
  -6   6   2 8012.41 1451.54   1
  -6   6  -2 7116.80 1479.40   1
   6   0  -2 7522.05 1410.50   1
  -6   0   2 6448.42 1305.11   1
   0   6  -2 6324.74 1420.19   2
   6  -6  -2 7648.09 1456.45   1
   0   6   2 7575.27 1286.75   2
   6  -6   2 6944.40 1497.29   1
   6   0  -2 9060.23 1608.97   2
   6   0   2 8284.14 1471.65   1
   6   0   2 7101.62 1458.55   2
   0  -6   2 7103.03 1157.99   1
  -6   6   3 2849.55 830.484   1
   0   6  -3 3512.13 795.249   1
  -6   0  -3 2399.06 758.215   1
   6  -6  -3 2628.53 875.996   1
   0   6  -3 2236.67 805.941   2
  -6   6  -3 2823.93 692.615   1
   0  -6   3 4236.91 978.114   1
  -6   0   3 3196.03 970.001   1
   6   0  -3 2010.62 872.944   1
   6  -6   3 3840.35 1009.63   1
   6   0   3 3230.11 788.599   1
   0   6   3 1592.89 794.600   2
   6   0  -3 2204.34 765.773   2
   0  -6   4 192715. 6852.38   1
   0   6  -4 195711. 6832.73   1
  -6   0  -4 208519. 7710.28   1
   6  -6  -4 185973. 7040.63   1
   6  -6   4 144324. 6652.69   1
   6   0  -4 228502. 8083.40   2
   6   0  -4 154035. 6666.78   1
   6   0   4 204789. 7526.23   1
  -6   0   4 181193. 7363.03   1
   0   6  -4 193150. 7593.63   2
   0   6   4 173126. 5849.48   2
  -6   6  -4 193644. 7423.43   1
  -6   6   4 164393. 6510.10   1
   6  -6  -5 4022.59 993.340   1
   0   6  -5 4507.43 1106.94   1
  -6   0   5 3957.55 1088.86   1
   6   0   5 3362.06 951.923   1
  -6   6   5 3125.83 862.489   1
   0  -6   5 2824.37 890.180   1
   6   0  -5 1724.82 503.786   1
   6  -6   5 3084.93 1010.17   1
  -6   0  -5 2509.01 893.368   1
  -6   6  -5 3390.04 1029.43   1
   0   6  -5 3386.14 970.143   2
   6   0  -5 4282.06 1170.57   2
   0  -6   6 11525.3 1790.47   1
   0   6  -6 13066.9 1954.05   1
  -6   6   6 10033.1 1599.75   1
  -6   6  -6 11604.2 2089.99   2
  -6   0   6 12044.3 1962.34   1
   6  -6  -6 13715.6 1934.49   1
   6   0  -6 13655.4 2022.06   1
   6   0   6 15450.5 2196.60   1
  -6   6  -6 10813.7 1818.33   1
  -6   0  -6 7710.50 1581.47   1
   6   0  -6 10757.1 1802.93   2
   6  -6   6 10559.5 1912.98   1
   0   6  -6 9511.59 1747.80   2
  -6   6  -7 1457.31 677.827   1
  -6   0  -7 1364.22 566.108   1
  -6   0   7 2398.46 892.407   1
   0   6  -7 2151.01 880.981   1
  -6   6  -7 2402.44 859.482   2
   6   0  -7 1542.94 526.607   2
  -6   6   7 3517.67 980.835   1
   0  -6   7 1887.01 735.984   1
   6   0  -7 2660.47 914.925   1
   6  -6  -7 3648.28 963.163   1
   0   6  -7 4170.43 1142.39   2
   6   0   7 2899.56 970.224   1
   6  -6   7 2425.02 867.057   1
   0  -6   8 257186. 9165.97   1
   0   6  -8 239311. 8967.67   1
   6   0  -8 235888. 8915.69   1
   6  -6  -8 211591. 8192.32   1
  -6   6  -8 250880. 9241.67   1
   6  -6   8 267633. 9652.85   1
  -6   0   8 261948. 9308.24   1
   6   0   8 258327. 9032.49   1
  -6   6  -8 242714. 9743.81   2
   0   6  -8 223957. 8875.88   2
   6   0  -8 235994. 8777.11   2
  -6   6   8 213653. 7816.48   1
  -6   0  -8 168031. 7671.15   1
   6  -6   9 4121.74 1174.29   1
  -6   0   9 3894.56 1258.00   1
  -6   6   9 3044.98 908.053   1
   0   6  -9 3737.44 1117.13   1
  -6   0  -9 2354.81 957.652   1
  -6   6  -9 3812.19 1223.44   1
   6   0  -9 3438.83 1021.90   1
   0  -6   9 3234.91 1059.96   1
   6  -6  -9 3768.03 1120.66   1
  -6   6  -9 2240.36 784.550   2
   0   6  -9 4129.16 1182.50   2
   6   0   9 3497.41 1034.30   1
   6   0  -9 4274.46 1234.81   2
   6  -6  10 1616.25 517.075   1
  -6   6  10 2196.27 764.509   1
   0   6 -10 1164.48 624.267   1
  -6   0 -10 2096.12 963.299   1
   6   0 -10 1852.57 1088.55   1
   6  -6 -10 1816.00 702.798   1
   0  -6  10 2171.60 957.811   1
  -6   6 -10 952.074 837.315   2
  -6   6 -10 2445.62 966.277   1
   0   6 -10 1893.28 755.590   2
   6   0  10 1308.84 722.646   1
   6   0 -10 1357.35 724.739   2
  -6   0  10 1024.18 560.493   1
   6  -6  11-240.076 72.9237   1
  -6   6 -11 345.676 390.716   1
   0   6 -11-383.582 424.466   1
   6   0 -11 237.711 662.135   1
   6  -6 -11 601.147 470.885   1
  -6   0 -11 278.228 584.984   1
   0  -6  11 109.679 211.896   1
   6   0 -11-91.8242 337.625   2
  -6   6 -11-526.045 451.558   2
  -6   0  11 720.215 563.588   1
   0   6 -11-339.211 575.675   2
   6   0  11 973.944 697.768   1
  -6   6  11 398.002 233.512   1
   0   6 -12 123844. 7168.60   1
   6   0 -12 135019. 7544.51   1
   6  -6 -12 136876. 7400.44   1
  -6   6 -12 119031. 7164.16   2
  -6   0  12 132569. 7149.93   1
  -6   6  12 105496. 6108.46   1
  -6   6 -12 113439. 6917.25   1
   6   0  12 138637. 7176.26   1
   0   6 -12 128701. 7218.24   2
   6   0 -12 130762. 7012.99   2
  -6   0 -12 138621. 7455.20   1
   6  -6  12 132348. 7429.57   1
   0  -6  12 133374. 7272.21   1
   6  -6  13 172.385 141.069   1
   0   6 -13-787.948 548.762   1
   6   0  13 124.253 360.396   1
   6   0 -13-503.766 673.985   1
   0  -6  13 1355.94 934.167   1
  -6   0 -13 26.2100 534.844   1
  -6   6 -13 130.949 297.529   2
   0   6 -13-1503.77 1099.03   2
  -6   6 -13 34.3034 447.076   1
  -6   0  13 167.547 444.636   1
   6   0 -13 571.278 448.427   2
   6  -6 -13 362.076 176.319   2
   0   6 -14 2088.80 882.506   1
   6  -6  14 2585.89 1097.85   1
   6   0 -14 760.100 667.807   1
   0  -6  14 2224.21 961.512   1
   6   0  14 1443.10 886.578   1
   6   0 -14 1550.62 653.742   2
  -6   0 -14 2507.59 977.954   1
   0   6 -14 874.604 357.300   2
  -6   0  14 1329.61 595.936   1
  -6   6 -14 1668.00 879.512   2
  -6   6 -14 138.738 207.301   1
   6  -6  15 210.059 668.892   1
   0   6 -15-400.143 374.211   1
   6   0 -15-602.310 562.736   1
   0  -6  15-178.817 87.5008   1
  -6   0 -15-238.414 252.012   1
  -6   6 -15-509.778 612.582   2
   6   0 -15-205.563 697.518   2
  -6   0  15 672.539 328.569   1
   0   6 -15-585.528 685.098   2
  -6   6 -15 3.18142 717.489   1
   0   6 -16 34035.5 4066.77   1
   6   0 -16 42046.6 4393.79   1
  -6   0  16 34825.7 3946.55   1
   0   6 -16 35180.6 4101.07   2
  -6   6 -16 29350.1 3950.19   2
   6   0 -16 28858.9 3856.83   2
   6  -6  16 41343.0 4372.22   1
   0  -6  16 32769.5 3864.57   1
  -6   6 -17 278.293 69.4469   1
   6  -6  17 301.776 510.377   1
   0   6 -17 663.717 423.108   1
   6   0 -17 423.817 498.620   1
   0  -6  17 225.855 158.174   1
  -6   0  17 1118.25 788.271   1
   0   6 -17-452.407 599.884   2
   6   0 -17 464.329 412.254   2
   6  -6  18 801.115 763.939   1
   0   6 -18 671.896 646.617   2
   0   6 -18 1361.48 931.567   1
   6   0 -18 15.0088 244.381   1
   0  -6  18-482.330 661.333   1
  -6   0  18-305.130 442.616   1
  -6   6 -18 143.834 234.854   1
   6   0 -18 387.591 465.162   2
   7  -4 -18 18482.3 3133.00   1
   7  -3 -18 21804.4 3326.79   1
   7  -3 -18 13229.1 2649.65   2
  -3   7 -18 16720.1 2924.20   1
  -7   4  18 17891.7 2904.42   1
  -7   3  18 24728.8 3466.85   1
   3  -7  18 23303.1 3342.12   1
  -3   7 -18 17835.6 3078.61   2
  -4   7 -18 20423.5 3235.60   2
  -3   7 -17 12069.9 2423.72   1
  -7   4  17 11202.3 2281.17   1
  -7   3  17 13719.0 2486.80   1
   7  -4 -17 13164.9 2480.59   2
  -3   7 -17 13000.8 2553.32   2
   7  -4 -17 13825.0 2598.84   1
   7  -3 -17 10299.8 2364.41   1
  -4   7 -17 11021.1 2375.01   2
   4  -7  17 14854.3 2718.07   1
   3  -7  17 16131.7 2710.04   1
   7  -3 -17 9425.18 1990.24   2
  -3   7 -16 9267.73 2111.27   1
   4  -7  16 11074.1 2277.05   1
   3  -7  16 10956.1 2255.88   1
   7  -4 -16 9340.48 2041.00   1
   7  -3 -16 11624.2 2330.73   1
  -4   7 -16 8027.77 1863.47   1
  -7   4  16 8527.72 2037.06   1
  -7   3  16 10063.8 1965.06   1
   7  -3 -16 9021.63 1928.72   2
   7  -4 -16 6233.63 1736.15   2
  -4   7 -16 9401.85 2181.01   2
  -3   7 -16 7631.96 1916.99   2
  -4   7 -15 3731.09 1303.80   1
  -3   7 -15 3932.99 1414.88   1
   4  -7  15 3455.55 1075.22   1
   3  -7  15 3703.06 1177.58   1
   7  -3 -15 4967.49 1555.25   1
   7  -4 -15 4229.20 1431.87   1
  -3   7 -15 2493.44 1105.32   2
  -4   7 -15 2980.41 911.764   2
  -7   3  15 3562.53 1188.35   1
  -7   4  15 3135.79 1113.16   1
   7  -3 -15 3699.56 1145.90   2
   7  -4 -15 2027.45 938.928   2
   7  -3 -14 51047.8 4862.39   1
   7  -4 -14 37846.8 4199.27   1
  -7   3  14 41884.9 4173.09   1
  -7   4  14 37143.1 3948.89   1
   7  -3 -14 44389.2 4212.06   2
  -3   7 -14 53636.7 4780.51   2
   7  -4 -14 43848.7 4155.20   2
   4  -7  14 46528.2 4402.81   1
   3  -7  14 43874.7 4373.47   1
  -4   7 -14 46276.2 4702.96   2
  -4   7 -14 37932.4 4062.17   1
  -3   7 -14 40494.2 4245.19   1
  -3   7 -13 2650.35 1073.72   1
   4  -7  13 4389.12 1354.16   1
   3  -7  13 4541.91 1379.02   1
   7  -3 -13 2927.02 1101.11   1
  -4   7 -13 3978.13 1288.36   1
   7  -4 -13 3631.29 1346.36   1
   7  -3 -13 2880.56 1079.60   2
  -7   4  13 2739.45 1047.34   1
  -4   7 -13 3141.42 1200.87   2
  -3   7 -13 2990.45 1287.81   2
  -7   3  13 4118.39 1253.27   1
   7  -4 -13 2128.96 866.739   2
  -4   7 -12 5912.07 1545.46   1
  -3   7 -12 5301.32 1472.39   1
   4  -7  12 4745.86 1313.73   1
   3  -7  12 6820.95 1734.86   1
   7  -3 -12 3219.51 1025.59   1
   7  -4 -12 3871.34 1333.34   1
  -4   7 -12 4145.37 1449.69   2
  -3   7 -12 3286.90 1326.97   2
   7  -3 -12 6082.63 1529.83   2
   7  -4 -12 3883.32 1275.85   2
  -7   3  12 4477.85 1296.42   1
  -7   4  12 3924.50 1247.64   1
   7  -3 -11 26478.9 3191.83   1
   7  -4 -11 22162.2 2884.81   1
  -3   7 -11 25965.0 3167.81   1
  -7   3  11 25144.0 3136.89   1
  -7   4  11 26621.0 3086.16   1
   3  -7  11 28021.3 3256.34   1
  -4   7 -11 23313.4 3238.50   2
  -3   7 -11 23099.4 3139.63   2
   7  -3 -11 24556.3 3022.28   2
   4  -7  11 28587.6 3334.49   1
   7  -4 -11 21717.9 2918.39   2
   7  -3 -10 15708.0 2371.53   1
   7  -4 -10 17559.8 2427.24   1
  -7   3  10 22722.3 2768.27   1
  -7   4  10 21927.5 2669.52   1
  -4   7 -10 17775.7 2670.72   2
  -4   7 -10 17495.7 2648.11   1
  -3   7 -10 16812.1 2575.04   2
   4  -7  10 16235.3 2484.78   1
   7  -3 -10 15411.0 2424.76   2
   3  -7  10 19290.0 2648.06   1
   7  -4 -10 15270.9 2633.79   2
  -3   7 -10 14671.9 2343.19   1
  -3   7  -9 51037.7 4473.18   2
  -4   7  -9 35101.0 3656.78   1
   7  -3  -9 54251.2 4302.10   1
   7  -4  -9 42055.1 3948.43   1
   7  -4  -9 52003.4 4599.77   2
  -7   3   9 55131.3 4271.99   1
  -7   4   9 45239.0 3888.79   1
  -4   7  -9 50434.2 4444.98   2
   4  -7   9 48449.5 4249.71   1
   3  -7   9 48046.8 4237.54   1
   7  -3  -9 48632.9 4296.46   2
  -3   7  -9 46153.7 4132.94   1
  -3   7  -8 327.273 330.510   1
   4  -7   8 344.904 114.987   1
   3  -7   8-329.559 419.271   1
  -7   3   8 302.585 136.672   1
  -7   4   8 54.3090 147.203   1
   7  -3  -8 583.594 577.552   1
   7  -4  -8 324.432 501.776   1
  -4   7  -8 399.464 656.693   1
  -3   7  -8 1.22361 383.698   2
   7  -3  -8-91.8436 494.463   2
  -4   7  -8 421.880 588.693   2
   7  -3  -7 72392.1 4877.62   1
   7  -4  -7 71192.8 4787.12   1
  -3   7  -7 77434.6 5226.41   2
  -4   7  -7 72669.3 5154.83   1
  -4   7  -7 71294.2 5070.30   2
   3  -7   7 67840.4 4690.32   1
  -7   3   7 58164.4 4381.52   1
  -7   4   7 71447.6 4643.48   1
   4  -7   7 71828.3 4927.47   1
   7  -3  -7 66620.0 5004.35   2
  -3   7  -7 71074.3 4813.38   1
   7  -3  -6 363126. 10868.9   1
   7  -4  -6 416292. 11452.2   1
  -3   7  -6 388789. 11480.3   2
  -4   7  -6 387059. 11491.7   2
  -4   7  -6 369913. 10919.9   1
   4  -7   6 368728. 10826.8   1
  -7   4   6 305039. 9509.69   1
  -7   3   6 397992. 11055.2   1
   3  -7   6 338971. 10365.9   1
  -4  -3  -5 73551.8 3995.11   1
  -3   7  -5 87338.7 5104.28   1
   7  -3  -5 68976.9 4605.49   1
   7  -4  -5 70815.3 4719.53   1
  -7   4   5 71373.1 4505.08   1
   4   3   5 52567.9 3349.10   1
  -4   7  -5 70902.5 4545.29   1
  -4   7  -5 70675.3 4761.53   2
   4  -7   5 69171.0 4643.51   1
   3  -7   5 73597.4 4584.24   1
  -7   3   5 67850.6 4327.17   1
  -3   7  -5 77870.3 5021.22   2
   7  -3  -4 188890. 7709.24   1
   7  -4  -4 175804. 7372.53   1
   4   3   4 220362. 6710.66   1
  -4   7  -4 180274. 7021.94   1
  -4   7  -4 179942. 7632.76   2
   4  -7   4 164105. 6929.40   1
   3  -7   4 182403. 6930.22   1
  -3   7  -4 183352. 7190.07   1
  -7   3   4 170121. 7053.79   1
  -7   4   4 189474. 7405.53   1
  -3   7  -4 171535. 7415.92   2
  -4  -3  -4 229997. 7061.67   1
  -7   3   3 31887.5 3066.77   1
  -4   7  -3 32803.0 2902.34   1
   4   3   3 30369.1 2494.05   1
   7  -3  -3 38594.0 3363.20   1
   7  -4  -3 32041.2 3020.12   1
  -4   7  -3 31314.6 3228.68   2
   4  -7   3 37338.3 3156.30   1
  -3   7  -3 31880.1 3199.45   2
  -3   7  -3 34999.2 2917.31   1
  -3  -4  -3 26804.1 2084.37   1
   4   3   3 40690.5 2746.69   2
   3  -7   3 29751.3 2777.78   1
   3   4   3 33451.8 2399.42   2
  -4  -3  -3 41050.0 2916.76   1
  -7   4   3 35333.1 3214.25   1
  -7   3   2 182375. 7317.83   1
  -4   7  -2 257348. 7819.88   1
  -7   4   2 180745. 7127.52   1
   3   4   2 218768. 6030.51   1
   4   3   2 182229. 6198.52   1
  -3   7  -2 196809. 7684.67   2
  -3  -4  -2 140065. 4929.00   1
  -3   7  -2 167666. 5988.31   1
   7  -3  -2 182905. 7385.67   1
   7  -4  -2 179623. 7478.38   1
   4  -7   2 211448. 7212.12   1
   3   4   2 179395. 6002.19   2
   3  -7   2 218311. 7077.52   1
   4   3   2 225464. 6817.80   2
  -4   7  -2 183924. 7615.68   2
  -4  -3  -2 186700. 6270.50   1
  -3   7  -1 40163.7 2744.57   1
  -7   3   1 36079.7 3232.82   1
  -7   4   1 38742.1 3359.23   1
   3  -7   1 31411.5 2510.01   1
   3   4   1 32988.4 2393.59   1
   4   3   1 39084.2 2959.86   1
   7  -3  -1 39257.7 3492.26   1
   7  -4  -1 42117.1 3549.81   1
  -3  -4  -1 41475.6 2756.72   1
  -4   7  -1 38438.1 3444.87   2
  -3   7  -1 29439.6 3217.92   2
   4  -7   1 37098.1 2857.48   1
   3   4   1 34063.5 2728.88   2
  -4  -3  -1 28926.7 2565.76   1
   4   3   1 39652.2 2888.89   2
  -4   7  -1 36515.1 2788.47   1
  -4   7   0 7055.64 1469.78   2
  -4   7   0 5207.30 1079.74   1
  -7   3   0 7130.17 1421.72   1
   7  -3   0 5786.52 1147.20   1
  -4  -3   0 6265.06 1153.37   1
  -7   4   0 5359.72 1192.95   1
   3   4   0 5952.40 1054.17   1
  -3  -4   0 8255.97 1348.98   1
   4   3   0 4137.93 983.589   1
  -3   7   0 4697.71 1277.13   2
   7  -4   0 5713.68 1374.07   1
  -3   7   0 5525.69 994.149   1
   4  -7   0 6366.46 1146.82   1
   4   3   0 5245.30 1071.16   2
   3  -7   0 5586.97 965.720   1
   3   4   0 5802.71 1189.27   2
   3   4  -1 53909.3 3423.29   1
   4   3  -1 70281.4 4101.82   1
  -7   3  -1 52187.4 3882.12   1
  -4  -3   1 48739.2 3465.13   1
  -7   4  -1 49784.0 3738.16   1
  -4   7   1 61814.3 3339.70   1
  -3  -4   1 66682.6 3865.67   1
   7  -3   1 54731.8 3998.86   1
   7  -4   1 49179.7 3730.69   1
   4  -7  -1 56115.5 3447.14   1
   3  -7  -1 58611.3 3004.56   1
  -3   7   1 50191.1 3927.14   2
   3   4  -1 53698.3 3720.72   2
   4   3  -1 53657.8 3697.09   2
   3   4  -2 125026. 5450.27   1
  -4   7   2 94692.8 4029.70   1
   4   3  -2 128339. 5637.43   1
  -7   3  -2 93805.8 5313.68   1
  -3  -4   2 83908.6 4479.05   1
  -7   4  -2 102597. 5340.57   1
   4  -7  -2 95223.0 4250.02   1
   4   3  -2 82880.8 4599.40   2
   7  -3   2 88586.3 5225.14   1
   7  -4   2 113066. 5846.26   1
  -4  -3   2 76449.1 4388.65   1
   3   4  -2 116650. 5621.55   2
  -3   7   2 108574. 5751.69   2
  -4   7   3 74218.6 3457.69   1
   3   4  -3 81033.1 4688.78   2
   3   4  -3 96186.3 4939.25   1
   4   3  -3 85875.4 4684.28   1
  -3  -4   3 79327.5 4465.37   1
   4  -7  -3 96517.4 4177.04   1
  -7   3  -3 81964.8 4920.70   1
  -4  -3   3 94649.2 5032.65   1
   7  -3   3 97966.3 5552.79   1
  -7   4  -3 86160.9 4898.73   1
   7  -4   3 95433.8 5290.88   1
   4   3  -3 90308.4 4977.00   2
  -7   3  -4 994.073 605.032   1
  -4  -3   4 557.456 311.693   1
   3   4  -4 1568.74 899.836   2
  -7   4  -4 1256.01 504.901   1
   3   4  -4 1050.40 409.338   1
   4   3  -4 565.591 498.937   1
  -3  -4   4 1216.52 435.836   1
   4   3  -4 841.313 509.694   2
   7  -3   4 1496.86 845.495   1
   7  -4   4 850.784 741.011   1
   3   4  -5 175902. 7166.46   1
  -7   3  -5 144833. 6688.67   1
   4   3  -5 144955. 6594.85   1
  -3  -4   5 140945. 6362.68   1
  -4  -3   5 127482. 6237.62   1
   7  -3   5 151326. 6900.47   1
   7  -4   5 145569. 6714.74   1
  -7   4  -5 157839. 6908.83   1
   4   3  -5 132188. 6214.33   2
   3   4  -5 139433. 6507.97   2
   3   4  -6 340886. 10242.1   1
   4   3  -6 234104. 8591.43   1
  -7   3  -6 271363. 9309.87   1
  -3  -4   6 302265. 9561.18   1
  -4  -3   6 300120. 9750.07   1
   7  -4   6 290013. 9504.18   1
   7  -3   6 336042. 10432.5   1
   4   3  -6 301176. 9712.57   2
   3   4  -6 275043. 9426.01   2
  -7   4  -6 299205. 9704.54   1
   3   4  -7 54171.7 4190.74   1
   4   3  -7 41407.5 3796.43   1
  -3  -4   7 53340.1 4156.00   1
  -4  -3   7 52943.1 4146.48   1
   7  -3   7 46640.3 3884.56   1
   7  -4   7 45900.3 3904.95   1
   3   4  -7 52290.2 4107.01   2
   4   3  -7 54024.7 4128.68   2
  -7   3  -7 53110.6 4254.01   1
  -7   4  -7 58298.4 4329.93   1
   3   4  -8 102167. 6072.96   1
   4   3  -8 88933.2 5671.44   1
  -3  -4   8 81259.4 5311.65   1
  -4  -3   8 96573.3 5594.54   1
   7  -3   8 98389.6 5719.09   1
   4   3  -8 97549.9 5808.73   2
   7  -4   8 91540.3 5549.96   1
   3   4  -8 87104.3 5514.34   2
  -7   3  -8 114228. 6052.78   1
  -7   4  -8 108709. 5980.30   1
   7  -3   9 667.885 247.025   1
   3   4  -9 3396.60 1111.58   1
   4   3  -9 1693.12 677.953   1
   3   4  -9 3503.95 1158.11   2
  -7   3  -9 1838.38 801.622   1
  -7   4  -9 2873.25 1051.64   1
  -3  -4   9 1944.23 642.007   1
  -4  -3   9 2416.33 907.548   1
   7  -4   9 2728.99 979.568   1
   4   3  -9 1772.83 641.790   2
   3   4 -10 93056.3 5998.47   1
  -7   4 -10 112447. 6344.34   1
   4   3 -10 99087.3 6217.63   1
  -3  -4  10 105475. 6298.83   1
  -4  -3  10 102045. 6134.63   1
   7  -3  10 95328.4 5875.21   1
   7  -4  10 113690. 6407.97   1
   3   4 -10 95731.0 5913.91   2
   4   3 -10 105754. 6238.03   2
  -7   3 -10 107903. 6223.47   1
  -7   3 -11 13043.2 2240.62   1
  -7   4 -11 14891.7 2460.45   1
  -3  -4  11 13233.3 2250.58   1
   3   4 -11 12213.3 2218.24   1
   4   3 -11 13719.3 2328.41   1
   4   3 -11 12095.4 2187.63   2
  -4  -3  11 11901.6 1980.48   1
   3   4 -11 13420.4 2265.75   2
   7  -3  11 10793.9 1948.59   1
   7  -4  11 13572.5 2252.16   1
   3   4 -12 4005.57 1278.45   1
   4   3 -12 2329.19 1049.69   1
  -3  -4  12 4299.62 1287.03   1
  -4  -3  12 5527.62 1513.88   1
  -7   3 -12 2939.22 1022.79   1
   3   4 -12 3953.15 1089.14   2
   4   3 -12 4045.09 1296.11   2
  -7   4 -12 4100.11 1269.98   1
   7  -3  12 3229.47 1163.83   1
   7  -4  12 3752.73 1206.56   1
   3   4 -13 27927.0 3525.98   1
   4   3 -13 28887.7 3478.41   1
  -7   3 -13 34539.1 3723.17   1
  -3  -4  13 32740.7 3710.68   1
  -4  -3  13 31496.4 3636.67   1
  -7   4 -13 28841.5 3455.81   1
   7  -3  13 32808.9 3675.20   1
   7  -4  13 34827.3 3806.38   1
   3   4 -13 26826.7 3400.92   2
   4   3 -13 24349.7 3358.15   2
  -3  -4  14 15361.2 2555.34   1
  -7   3 -14 13537.3 2443.38   1
  -7   4 -14 15086.7 2483.05   1
   3   4 -14 11571.8 2322.29   1
   4   3 -14 13696.6 2410.85   1
   4   3 -14 11206.8 2259.72   2
  -4  -3  14 14167.4 2385.11   1
   3   4 -14 13740.8 2461.78   2
   7  -3  14 9385.40 2008.22   1
   7  -4  14 15629.0 2508.36   1
  -7   4 -15 13951.5 2452.91   1
   3   4 -15 7746.29 1909.50   1
   4   3 -15 11991.3 2355.02   1
  -3  -4  15 10351.7 2135.80   1
  -4  -3  15 12833.8 2293.64   1
   3   4 -15 9660.40 2013.55   2
   4   3 -15 8348.87 2034.54   2
  -7   3 -15 14382.9 2487.34   1
   7  -3  15 10725.6 2064.83   1
   7  -4  15 7968.11 1883.32   1
  -7   4 -16 513.761 825.896   1
   3   4 -16 129.085 271.874   1
   4   3 -16 188.791 382.237   1
  -3  -4  16-221.569 106.052   1
  -4  -3  16 429.433 436.618   1
   7  -3  16-1166.99 719.668   1
   3   4 -16 275.092 328.992   2
   4   3 -16 571.429 617.594   2
  -7   3 -16-702.545 564.927   1
   7  -4  16 619.428 660.325   1
  -7   4 -17 5384.31 1756.69   1
   3   4 -17 4874.73 1578.69   1
   4   3 -17 3276.15 1249.22   1
  -3  -4  17 5719.14 1665.93   1
   7  -4  17 7047.98 1806.08   1
  -4  -3  17 6846.04 1789.96   1
   3   4 -17 5489.42 1737.00   2
   4   3 -17 2781.68 1376.24   2
  -7   3 -17 5485.70 1599.83   1
   7  -3  17 3633.27 1309.44   1
  -7   3 -18 27728.3 3640.38   1
  -7   4 -18 27033.5 3836.98   1
   3   4 -18 25939.2 3539.84   2
   7  -3  18 24078.7 3408.53   1
   4   3 -18 18865.1 3299.50   2
   7  -4  18 30331.0 3829.84   1
   7  -2 -18 438.161 547.007   1
  -2   7 -18-129.461 548.599   2
  -7   2  18-205.734 377.287   1
  -5   7 -18-418.625 618.834   2
   7  -2 -18 608.131 831.094   2
  -2   7 -17 238.099 239.181   1
   5  -7  17 1448.37 894.149   1
  -5   7 -17 1006.76 846.810   1
   2  -7  17 1551.74 856.528   1
   7  -5 -17 356.145 385.281   1
   7  -2 -17 529.926 78.9820   1
  -5   7 -17 2514.05 1236.57   2
  -7   2  17 1449.36 674.316   1
   7  -2 -17 344.424 545.341   2
  -2   7 -17 1251.48 677.161   2
   7  -5 -16 51197.2 5073.90   1
   7  -2 -16 54963.4 5177.56   1
  -7   5  16 47400.6 4620.06   1
  -7   2  16 65301.2 5348.41   1
  -5   7 -16 46031.7 4829.69   2
   7  -2 -16 48431.4 4815.86   2
   5  -7  16 65720.3 5538.57   1
  -5   7 -16 44394.9 4739.96   1
   2  -7  16 65663.6 5571.76   1
  -2   7 -16 53036.2 5207.61   2
  -2   7 -16 48436.5 4763.02   1
  -2   7 -15 14.4649 442.281   1
   5  -7  15 813.577 411.208   1
  -7   5  15 937.405 666.639   1
   2  -7  15-614.181 779.965   1
   7  -2 -15 1067.07 737.852   1
   7  -5 -15 24.2039 251.537   1
  -5   7 -15-202.337 602.930   1
  -5   7 -15-610.199 586.010   2
  -2   7 -15 334.945 392.008   2
  -7   2  15 1815.12 899.478   1
   7  -2 -15 318.373 603.858   2
   7  -5 -15 482.180 447.898   2
   5  -7  14 400.382 492.112   1
  -5   7 -14 833.227 382.302   1
   2  -7  14 1183.19 775.620   1
   7  -2 -14 1127.16 854.974   1
   7  -5 -14 688.971 460.889   1
  -2   7 -14 707.824 394.857   1
  -2   7 -14 190.052 249.716   2
  -5   7 -14 335.416 82.9286   2
  -7   2  14 737.613 633.378   1
  -7   5  14 1644.32 858.317   1
   7  -2 -14 628.824 441.329   2
   7  -5 -14 155.609 403.205   2
  -5   7 -13-367.484 182.158   1
  -2   7 -13-107.197 98.2942   1
   5  -7  13-98.4805 240.998   1
   2  -7  13 975.141 756.267   1
   7  -2 -13 479.110 567.401   1
   7  -5 -13-349.424 579.308   1
  -5   7 -13 563.498 648.664   2
  -2   7 -13-616.127 601.738   2
   7  -5 -13 446.433 406.383   2
  -7   2  13 120.135 87.8784   1
   7  -2 -13-579.302 576.007   2
  -7   5  13 277.810 269.184   1
   7  -2 -12 42704.8 4247.39   1
   7  -5 -12 50171.1 4556.91   1
  -2   7 -12 45709.6 4293.72   2
  -5   7 -12 28376.6 3691.96   1
  -7   2  12 46290.7 4217.49   1
  -7   5  12 45926.6 4133.02   1
   5  -7  12 50772.0 4456.42   1
   7  -2 -12 41139.5 3921.56   2
   7  -5 -12 29222.0 3371.23   2
  -5   7 -12 40246.0 4179.23   2
   2  -7  12 44173.3 4307.54   1
  -2   7 -12 41783.3 4263.78   1
  -7   2  11-404.362 461.693   1
  -7   5  11 1162.46 848.806   1
   5  -7  11 444.986 146.470   1
  -2   7 -11 37.6011 209.382   1
   2  -7  11-396.696 347.088   1
   7  -2 -11 120.576 535.016   1
   7  -5 -11 430.405 490.111   1
   7  -5 -11-48.6781 436.128   2
  -5   7 -11 255.480 475.469   2
  -5   7 -11 347.473 597.588   1
  -2   7 -11 150.722 404.461   2
   7  -2 -11-637.940 607.751   2
   5  -7  10 13420.2 2182.18   1
  -2   7 -10 13482.8 2243.31   1
   7  -2 -10 14738.6 2355.43   1
   7  -5 -10 12892.6 2193.07   1
  -5   7 -10 14777.6 2518.37   1
  -7   2  10 17243.8 2470.51   1
  -7   5  10 18773.1 2507.81   1
  -5   7 -10 15960.9 2471.96   2
  -2   7 -10 17654.0 2590.93   2
   7  -2 -10 15426.5 2389.18   2
   2  -7  10 15170.5 2485.78   1
   7  -5 -10 9504.59 1934.03   2
   5  -7   9 3468.44 1128.71   1
  -2   7  -9 2010.88 784.965   1
  -7   2   9 3100.37 1100.03   1
  -7   5   9 3043.26 968.533   1
   2  -7   9 3485.24 1172.70   1
  -5   7  -9 2693.80 948.659   1
   7  -2  -9 3495.62 1117.61   1
  -5   7  -9 2315.31 887.680   2
   7  -5  -9 3713.15 1254.47   1
  -2   7  -9 2773.16 920.930   2
   7  -2  -9 5101.68 1292.98   2
  -5  -2  -9 2275.73 831.013   1
   7  -2  -8 245782. 9302.37   1
   7  -5  -8 246381. 9258.58   1
  -5  -2  -8 294658. 9364.45   1
   5   2   8 284074. 9134.56   1
  -2   7  -8 258060. 9714.59   2
  -7   5   8 263417. 9216.51   1
  -5   7  -8 253218. 9885.05   2
   5  -7   8 269270. 10000.3   1
  -7   2   8 264350. 9437.07   1
   7  -2  -8 262845. 9501.19   2
   2  -7   8 253930. 9468.27   1
  -2   7  -8 247811. 9290.93   1
   5  -7   7 724.489 452.498   1
  -2   7  -7 1157.20 669.119   1
   2  -7   7 643.130 514.737   1
  -7   2   7 1127.63 653.756   1
  -7   5   7 1491.23 701.537   1
   7  -2  -7 1430.42 640.130   1
   7  -5  -7 900.164 548.411   1
  -5  -2  -7 287.962 201.660   1
  -2   7  -7 1065.18 229.533   2
  -5   7  -7 819.392 725.318   2
  -5   7  -7 524.983 480.760   1
   5   2   7 673.213 363.698   1
   7  -2  -7 1759.50 841.257   2
  -5  -2  -6 13352.5 1885.38   1
  -2   7  -6 12130.9 2072.92   2
   7  -5  -6 14690.5 2119.75   1
   5  -7   6 14400.1 2217.33   1
  -5   7  -6 11717.0 1962.90   1
   5   2   6 16702.4 2185.80   1
   7  -2  -6 12768.9 2021.27   1
  -5   7  -6 13889.7 2270.69   2
  -7   2   6 13140.7 2052.83   1
   2  -7   6 14557.2 2045.94   1
  -7   5   6 17816.1 2258.80   1
   7  -2  -6 12016.5 2106.58   2
  -2   7  -6 14758.7 2041.69   1
   5  -7   5 7263.60 1476.55   1
  -5  -2  -5 9191.81 1572.01   1
  -5   7  -5 10463.4 1810.53   1
   7  -5  -5 9334.57 1729.76   1
  -7   2   5 8995.59 1517.06   1
   7  -2  -5 8929.86 1687.47   1
  -7   5   5 9371.27 1595.16   1
  -2   7  -5 8927.01 1666.90   2
   5   2   5 9172.73 1517.43   1
  -5   7  -5 9245.42 1722.03   2
   2  -7   5 11429.6 1695.08   1
   7  -2  -5 9368.50 1778.25   2
  -2   7  -5 9919.38 1683.59   1
  -5  -2  -4 333851. 9362.20   1
  -5   7  -4 382884. 11638.4   2
  -5   7  -4 291000. 9203.69   1
   7  -2  -4 390583. 11055.7   1
   7  -5  -4 395487. 10993.9   1
   5   2   4 473005. 11091.8   1
   2  -7   4 403457. 10314.2   1
  -2   7  -4 354953. 10580.2   2
   5  -7   4 364736. 10565.9   1
  -7   2   4 359194. 10178.7   1
  -7   5   4 422304. 11143.1   1
  -2   7  -4 390514. 10106.1   1
   2  -7   3 5052.17 1035.65   1
   5   2   3 5564.82 1155.47   1
  -2   7  -3 4397.12 1309.21   2
   7  -5  -3 5632.46 1295.45   1
   7  -2  -3 5129.00 1322.57   1
  -7   2   3 4174.11 1064.18   1
  -5   7  -3 5038.78 1123.39   1
  -7   5   3 4758.56 1056.31   1
   2   5   3 5274.27 949.139   2
  -5  -2  -3 5440.88 1164.11   1
  -5   7  -3 5165.78 1363.53   2
   5   2   3 4985.45 935.676   2
   5  -7   3 3663.37 975.205   1
  -2   7  -3 6037.64 1203.03   1
  -7   5   2 762.363 705.569   1
   2  -7   2 1015.65 479.043   1
  -5   7  -2-456.598 242.756   1
  -2   7  -2 133.712 358.927   1
   7  -5  -2 280.701 91.7938   1
   5  -7   2 179.813 350.885   1
   5   2   2 72.6981 140.668   1
   7  -2  -2-415.899 349.356   1
  -5   7  -2 221.373 536.059   2
  -2   7  -2 455.770 557.746   2
  -5  -2  -2-281.894 431.617   1
   2   5   2 194.892 350.632   2
  -7   2   2 241.032 546.678   1
   5   2   2-82.1619 257.538   2
   2  -7   1 168.149 193.888   1
  -5   7  -1-381.585 468.579   1
  -7   5   1 167.859 444.992   1
   7  -2  -1-304.145 793.095   1
  -2   7  -1-225.385 170.603   1
   5  -7   1 911.055 683.392   1
   5   2   1 186.281 94.1898   1
  -5  -2  -1 52.2724 246.288   1
  -2   7  -1 706.440 560.712   2
   7  -5  -1 643.154 369.876   1
   2   5   1 225.662 223.490   2
   5   2   1 129.761 269.500   2
  -7   2   1-134.064 284.762   1
   2   5   0 370734. 8010.11   1
  -7   2   0 351722. 10208.5   1
   5   2   0 354724. 9135.20   2
  -7   5   0 395022. 10739.0   1
   5   2   0 275379. 8428.82   1
   2   5   0 344973. 9191.32   2
   7  -2   0 416109. 11358.4   1
   7  -5   0 316881. 9714.37   1
  -5   7   0 390402. 9475.37   1
   5  -7   0 342636. 9244.24   1
  -2   7   0 355088. 9915.20   2
  -5  -2   0 232089. 7741.10   1
  -7   5  -1 3847.89 1047.84   1
  -7   2  -1 4178.69 982.181   1
   2   5  -1 4143.31 865.367   1
  -5  -2   1 4949.75 1124.98   1
   5   2  -1 4512.78 1117.94   1
  -2  -5   1 3773.07 874.575   1
   7  -2   1 3947.21 991.998   1
  -5   7   1 3590.91 892.285   1
   5  -7  -1 5266.13 1116.58   1
   7  -5   1 4470.42 1158.83   1
   2   5  -1 3954.55 1091.54   2
  -2   7   1 2896.93 941.205   2
   5   2  -1 3063.57 913.670   2
   2   5  -2 5062.21 1045.05   2
   2   5  -2 5354.09 1129.53   1
  -5   7   2 3776.51 928.319   1
  -7   5  -2 6990.80 1369.40   1
  -5  -2   2 4599.75 1110.82   1
  -7   2  -2 4361.63 1024.60   1
   5   2  -2 5918.10 1265.22   1
  -2   7   2 5478.79 1323.35   2
   5  -7  -2 5364.45 1161.59   1
  -2  -5   2 5838.83 1174.61   1
   7  -2   2 6082.82 1309.21   1
   7  -5   2 5596.40 1327.19   1
   5   2  -2 7124.89 1336.53   2
  -5   7   3 3411.00 850.030   1
  -7   5  -3 3045.95 1044.46   1
  -5  -2   3 3414.29 986.363   1
   2   5  -3 2646.55 787.790   1
   7  -5   3 2324.23 788.838   1
   5   2  -3 2134.18 775.418   1
  -2   7   3 2816.22 930.926   2
  -7   2  -3 2709.68 893.964   1
   5  -7  -3 2891.18 799.944   1
  -2  -5   3 2587.60 823.986   1
   7  -2   3 2203.40 825.861   1
   2   5  -3 1963.37 650.267   2
   5   2  -3 3004.50 765.822   2
   2   5  -4 231237. 7852.25   1
  -2  -5   4 237627. 7969.62   1
   5   2  -4 222731. 8115.06   1
   5  -7  -4 239786. 7377.31   1
  -7   2  -4 190540. 7638.72   1
   5   2  -4 204804. 7622.97   2
   7  -2   4 211406. 8240.09   1
  -5  -2   4 219553. 7971.80   1
   7  -5   4 211483. 8203.31   1
  -7   5  -4 204992. 8017.33   1
   2   5  -4 228269. 8197.61   2
  -5   7   4 220986. 6913.45   1
  -5  -2   5 1861.57 856.956   1
   2   5  -5 2606.04 874.154   1
  -7   5  -5 1920.95 790.985   1
   5   2  -5 2501.79 822.626   1
  -5   7   5 1294.30 485.775   1
   5  -7  -5 2214.81 613.117   1
  -2  -5   5 2447.22 871.903   1
   5   2  -5 1265.35 502.335   2
   7  -2   5 1359.11 532.658   1
   2   5  -5 1658.79 460.744   2
   7  -5   5 1923.56 536.109   1
  -7   2  -5 1487.03 713.044   1
  -5  -2   6-232.443 377.515   1
  -7   2  -6 214.603 562.984   1
   2   5  -6 916.635 548.850   1
   5   2  -6 680.171 344.956   1
  -7   5  -6 7.67764 316.127   1
   5  -7  -6 335.983 207.130   1
  -2  -5   6-219.503 440.627   1
   7  -2   6 417.931 390.086   1
   5   2  -6 541.492 534.242   2
   7  -5   6 1149.52 710.818   1
   2   5  -6 167.326 318.448   2
  -7   2  -7 5941.67 1428.24   1
   2   5  -7 3619.08 1114.34   1
   7  -5   7 3755.42 1013.04   1
   5   2  -7 4106.24 1168.30   1
  -2  -5   7 3440.29 1002.21   1
   2   5  -7 3692.79 1005.72   2
   7  -2   7 3858.68 964.346   1
  -7   5  -7 4045.07 1242.62   1
   5   2  -7 3558.51 806.611   2
  -5  -2   7 3768.31 1165.10   1
  -7   5  -8 406216. 12010.4   1
   2   5  -8 411593. 12188.1   1
  -2  -5   8 437230. 12298.3   1
   5   2  -8 351709. 11306.4   1
  -5  -2   8 405274. 11906.7   1
   7  -2   8 384830. 11529.8   1
   7  -5   8 405281. 11893.2   1
   2   5  -8 394233. 11585.0   2
  -7   2  -8 468832. 12776.5   1
   5   2  -8 431018. 12080.3   2
   2   5  -9 2611.90 942.017   1
   5   2  -9 3447.87 1196.14   1
  -7   2  -9 2539.16 956.353   1
   7  -5   9 1929.34 821.115   1
  -2  -5   9 1146.36 450.555   1
   5   2  -9 2044.46 671.776   2
  -7   5  -9 2391.51 979.608   1
   2   5  -9 2685.16 983.650   2
   7  -2   9 1757.89 847.420   1
  -5  -2   9 2240.73 774.776   1
   2   5 -10 712.971 398.754   1
   5   2 -10-380.962 289.210   1
  -2  -5  10 451.027 282.494   1
  -7   2 -10-204.132 669.358   1
   2   5 -10 244.463 396.847   2
  -5  -2  10 536.602 229.444   1
  -7   5 -10 1.30101 495.334   1
   7  -2  10 803.966 432.794   1
   5   2 -10 1862.59 960.144   2
   7  -5  10 762.164 136.411   1
   2   5 -11 1462.44 891.055   1
   5   2 -11 89.6314 658.470   1
  -7   2 -11 183.426 528.002   1
  -2  -5  11 652.134 468.005   1
  -5  -2  11 760.364 652.772   1
   2   5 -11-401.647 605.104   2
   5   2 -11 643.914 460.188   2
   7  -2  11 839.584 620.778   1
  -7   5 -11-206.884 375.433   1
   7  -5  11 1159.06 619.921   1
   2   5 -12 49422.5 4608.42   1
  -2  -5  12 47272.4 4312.40   1
   5   2 -12 55113.2 4748.72   1
  -7   5 -12 55821.2 4750.92   1
  -5  -2  12 52474.2 4555.02   1
   7  -2  12 46753.7 4304.00   1
  -7   2 -12 34166.0 3945.67   1
   2   5 -12 50073.8 4332.42   2
   7  -5  12 55303.1 4798.63   1
   5   2 -12 47886.7 4477.27   2
  -7   5 -13 373.061 305.088   1
   2   5 -13-612.009 575.203   1
   5   2 -13-44.0141 220.584   1
  -2  -5  13 879.623 476.069   1
  -7   2 -13 174.178 557.743   1
  -5  -2  13 387.877 308.868   1
   2   5 -13 504.547 679.841   2
   5   2 -13 401.992 633.105   2
   7  -2  13 846.231 714.356   1
   7  -5  13 323.498 645.493   1
  -7   5 -14 1186.00 834.271   1
   2   5 -14-225.742 551.532   1
   5   2 -14-338.576 525.744   1
  -2  -5  14 420.677 624.804   1
  -7   2 -14-238.559 536.521   1
  -5  -2  14-91.6731 656.319   1
   2   5 -14 425.892 93.9899   2
   5   2 -14-67.0652 331.531   2
   7  -2  14-133.172 430.319   1
   7  -5  14 1301.13 626.766   1
   7  -5  15 826.561 825.036   1
  -7   2 -15 177.435 148.990   1
   2   5 -15 551.344 787.202   1
  -7   5 -15-288.474 660.612   1
   5   2 -15 586.772 623.494   1
  -5  -2  15-551.134 316.255   1
  -2  -5  15 977.335 671.788   1
   2   5 -15-149.958 439.543   2
   5   2 -15-550.790 661.376   2
   7  -2  15 619.063 650.356   1
   2   5 -16 40537.8 4369.59   1
  -2  -5  16 45650.9 4566.95   1
  -7   2 -16 41234.0 4383.96   1
   5   2 -16 39808.3 4334.20   1
  -5  -2  16 45327.8 4517.72   1
  -7   5 -16 37886.0 4554.14   1
   7  -2  16 31998.1 3831.94   1
   2   5 -16 39554.6 4322.01   2
   7  -5  16 50317.0 4737.13   1
   5   2 -16 35212.7 4448.30   2
   7  -5  17 314.598 463.347   1
   2   5 -17-51.1253 513.428   1
  -7   5 -17 1145.04 596.341   1
   5   2 -17-49.5400 354.395   1
  -7   2 -17 588.095 736.644   1
  -2  -5  17-429.525 667.831   1
  -5  -2  17 396.152 248.143   1
   2   5 -17 101.237 353.640   2
   5   2 -17-50.5476 554.995   2
   7  -2  17 657.222 275.460   1
   5   2 -18 39.8646 376.678   2
  -7   2 -18 950.058 599.049   1
   7  -2  18 765.103 646.070   1
   6  -7  17 12110.4 2358.07   1
   7  -1 -17 13113.9 2550.97   1
  -6   7 -17 5027.95 1518.07   1
  -1   7 -17 11287.6 2415.63   1
  -7   1  17 15689.0 2651.66   1
   1  -7  17 11250.1 2361.19   1
  -6   7 -17 8359.57 2131.20   2
  -1   7 -17 11730.0 2433.12   2
   7  -1 -17 10080.3 2432.68   2
   6  -7  16 1159.21 862.367   1
  -1   7 -16 958.144 791.617   1
  -6   7 -16-377.482 880.048   1
   1  -7  16 399.879 595.328   1
   7  -1 -16 1334.71 795.972   1
  -6   7 -16 290.053 528.688   2
  -1   7 -16 478.821 532.268   2
  -7   1  16 397.286 435.188   1
   7  -1 -16 341.241 617.670   2
   6  -7  15 15991.2 2661.49   1
  -6   7 -15 14276.4 2556.28   1
  -1   7 -15 11109.1 2387.25   1
   7  -1 -15 12086.5 2338.76   1
  -1   7 -15 12227.1 2399.48   2
  -7   1  15 12424.4 2203.50   1
   7  -1 -15 9797.92 2342.66   2
  -6   7 -15 8138.91 2060.20   2
   1  -7  15 12450.1 2449.36   1
   7  -1 -14 23821.7 3290.27   1
   7  -6 -14 30804.7 3899.81   1
  -7   1  14 33599.4 3704.18   1
  -6   7 -14 21560.8 3305.76   2
  -6   7 -14 23774.9 3310.30   1
  -1   7 -14 25104.1 3365.47   2
   6  -7  14 31948.9 3746.49   1
   7  -1 -14 26197.9 3207.05   2
   1  -7  14 24649.9 3360.79   1
  -1   7 -14 27965.7 3700.42   1
   6  -7  13 4835.75 1485.87   1
  -1   7 -13 4314.79 1448.18   1
   1  -7  13 5583.61 1587.93   1
   7  -1 -13 5530.69 1381.82   1
   7  -6 -13 4515.64 1509.81   1
  -6   7 -13 3657.14 1250.53   2
  -1   7 -13 7004.03 1817.97   2
  -6   7 -13 4901.27 1381.09   1
  -7   1  13 8062.40 1771.61   1
   7  -1 -13 4858.20 1432.29   2
  -7   6  13 5535.26 1524.74   1
   7  -6 -13 1511.01 423.291   2
   6  -7  12 8439.28 1899.53   1
  -1   7 -12 8162.29 1914.87   1
   1  -7  12 7836.71 1860.37   1
   7  -1 -12 6145.57 1589.31   1
   7  -6 -12 6380.91 1735.23   1
  -1   7 -12 7023.07 1771.16   2
  -6   7 -12 7774.40 1927.65   1
   7  -1 -12 7159.80 1625.34   2
  -7   1  12 9111.60 1900.61   1
   7  -6 -12 3649.62 1146.36   2
  -6   7 -12 7159.58 1785.55   2
  -7   6  12 12139.0 2135.05   1
  -7   6  11 4640.14 1395.66   1
   6  -7  11 5559.84 1417.92   1
  -1   7 -11 5713.96 1554.10   1
  -6  -1 -11 4234.59 1400.25   1
   1  -7  11 5632.71 1466.40   1
   7  -1 -11 4424.38 1277.74   1
  -1   7 -11 3764.26 1208.37   2
   7  -6 -11 6118.61 1607.58   1
  -6   7 -11 4783.18 1577.48   2
  -6   7 -11 4064.71 1297.32   1
   7  -1 -11 5290.13 1466.98   2
   7  -6 -11 1205.18 640.533   2
  -7   1  11 5365.84 1482.03   1
  -1   7 -10 59803.8 4933.13   1
   7  -1 -10 62237.5 4752.23   1
   7  -6 -10 53270.7 4484.67   1
  -6   7 -10 52561.4 4584.63   1
  -6   7 -10 55762.9 4941.87   2
  -7   1  10 63578.6 4891.56   1
  -7   6  10 65797.6 4725.79   1
  -6  -1 -10 73044.9 5091.19   1
   6   1  10 53838.3 4349.97   1
  -1   7 -10 62530.6 4917.86   2
   6  -7  10 65236.1 5103.99   1
   7  -1 -10 59086.2 4516.73   2
   1  -7  10 61607.1 4867.41   1
  -1   7  -9 16312.6 2542.18   1
   7  -1  -9 17894.2 2564.96   1
   7  -6  -9 17129.2 2494.58   1
  -6   7  -9 16984.6 2427.45   1
  -6  -1  -9 16637.2 2500.77   1
  -7   1   9 15869.6 2487.99   1
   6   1   9 11212.1 2022.75   1
  -6   7  -9 17167.5 2666.81   2
  -7   6   9 16661.9 2365.40   1
  -1   7  -9 16045.3 2497.26   2
   6  -7   9 17990.4 2623.58   1
   7  -1  -9 19018.3 2567.16   2
   1  -7   9 16814.1 2445.28   1
   1  -7   8 52712.7 4330.99   1
   7  -1  -8 57231.0 4418.38   1
   7  -6  -8 72808.7 4953.41   1
  -6   7  -8 56330.1 4490.33   1
  -6  -1  -8 48303.6 4132.23   1
   6   1   8 51948.5 4180.68   1
  -7   1   8 60943.2 4492.61   1
  -6   7  -8 39724.4 4042.61   2
  -1   7  -8 50425.6 4334.70   2
  -7   6   8 71129.6 4759.28   1
   6  -7   8 57741.1 4644.16   1
   7  -1  -8 50392.9 4189.68   2
  -1   7  -8 57056.5 4589.74   1
   7  -1  -7 45021.1 4013.31   1
  -6   7  -7 45927.5 3952.11   1
   7  -6  -7 45455.0 3878.42   1
  -6  -1  -7 58061.8 4409.29   1
  -1   7  -7 43794.0 4048.44   2
   6   1   7 49995.3 4011.38   1
  -6   7  -7 40304.7 4065.08   2
  -7   1   7 43255.3 3841.84   1
   6  -7   7 48815.4 4262.76   1
  -7   6   7 59712.5 4323.82   1
   7  -1  -7 52635.7 4238.69   2
   1  -7   7 45491.0 3948.08   1
  -1   7  -7 48803.6 4057.12   1
  -6   7  -6 227617. 8840.14   1
   7  -1  -6 244674. 9113.51   1
  -6  -1  -6 253513. 8883.49   1
   7  -6  -6 258669. 9178.43   1
   6   1   6 263800. 8788.78   1
  -1   7  -6 242704. 9114.16   2
  -7   1   6 226883. 8703.67   1
   6  -7   6 240825. 9184.71   1
  -6   7  -6 221763. 9373.26   2
  -7   6   6 248809. 8554.33   1
   7  -1  -6 250475. 9248.63   2
   1  -7   6 251065. 9018.84   1
  -1   7  -6 294862. 9696.81   1
  -6   7  -5 67150.2 4547.57   1
  -6  -1  -5 61634.7 4295.18   1
   7  -1  -5 63703.7 4545.05   1
   7  -6  -5 70000.8 4758.50   1
   6   1   5 66222.6 4439.15   1
  -7   1   5 67565.7 4675.63   1
  -6   7  -5 62348.7 4660.09   2
  -1   7  -5 59151.0 4450.38   2
   6  -7   5 68392.6 4697.80   1
   7  -1  -5 66197.4 4691.47   2
  -7   6   5 65121.8 4302.76   1
   1  -7   5 70818.9 4564.85   1
  -1   7  -5 71222.7 4530.92   1
  -1   7  -4 5912.02 1268.98   1
  -6  -1  -4 6597.76 1337.44   1
   7  -1  -4 6827.10 1437.68   2
   1  -7   4 7552.09 1411.51   1
   6   1   4 7010.12 1463.99   1
  -6   7  -4 7209.35 1611.93   2
  -7   1   4 7380.86 1514.97   1
   7  -1  -4 6834.28 1571.29   1
   7  -6  -4 5295.57 1278.92   1
  -6   7  -4 6247.94 1329.70   1
  -1   7  -4 4857.49 1233.54   2
  -7   6   4 9104.40 1610.05   1
   6  -7   4 7903.48 1496.38   1
   6   1   4 6319.48 1200.87   2
  -7   6   3 149452. 6632.82   1
   6   1   3 147700. 6064.08   2
  -6  -1  -3 181512. 7303.37   1
   7  -1  -3 166794. 7261.82   1
   7  -6  -3 191881. 7842.73   1
   6   1   3 158808. 6846.76   1
  -6   7  -3 167943. 7047.74   1
  -1   7  -3 177209. 7485.05   2
   6  -7   3 169419. 7156.73   1
  -7   1   3 159144. 6853.38   1
   7  -1  -3 190043. 7955.15   2
   1  -7   3 151440. 6118.98   1
  -1   7  -3 160253. 6046.85   1
  -6  -1  -2 99485.2 5369.66   1
  -7   6   2 113490. 5727.91   1
   7  -1  -2 103700. 5639.32   1
   6   1   2 105373. 5436.90   1
   7  -6  -2 97743.9 5491.22   1
   6  -7   2 106434. 5660.92   1
  -1   7  -2 94404.7 5487.26   2
   1   6   2 105792. 4995.90   2
  -6   7  -2 85991.3 5004.79   1
   6   1   2 108630. 5361.09   2
   7  -1  -2 103520. 5802.51   2
  -7   1   2 109503. 5802.80   1
  -7   6   1 172435. 7014.74   1
   6   1   1 119450. 5802.22   1
   7  -1  -1 116823. 5955.05   1
   7  -6  -1 134696. 6522.62   1
   6  -7   1 128461. 6148.08   1
  -6   7  -1 193324. 7227.59   1
  -1   7  -1 147593. 6669.39   2
   7  -1  -1 144630. 6812.64   2
   6   1   1 143928. 6191.27   2
   1   6   1 158521. 6319.31   2
  -6  -1  -1 171349. 7053.10   1
  -7   1   1 138129. 6522.66   1
  -7   1   0 33191.9 3177.59   1
  -7   6   0 31964.6 2999.27   1
   6   1   0 34058.2 3072.42   1
   7  -1   0 30497.3 3076.07   1
  -6   7   0 28444.3 2797.11   1
   7  -6   0 26513.4 2858.26   1
   6  -7   0 33266.6 3124.15   1
  -1   7   0 36665.0 3190.41   2
   1   6   0 29993.5 2837.83   2
   6   1   0 36280.9 3159.37   2
  -6  -1   0 30622.5 2966.54   1
  -7   1  -1 996.701 552.560   1
  -6   7   1 975.874 593.893   1
  -6  -1   1 930.620 555.369   1
   6   1  -1 978.398 371.399   1
   7  -1   1 1019.93 571.523   1
   6  -7  -1 489.191 253.448   1
   1   6  -1 817.201 444.484   2
   7  -6   1 443.934 560.045   1
  -1   7   1 1035.38 393.284   2
  -7   6  -1 1054.00 595.844   1
   6   1  -1 432.869 71.5185   2
  -1  -6   2 231994. 7029.52   1
  -7   1  -2 212149. 8094.29   1
  -6   7   2 188542. 7069.52   1
   6   1  -2 252947. 8661.70   1
   7  -1   2 199654. 7910.59   1
   6  -7  -2 229771. 8042.90   1
  -7   6  -2 199450. 7738.09   1
   7  -6   2 200241. 7954.88   1
  -1   7   2 235128. 7886.37   2
  -6  -1   2 193233. 7539.13   1
   6   1  -2 260660. 8528.24   2
   1   6  -2 232447. 8218.36   2
  -6   7   3 1379.55 513.376   1
  -7   6  -3 2286.96 850.817   1
   1   6  -3 538.870 163.042   1
  -7   1  -3 1228.12 592.872   1
  -6  -1   3 3054.08 1085.45   1
   6   1  -3 1805.10 732.043   1
  -1  -6   3 1042.91 447.664   1
  -1   7   3 838.563 537.403   2
   7  -1   3 915.730 412.863   1
   1   6  -3 1050.61 507.966   2
   6   1  -3 2176.01 872.185   2
   7  -6   3 2018.58 848.881   1
   6  -7  -3 942.179 370.658   1
   1   6  -4 59949.6 3942.70   1
  -1  -6   4 57827.3 3916.34   1
  -7   6  -4 59382.6 4335.41   1
   6   1  -4 55149.7 4127.12   1
  -7   1  -4 63026.4 4472.08   1
   6  -7  -4 50196.6 3747.95   1
   7  -1   4 40412.7 3520.71   1
   7  -6   4 61143.5 4456.32   1
  -6  -1   4 61406.1 4364.65   1
   1   6  -4 63989.3 4400.60   2
   6   1  -4 55202.5 3975.45   2
  -1   7   4 51173.3 3872.86   2
  -6   7   4 77122.9 4460.56   1
   1   6  -5 77939.3 4766.80   1
  -1  -6   5 106422. 5489.14   1
   6   1  -5 85148.3 5246.17   1
   6  -7  -5 90284.4 5127.18   1
  -7   1  -5 61371.0 4548.77   1
   7  -1   5 81384.2 5164.04   1
  -6  -1   5 65463.6 4635.16   1
  -6   7   5 92486.9 4847.71   1
   7  -6   5 68436.0 4718.51   1
  -7   6  -5 73109.0 4913.87   1
   6   1  -5 76549.2 4727.94   2
   1   6  -5 75587.1 4969.94   2
   1   6  -6 213009. 8152.16   1
  -1  -6   6 193320. 7675.72   1
   6   1  -6 205135. 8355.83   1
   1   6  -6 177886. 7773.66   2
   6  -7  -6 222264. 8032.96   1
  -7   1  -6 189346. 7836.30   1
   7  -1   6 158764. 7355.27   1
  -6  -1   6 164350. 7266.30   1
   7  -6   6 173157. 7718.02   1
  -6   7   6 244002. 8024.25   1
   6   1  -6 189119. 7703.16   2
  -7   6  -6 188835. 7948.10   1
   1   6  -7 150569. 6974.76   1
  -1  -6   7 140536. 6777.87   1
   6   1  -7 119529. 6377.41   1
   6  -7  -7 100739. 5597.31   1
   1   6  -7 121183. 6527.10   2
   7  -6   7 120923. 6396.96   1
  -6  -1   7 126843. 6625.68   1
  -7   1  -7 136052. 6697.31   1
   7  -1   7 120566. 6455.54   1
  -6   7   7 155683. 6557.43   1
   6   1  -7 114193. 6069.44   2
  -7   6  -7 122534. 6493.73   1
  -6  -1   8 461.754 333.601   1
  -7   1  -8 532.165 528.941   1
   1   6  -8 751.240 382.060   1
   6   1  -8 585.676 419.305   1
   6  -7  -8 667.031 509.092   1
  -1  -6   8 215.982 330.623   1
  -7   6  -8 880.941 262.994   1
   1   6  -8 904.015 704.473   2
   7  -1   8 772.042 446.131   1
   6   1  -8 1896.64 959.129   2
   7  -6   8 733.182 525.434   1
   1   6  -9 41098.2 3927.30   1
  -1  -6   9 41232.8 3835.62   1
  -7   6  -9 39455.4 3845.96   1
   6   1  -9 35797.5 3623.76   1
  -6  -1   9 37115.1 3725.49   1
   7  -1   9 34876.6 3575.67   1
  -7   1  -9 36091.2 3673.53   1
   1   6  -9 39947.1 3872.27   2
   7  -6   9 38495.6 3657.02   1
   6   1  -9 34605.3 3527.75   2
   7  -1  10 68836.5 5109.19   1
   1   6 -10 64093.3 5108.39   1
  -1  -6  10 77945.8 5397.85   1
   6   1 -10 82268.0 5727.50   1
  -7   6 -10 87257.1 5748.55   1
   1   6 -10 70482.3 5251.40   2
  -6  -1  10 74887.0 5284.44   1
  -7   1 -10 78831.4 5716.47   1
   6   1 -10 74808.8 5141.16   2
   7  -6  10 73432.9 5378.20   1
   1   6 -11 14105.1 2504.60   1
  -1  -6  11 16641.2 2556.38   1
   6   1 -11 20602.1 2862.55   1
  -7   6 -11 22211.0 2871.68   1
  -6  -1  11 19107.0 2691.59   1
   7  -1  11 18869.7 2745.94   1
  -7   6 -11 12391.4 2369.77   2
   1   6 -11 19702.0 2823.59   2
   6   1 -11 16771.0 2512.34   2
  -7   1 -11 20029.0 2980.38   1
   7  -6  11 17318.8 2544.14   1
  -7   6 -12 3844.76 1234.24   1
   1   6 -12 7207.94 1823.41   1
   6   1 -12 4229.11 1392.51   1
  -7   1 -12 6871.76 1802.47   1
  -1  -6  12 4924.96 1460.31   1
   1   6 -12 4614.59 1362.06   2
  -7   6 -12 3873.34 1205.02   2
  -6  -1  12 5487.34 1455.62   1
   7  -1  12 3994.60 1163.34   1
   6   1 -12 6692.14 1765.33   2
   7  -6  12 4837.83 1398.99   1
   7  -6  13 10345.6 2043.70   1
   1   6 -13 7788.62 1835.74   1
  -7   6 -13 10692.4 1913.02   1
   6   1 -13 9339.15 2015.22   1
  -7   1 -13 9325.00 2087.03   1
  -1  -6  13 9944.04 2075.63   1
  -7   6 -13 7918.80 2025.81   2
   1   6 -13 9323.18 2034.14   2
  -6  -1  13 9347.84 1963.66   1
   7  -1  13 10701.0 2045.57   1
   6   1 -13 8262.20 1913.73   2
  -1  -6  14 21634.2 2980.03   1
   1   6 -14 20389.0 2949.30   1
   6   1 -14 20766.0 3083.52   1
   1   6 -14 20705.5 3055.08   2
  -6  -1  14 19323.6 2854.63   1
  -7   6 -14 19866.4 3175.53   2
  -7   6 -14 24125.0 3239.72   1
   7  -1  14 21167.6 3035.31   1
   7  -6  14 23254.3 3240.75   1
   6   1 -14 19271.5 3065.31   2
  -7   1 -14 19199.8 3100.82   1
   7  -6  15 6214.28 1682.51   1
   1   6 -15 3210.40 1260.87   1
  -7   6 -15 3701.05 1341.78   1
   6   1 -15 3212.99 1099.22   1
  -1  -6  15 5839.00 1585.06   1
  -7   1 -15 3224.69 1264.62   1
  -6  -1  15 5572.18 1576.86   1
   1   6 -15 3335.52 1241.80   2
   6   1 -15 2824.14 1427.42   2
  -7   6 -15 2818.04 1306.61   2
   7  -1  15 2853.48 1237.16   1
   7  -6  16 6607.31 1808.57   1
   1   6 -16 6851.23 1939.60   1
   6   1 -16 8249.14 2021.71   1
  -7   6 -16 5617.09 1473.17   1
  -1  -6  16 4183.64 1364.24   1
  -7   1 -16 6209.76 1750.86   1
  -6  -1  16 4562.41 1487.62   1
   1   6 -16 4463.00 1472.44   2
   6   1 -16 2984.46 1454.63   2
   7  -6  17 2856.92 1241.79   1
   1   6 -17 2127.71 1212.59   1
   6   1 -17 1681.55 933.516   1
  -7   6 -17 1599.75 972.380   1
  -1  -6  17 1805.78 865.622   1
  -6  -1  17 2084.03 982.785   1
   1   6 -17 2939.79 1278.61   2
   6   1 -17 1459.72 1204.48   2
   7   0   0 96.8413 196.480   1
  -7   7   0-254.374 484.600   1
   0   7   0-628.608 274.065   2
  -7   0   0 365.327 371.262   1
   7  -7   0-354.332 465.625   1
   7   0   0 329.810 587.379   2
  -7   7   1 409.260 259.453   1
   7   0  -1-165.596 95.1582   1
   7   0   1 1442.29 677.447   1
   7  -7  -1 517.363 591.852   1
   0   7  -1 330.341 417.551   2
   0   7   1 664.806 63.1842   2
   7  -7   1 583.454 227.016   1
  -7   0  -1 491.725 449.666   1
  -7   7  -1 797.984 665.450   1
  -7   0   1 915.661 465.401   1
   7   0  -1 870.668 544.551   2
   7   0   1 681.760 431.745   2
  -7   0  -2 100956. 5726.55   1
   7   0  -2 117336. 6117.02   1
   7   0   2 105624. 5868.95   1
   7  -7  -2 109375. 5973.56   1
  -7   7  -2 106465. 5768.39   1
   7  -7   2 100136. 5714.93   1
   0   7  -2 110338. 5945.53   2
   0   7   2 108248. 5523.82   2
  -7   0   2 105559. 5701.41   1
   7   0   2 119356. 6079.72   2
   7   0  -2 101063. 5595.21   2
  -7   7   3 158209. 6927.49   1
  -7   0  -3 174668. 7596.31   1
   7   0  -3 159855. 7209.33   1
   7  -7  -3 182235. 7756.81   1
   7   0   3 127428. 6525.88   1
   7  -7   3 141291. 6866.08   1
   0   7  -3 154784. 7098.00   2
  -7   7  -3 157293. 7210.54   1
  -7   0   3 152964. 7034.62   1
   7   0  -3 204746. 8087.98   2
   7   0   3 130201. 6306.77   2
  -7   0  -4 65462.6 4720.68   1
   7   0  -4 59683.4 4471.44   1
   7  -7  -4 63893.2 4577.30   1
   7  -7   4 57967.1 4458.03   1
   7   0   4 66412.3 4648.96   1
  -7   0   4 64703.2 4646.45   1
   7   0  -4 53359.8 4150.75   2
  -7   7  -4 62687.9 4576.56   1
   0   7  -4 57742.8 4465.16   2
   0  -7   4 59046.4 4093.02   1
  -7   7   4 51620.0 3986.00   1
   0   7  -5 88968.9 5180.24   1
  -7   0  -5 93886.7 5675.94   1
   7   0  -5 93758.0 5617.51   1
   7  -7  -5 72663.6 4916.07   1
   7   0   5 89104.3 5476.14   1
   7  -7   5 81008.5 5232.82   1
   0   7  -5 78496.1 5215.04   2
  -7   0   5 59344.6 4502.42   1
   7   0  -5 86101.3 5378.59   2
  -7   7  -5 78279.5 5165.55   1
  -7   7   5 94943.7 5247.99   1
   0  -7   5 94184.0 5302.41   1
   0   7  -6 180432. 7706.27   1
   7   0  -6 144725. 7152.13   1
   7  -7  -6 164817. 7387.01   1
  -7   0  -6 138141. 7036.21   1
   7   0   6 161883. 7236.52   1
  -7   0   6 144460. 7087.56   1
   0   7  -6 146850. 7270.80   2
   7  -7   6 148263. 7313.05   1
  -7   7   6 122270. 6009.89   1
   7   0  -6 149172. 7069.72   2
  -7   7  -6 150288. 7189.13   1
   0  -7   6 147552. 7007.23   1
   0   7  -7 9947.58 1880.81   1
  -7   0   7 12638.2 2109.98   1
   7   0  -7 14288.0 2289.63   1
   7  -7  -7 10910.1 1973.65   1
   7   0   7 18265.1 2443.74   1
  -7   0  -7 9202.12 1968.96   1
  -7   7  -7 12686.6 2123.63   1
  -7   7   7 17390.3 2332.56   1
   0   7  -7 12308.1 2189.32   2
   7   0  -7 9753.89 1781.22   2
   7  -7   7 9318.60 1734.65   1
   0  -7   7 13395.4 2149.05   1
  -7   0   8 9929.22 1813.05   1
   0   7  -8 11707.9 2092.49   1
   7   0  -8 11039.3 2028.92   1
   0  -7   8 10924.2 1960.20   1
   7  -7  -8 10053.4 1925.23   1
  -7   7  -8 9151.41 1998.55   2
  -7   7   8 9481.04 1808.47   1
   0   7  -8 8199.61 1818.85   2
   7   0   8 12334.8 2052.64   1
  -7   0  -8 9962.53 1954.86   1
  -7   7  -8 11530.0 2072.91   1
   7   0  -8 9138.88 1806.87   2
   7  -7   8 10181.6 1926.75   1
   0   7  -9 35383.3 3690.18   1
   7   0  -9 31847.2 3503.36   1
  -7   7  -9 37842.2 3737.14   1
   7  -7  -9 39450.3 3783.96   1
  -7   0   9 34925.9 3732.05   1
  -7   0  -9 28593.5 3261.77   1
   7   0   9 31549.1 3462.71   1
  -7   7  -9 29866.7 3626.66   2
  -7   7   9 30338.0 3155.02   1
   0   7  -9 31364.0 3467.64   2
   7  -7   9 31033.5 3490.13   1
   7   0  -9 31336.0 3335.86   2
   0  -7   9 31461.0 3546.92   1
   0   7 -10 67505.9 5238.21   1
   7   0 -10 60398.2 4849.04   1
   7  -7 -10 54032.9 4560.21   1
  -7   7 -10 62729.7 4960.36   1
  -7   0  10 61632.5 4828.95   1
   7  -7  10 67204.2 5264.73   1
  -7   0 -10 50269.6 4482.37   1
   7   0  10 65157.4 5082.38   1
  -7   7 -10 55972.9 5161.69   2
   0   7 -10 50559.7 4507.34   2
   7   0 -10 54659.7 4530.07   2
   0  -7  10 63084.8 5045.95   1
  -7   7 -11 9993.54 2063.66   1
  -7   0 -11 6934.34 1887.18   1
   0   7 -11 10787.7 2183.20   1
   0  -7  11 9243.39 1930.95   1
   7   0 -11 7045.47 1751.23   1
  -7   7 -11 9819.69 2193.53   2
   7   0 -11 9115.32 1942.36   2
   0   7 -11 7172.65 1588.10   2
   7   0  11 8432.93 1918.21   1
  -7   0  11 9646.25 1884.32   1
   7  -7  11 10861.6 2153.80   1
   7  -7  12 2349.45 772.938   1
   7   0  12 2652.43 936.374   1
   0   7 -12 3786.52 1306.43   1
   7  -7 -12-1590.89 840.637   2
  -7   0 -12 2304.97 984.115   1
  -7   7 -12 3754.20 1251.42   1
   7   0 -12 2257.05 871.609   1
   0  -7  12 2446.86 861.145   1
  -7   7 -12 2762.44 1065.92   2
   0   7 -12 1849.31 908.349   2
  -7   0  12 3285.17 1131.47   1
   7   0 -12 3140.43 1031.06   2
   7  -7  13 7011.87 1734.96   1
   0   7 -13 4365.45 1415.33   1
  -7   0 -13 3225.05 1120.13   1
  -7   7 -13 5211.21 1655.60   1
   7   0 -13 5280.02 1394.53   1
   0  -7  13 4372.09 1369.46   1
  -7   7 -13 5595.55 1691.18   2
   0   7 -13 5800.03 1415.92   2
  -7   0  13 4292.80 1216.66   1
   7   0 -13 3415.36 1234.05   2
   0   7 -14 26786.6 3643.51   1
   7   0 -14 29574.1 3696.77   1
  -7   0  14 27244.4 3464.30   1
  -7   7 -14 28207.4 3484.69   1
   0   7 -14 26513.9 3494.99   2
   7  -7  14 29410.2 3630.59   1
   7   0 -14 26526.0 3428.59   2
  -7   7 -14 21663.6 3460.98   2
   0  -7  14 28206.4 3660.51   1
   7  -7  15 10687.7 2243.79   1
   0   7 -15 8857.25 2095.03   1
  -7   7 -15 11946.0 2360.63   1
   7   0 -15 8923.52 2081.89   1
   0  -7  15 7837.43 1981.40   1
  -7   7 -15 8228.29 2132.19   2
   0   7 -15 9903.35 2129.03   2
  -7   0  15 10743.2 2164.78   1
   7   0 -15 8017.44 2022.45   2
   7  -7  16 2830.26 998.115   1
  -7   7 -16 2267.74 1169.60   2
   0   7 -16 2327.48 1006.10   1
   7   0 -16 2607.58 1337.83   1
   0  -7  16 1863.05 1022.74   1
  -7   7 -16 2679.86 1139.28   1
  -7   0  16 2671.62 1260.16   1
   0   7 -16 2667.27 1108.49   2
   7   0 -16 2364.27 1293.95   2
   0   7 -17 3191.16 1379.79   1
   0  -7  17 4903.51 1595.65   1
   8  -4 -17-27.9561 449.287   1
  -8   4  17 185.340 93.0379   1
  -4   8 -17 175.247 354.398   2
   8  -4 -17 417.871 527.895   2
   8  -4 -16 35929.7 4286.18   1
  -4   8 -16 39114.9 4462.72   2
  -8   4  16 44970.5 4449.70   1
   8  -4 -16 30785.7 3712.05   2
   4  -8  16 48083.9 4886.62   1
   4  -8  15-218.030 595.407   1
   8  -4 -15 193.455 479.041   1
  -4   8 -15-349.561 472.965   2
  -8   4  15-437.387 358.543   1
   8  -4 -15-382.374 522.494   2
   4  -8  14-72.4129 201.526   1
   8  -4 -14 164.788 353.351   1
  -4   8 -14 12.9392 446.744   2
  -8   4  14 411.023 398.746   1
   8  -4 -14 580.581 571.366   2
   4  -8  13-260.211 616.978   1
   8  -4 -13 439.312 432.887   1
  -4   8 -13 725.906 867.194   1
  -4   8 -13-366.198 417.598   2
   8  -4 -13-112.001 519.630   2
  -8   4  13-577.672 714.668   1
   8  -4 -12 100746. 6428.76   1
  -4   8 -12 95077.3 6603.11   2
   4  -8  12 96387.2 6603.87   1
   8  -4 -12 81061.5 5743.97   2
  -8   4  11 424.342 428.013   1
   4  -8  11 860.226 788.545   1
   8  -4 -11-17.5490 115.706   1
  -4   8 -11 224.516 681.805   2
  -4   8 -11 803.182 765.109   1
   8  -4 -11 280.387 404.154   2
   4  -8  10 1305.43 916.147   1
  -8   4  10 567.903 420.413   1
  -4   8 -10 694.650 299.067   1
   8  -4 -10-306.529 616.948   1
  -4   8 -10-228.963 728.627   2
   8  -4 -10 499.300 611.468   2
   4  -8   9 102.622 345.618   1
  -8   4   9-294.480 487.496   1
   8  -4  -9-164.704 324.429   1
  -4   8  -9-1392.68 874.113   2
  -4   8  -9 307.996 604.148   1
   8  -4  -9-565.039 272.425   2
   4  -8   8 88137.1 5783.23   1
   8  -4  -8 87987.3 5708.99   1
  -4   8  -8 78484.9 5512.40   2
  -8   4   8 80201.5 5347.48   1
   8  -4  -8 74225.4 5975.34   2
   4  -8   7-267.702 120.234   1
  -8   4   7-365.486 56.4187   1
  -4   8  -7-399.914 496.122   1
   8  -4  -7-273.688 513.280   1
  -4   8  -7 126.073 117.654   2
   4  -8   6 1439.86 739.904   1
  -4   8  -6 984.588 630.684   1
  -8   4   6 1179.13 741.385   1
   8  -4  -6 1002.88 724.142   1
  -4   8  -6 1378.00 737.498   2
   4  -8   5-449.515 535.465   1
  -8   4   5-241.233 247.972   1
   8  -4  -5 243.698 264.424   1
  -4   8  -5-595.051 720.066   2
  -4   8  -5-422.291 37.4594   1
   8  -4  -4 275112. 9749.24   1
  -4   8  -4 275567. 9098.37   1
  -4   8  -4 250270. 9456.33   2
   4  -8   4 277832. 9468.11   1
  -8   4   4 262533. 9190.81   1
  -4   8  -3-180.236 430.702   1
  -4   8  -3-170.613 145.641   2
  -8   4   3-420.180 697.732   1
   4  -8   3-418.977 450.348   1
  -8   4   2 14763.3 2152.44   1
   8  -4  -2 16189.9 2234.96   1
   4  -8   2 18213.8 2182.44   1
  -4   8  -2 14810.9 2211.16   2
   4   4   2 15961.4 1942.48   2
  -4   8  -2 14368.2 1822.51   1
  -8   4   1 425.205 400.117   1
  -4  -4  -1-14.0383 91.0246   1
  -4   8  -1 197.428 211.532   1
   4   4   1 146.441 318.036   1
  -4   8  -1-184.079 366.819   2
   4  -8   1 75.2749 312.459   1
   8  -4  -1 48.0047 260.616   1
   4   4   1 12.5419 73.7732   2
  -8   4   0 426160. 11798.3   1
   4   4   0 532318. 11375.0   1
   8  -4   0 410152. 11719.3   1
  -4  -4   0 535617. 11658.6   1
  -4   8   0 443522. 12698.3   2
   4   4   0 390533. 10698.8   2
  -4  -4   1 147.061 297.086   1
   8  -4   1 180.492 411.971   1
  -4   8   1-457.472 127.564   2
  -8   4  -1 232.270 637.889   1
   4   4  -1 3.54186 119.075   1
   4   4  -1-529.111 522.369   2
  -8   4  -2 65160.8 4544.18   1
  -4  -4   2 63022.2 4295.72   1
   8  -4   2 60157.6 4356.96   1
   4   4  -2 59069.6 4186.64   2
   4   4  -3 104.536 286.492   1
  -8   4  -3 566.306 103.452   1
   8  -4   3 357.353 660.884   1
   4   4  -3 544.363 525.252   2
  -4  -4   3-526.144 496.618   1
   4   4  -4 192770. 7871.11   1
  -4  -4   4 202674. 7996.31   1
  -8   4  -4 188237. 7909.28   1
   8  -4   4 209311. 8568.03   1
  -8   4  -5 3.38443 487.924   1
   4   4  -5-272.118 388.414   1
   4   4  -5 453.915 478.372   2
   8  -4   5-343.736 190.828   1
  -4  -4   5-213.172 316.710   1
   4   4  -6 35279.1 3542.16   1
  -4  -4   6 26188.6 2917.69   1
   8  -4   6 26166.5 3041.84   1
  -8   4  -6 31345.8 3303.41   1
   4   4  -6 24631.8 3009.67   2
  -8   4  -7 690.402 544.619   1
   4   4  -7 302.172 487.539   1
  -4  -4   7-64.8794 442.060   1
   8  -4   7 1243.84 716.856   1
   4   4  -7-89.9119 75.6859   2
   4   4  -8 140046. 7304.88   1
  -4  -4   8 151640. 7484.05   1
   4   4  -8 141351. 7342.09   2
   8  -4   8 148666. 7393.54   1
  -8   4  -8 147904. 7466.64   1
   4   4  -9 545.616 646.113   1
  -8   4  -9-748.761 653.232   1
  -4  -4   9 686.000 802.268   1
   4   4  -9 556.442 432.295   2
   8  -4   9-342.706 499.508   1
   4   4 -10 401.690 523.973   1
  -8   4 -10 3.97538 233.621   1
  -4  -4  10-365.146 629.593   1
   4   4 -10-247.948 60.5895   2
   8  -4  10-212.369 450.608   1
   4   4 -11-462.474 528.394   1
  -8   4 -11-222.769 314.996   1
   4   4 -11 1048.99 845.082   2
   8  -4  11-260.130 595.262   1
  -4  -4  11 260.529 508.270   1
   4   4 -12 85616.9 6174.23   1
  -4  -4  12 77945.0 5812.42   1
   4   4 -12 79308.3 5769.07   2
   8  -4  12 77901.0 5700.38   1
  -8   4 -12 87480.1 5986.47   1
   4   4 -13 62.2110 711.183   1
  -8   4 -13-416.388 582.210   1
  -4  -4  13-488.912 381.543   1
   4   4 -13 412.046 468.868   2
   8  -4  13-218.026 205.792   1
  -4  -4  14 2047.65 971.446   1
  -8   4 -14 1147.66 675.765   1
   4   4 -14 701.232 233.076   2
   8  -4  14 1980.97 932.929   1
  -8   4 -15-224.571 26.3983   1
   4   4 -15 245.550 348.983   2
  -4  -4  15 24.9353 201.224   1
  -8   4 -16 46539.9 4740.94   1
   4   4 -16 47508.8 4859.16   1
  -4  -4  16 51217.9 4933.22   1
   8  -4  16 48688.5 4780.84   1
   4   4 -16 43037.0 4503.70   2
  -8   4 -17 163.612 145.824   1
   8  -4  17-238.438 541.150   1
   8  -5 -17 1648.35 940.160   1
   8  -3 -17 170.026 173.217   1
  -5   8 -17 2019.33 1246.31   2
  -8   5  17 308.590 282.733   1
  -8   3  17 226.723 259.314   1
  -3   8 -17 1141.25 893.466   2
   8  -3 -17 1682.76 920.148   2
  -3   8 -16 1941.35 937.124   1
   5  -8  16 18.3108 237.433   1
   3  -8  16 1720.53 620.385   1
   8  -3 -16 2178.23 1103.24   1
   8  -5 -16 1978.53 1115.00   1
  -5   8 -16 2125.27 1030.74   2
  -3   8 -16 3279.06 1358.82   2
  -8   5  16 2745.51 1154.51   1
   8  -3 -16 2702.62 1251.71   2
   8  -5 -16 1756.78 769.737   2
  -5   8 -16 1369.92 1126.38   1
  -8   3  16 3413.05 1179.82   1
   8  -3 -15 31066.0 3920.04   1
   8  -5 -15 28450.2 3827.36   1
  -8   3  15 26969.8 3536.00   1
  -8   5  15 25296.7 3379.38   1
  -5   8 -15 33037.6 3950.86   2
  -3   8 -15 30632.7 3877.43   2
   5  -8  15 28836.4 3628.64   1
   8  -3 -15 25349.3 3399.21   2
   8  -5 -15 19064.5 2840.05   2
   3  -8  15 33116.5 4053.04   1
  -5   8 -15 12833.4 2536.53   1
  -3   8 -15 27196.8 3732.63   1
   8  -3 -14 22108.3 3268.77   1
   8  -5 -14 27730.1 3617.68   1
  -5   8 -14 23537.0 3334.72   2
  -3   8 -14 28091.2 3600.63   2
  -8   3  14 27335.8 3416.47   1
  -8   5  14 23794.4 3163.85   1
   8  -5 -14 16268.7 2750.95   2
   5  -8  14 29420.2 3670.13   1
   8  -3 -14 24010.1 3168.07   2
   3  -8  14 28361.3 3586.89   1
  -5   8 -14 10068.2 2281.19   1
  -3   8 -14 24257.2 3443.35   1
  -3   8 -13 12003.9 2345.75   1
   5  -8  13 11908.8 2298.51   1
   8  -3 -13 14930.5 2602.11   1
   3  -8  13 15700.7 2610.79   1
   8  -5 -13 14476.4 2499.43   1
  -8   3  13 14206.8 2467.03   1
  -8   5  13 17566.7 2777.42   1
  -5   8 -13 13471.3 2575.20   2
  -3   8 -13 14219.1 2623.27   2
   8  -3 -13 15127.6 2506.07   2
  -5   8 -13 8925.88 1969.30   1
   8  -5 -13 11063.9 2222.38   2
  -8   3  12 584.202 399.543   1
  -8   5  12 503.408 642.393   1
  -3   8 -12 1225.84 816.527   1
   5  -8  12 1106.00 712.159   1
   3  -8  12 232.911 660.203   1
   8  -3 -12 575.541 532.887   1
   8  -5 -12 594.533 371.168   1
  -5   8 -12-1.62487 261.983   1
  -5   8 -12 1013.25 504.715   2
  -3   8 -12-324.640 771.284   2
   8  -3 -12-1336.26 729.147   2
   8  -5 -12 1254.90 796.184   2
  -8   3  11 1240.20 804.762   1
  -3   8 -11-691.261 689.012   1
   5  -8  11 1689.62 960.086   1
  -8   5  11 223.332 427.638   1
   3  -8  11 457.631 282.998   1
   8  -3 -11 563.875 425.459   1
   8  -5 -11-432.435 621.824   1
  -5   8 -11 795.464 748.836   1
  -5   8 -11 421.212 362.580   2
  -3   8 -11 1150.33 835.426   2
   8  -3 -11 501.903 120.768   2
   8  -5 -11 424.390 34.3156   2
  -5   8 -10 69315.7 5462.64   2
   8  -3 -10 70948.3 5348.95   1
   8  -5 -10 75875.6 5546.05   1
  -3   8 -10 69049.0 5489.09   2
  -8   3  10 81579.0 5398.70   1
  -8   5  10 93503.9 5915.04   1
  -5   8 -10 48877.4 4599.11   1
   5  -8  10 68305.8 5403.51   1
   8  -3 -10 79989.6 5605.14   2
   3  -8  10 71516.1 5464.11   1
   8  -5 -10 48448.5 4498.42   2
  -3   8 -10 73595.7 5510.25   1
  -3   8  -9 12785.4 2221.62   1
   5  -8   9 10127.7 1933.74   1
  -5   8  -9 7993.51 1745.54   1
   3  -8   9 13756.7 2280.18   1
  -8   5   9 8188.93 1698.89   1
   8  -5  -9 15427.7 2441.74   1
   8  -3  -9 10275.5 1937.95   1
  -8   3   9 11309.7 2040.49   1
  -5   8  -9 10525.9 2122.17   2
  -3   8  -9 11767.5 2184.16   2
   8  -3  -9 11544.0 2101.28   2
   8  -5  -9 8218.22 1882.14   2
  -8   5   8 27499.4 3167.71   1
   8  -3  -8 33533.4 3537.04   1
   8  -5  -8 28001.4 3270.11   1
  -5   8  -8 31525.3 3517.70   1
  -5   8  -8 27599.0 3420.32   2
  -3   8  -8 30016.4 3493.81   2
  -8   3   8 31465.4 3318.57   1
   5  -8   8 31677.8 3597.12   1
   3  -8   8 30416.5 3359.91   1
   8  -3  -8 28701.3 3404.28   2
  -3   8  -8 32564.7 3535.60   1
   8  -3  -7 42536.3 3838.00   1
   8  -5  -7 41479.0 3846.51   1
  -5   8  -7 39949.8 3803.08   1
  -5   8  -7 34563.6 3763.74   2
  -3   8  -7 40510.9 4001.12   2
  -8   3   7 37719.5 3723.49   1
   5  -8   7 46199.1 4217.19   1
  -8   5   7 47772.8 4082.31   1
   3  -8   7 42721.5 3957.42   1
   8  -3  -7 40443.0 3960.08   2
   8  -3  -6 57938.7 4570.75   1
   8  -5  -6 74382.3 5012.37   1
  -5   8  -6 65947.8 4807.43   1
  -3   8  -6 65922.8 5075.74   2
  -5   8  -6 65557.5 5080.38   2
   5  -8   6 72775.0 5147.95   1
  -8   3   6 68307.2 4846.23   1
   3  -8   6 66574.1 4749.59   1
  -8   5   6 71592.1 4757.19   1
   8  -3  -6 64181.1 4997.25   2
  -3   8  -6 62302.1 4684.14   1
  -5   8  -5 87987.1 5321.13   1
   8  -3  -5 68657.6 4843.96   1
   8  -5  -5 74325.4 5139.97   1
  -5   8  -5 79517.1 5468.42   2
  -3   8  -5 80998.9 5462.25   2
   3  -8   5 75538.7 4932.16   1
  -8   3   5 78924.7 5006.62   1
  -3   8  -5 67509.8 4857.40   1
   5  -8   5 81283.2 5214.46   1
  -8   5   5 80007.6 5055.94   1
   3  -8   4 6992.94 1444.99   1
  -3   8  -4 7392.26 1513.36   1
  -5   8  -4 5795.93 1483.78   2
   8  -3  -4 9788.41 1871.03   1
   8  -5  -4 7440.29 1572.19   1
  -8   3   4 7877.03 1546.57   1
  -3   8  -4 7160.23 1678.46   2
  -5  -3  -4 7225.37 1434.21   1
  -8   5   4 7271.54 1591.57   1
  -5   8  -4 8203.70 1603.84   1
   5  -8   4 8394.09 1675.48   1
   5   3   3 46797.5 3472.56   1
   8  -3  -3 47357.5 4007.28   1
   8  -5  -3 49914.9 4115.35   1
  -3   8  -3 47671.5 3509.40   1
   5  -8   3 53264.9 4013.17   1
  -5   8  -3 44081.0 3874.11   2
   3  -8   3 49296.3 3656.28   1
  -5  -3  -3 43697.0 3348.57   1
  -8   3   3 42280.3 3684.32   1
  -3   8  -3 39837.9 3901.12   2
  -5   8  -3 43267.4 3483.39   1
  -8   5   3 50270.2 4010.21   1
  -8   5   2 244262. 8867.27   1
  -5   8  -2 256795. 9928.83   2
   5   3   2 298327. 8869.80   1
   8  -3  -2 273425. 9464.59   1
   8  -5  -2 252622. 9370.59   1
  -3   8  -2 240526. 9072.64   2
   5  -8   2 245281. 8469.73   1
   5   3   2 232018. 7740.99   2
  -5  -3  -2 281328. 8720.80   1
  -5   8  -2 270425. 8614.85   1
  -8   3   2 260711. 9207.33   1
  -8   5   1 10749.2 1894.86   1
   5   3   1 9871.74 1601.87   1
   5  -8   1 14978.9 1989.87   1
  -5   8  -1 11446.4 2170.41   2
  -5   8  -1 10384.2 1636.50   1
   8  -3  -1 13367.8 2064.65   1
   3   5   1 11421.2 1733.21   2
  -3   8  -1 9857.61 1890.57   2
   8  -5  -1 10533.3 1959.64   1
  -5  -3  -1 12911.4 1946.33   1
   5   3   1 11148.4 1770.46   2
  -8   3   1 9735.67 1701.84   1
  -8   3   0 4764.01 1195.09   1
   8  -5   0 5337.95 1277.62   1
  -8   5   0 5613.93 1374.65   1
  -5  -3   0 4437.03 1151.73   1
   5   3   0 6686.19 1265.52   1
  -3   8   0 4011.66 1240.50   2
   8  -3   0 6136.09 1366.41   1
   5  -8   0 6148.39 1347.28   1
   3   5   0 5903.62 1197.05   2
   5   3   0 7547.26 1491.03   2
  -5   8   0 7220.53 1334.00   1
  -8   3  -1 103851. 5823.17   1
   5   3  -1 96908.3 5301.22   1
  -8   5  -1 111504. 5925.65   1
  -3  -5   1 107414. 5159.13   1
  -5   8   1 124281. 5440.17   1
   8  -3   1 116911. 6267.09   1
   8  -5   1 91737.9 5565.37   1
   5  -8  -1 114205. 5453.10   1
   5   3  -1 122692. 5903.08   2
  -3   8   1 110080. 6365.97   2
   3   5  -1 111694. 5694.26   2
  -5  -3   1 111900. 5699.86   1
   3   5  -2 90221.6 4851.44   1
   5   3  -2 68974.8 4533.97   1
  -8   3  -2 86249.1 5323.57   1
  -3  -5   2 80333.3 4580.42   1
  -8   5  -2 79118.6 5245.35   1
   8  -3   2 76355.0 5089.33   1
   8  -5   2 90506.8 5534.40   1
  -3   8   2 83144.4 5412.71   2
  -5  -3   2 91020.5 5217.54   1
   3   5  -2 94875.4 5381.00   2
   5   3  -2 93785.2 5327.00   2
   3   5  -3 80327.0 4790.98   1
   5   3  -3 87383.7 5124.63   1
  -3  -5   3 84991.5 4878.94   1
  -8   3  -3 84331.0 5284.20   1
  -8   5  -3 80238.3 5129.16   1
   8  -3   3 84136.0 5293.43   1
  -5  -3   3 84370.5 5025.57   1
   8  -5   3 82426.5 5372.95   1
   3   5  -3 79347.4 5047.06   2
   5   3  -3 80680.4 5059.85   2
   3   5  -4 34835.5 3312.82   1
   5   3  -4 27823.2 3054.04   1
  -3  -5   4 45959.5 3685.53   1
  -8   3  -4 30319.4 3230.43   1
   5   3  -4 35350.6 3447.41   2
  -5  -3   4 30396.2 3185.85   1
   8  -3   4 35226.7 3496.79   1
  -8   5  -4 31633.1 3311.39   1
   8  -5   4 33607.2 3385.52   1
   3   5  -4 32817.5 3320.24   2
  -5  -3   5 965.784 642.742   1
  -8   5  -5 927.502 659.734   1
   3   5  -5 594.267 576.109   1
  -3  -5   5 15.1174 277.068   1
   5   3  -5 908.560 619.713   1
   8  -3   5 191.548 128.887   1
   8  -5   5-100.785 557.363   1
   3   5  -5 563.073 81.7858   2
  -8   3  -5 191.008 422.879   1
   5   3  -5 1256.31 373.967   2
   3   5  -6 192931. 8224.68   1
   5   3  -6 162890. 7678.07   1
  -3  -5   6 164011. 7637.67   1
  -5  -3   6 197147. 8292.20   1
  -8   3  -6 166541. 7600.30   1
   8  -3   6 168618. 7712.89   1
   8  -5   6 166156. 7724.72   1
  -8   5  -6 174425. 8110.62   1
   3   5  -6 156406. 7398.05   2
   5   3  -6 162182. 7610.96   2
   3   5  -7 23627.9 2971.71   1
   5   3  -7 22421.6 2945.53   1
  -3  -5   7 26065.3 2943.79   1
  -5  -3   7 19360.0 2714.55   1
   8  -3   7 22228.8 2879.12   1
  -8   3  -7 23795.9 2984.01   1
   8  -5   7 24547.2 3019.62   1
   3   5  -7 22660.4 2815.01   2
  -8   5  -7 23655.6 2960.86   1
   5   3  -7 20051.5 2727.49   2
   3   5  -8 15511.1 2333.80   1
   5   3  -8 17511.4 2580.37   1
  -3  -5   8 18314.6 2622.04   1
  -5  -3   8 16743.4 2476.04   1
   8  -3   8 14449.9 2378.33   1
   3   5  -8 17373.4 2510.91   2
   8  -5   8 19099.6 2550.99   1
  -8   3  -8 17604.7 2417.82   1
  -8   5  -8 15759.0 2510.39   1
   5   3  -8 14748.8 2241.07   2
   3   5  -9 83985.2 5850.24   1
   5   3  -9 79655.2 5757.66   1
  -3  -5   9 85630.0 5772.45   1
  -5  -3   9 84281.9 5702.88   1
   8  -3   9 73483.9 5342.54   1
   8  -5   9 79614.0 5444.56   1
  -8   3  -9 88236.1 5729.73   1
   3   5  -9 76586.6 5417.03   2
   5   3  -9 72667.6 5356.88   2
  -8   5  -9 89621.4 5810.07   1
   3   5 -10 44153.8 4392.67   1
   5   3 -10 48403.6 4484.21   1
  -3  -5  10 64418.2 5082.36   1
  -5  -3  10 53776.3 4558.57   1
   8  -3  10 46245.0 4310.81   1
   8  -5  10 49808.2 4438.33   1
   3   5 -10 47704.0 4339.31   2
   5   3 -10 50870.0 4475.92   2
  -8   3 -10 49414.8 4812.17   1
  -8   5 -10 49018.0 4402.84   1
   3   5 -11 5734.06 1636.52   1
   5   3 -11 6029.11 1577.38   1
  -8   3 -11 4822.42 1596.24   1
  -8   5 -11 7019.85 1592.39   1
  -3  -5  11 6189.76 1692.01   1
  -5  -3  11 6709.47 1622.99   1
   3   5 -11 6074.79 1600.54   2
   5   3 -11 6301.71 1626.33   2
   8  -3  11 7464.41 1706.62   1
   8  -5  11 7524.43 1759.09   1
  -3  -5  12 72.9996 98.1678   1
   3   5 -12 538.252 486.318   1
   5   3 -12 104.326 62.2552   1
  -8   3 -12 550.837 570.188   1
  -8   5 -12 261.586 104.737   1
  -5  -3  12-195.344 549.469   1
   3   5 -12-16.9775 366.122   2
   5   3 -12 859.903 743.972   2
   8  -3  12 312.509 626.644   1
   8  -5  12 817.214 643.949   1
   3   5 -13 2603.87 1056.94   1
   5   3 -13 2453.87 1054.62   1
  -8   3 -13 2075.96 1165.95   1
  -3  -5  13 1600.01 808.271   1
  -5  -3  13 2209.29 1139.51   1
  -8   5 -13 1465.32 776.543   1
   3   5 -13 1578.09 747.523   2
   5   3 -13 2214.98 1154.86   2
   8  -3  13 2540.98 1048.21   1
   8  -5  13 816.955 65.8214   1
   3   5 -14 23564.1 3408.69   1
  -8   5 -14 26288.2 3262.56   1
   5   3 -14 29673.7 3741.98   1
  -3  -5  14 29066.5 3662.83   1
  -5  -3  14 27920.8 3573.64   1
   8  -3  14 21455.1 3114.20   1
   8  -5  14 25510.1 3391.30   1
   3   5 -14 27486.8 3445.87   2
   5   3 -14 23676.3 3441.77   2
  -8   3 -14 25407.2 3412.68   1
   3   5 -15 17807.0 2947.40   1
   5   3 -15 20401.4 3051.48   1
  -3  -5  15 20228.6 2922.34   1
  -8   5 -15 19800.8 3141.66   1
  -5  -3  15 19509.9 2962.46   1
   8  -3  15 21550.6 3095.77   1
   8  -5  15 18683.5 2957.66   1
   5   3 -15 18267.9 3136.82   2
  -8   3 -15 16879.8 2774.97   1
   3   5 -15 18022.4 2752.86   2
  -8   5 -16 15119.7 2724.81   1
   3   5 -16 12539.1 2438.71   1
   5   3 -16 14500.2 2605.41   1
  -3  -5  16 14341.4 2483.27   1
  -8   3 -16 13422.5 2506.11   1
  -5  -3  16 12548.6 2346.11   1
   8  -3  16 10854.4 2297.84   1
   8  -5  16 14416.2 2596.13   1
   3   5 -16 13104.7 2328.77   2
   5   3 -16 10313.6 2369.35   2
  -8   3 -17 7180.78 1858.96   1
   8  -3  17 6716.96 1761.10   1
  -6   8 -17 5694.49 1811.83   2
   6  -8  16-196.259 383.919   1
  -2   8 -16 798.897 827.776   1
   2  -8  16 112.007 85.5819   1
   8  -2 -16-566.053 655.298   1
  -6   8 -16-655.280 619.980   2
  -2   8 -16-328.273 735.753   2
  -8   2  16 906.998 672.933   1
   8  -2 -16 137.736 528.249   2
  -6   8 -16-205.104 427.027   1
   6  -8  15 12537.0 2423.31   1
  -2   8 -15 7924.98 2038.98   1
   2  -8  15 10940.7 2354.93   1
   8  -2 -15 11969.3 2276.86   1
   8  -6 -15 7939.78 1952.08   1
  -6   8 -15 8874.71 2210.25   1
  -6   8 -15 7563.10 1909.29   2
  -2   8 -15 10794.3 2297.89   2
  -8   2  15 9792.83 2083.54   1
   8  -2 -15 7268.32 1832.26   2
   8  -6 -15 3553.76 1233.95   2
  -2   8 -14 15608.2 2798.19   1
   8  -2 -14 17602.0 2861.18   1
   8  -6 -14 15093.4 2743.54   1
  -8   2  14 14065.4 2513.24   1
  -8   6  14 21119.8 3017.62   1
  -6   8 -14 13947.3 2722.53   2
  -2   8 -14 16794.9 2831.73   2
   2  -8  14 16341.9 2849.33   1
  -6   8 -14 13046.8 2448.64   1
   6  -8  14 19967.8 3085.64   1
   8  -2 -14 14433.4 2550.62   2
   8  -6 -14 8398.44 1950.16   2
   6  -8  13 16916.8 2655.20   1
  -2   8 -13 11360.4 2353.43   1
   8  -6 -13 13162.2 2492.15   1
   8  -2 -13 13876.0 2514.91   1
  -8   2  13 17687.6 2688.29   1
  -8   6  13 14761.0 2445.98   1
  -2   8 -13 13256.0 2608.05   2
  -6   8 -13 13681.6 2735.69   2
  -6   8 -13 14349.3 2625.10   1
   8  -2 -13 14068.7 2417.67   2
   2  -8  13 15905.1 2704.20   1
   8  -6 -13 5563.18 1480.20   2
  -8   6  12 6317.95 1599.39   1
   6  -8  12 4353.94 1404.23   1
  -2   8 -12 5475.97 1677.56   1
   2  -8  12 4737.73 1267.29   1
   8  -2 -12 4730.07 1514.58   1
   8  -6 -12 4318.35 1422.48   1
  -2   8 -12 4195.34 1480.89   2
  -6   8 -12 2887.10 1140.41   2
  -6   8 -12 3541.07 1219.29   1
   8  -2 -12 5335.18 1422.78   2
   8  -6 -12 2615.36 1193.52   2
  -8   2  12 6888.00 1741.48   1
  -8   2  11 4950.06 1441.72   1
   6  -8  11 5007.21 1520.84   1
  -8   6  11 5110.63 1385.83   1
  -2   8 -11 4070.35 1368.47   1
   2  -8  11 5219.87 1418.19   1
   8  -2 -11 4917.85 1473.48   1
   8  -6 -11 6146.34 1677.64   1
  -6   8 -11 2282.11 876.811   1
  -6   8 -11 2411.27 1111.61   2
  -2   8 -11 5079.37 1485.77   2
   8  -2 -11 5491.31 1463.31   2
   8  -6 -11 2120.76 1063.36   2
   8  -2 -10 53392.7 4550.76   1
   8  -6 -10 50096.3 4524.97   1
  -6   8 -10 39779.8 3968.84   1
  -8   2  10 57036.7 4644.75   1
  -6   8 -10 40401.1 4546.02   2
  -8   6  10 54863.4 4567.78   1
  -2   8 -10 48158.4 4604.74   2
   6  -8  10 54418.9 4893.69   1
   8  -2 -10 52408.0 4458.12   2
   2  -8  10 55905.0 4889.27   1
  -2   8 -10 53598.4 4738.65   1
   6  -8   9 3617.35 1232.32   1
  -2   8  -9 2268.68 936.567   1
  -8   2   9 1788.98 915.202   1
   2  -8   9 2317.42 894.711   1
  -8   6   9 2298.97 886.804   1
  -6   8  -9 2107.85 1007.84   1
   8  -2  -9 2656.52 1064.15   1
   8  -6  -9 2494.48 823.135   1
  -6   8  -9 2841.42 1423.63   2
  -2   8  -9 1515.32 609.260   2
   8  -2  -9 2502.65 987.241   2
   8  -2  -8 60150.8 4693.90   1
   8  -6  -8 59760.1 4715.24   1
  -6   8  -8 56073.5 4595.36   1
  -6   8  -8 52436.3 4627.31   2
  -8   2   8 56608.4 4512.67   1
  -2   8  -8 53560.0 4669.68   2
  -8   6   8 57996.7 4577.78   1
   6  -8   8 63868.8 5119.01   1
   8  -2  -8 62059.3 4742.05   2
   2  -8   8 58895.7 4765.38   1
  -2   8  -8 57224.8 4692.04   1
  -6  -2  -7 28124.6 3084.51   1
  -6   8  -7 24865.8 2921.34   1
   8  -2  -7 27417.5 3222.93   1
   8  -6  -7 28190.2 3275.17   1
  -6   8  -7 21719.3 2930.65   2
  -2   8  -7 21432.6 2804.95   2
  -8   2   7 24221.1 2959.18   1
  -8   6   7 20133.8 2645.18   1
   6  -8   7 29600.3 3380.30   1
   8  -2  -7 25361.5 3021.56   2
   2  -8   7 26242.3 3106.12   1
  -2   8  -7 25425.2 2992.49   1
  -6  -2  -6 188252. 7900.99   1
  -6   8  -6 195543. 8401.81   1
   8  -2  -6 193438. 8425.36   1
   8  -6  -6 183601. 8113.85   1
   6   2   6 205444. 8174.53   1
  -6   8  -6 183149. 8688.62   2
  -2   8  -6 187734. 8363.99   2
   6  -8   6 203034. 8672.25   1
  -8   2   6 203643. 8411.31   1
  -8   6   6 231761. 8702.96   1
   2  -8   6 203299. 8303.81   1
   8  -2  -6 170003. 7998.03   2
  -2   8  -6 184956. 7897.00   1
  -6   8  -5 97806.0 5772.30   1
  -6  -2  -5 88784.4 5255.73   1
   8  -2  -5 91164.3 5681.85   1
   8  -6  -5 67245.9 4870.04   1
   6   2   5 70709.9 4742.98   1
  -6   8  -5 75679.9 5487.53   2
  -2   8  -5 75666.2 5334.84   2
   6  -8   5 69545.8 4934.23   1
  -8   2   5 83154.2 5273.64   1
   2  -8   5 90641.1 5314.78   1
   8  -2  -5 85128.3 5524.10   2
  -8   6   5 80825.2 5104.67   1
  -2   8  -5 80779.6 4989.09   1
  -8   2   4 1606.43 792.627   1
   8  -2  -4 801.378 476.168   1
  -6   8  -4 1555.77 664.941   1
   8  -6  -4 1777.72 836.973   1
   6   2   4 1395.47 701.735   1
  -6   8  -4 355.068 302.221   2
  -2   8  -4 1244.28 736.948   2
  -8   6   4 1775.32 780.233   1
  -6  -2  -4 1831.16 709.206   1
   6  -8   4 1350.35 703.651   1
   8  -2  -4 1637.85 868.589   2
  -8   6   3 115961. 6203.01   1
   8  -2  -3 120535. 6441.55   1
   6   2   3 95160.0 5398.38   1
   8  -6  -3 135791. 6904.65   1
  -6   8  -3 110327. 6624.86   2
  -2   8  -3 119202. 6478.18   2
   6  -8   3 127746. 6465.59   1
  -6   8  -3 118014. 6084.73   1
  -8   2   3 114877. 6152.06   1
  -6  -2  -3 129137. 6306.33   1
   8  -2  -3 120569. 6659.64   2
  -8   6   2 40457.8 3534.81   1
   6   2   2 28735.8 2953.03   1
   8  -2  -2 32630.5 3206.61   1
   8  -6  -2 39666.5 3774.25   1
   6  -8   2 33875.4 3288.19   1
  -2   8  -2 33555.8 3463.85   2
  -6   8  -2 37141.6 3407.96   1
   6   2   2 30861.9 2802.00   2
  -6  -2  -2 28536.8 2884.21   1
  -8   2   2 36439.9 3489.51   1
  -8   6   1 77950.6 5096.17   1
  -2   8  -1 71066.6 5019.58   2
   6   2   1 70225.3 4558.54   1
   8  -2  -1 79054.8 5078.52   1
   8  -6  -1 85192.8 5336.80   1
  -6   8  -1 85789.8 5109.35   1
   6  -8   1 81202.4 5010.62   1
   2   6   1 72135.7 4622.68   2
   6   2   1 75286.8 4519.76   2
  -6  -2  -1 75678.7 4659.79   1
  -8   2   1 69387.0 4830.76   1
   6   2   0 12702.6 2003.54   1
  -8   6   0 10773.1 1926.20   1
  -6   8   0 9286.85 1653.28   1
  -6  -2   0 8329.75 1651.64   1
   8  -2   0 10462.9 1890.08   1
  -2   8   0 9590.49 1857.77   2
   8  -6   0 10175.4 1807.13   1
   2   6   0 8882.10 1555.93   2
   6  -8   0 9529.13 1684.69   1
   6   2   0 11593.6 1774.46   2
  -8   2   0 10283.7 1824.23   1
  -8   2  -1 298.482 387.097   1
  -6  -2   1 685.367 521.177   1
  -6   8   1 515.836 522.810   1
   6   2  -1 585.878 194.979   1
   6  -8  -1 866.011 608.653   1
   8  -6   1 923.726 598.754   1
   2   6  -1 128.049 108.404   2
  -8   6  -1 491.493 502.065   1
   6   2  -1 299.613 252.651   2
  -2   8   1 162.452 324.957   2
   8  -2   1 740.274 212.302   1
  -8   2  -2 131567. 6669.83   1
  -6   8   2 162107. 6697.51   1
   6   2  -2 175945. 7448.09   1
  -8   6  -2 150401. 7173.99   1
   8  -2   2 151973. 7082.63   1
   6  -8  -2 149017. 6637.74   1
  -2   8   2 142167. 7051.30   2
   8  -6   2 145054. 7193.55   1
   2   6  -2 152107. 7007.96   2
  -6  -2   2 166005. 7381.69   1
   6   2  -2 151195. 6811.44   2
  -6  -2   3-36.3388 220.577   1
  -8   2  -3-107.142 238.757   1
   6   2  -3 490.719 356.833   1
  -2   8   3 322.081 392.531   2
   6  -8  -3 480.981 408.097   1
   8  -2   3 930.304 681.124   1
   8  -6   3 47.6014 537.510   1
   2   6  -3 655.497 85.7282   2
   6   2  -3-946.548 535.452   2
  -6   8   3 334.672 352.341   1
  -8   6  -3-136.198 376.723   1
  -6  -2   4 113880. 6165.33   1
   2   6  -4 121040. 6132.39   1
  -2  -6   4 99232.1 5605.70   1
   6   2  -4 121702. 6368.32   1
  -8   2  -4 104853. 6046.65   1
   8  -2   4 116244. 6296.59   1
   8  -6   4 111172. 6254.09   1
  -8   6  -4 104861. 6085.40   1
   2   6  -4 108365. 5983.35   2
   6   2  -4 115540. 6086.22   2
   2   6  -5 57259.6 4272.92   1
  -2  -6   5 57268.8 4402.75   1
   6   2  -5 57669.4 4444.17   1
  -8   2  -5 57861.2 4528.16   1
   8  -2   5 54490.4 4406.29   1
  -6  -2   5 57979.9 4475.68   1
   8  -6   5 56914.6 4535.16   1
  -8   6  -5 51075.8 4315.66   1
   2   6  -5 55581.4 4341.31   2
   6   2  -5 55709.0 4311.97   2
   2   6  -6 152810. 7316.59   1
  -2  -6   6 204308. 8404.50   1
   6   2  -6 214932. 8758.77   1
  -8   2  -6 204610. 8599.00   1
  -6  -2   6 167501. 7809.06   1
   8  -2   6 171907. 7990.87   1
   2   6  -6 182672. 7989.61   2
  -8   6  -6 205678. 8586.13   1
   6   2  -6 170150. 7685.84   2
   8  -6   6 167010. 7812.71   1
   2   6  -7 57813.9 4699.39   1
  -2  -6   7 69027.2 5031.47   1
   6   2  -7 77638.2 5360.80   1
  -6  -2   7 75617.2 5313.10   1
  -8   2  -7 72764.0 5162.07   1
   8  -2   7 57741.6 4677.83   1
   8  -6   7 81141.6 5390.82   1
   2   6  -7 75619.1 5309.08   2
   6   2  -7 72435.3 5143.98   2
  -8   6  -7 69184.2 5158.64   1
  -8   2  -8 675.974 589.562   1
   2   6  -8-232.535 353.341   1
   6   2  -8 114.435 513.482   1
  -8   6  -8 20.5191 30.4868   1
  -2  -6   8-386.856 479.695   1
   8  -2   8-298.564 547.266   1
   2   6  -8 765.606 670.472   2
   6   2  -8 324.538 562.778   2
   8  -6   8 845.651 814.097   1
  -6  -2   8-208.784 413.600   1
   2   6  -9 39289.7 3997.37   1
  -2  -6   9 36541.0 3785.37   1
   6   2  -9 28211.1 3422.16   1
  -6  -2   9 35962.3 3729.78   1
   8  -2   9 38384.8 3860.00   1
  -8   2  -9 32458.7 3870.36   1
   8  -6   9 41869.8 4053.82   1
   2   6  -9 31350.5 3474.78   2
   6   2  -9 36135.6 3557.73   2
  -8   6  -9 40666.3 3954.06   1
   8  -2  10 24544.2 3150.89   1
   2   6 -10 31246.1 3672.61   1
  -2  -6  10 20415.7 2878.22   1
   6   2 -10 27350.4 3440.33   1
   8  -6  10 23926.0 3106.24   1
  -6  -2  10 23594.6 3088.42   1
   6   2 -10 22420.2 3108.74   2
   2   6 -10 25773.9 3222.20   2
  -8   2 -10 18277.0 3015.33   1
  -8   6 -10 26567.2 3357.99   1
  -8   6 -11 18960.9 2773.10   1
   2   6 -11 19885.1 2974.29   1
  -2  -6  11 18290.0 2788.55   1
   6   2 -11 18787.2 2907.19   1
  -6  -2  11 17255.5 2632.56   1
   8  -2  11 17663.9 2692.68   1
   8  -6  11 22829.2 3072.39   1
  -8   2 -11 14752.1 2796.28   1
   2   6 -11 20002.7 2844.06   2
   6   2 -11 17222.4 2736.90   2
   2   6 -12 3401.29 1278.03   1
  -8   2 -12 1746.02 954.398   1
   6   2 -12 2481.91 1212.74   1
  -2  -6  12 2401.98 1018.54   1
   8  -6  12 3113.68 1047.12   1
  -8   6 -12 2914.70 1005.39   1
  -6  -2  12 2203.32 863.650   1
   2   6 -12 2158.52 731.957   2
   8  -2  12 1753.54 772.967   1
   6   2 -12 2907.32 1203.90   2
   2   6 -13 4792.79 1480.58   1
   6   2 -13 5858.20 1629.72   1
  -8   2 -13 4907.36 1565.94   1
  -2  -6  13 5970.75 1664.87   1
  -6  -2  13 6512.47 1665.45   1
  -8   6 -13 7182.42 1779.36   1
   2   6 -13 6377.77 1688.60   2
   8  -2  13 5257.11 1546.97   1
   6   2 -13 4553.47 1497.25   2
   8  -6  13 5221.20 1478.82   1
   2   6 -14 17888.2 2881.95   1
  -2  -6  14 21042.9 3121.43   1
   6   2 -14 27654.8 3613.96   1
  -8   6 -14 25767.1 3417.46   1
  -6  -2  14 25586.6 3332.98   1
   8  -2  14 20812.8 3100.12   1
   8  -6  14 26781.0 3496.15   1
   6   2 -14 24288.8 3349.64   2
  -8   2 -14 26977.9 3527.93   1
   2   6 -14 23803.6 3274.93   2
   2   6 -15 803.481 407.995   1
   6   2 -15 1386.90 919.022   1
  -8   2 -15 302.521 474.516   1
  -2  -6  15 93.1217 339.766   1
  -6  -2  15 447.945 146.879   1
   2   6 -15 883.706 575.295   2
  -8   6 -15 1396.19 891.243   1
   6   2 -15 455.636 258.770   2
   8  -2  15-369.404 409.445   1
   8  -6  15 741.278 514.086   1
   2   6 -16 8842.50 2121.82   1
   6   2 -16 7637.68 1991.07   1
  -8   2 -16 7593.48 2056.82   1
  -2  -6  16 8216.25 2034.58   1
  -6  -2  16 11170.5 2163.81   1
   2   6 -16 8295.89 1998.13   2
   6   2 -16 6333.44 1961.85   2
  -8   6 -16 9162.54 2235.47   1
   8  -2  16 9206.70 2052.07   1
   8  -6  16 9334.41 2133.62   1
  -8   2 -17 1643.62 828.052   1
  -7   8 -16 24143.5 3738.85   2
   1  -8  16 29877.6 3896.01   1
  -1   8 -16 24229.3 3593.64   1
   7  -8  15 77.4491 147.061   1
  -1   8 -15 2144.75 1142.71   1
   1  -8  15 1294.54 787.221   1
  -7   8 -15 1085.90 868.623   1
   8  -1 -15 1395.99 749.998   1
  -1   8 -15 902.016 647.712   2
  -7   8 -15 587.572 543.388   2
  -8   1  15 669.026 672.832   1
   8  -1 -15-507.530 566.585   2
   7  -8  14 687.100 691.331   1
  -1   8 -14 806.237 448.686   1
   1  -8  14 827.281 531.141   1
  -7   8 -14 1403.45 802.066   1
   8  -1 -14 1068.72 860.764   1
  -7   8 -14 501.965 524.422   2
  -1   8 -14 1100.51 664.091   2
  -8   1  14 1359.64 828.721   1
   8  -1 -14 583.109 390.549   2
   7  -8  13 6.40687 442.411   1
  -1   8 -13-202.410 535.726   1
  -7   8 -13 711.248 727.250   1
   1  -8  13 457.625 529.885   1
   8  -1 -13-156.117 585.631   1
  -7   8 -13 882.248 317.323   2
  -1   8 -13-857.704 692.566   2
  -8   1  13 75.3956 326.082   1
   8  -1 -13 315.389 411.993   2
   8  -7 -13-11.5757 658.400   2
   8  -1 -12 47364.8 4589.82   1
  -7   8 -12 48215.6 4606.34   1
  -8   1  12 55923.2 4894.41   1
  -7   8 -12 34514.4 4278.83   2
  -1   8 -12 46273.0 4636.70   2
   7  -8  12 47564.1 4541.36   1
   8  -1 -12 49162.6 4558.85   2
   1  -8  12 50920.5 4935.57   1
  -1   8 -12 41889.9 4586.28   1
  -7   8 -11-14.9324 299.110   1
  -1   8 -11 885.393 451.027   1
  -1   8 -11 54.9575 224.712   2
   1  -8  11 402.815 739.162   1
  -7   8 -11-279.419 606.361   2
   8  -1 -11 206.641 366.780   1
   8  -7 -11 354.670 461.108   1
   8  -1 -11-9.42707 196.050   2
  -8   1  11-74.2848 509.689   1
   7  -8  11-161.006 276.176   1
  -7   8 -10 1849.38 865.830   1
  -8   1  10 2938.33 1213.93   1
  -1   8 -10 2958.72 1157.86   1
  -8   7  10 2127.53 933.552   1
   1  -8  10 2194.67 802.084   1
   8  -1 -10 1975.79 900.746   1
   8  -7 -10 3608.77 1249.43   1
  -7   8 -10 2936.04 1234.64   2
  -1   8 -10 3372.71 1153.10   2
   8  -1 -10 2717.65 925.787   2
   7  -8  10 2952.74 1158.73   1
  -8   1   9 1294.09 742.681   1
  -1   8  -9 1481.87 820.177   1
  -8   7   9 954.762 438.147   1
  -7  -1  -9 1620.98 907.131   1
   1  -8   9 1737.40 917.324   1
   8  -1  -9 419.609 443.343   1
   8  -7  -9 881.210 500.741   1
  -7   8  -9 394.008 363.247   2
  -1   8  -9 1383.00 700.330   2
   8  -1  -9 1130.50 527.715   2
  -7   8  -9 787.322 807.299   1
   7  -8   9 3008.79 1150.44   1
  -7   8  -8 131156. 7199.75   1
   8  -1  -8 115699. 6606.93   1
   8  -7  -8 112739. 6750.00   1
  -7  -1  -8 147964. 7565.75   1
   7   1   8 129332. 6956.87   1
  -8   1   8 127740. 6866.24   1
  -7   8  -8 88147.4 6244.70   2
  -1   8  -8 128808. 7154.51   2
  -8   7   8 120547. 6661.13   1
   7  -8   8 126721. 7166.39   1
   8  -1  -8 114110. 6540.50   2
   1  -8   8 131628. 7229.48   1
  -1   8  -8 121367. 7027.16   1
  -8   1   7 1248.62 656.353   1
   1  -8   7 2238.29 903.286   1
  -7  -1  -7 2253.62 1006.52   1
  -8   7   7 4610.91 1238.48   1
   8  -1  -7 1522.71 769.891   1
   8  -7  -7 2331.91 1075.27   1
   7   1   7 2415.76 741.276   1
  -7   8  -7 1403.20 464.851   1
  -1   8  -7 3466.11 1153.96   2
  -7   8  -7 2801.53 853.711   2
   8  -1  -7 3363.73 1036.35   2
   7  -8   7 3031.14 1127.73   1
  -7  -1  -6 30105.9 3368.95   1
   8  -1  -6 18073.5 2591.33   1
   8  -7  -6 17774.9 2585.11   1
   7   1   6 21924.8 2767.76   1
  -1   8  -6 17544.2 2653.70   2
   7  -8   6 22117.2 2854.27   1
  -8   1   6 20834.2 2721.77   1
  -8   7   6 20065.8 2556.19   1
   8  -1  -6 19684.2 2667.64   2
  -7   8  -6 20755.0 2789.46   1
  -7  -1  -5 449.644 443.881   1
  -8   1   5 262.378 128.109   1
  -7   8  -5 133.783 188.485   1
   8  -1  -5 652.085 481.591   1
  -8   7   5 874.504 460.524   1
   8  -7  -5 470.897 396.157   1
   7   1   5 928.089 738.790   1
  -1   8  -5-509.166 219.806   2
   7  -8   5 540.440 192.924   1
   8  -1  -5 246.619 236.607   2
  -7  -1  -4 262105. 9582.90   1
   8  -1  -4 240033. 9374.35   1
   8  -7  -4 211357. 8682.38   1
   7   1   4 261352. 9540.81   1
   7  -8   4 287549. 10175.4   1
  -1   8  -4 254952. 9814.88   2
  -7   8  -4 238257. 9200.68   1
  -8   1   4 251673. 9343.89   1
   8  -1  -4 270832. 9719.77   2
  -8   7   4 252461. 9308.31   1
  -1   8  -3 3197.87 1054.77   2
  -7   8  -3 3587.65 1016.42   1
  -8   1   3 4161.67 1214.90   1
   8  -1  -3 3578.03 1040.59   1
   7   1   3 3051.92 1041.85   1
   8  -7  -3 3532.37 1155.42   1
   7  -8   3 4085.25 1184.35   1
  -7  -1  -3 4281.76 1267.57   1
  -8   7   3 3517.82 1102.66   1
   7   1   3 1840.69 748.879   2
   8  -1  -3 3331.36 1160.81   2
  -8   7   2 129118. 6593.51   1
   8  -1  -2 111286. 6258.16   1
   7   1   2 110714. 6104.14   1
   8  -7  -2 104179. 6152.78   1
   7  -8   2 105506. 6087.29   1
  -7   8  -2 110116. 6004.99   1
  -1   8  -2 107948. 6198.90   2
   7   1   2 73467.6 4699.25   2
   8  -1  -2 115174. 6321.35   2
  -8   1   2 105310. 5916.59   1
  -7  -1  -2 75106.9 5078.64   1
  -8   7   1-149.962 276.186   1
   8  -1  -1-269.834 347.817   1
   7   1   1 168.060 193.137   1
   8  -7  -1 235.262 450.754   1
  -1   8  -1 42.0977 134.761   2
  -8   1   1 474.302 572.261   1
   1   7   1 63.5541 416.762   2
   7  -8   1 149.816 161.140   1
  -7  -1  -1-69.2006 248.905   1
  -7   8  -1-120.471 257.362   1
   7   1   1 381.929 216.354   2
   8  -1  -1-1345.43 904.547   2
  -8   7   0 90422.0 5506.29   1
   7   1   0 98711.5 5785.56   1
  -7   8   0 81903.9 5222.93   1
   8  -1   0 90505.2 5448.63   1
   8  -7   0 83670.1 5464.59   1
   7  -8   0 99569.9 5850.25   1
  -1   8   0 80178.9 5247.00   2
   1   7   0 87805.1 5358.78   2
   7   1   0 83702.5 5122.27   2
  -7  -1   0 83493.3 5132.89   1
   8  -1   0 73536.4 5270.73   2
  -8   1   0 78725.4 5119.91   1
  -7   8   1-120.386 539.930   1
  -7  -1   1 313.008 394.835   1
   7   1  -1 152.985 182.712   1
  -8   7  -1-819.695 646.046   1
   8  -1   1 54.2119 232.721   1
  -1   8   1 564.168 420.758   2
   7  -8  -1-102.821 418.282   1
   8  -7   1-90.0252 221.336   1
   1   7  -1-29.8847 395.561   2
  -8   1  -1 183.742 372.514   1
   7   1  -1-99.8626 267.543   2
   8  -1   1 85.5895 174.202   2
  -8   1  -2 80815.1 5234.01   1
  -7   8   2 84950.1 5182.85   1
   7   1  -2 96732.8 5723.20   1
   8  -1   2 82213.9 5385.79   1
   7  -8  -2 102809. 5889.82   1
  -8   7  -2 85935.3 5360.90   1
   8  -7   2 74716.2 5304.46   1
  -1   8   2 74444.9 4960.15   2
   1   7  -2 81626.4 5333.77   2
  -7  -1   2 79983.8 5278.96   1
   7   1  -2 78527.0 5020.82   2
  -8   7  -3 1652.43 867.855   1
  -8   1  -3 2369.83 913.635   1
  -7  -1   3 3155.14 1044.25   1
   7   1  -3 1561.49 766.186   1
   7  -8  -3 1921.13 781.386   1
   1   7  -3 1621.80 866.541   2
   8  -1   3 1239.76 442.687   1
   8  -7   3 2095.32 807.054   1
   7   1  -3 2221.88 695.088   2
  -7   8   3 2151.33 822.064   1
   8  -7   4 300408. 10550.7   1
  -8   1  -4 345287. 11191.8   1
   7   1  -4 336303. 10917.7   1
   7  -8  -4 324036. 10449.5   1
   1   7  -4 321791. 10771.4   2
   8  -1   4 371442. 11483.1   1
  -8   7  -4 341235. 10944.1   1
  -7  -1   4 329617. 10825.6   1
   7   1  -4 316909. 10373.9   2
  -7   8   4 290857. 9500.72   1
  -7  -1   5 1500.23 835.287   1
  -8   7  -5 4034.64 1225.77   1
   7  -8  -5 2076.20 885.250   1
  -8   1  -5 1870.41 871.633   1
   7   1  -5 4458.52 1218.61   1
  -7   8   5 3545.47 1068.19   1
   8  -1   5 3357.09 1082.21   1
   1   7  -5 2803.58 791.522   2
   8  -7   5 2915.00 1029.54   1
   7   1  -5 2839.01 993.918   2
  -7  -1   6 1117.91 405.136   1
  -8   7  -6 532.635 180.457   1
   7   1  -6 1382.46 942.071   1
  -1  -7   6 1076.81 652.952   1
  -8   1  -6 398.337 446.580   1
   8  -1   6 640.220 480.124   1
   1   7  -6 702.625 539.967   2
   8  -7   6 605.866 342.571   1
   7   1  -6 392.991 228.055   2
  -7  -1   7 566.195 422.915   1
   1   7  -7 890.649 671.434   1
   7   1  -7 353.207 292.054   1
  -1  -7   7 488.686 516.205   1
  -8   7  -7 181.021 377.089   1
  -8   1  -7 313.545 214.706   1
   8  -1   7-116.571 269.309   1
   1   7  -7 509.053 375.501   2
   8  -7   7-233.073 585.635   1
   7   1  -7 476.173 368.332   2
  -1  -7   8 94700.7 6092.59   1
   1   7  -8 99782.8 6215.01   1
   7   1  -8 94451.3 6151.85   1
  -8   1  -8 79889.3 5837.01   1
  -7  -1   8 101099. 6303.21   1
   8  -1   8 94957.8 6087.32   1
   7   1  -8 85073.4 5690.65   2
   8  -7   8 98083.4 6116.96   1
   1   7  -8 96124.0 6227.33   2
  -8   7  -8 96385.5 6121.79   1
   1   7  -9 3573.06 1200.61   1
   7   1  -9 3149.48 1206.89   1
  -1  -7   9 2983.99 1065.16   1
  -8   7  -9 3186.83 1155.74   1
   1   7  -9 3044.10 1170.30   2
   8  -1   9 4378.87 1312.05   1
   7   1  -9 4006.08 1291.95   2
  -8   1  -9 3035.60 1191.15   1
   8  -7   9 3112.34 1097.30   1
  -7  -1   9 3553.74 1176.56   1
   1   7 -10 2782.10 1042.91   1
   7   1 -10 3012.35 930.268   1
  -1  -7  10 2690.03 1171.35   1
  -8   7 -10 3092.66 1198.87   1
   1   7 -10 3247.54 1186.46   2
   8  -1  10 2595.20 1141.26   1
   7   1 -10 2149.61 888.393   2
   8  -7  10 2796.59 1059.14   1
  -7  -1  10 3430.88 1162.28   1
  -8   1 -10 2854.44 1076.42   1
  -8   1 -11 906.158 720.829   1
   1   7 -11 126.230 205.390   1
   7   1 -11 627.470 592.453   1
  -1  -7  11-351.660 481.152   1
  -8   7 -11 813.664 884.208   1
   1   7 -11-646.426 594.373   2
   8  -1  11-898.147 839.915   1
   7   1 -11 700.075 738.271   2
  -7  -1  11 829.513 697.127   1
   8  -7  11 96.6808 647.282   1
  -1  -7  12 55280.7 4997.84   1
   1   7 -12 44022.4 4728.89   1
  -8   7 -12 54669.6 4841.24   1
   7   1 -12 55377.4 5033.06   1
  -7  -1  12 50692.0 4649.49   1
   8  -1  12 45236.8 4501.35   1
  -8   1 -12 43454.9 4642.86   1
   1   7 -12 52423.4 4831.19   2
   8  -7  12 53270.4 4708.39   1
   7   1 -12 47339.7 4626.42   2
  -8   1 -13-399.496 565.054   1
   1   7 -13 168.279 349.807   1
   7   1 -13-629.785 538.459   1
  -1  -7  13 509.784 774.645   1
   1   7 -13-421.491 720.929   2
  -7  -1  13 111.459 330.954   1
   8  -1  13-536.985 671.346   1
  -8   7 -13-72.8576 509.292   1
   7   1 -13 205.989 300.049   2
   8  -7  13 141.097 617.654   1
   1   7 -14 1298.17 834.691   1
  -8   1 -14 1148.83 774.633   1
   7   1 -14-121.769 583.890   1
  -1  -7  14 1114.18 743.416   1
   1   7 -14 723.034 782.085   2
  -7  -1  14 522.402 250.005   1
   8  -1  14 220.766 183.702   1
   7   1 -14 491.483 466.175   2
  -8   7 -14 169.103 189.622   1
   8  -7  14 1323.75 788.948   1
   1   7 -15 512.738 433.280   1
   7   1 -15-710.554 641.306   1
  -1  -7  15-729.255 797.222   1
  -7  -1  15 1119.74 826.508   1
   1   7 -15-561.591 228.933   2
   7   1 -15 820.713 840.227   2
  -8   7 -15 1157.36 928.504   1
   8  -7  15 288.444 469.948   1
   1   7 -16 22470.2 3527.67   1
  -1  -7  16 28455.8 3805.73   1
  -8   8   0 1182.72 488.104   1
   8   0   0 1776.51 701.545   1
  -8   0   0 1324.09 662.627   1
   0   8   0 1825.20 996.767   2
   8  -8   0 1240.05 372.023   1
   8   0   0 2337.61 1032.16   2
  -8   8   1 64125.5 4682.04   1
   8   0  -1 64539.3 4763.63   1
  -8   8  -1 70721.5 5094.65   1
   8   0   1 63966.6 4782.40   1
   8  -8  -1 60275.1 4749.33   1
   8  -8   1 56893.2 4652.61   1
   0   8  -1 60055.6 4737.86   2
   8   0  -1 61688.3 4676.01   2
   8   0   1 55486.3 4494.04   2
  -8   0   1 56117.6 4424.70   1
  -8   0  -1 61334.2 4640.75   1
  -8   8   2 109821. 6178.19   1
   8   0  -2 92258.7 5732.81   1
   8   0   2 94921.5 5846.27   1
   8  -8  -2 121475. 6753.90   1
  -8   8  -2 93253.4 5736.75   1
   8  -8   2 99333.1 6191.71   1
   0   8  -2 94697.6 6002.37   2
  -8   0   2 95907.7 5689.93   1
   8   0  -2 109091. 6297.89   2
   8   0   2 79926.5 5206.74   2
  -8   0  -2 78120.2 5367.76   1
  -8   8  -3 5540.73 1550.60   1
  -8   0   3 9725.65 1855.79   1
   8   0  -3 8029.89 1691.07   1
   8  -8  -3 12379.5 2061.97   1
   8   0   3 12094.4 2036.65   1
   0   8  -3 10521.0 2032.12   2
   8  -8   3 11001.6 2088.19   1
  -8   8   3 8907.11 1786.96   1
   8   0  -3 10517.4 1947.27   2
  -8   0  -3 9888.72 1997.77   1
   8   0   3 3580.81 1213.12   2
  -8   0  -4 14387.4 2259.07   1
  -8   8  -4 7932.48 1857.18   1
   8  -8  -4 13296.7 2235.08   1
   8   0  -4 13774.5 2214.65   1
   8  -8   4 15790.5 2482.32   1
   8   0   4 10874.2 2041.36   1
  -8   0   4 11704.8 2087.20   1
   0   8  -4 11025.3 2128.73   2
   8   0  -4 9589.57 1856.26   2
  -8   8   4 10447.8 1977.59   1
  -8   0  -5 28117.5 3266.09   1
   8   0  -5 21528.5 2803.19   1
   8  -8  -5 23621.8 3035.51   1
   8   0   5 24965.5 3087.10   1
   8  -8   5 19146.6 2745.46   1
   0   8  -5 19839.2 2822.94   2
  -8   0   5 22846.5 2826.73   1
  -8   8  -5 22151.2 2989.18   1
   8   0  -5 20854.8 2733.42   2
  -8   8   5 20042.0 2672.06   1
  -8   0  -6 106882. 6479.22   1
   8   0  -6 88699.0 5894.79   1
   8  -8  -6 90512.5 5898.03   1
   8   0   6 63125.2 4971.08   1
  -8   0   6 88380.0 5775.11   1
   8  -8   6 95466.3 6121.24   1
   0   8  -6 89905.6 6016.48   2
  -8   8  -6 87993.6 5852.05   1
  -8   8   6 85507.1 5364.36   1
   8   0  -6 71969.1 5160.07   2
   8   0  -7 21815.9 2973.34   1
  -8   0  -7 26487.4 3187.00   1
   8  -8  -7 20666.0 2827.98   1
   8   0   7 20623.4 2893.05   1
  -8   0   7 20749.5 2854.97   1
   8  -8   7 20110.6 2874.29   1
   0   8  -7 21186.4 2964.63   2
  -8   8   7 18864.7 2559.10   1
   8   0  -7 18554.0 2570.88   2
  -8   8  -7 21430.2 3000.93   1
   8   0  -8 14181.8 2377.39   1
  -8   0  -8 20905.3 2988.21   1
   8   0   8 15103.7 2402.02   1
  -8   0   8 14436.8 2409.36   1
  -8   8  -8 14976.6 2500.16   1
   0   8  -8 17854.3 2721.06   2
   8   0  -8 14539.6 2266.77   2
   8  -8   8 12457.6 2308.74   1
  -8   0   9 2184.64 1059.67   1
   0  -8   9 1992.49 989.256   1
   8   0  -9 2014.36 891.681   1
  -8   0  -9 1922.33 811.031   1
  -8   8  -9 1674.52 804.483   1
   8   0   9 2244.19 1014.10   1
   0   8  -9 2126.13 984.288   2
   8   0  -9 1209.83 595.849   2
   8  -8   9 1636.12 754.378   1
   0   8 -10 27782.4 3595.51   1
  -8   8 -10 32983.6 3763.13   1
   8   0 -10 26871.4 3453.62   1
  -8   0 -10 31629.2 3740.13   1
  -8   0  10 33389.7 3772.20   1
   8   0  10 25626.3 3446.69   1
   0   8 -10 26370.9 3422.45   2
   8  -8  10 30298.0 3592.02   1
   8   0 -10 27925.2 3417.78   2
   0  -8  10 29149.6 3665.87   1
   0   8 -11 16722.7 2870.82   1
  -8   8 -11 18954.2 2760.05   1
   8   0 -11 18115.5 2802.92   1
  -8   0 -11 15163.0 2689.05   1
  -8   0  11 19285.2 2862.40   1
   0   8 -11 19123.0 2967.30   2
   8  -8  11 20182.4 2947.73   1
   8   0 -11 18084.6 2799.62   2
   0  -8  11 17244.8 2824.03   1
   0   8 -12 1099.07 611.537   1
   0  -8  12 803.365 660.458   1
   8   0 -12 498.948 458.343   1
   0   8 -12 17.0590 519.414   2
  -8   8 -12 796.333 623.011   1
   8   0 -12 1406.04 845.104   2
  -8   0  12 2752.36 1027.90   1
   8  -8  12 1119.14 700.116   1
   8  -8 -12-173.490 222.099   2
   0   8 -13 11437.9 2445.87   1
   8   0 -13 18759.0 2923.16   1
  -8   8 -13 20000.0 2973.73   1
  -8   0  13 16669.7 2715.70   1
   0   8 -13 13662.8 2622.61   2
   8   0 -13 15498.8 2611.92   2
   0  -8  13 16366.3 2892.76   1
   8  -8  13 15093.3 2677.32   1
   8   0 -14 25649.4 3501.54   1
  -8   8 -14 24470.5 3438.55   1
  -8   0  14 25002.1 3350.92   1
   0   8 -14 21356.1 3173.60   2
   8  -8  14 26553.5 3399.47   1
   8   0 -14 22604.7 3329.17   2
   0  -8  14 17760.9 3079.24   1
   0   8 -14 17838.0 2944.86   1
   0   8 -15 2965.74 1326.69   1
   0  -8  15 4035.21 1438.78   1
   9  -5 -16 2476.99 1060.91   1
  -9   5  16 2223.10 1061.15   1
   9  -5 -16 2419.22 1019.99   2
   5  -9  15 1910.58 958.198   1
   4  -9  15 2623.55 1173.61   1
   9  -4 -15 2162.47 1048.87   1
   9  -5 -15 1234.28 814.952   1
  -4   9 -15 22.9308 699.336   1
  -5   9 -15 1162.50 779.091   1
  -5   9 -15 2256.44 1121.01   2
  -4   9 -15 2107.41 1068.37   2
  -9   4  15 1449.95 709.477   1
  -9   5  15 4377.64 1452.66   1
   9  -4 -15 1363.43 624.837   2
   9  -5 -15 1232.48 435.890   2
   9  -4 -14 35982.6 4194.26   1
   9  -5 -14 33423.8 3925.66   1
  -4   9 -14 10103.4 2237.24   1
  -9   4  14 42363.5 4284.31   1
  -9   5  14 29183.6 3728.74   1
  -4   9 -14 32850.1 4096.10   2
  -5   9 -14 10720.8 2268.11   1
  -5   9 -14 30125.7 3756.52   2
   5  -9  14 37151.8 4333.77   1
   4  -9  14 33789.9 4028.68   1
   9  -4 -14 31594.3 3737.20   2
   9  -5 -14 25160.2 3339.32   2
   9  -4 -13 28978.3 3730.70   1
   9  -5 -13 24999.3 3461.13   1
  -4   9 -13 10548.8 2270.44   1
  -9   4  13 29775.7 3640.57   1
  -5   9 -13 14240.5 2612.78   1
  -9   5  13 30715.1 3763.57   1
  -5   9 -13 26041.4 3387.60   2
  -4   9 -13 31084.3 3823.45   2
   5  -9  13 30108.4 3727.38   1
   4  -9  13 27795.8 3719.33   1
   9  -4 -13 28573.3 3528.24   2
   9  -5 -13 22029.7 3156.64   2
  -9   4  12 6222.14 1592.20   1
  -9   5  12 6306.88 1695.42   1
   5  -9  12 7355.37 1925.73   1
   4  -9  12 5974.07 1742.97   1
  -5   9 -12 4954.25 1526.80   1
   9  -4 -12 5989.14 1626.76   1
   9  -5 -12 6667.65 1811.71   1
  -5   9 -12 4942.53 1525.07   2
  -4   9 -12 4712.37 1512.66   2
  -4   9 -12 2925.60 1271.80   1
   9  -4 -12 6048.86 1547.23   2
   9  -5 -12 5202.77 1357.89   2
   9  -4 -11 27162.1 3425.69   1
   9  -5 -11 30804.1 3635.86   1
  -9   4  11 32090.6 3613.47   1
  -9   5  11 43565.6 4120.12   1
  -5   9 -11 27106.0 3535.95   2
  -4   9 -11 28484.4 3687.01   2
  -5   9 -11 15449.9 2718.97   1
   5  -9  11 32851.7 3864.03   1
   4  -9  11 32416.4 3919.06   1
   9  -4 -11 30516.4 3526.42   2
   9  -5 -11 20393.6 2902.42   2
  -4   9 -11 17886.3 3107.68   1
   9  -4 -10 53949.8 4705.52   1
   9  -5 -10 52539.3 4722.16   1
  -9   4  10 55216.4 4736.66   1
  -9   5  10 50687.6 4513.09   1
  -4   9 -10 55178.0 4977.23   2
  -5   9 -10 51235.4 4670.71   2
   5  -9  10 62705.3 5344.69   1
   4  -9  10 65060.4 5283.79   1
   9  -4 -10 50875.5 4532.40   2
   9  -5 -10 51904.4 4618.25   2
   5  -9   9 8088.34 1979.07   1
   4  -9   9 6798.76 1831.61   1
  -9   4   9 8805.78 1908.43   1
  -9   5   9 6351.66 1607.53   1
   9  -4  -9 7297.78 1690.69   1
   9  -5  -9 6923.52 1654.00   1
  -5   9  -9 7865.30 1911.05   2
  -4   9  -9 6700.89 1684.81   2
  -5   9  -9 4243.01 1471.63   1
  -4   9  -9 3020.47 1176.11   1
   9  -4  -9 5995.85 1670.11   2
   9  -5  -9 6197.52 1865.08   2
   5  -9   8 2762.42 922.316   1
   4  -9   8 2031.38 947.314   1
  -9   4   8 1675.71 515.004   1
  -9   5   8 1311.42 658.925   1
  -4   9  -8 1735.04 897.245   1
   9  -4  -8 1359.50 646.290   1
   9  -5  -8 2964.23 1178.08   1
  -5   9  -8 1338.26 609.846   1
  -5   9  -8 1202.06 680.017   2
  -4   9  -8 3011.19 1133.54   2
   9  -4  -8 3290.71 1255.82   2
   5  -9   7 2064.09 769.395   1
   4  -9   7 1590.32 861.629   1
  -4   9  -7 545.738 114.571   1
  -9   4   7 1996.62 859.054   1
  -5   9  -7 1058.00 711.489   1
  -9   5   7 849.834 266.984   1
   9  -4  -7 1227.76 556.614   1
   9  -5  -7 1637.81 762.335   1
  -5   9  -7 1375.99 938.512   2
  -4   9  -7 1696.56 708.415   2
   9  -4  -7 2283.57 1049.60   2
   9  -4  -6 28451.2 3327.98   1
   9  -5  -6 28438.5 3313.61   1
  -5   9  -6 29929.6 3344.45   1
  -4   9  -6 21224.3 2804.54   1
  -5   9  -6 30465.9 3448.63   2
  -4   9  -6 24844.1 3316.69   2
   5  -9   6 26657.1 3324.79   1
   4  -9   6 32969.7 3587.29   1
  -9   4   6 28562.7 3233.88   1
  -9   5   6 29433.1 3191.79   1
   4  -9   5 3886.17 1271.52   1
  -9   4   5 3103.33 1039.25   1
   9  -4  -5 3094.18 896.846   1
   9  -5  -5 3347.03 1121.54   1
  -9   5   5 1790.59 726.916   1
  -5   9  -5 2354.96 1079.15   2
  -4   9  -5 3159.72 1255.60   2
  -5   9  -5 3219.05 964.157   1
   5  -9   5 3903.47 1311.67   1
  -5   9  -4 19805.0 2589.43   1
  -5   9  -4 14546.3 2470.72   2
   9  -4  -4 19470.5 2649.27   1
   9  -5  -4 19309.4 2679.58   1
  -4   9  -4 15330.7 2505.60   2
   5  -9   4 20431.8 2632.36   1
  -9   4   4 17028.4 2467.94   1
  -9   5   4 17410.7 2362.55   1
   9  -4  -3 49318.8 4325.66   1
   9  -5  -3 45529.0 4014.05   1
  -5   9  -3 46042.0 4279.76   2
  -4   9  -3 37321.1 4023.62   2
   5  -9   3 51560.0 4135.12   1
  -9   4   3 46679.6 4101.11   1
  -9   5   3 53548.0 4355.29   1
  -9   5   2 137379. 7022.37   1
   9  -4  -2 131506. 6861.72   1
   9  -5  -2 130665. 6922.27   1
  -5   9  -2 130125. 7456.11   2
  -9   4   2 135946. 6848.22   1
  -9   4   1 102238. 5996.22   1
  -9   5   1 94448.7 5784.01   1
   9  -4  -1 103687. 6119.26   1
   9  -5  -1 95575.5 6053.79   1
  -5   9  -1 79174.3 5680.46   2
  -4   9  -1 96906.0 6262.03   2
  -9   4   0 11228.2 2013.33   1
  -9   5   0 10840.9 1971.34   1
  -4   9   0 12179.9 2169.12   2
   9  -4   0 11688.8 2046.91   1
   4   5   0 13810.2 2029.08   2
   9  -5   0 12944.6 2049.09   1
   5   4   0 7192.24 1594.06   2
  -9   4  -1 30871.6 3280.29   1
   5   4  -1 29501.8 2993.80   1
  -9   5  -1 32083.3 3381.62   1
   9  -4   1 36129.4 3558.42   1
   9  -5   1 31966.0 3445.07   1
  -5  -4   1 29117.1 3054.21   1
  -4   9   1 30571.6 3527.12   2
   4   5  -1 30488.2 3087.00   2
   5   4  -1 27880.9 3119.45   2
   5   4  -2 236005. 8815.24   1
  -9   4  -2 193959. 8308.79   1
  -9   5  -2 195922. 8328.45   1
   9  -4   2 205109. 8643.71   1
  -5  -4   2 238371. 9147.70   1
   9  -5   2 196743. 8506.75   1
   4   5  -2 200113. 8240.08   2
   5   4  -2 244939. 9234.07   2
   5   4  -3 25526.8 3026.25   1
  -9   4  -3 25356.4 3085.36   1
  -4  -5   3 26413.5 2990.42   1
  -9   5  -3 23063.9 2933.15   1
  -5  -4   3 25846.6 3015.72   1
   9  -4   3 20763.4 2724.20   1
   9  -5   3 22576.2 2863.36   1
   4   5  -3 27426.2 3098.68   2
   5   4  -3 23209.1 2979.93   2
   4   5  -4 16919.6 2501.79   1
   5   4  -4 15862.1 2391.38   1
  -4  -5   4 15230.0 2285.47   1
  -9   4  -4 16017.0 2463.12   1
  -5  -4   4 13241.1 2162.68   1
  -9   5  -4 15290.3 2384.73   1
   4   5  -4 15138.2 2369.65   2
   5   4  -4 14164.1 2433.71   2
   9  -4   4 15382.8 2279.72   1
   9  -5   4 14150.7 2320.03   1
   4   5  -5 25583.6 3128.13   1
   5   4  -5 22323.1 2840.76   1
  -4  -5   5 24156.9 2931.98   1
  -5  -4   5 23961.5 2941.29   1
  -9   4  -5 16779.7 2628.75   1
  -9   5  -5 22411.5 2794.94   1
   9  -4   5 19927.7 2743.17   1
   9  -5   5 21781.6 2902.16   1
   4   5  -5 18616.8 2719.21   2
   5   4  -5 19047.7 2708.17   2
   4   5  -6 26990.1 3260.50   1
   5   4  -6 27386.1 3346.27   1
  -4  -5   6 27231.2 3229.57   1
  -5  -4   6 25196.4 3075.40   1
  -9   4  -6 23156.4 2987.54   1
   9  -4   6 25814.8 3207.32   1
  -9   5  -6 21151.2 2912.14   1
   9  -5   6 24484.3 3128.17   1
   4   5  -6 23362.0 2956.52   2
   5   4  -6 21206.6 2931.02   2
  -9   4  -7-618.814 538.913   1
  -9   5  -7 158.850 579.269   1
   4   5  -7 896.810 709.074   1
   5   4  -7 1244.40 860.963   1
  -4  -5   7 708.575 644.323   1
   9  -4   7 91.5105 240.469   1
   9  -5   7 791.620 536.576   1
  -5  -4   7 1398.04 642.281   1
   4   5  -7 359.599 273.279   2
   5   4  -7 874.183 456.507   2
  -9   4  -8 3378.01 1242.13   1
  -9   5  -8 4055.21 1300.75   1
   4   5  -8 4243.84 1192.75   1
   5   4  -8 3937.24 1285.25   1
  -4  -5   8 3439.28 1345.90   1
  -5  -4   8 3311.29 1142.49   1
   9  -4   8 4437.64 1372.85   1
   9  -5   8 2423.76 1148.44   1
   4   5  -8 5002.83 1450.34   2
   5   4  -8 3829.89 1261.81   2
  -9   4  -9 5490.33 1357.73   1
  -9   5  -9 7655.74 1924.86   1
   4   5  -9 8870.07 2006.27   1
   5   4  -9 7449.98 1710.15   1
  -4  -5   9 7843.13 1848.00   1
  -5  -4   9 7202.77 1690.70   1
   9  -4   9 7420.68 1741.44   1
   4   5  -9 8291.07 1873.91   2
   9  -5   9 6736.70 1702.09   1
   5   4  -9 7810.46 1814.65   2
   4   5 -10 47759.1 4614.41   1
   5   4 -10 43045.2 4506.03   1
  -4  -5  10 45137.6 4440.60   1
  -5  -4  10 43473.1 4328.85   1
   9  -5  10 36849.4 3830.05   1
   9  -4  10 42921.0 4246.39   1
   4   5 -10 41522.7 4194.96   2
  -9   5 -10 41855.0 4358.38   1
   5   4 -10 45336.1 4433.45   2
  -9   4 -10 39056.4 4112.84   1
   4   5 -11 30043.0 3759.24   1
   5   4 -11 35228.8 4052.26   1
  -4  -5  11 35542.5 4028.84   1
  -5  -4  11 39657.0 4165.80   1
  -9   4 -11 39217.5 4216.51   1
   9  -4  11 33108.8 3701.88   1
   9  -5  11 40936.0 4164.39   1
   4   5 -11 39288.1 3930.30   2
   5   4 -11 37377.4 3961.30   2
  -9   5 -11 39316.3 4143.08   1
   4   5 -12 7224.34 1916.54   1
   5   4 -12 5876.28 1649.10   1
  -9   4 -12 7545.69 1784.89   1
  -9   5 -12 10532.1 2103.28   1
  -4  -5  12 5825.35 1682.33   1
  -5  -4  12 5451.07 1553.89   1
   4   5 -12 8365.64 2023.48   2
   5   4 -12 7490.69 1976.81   2
   9  -4  12 6398.27 1668.23   1
   9  -5  12 9406.02 1889.94   1
   4   5 -13 13854.5 2612.82   1
  -5  -4  13 15199.3 2672.91   1
   5   4 -13 12537.1 2434.83   1
  -4  -5  13 15024.8 2584.28   1
   4   5 -13 16468.0 2699.77   2
  -9   4 -13 14611.2 2623.92   1
  -9   5 -13 19986.1 2910.50   1
   5   4 -13 12408.9 2513.13   2
   9  -4  13 13602.8 2482.26   1
   9  -5  13 12749.4 2354.64   1
   4   5 -14 43490.6 4617.54   1
   5   4 -14 50651.8 4938.77   1
  -4  -5  14 47869.0 4752.92   1
  -5  -4  14 50384.4 4875.61   1
   9  -4  14 44084.9 4533.81   1
   9  -5  14 56473.8 5110.34   1
   4   5 -14 50367.9 4754.29   2
   5   4 -14 50545.5 4757.75   2
  -9   4 -14 51058.0 4869.88   1
  -9   5 -14 51984.1 4949.37   1
   4   5 -15 3059.96 1219.51   1
   5   4 -15 1397.61 678.969   1
  -9   4 -15 3293.14 1230.42   1
  -9   5 -15 2981.06 1198.08   1
  -4  -5  15 2020.83 740.190   1
  -5  -4  15 2915.94 1123.46   1
   4   5 -15 3786.86 1447.65   2
   5   4 -15 4346.68 1508.01   2
   9  -4  15 2989.79 1219.31   1
   9  -5  15 2147.06 991.123   1
   6  -9  15 2350.33 1127.07   1
  -3   9 -15 409.899 350.054   1
   3  -9  15 1561.82 996.664   1
  -3   9 -15 1998.58 1074.36   2
   9  -3 -15 1861.94 917.677   1
   9  -6 -15 1928.61 1030.36   1
  -6   9 -15 2654.68 1336.40   2
  -6   9 -15 625.731 407.591   1
  -9   3  15 1463.05 809.366   1
  -9   6  15 654.530 424.679   1
   9  -3 -15 1257.07 864.089   2
   9  -6 -15 1022.99 798.979   2
   6  -9  14 3299.76 1396.12   1
  -3   9 -14 1560.74 882.893   1
   3  -9  14 1564.24 887.348   1
   9  -3 -14 2077.87 958.582   1
   9  -6 -14 2024.17 975.615   1
  -6   9 -14 2141.12 1087.51   2
  -3   9 -14 2222.06 1088.79   2
  -6   9 -14 406.688 406.551   1
  -9   3  14 2610.71 1053.52   1
   9  -3 -14 2295.82 926.455   2
  -9   6  14 1450.36 719.769   1
   9  -6 -14 1009.01 668.286   2
   6  -9  13 3026.46 1330.73   1
  -3   9 -13 1432.61 825.798   1
   3  -9  13 1706.50 983.494   1
   9  -3 -13 1499.68 933.445   1
   9  -6 -13 1479.41 763.641   1
  -6   9 -13 1109.02 753.983   2
  -6   9 -13 1729.99 921.902   1
  -3   9 -13 2146.34 1129.19   2
   9  -3 -13 930.251 210.146   2
   9  -6 -13-591.696 515.686   2
  -9   3  13 1408.77 943.205   1
  -9   6  13 1050.97 736.722   1
   9  -3 -12 67624.5 5601.53   1
   9  -6 -12 73111.2 5836.96   1
  -9   3  12 86786.6 6198.78   1
  -9   6  12 55146.6 5074.33   1
  -6   9 -12 59108.0 5161.60   1
  -6   9 -12 56577.3 5172.14   2
  -3   9 -12 64633.0 5553.82   2
   6  -9  12 71634.5 5979.00   1
   9  -3 -12 74591.2 5577.02   2
   3  -9  12 70692.9 5937.39   1
   9  -6 -12 34018.4 3900.87   2
  -3   9 -12 63894.8 5626.47   1
   6  -9  11 352.308 543.086   1
  -3   9 -11 654.131 334.998   1
  -9   3  11 1306.45 706.063   1
  -9   6  11 668.163 514.788   1
   3  -9  11 1598.82 833.610   1
   9  -3 -11 1335.83 762.548   1
   9  -6 -11 500.423 323.534   1
  -6   9 -11 585.710 370.834   1
  -6   9 -11 1059.34 725.771   2
  -3   9 -11 1334.54 860.224   2
   9  -3 -11 764.408 735.519   2
   9  -6 -11 121.482 303.540   2
   6  -9  10 4582.21 1444.66   1
  -3   9 -10 3163.04 1259.41   1
  -9   3  10 4943.58 1314.89   1
   3  -9  10 5143.87 1646.76   1
  -9   6  10 4267.59 1446.30   1
  -6   9 -10 2825.98 1320.73   1
   9  -3 -10 4066.01 1367.26   1
   9  -6 -10 4626.43 1429.15   1
  -6   9 -10 2365.51 899.240   2
  -3   9 -10 2372.39 844.757   2
   9  -3 -10 4977.12 1486.83   2
   9  -6 -10 1425.40 941.741   2
   6  -9   9-215.897 460.034   1
   3  -9   9 1065.31 870.847   1
  -9   3   9-22.6880 152.155   1
  -6   9  -9 239.470 161.095   1
  -9   6   9-900.283 879.612   1
   9  -3  -9 736.774 247.469   1
   9  -6  -9 582.330 395.202   1
  -6   9  -9 1039.61 628.844   2
  -3   9  -9-362.850 795.218   2
   9  -3  -9 1253.27 820.241   2
   9  -3  -8 107741. 6518.98   1
   9  -6  -8 94734.4 6344.10   1
  -6   9  -8 104075. 6479.51   1
  -6   9  -8 120365. 7362.82   2
  -3   9  -8 116585. 7063.15   2
  -9   3   8 108910. 6413.14   1
  -9   6   8 109874. 6460.47   1
   6  -9   8 116145. 7106.81   1
   3  -9   8 127019. 7254.27   1
   9  -3  -8 110166. 6619.59   2
   3  -9   7 7479.45 1750.79   1
  -9   3   7 7867.54 1801.94   1
  -9   6   7 10904.5 1992.90   1
   9  -3  -7 7125.92 1644.57   1
   9  -6  -7 8137.54 1817.63   1
  -6   9  -7 5231.86 1518.34   2
  -3   9  -7 6006.04 1744.79   2
   9  -3  -7 8232.16 1846.14   2
  -6   9  -7 7908.71 1743.29   1
   6  -9   7 7772.71 1779.21   1
  -9   3   6 808.958 509.308   1
   9  -3  -6-737.709 719.670   1
  -9   6   6 658.692 671.975   1
   9  -6  -6-472.536 615.161   1
  -6   9  -6 292.131 288.163   2
  -3   9  -6-311.879 100.191   2
  -6   9  -6 129.133 188.562   1
   9  -3  -6 461.765 211.729   2
   6  -9   6-310.745 509.029   1
  -9   3   5 274.563 338.656   1
   9  -3  -5 133.997 287.005   1
   9  -6  -5 581.084 387.838   1
  -9   6   5 654.112 596.994   1
  -6   9  -5 1292.45 808.221   2
  -6   9  -5 386.590 435.867   1
  -3   9  -5-43.9585 544.489   2
   6  -9   5 405.567 143.746   1
   9  -3  -5 535.287 480.520   2
   9  -3  -4 81627.9 5636.50   1
   9  -6  -4 93623.5 5994.73   1
  -3   9  -4 89577.4 6164.73   2
   6  -9   4 103347. 6264.22   1
  -9   3   4 83546.6 5492.92   1
  -6   9  -4 78612.8 5931.80   2
  -6   9  -4 106820. 6085.42   1
  -9   6   4 101853. 6017.31   1
   9  -3  -4 95772.9 6224.01   2
  -6   9  -3 8346.65 1613.24   1
   9  -3  -3 5625.86 1493.63   1
   9  -6  -3 5717.18 1464.99   1
  -6   9  -3 4675.04 1422.35   2
  -9   3   3 5141.09 1420.27   1
  -3   9  -3 4341.39 1251.38   2
  -9   6   3 5042.99 1370.14   1
   6  -9   3 6285.12 1487.74   1
  -6   9  -2 3158.77 1022.35   1
  -6  -3  -2 2402.47 895.706   1
   9  -3  -2 3886.14 1245.21   1
   9  -6  -2 2707.58 1007.21   1
  -3   9  -2 467.547 468.671   2
  -9   3   2 2357.85 795.368   1
   6  -9   2 2171.34 1008.82   1
  -9   6   2 2470.02 840.826   1
  -9   6   1 3021.37 1034.47   1
  -6  -3  -1 3399.10 1007.25   1
   6   3   1 2350.96 924.502   1
   9  -3  -1 3028.40 1068.71   1
  -3   9  -1 1490.82 891.341   2
   9  -6  -1 3052.81 1041.18   1
   6  -9   1 3267.39 1095.53   1
  -9   3   1 2783.75 1033.45   1
  -9   3   0 219087. 8858.01   1
  -9   6   0 167786. 7877.03   1
   6   3   0 222320. 8641.25   1
  -3   9   0 218662. 9478.91   2
   9  -3   0 211641. 8995.97   1
   9  -6   0 192431. 8548.65   1
  -6  -3   0 172383. 7684.40   1
   3   6   0 202168. 8240.64   2
   6   3   0 225821. 8540.99   2
  -9   3  -1 739.441 501.976   1
  -6  -3   1 1410.25 745.815   1
  -9   6  -1 804.049 529.303   1
   6   3  -1 733.537 486.951   1
  -3   9   1 766.622 86.0513   2
   9  -3   1 1150.21 683.075   1
   9  -6   1 1239.86 781.597   1
   3   6  -1 396.566 487.514   2
   6   3  -1 1577.30 733.903   2
  -9   3  -2 2784.54 972.356   1
  -6  -3   2 3351.46 1017.24   1
   6   3  -2 3320.54 964.075   1
  -9   6  -2 3410.26 1218.10   1
   9  -3   2 3668.87 1136.08   1
   9  -6   2 3786.28 1068.71   1
  -3   9   2 3108.26 1063.93   2
   3   6  -2 3480.73 1132.13   2
   6   3  -2 3069.01 930.815   2
  -6  -3   3 400.374 286.088   1
  -9   3  -3 269.907 690.926   1
   6   3  -3 206.144 218.158   1
  -9   6  -3 1546.68 845.501   1
   9  -3   3 526.874 502.460   1
   9  -6   3-3.96592 382.965   1
   3   6  -3-113.105 180.908   2
   6   3  -3 33.9271 57.6093   2
   6   3  -4 193011. 8334.65   1
  -9   3  -4 178384. 8229.84   1
  -9   6  -4 182739. 8188.28   1
   9  -3   4 217783. 9058.54   1
  -6  -3   4 172696. 8099.27   1
   9  -6   4 199763. 8911.47   1
   3   6  -4 203499. 8684.58   2
   6   3  -4 202162. 8625.62   2
  -9   6  -5 11393.2 2088.47   1
  -6  -3   5 12018.4 2056.39   1
   6   3  -5 9812.84 1965.54   1
  -9   3  -5 11452.0 2159.43   1
   9  -3   5 12844.0 2160.91   1
   9  -6   5 10375.4 1967.33   1
   3   6  -5 10277.5 1874.97   2
   6   3  -5 11744.8 2169.59   2
  -9   6  -6 156.415 300.178   1
   3   6  -6 581.753 517.898   1
   6   3  -6 376.740 449.870   1
  -3  -6   6 607.722 388.593   1
  -9   3  -6 1203.46 675.075   1
   9  -3   6 602.473 719.314   1
   3   6  -6 398.664 460.941   2
   9  -6   6 1077.92 760.695   1
   6   3  -6 431.330 464.524   2
  -6  -3   6 447.034 460.513   1
  -9   6  -7 1635.46 860.293   1
   3   6  -7 1325.34 729.595   1
   6   3  -7 2227.94 882.827   1
  -3  -6   7 1546.63 719.632   1
   9  -3   7 2099.78 902.451   1
  -9   3  -7 1683.70 774.906   1
   3   6  -7 2259.65 1002.28   2
   9  -6   7 2650.70 1143.57   1
   6   3  -7 1020.64 729.576   2
  -6  -3   7 1138.74 599.890   1
   3   6  -8 75185.8 5713.48   1
  -3  -6   8 82216.4 5852.94   1
   6   3  -8 84354.7 6044.36   1
  -6  -3   8 86235.6 5933.01   1
  -9   3  -8 93634.0 6147.06   1
   9  -3   8 93989.4 6224.02   1
   9  -6   8 98623.4 6158.38   1
  -9   6  -8 79785.0 5813.20   1
   3   6  -8 87498.5 5860.31   2
   6   3  -8 77020.3 5701.47   2
  -9   3  -9 3845.68 1374.75   1
   3   6  -9 5690.62 1653.24   1
  -9   6  -9 3925.13 1366.98   1
   6   3  -9 3917.43 1338.12   1
  -3  -6   9 5121.70 1540.06   1
   9  -3   9 4137.57 1376.88   1
   3   6  -9 4971.66 1395.51   2
  -6  -3   9 4896.92 1290.08   1
   9  -6   9 4140.04 1220.11   1
   6   3  -9 4401.62 1369.48   2
  -9   3 -10 5578.64 1484.28   1
   3   6 -10 3855.13 1277.58   1
   6   3 -10 4673.75 1522.11   1
  -9   6 -10 3645.91 1200.70   1
  -3  -6  10 4473.60 1398.13   1
   3   6 -10 5691.71 1533.26   2
   9  -3  10 4518.82 1502.50   1
  -6  -3  10 4145.53 1348.47   1
   6   3 -10 3231.30 1321.30   2
   9  -6  10 4554.78 1313.91   1
  -9   3 -11 448.847 429.209   1
   3   6 -11 80.0412 120.342   1
   6   3 -11 772.158 262.216   1
  -9   6 -11-756.696 544.724   1
  -3  -6  11-7.64015 546.084   1
  -6  -3  11 1062.54 828.884   1
   3   6 -11 1376.21 670.184   2
   9  -3  11 728.871 606.526   1
   6   3 -11 66.2191 508.744   2
   9  -6  11 802.182 637.444   1
   3   6 -12 36510.7 4180.78   1
   6   3 -12 43760.5 4575.15   1
  -3  -6  12 43046.6 4470.68   1
  -6  -3  12 44070.1 4379.68   1
   9  -3  12 43780.7 4470.36   1
  -9   3 -12 30046.7 3853.90   1
   9  -6  12 48688.0 4686.95   1
   3   6 -12 46749.9 4386.84   2
   6   3 -12 39877.1 4491.93   2
  -9   6 -12 55223.0 4866.81   1
   3   6 -13-110.340 259.093   1
  -9   3 -13-548.300 580.397   1
   6   3 -13 1123.17 776.618   1
  -3  -6  13 274.092 206.809   1
  -9   6 -13-87.1293 188.819   1
  -6  -3  13 662.164 365.159   1
   3   6 -13 449.507 421.245   2
   9  -3  13 547.596 369.809   1
   6   3 -13 324.225 208.980   2
   9  -6  13-209.175 523.506   1
   3   6 -14 3823.62 1279.51   1
  -9   3 -14 5704.05 1734.82   1
   6   3 -14 7457.74 1787.65   1
  -3  -6  14 4217.72 1398.68   1
  -9   6 -14 6227.86 1698.05   1
  -6  -3  14 6833.72 1732.32   1
   3   6 -14 3877.41 1408.79   2
   9  -3  14 5471.08 1683.64   1
   6   3 -14 4477.61 1605.54   2
   9  -6  14 5844.05 1648.68   1
   3   6 -15 497.997 796.762   1
   6   3 -15 419.754 452.578   1
  -9   3 -15-656.118 545.567   1
  -3  -6  15 365.713 376.644   1
  -9   6 -15 1289.35 982.217   1
  -6  -3  15-426.788 511.018   1
   9  -3  15 598.823 614.066   1
  -2   9 -15 1877.47 995.855   1
   2  -9  15 2526.17 1276.27   1
  -7   9 -15 3530.52 1434.16   2
   7  -9  14 11893.1 2490.42   1
  -2   9 -14 7701.75 2006.80   1
   2  -9  14 8307.44 2078.53   1
  -7   9 -14 9280.95 2253.12   1
   9  -2 -14 13661.0 2464.40   1
  -7   9 -14 6701.04 1851.93   2
  -2   9 -14 12854.9 2559.01   2
  -9   2  14 13150.3 2373.13   1
   9  -2 -14 11295.8 2213.43   2
   9  -7 -14 1849.03 937.908   2
   7  -9  13 9948.05 2038.18   1
  -2   9 -13 6084.63 1782.37   1
  -7   9 -13 6774.42 1603.05   1
   2  -9  13 6547.17 1704.69   1
   9  -2 -13 8869.49 2006.16   1
  -7   9 -13 6874.78 1940.97   2
  -2   9 -13 7140.94 1785.96   2
   9  -2 -13 7627.13 1735.31   2
  -9   2  13 9541.43 2018.13   1
   9  -7 -13-10.1086 434.141   2
  -9   7  12 3932.19 1287.70   1
  -2   9 -12 2608.43 1206.61   1
  -7   9 -12 2078.07 953.842   1
   2  -9  12 3509.15 1225.43   1
   9  -2 -12 3986.36 1623.30   1
   9  -7 -12 2750.72 1116.86   1
  -7   9 -12 2515.50 1122.43   2
  -2   9 -12 1636.31 942.574   2
   9  -2 -12 2217.98 927.942   2
   9  -7 -12 536.878 182.772   2
  -9   2  12 3961.53 1305.78   1
   7  -9  12 4160.00 1496.07   1
  -7   9 -11 15097.3 2629.70   1
   9  -2 -11 22941.9 3046.12   1
   9  -7 -11 18073.0 2909.68   1
  -9   2  11 21185.5 2917.40   1
  -9   7  11 23290.7 3138.28   1
  -2   9 -11 16365.4 2778.70   2
  -7   9 -11 16611.2 2994.58   2
   7  -9  11 18840.8 2996.65   1
   9  -2 -11 16579.7 2696.55   2
   2  -9  11 17876.6 2936.47   1
  -2   9 -11 19454.3 3014.55   1
   9  -2 -10 46937.7 4518.80   1
  -7   9 -10 56497.1 4953.19   1
   9  -7 -10 49678.7 4739.15   1
  -9   2  10 59953.1 4949.93   1
  -9   7  10 50746.7 4604.61   1
  -7   9 -10 35809.8 4228.35   2
  -2   9 -10 47132.3 4827.29   2
   7  -9  10 48712.9 4672.15   1
   9  -2 -10 54463.6 4707.76   2
   2  -9  10 57140.6 5096.11   1
  -9   2   9 9831.45 1958.80   1
  -9   7   9 5701.76 1505.30   1
   9  -2  -9 8480.67 1903.34   1
   9  -7  -9 9547.67 2069.14   1
  -7   9  -9 7390.68 1914.89   2
  -2   9  -9 7002.41 1763.69   2
  -7   9  -9 8875.44 1971.05   1
   9  -2  -9 9842.46 1993.69   2
   7  -9   9 7063.99 1757.98   1
  -7   9  -8 16819.1 2685.47   1
   9  -2  -8 17076.3 2659.21   1
   9  -7  -8 18245.4 2798.55   1
  -7   9  -8 16178.4 2792.87   2
  -9   2   8 19186.1 2752.69   1
   7  -9   8 17927.2 2745.94   1
  -9   7   8 19601.0 2722.23   1
  -2   9  -8 14124.1 2510.51   2
   9  -2  -8 16507.4 2490.60   2
  -9   2   7 2717.92 873.279   1
  -9   7   7 3634.59 1242.58   1
   9  -2  -7 3994.33 1329.53   1
   9  -7  -7 4346.07 1341.26   1
  -7   9  -7 2756.08 1181.67   2
  -7   9  -7 3252.83 1231.86   1
  -2   9  -7 3842.92 1416.23   2
   7  -9   7 4106.14 1178.50   1
   9  -2  -7 5417.83 1326.04   2
   9  -2  -6 92949.2 6113.78   1
   9  -7  -6 99219.5 6280.27   1
  -7   9  -6 86430.3 6259.22   2
  -2   9  -6 95506.7 6246.49   2
   7  -9   6 104265. 6532.04   1
  -9   2   6 81276.1 5625.09   1
  -9   7   6 88606.6 5731.17   1
   9  -2  -6 87486.0 5789.14   2
  -7   9  -6 103451. 6319.97   1
   9  -2  -5 45487.0 4221.54   1
   9  -7  -5 40750.3 4106.47   1
  -2   9  -5 42442.2 4031.08   2
   7  -9   5 45115.3 4266.22   1
  -9   2   5 42804.1 4056.13   1
  -7   9  -5 39448.3 3969.61   1
   9  -2  -5 34073.8 3699.40   2
  -9   7   5 35053.5 3629.81   1
  -7   9  -4 6817.77 1655.87   1
  -9   2   4 7224.47 1737.50   1
   9  -2  -4 6335.82 1527.46   1
   7   2   4 5265.22 1338.53   1
   9  -7  -4 6961.30 1623.79   1
  -2   9  -4 7735.35 1878.31   2
  -7  -2  -4 8253.36 1783.00   1
  -9   7   4 8469.58 1729.54   1
   7  -9   4 8739.08 1947.32   1
   9  -2  -4 7038.54 1632.88   2
  -9   7   3 90139.0 5831.68   1
   9  -2  -3 57180.3 4634.93   1
   7   2   3 65266.7 4824.60   1
   9  -7  -3 85820.4 5739.56   1
   7  -9   3 73784.7 5324.77   1
  -2   9  -3 71400.7 5482.65   2
  -7   9  -3 73989.3 5144.96   1
  -9   2   3 82190.1 5266.65   1
   9  -2  -3 55561.6 4695.34   2
  -7  -2  -3 89080.4 5597.41   1
  -9   7   2 29340.8 3290.26   1
   7   2   2 21156.3 2697.60   1
   9  -2  -2 30410.4 3411.40   1
   9  -7  -2 32730.6 3498.10   1
  -7   9  -2 33048.0 3446.50   1
   7  -9   2 36721.4 3684.99   1
  -2   9  -2 30933.3 3524.62   2
  -7  -2  -2 29256.8 3178.99   1
   9  -2  -2 23160.6 3251.89   2
  -9   2   2 29496.3 3243.51   1
  -9   7   1 3562.88 1143.15   1
  -7  -2  -1 3360.78 1080.32   1
   7   2   1 2995.00 1101.23   1
   9  -2  -1 2713.11 1182.94   1
  -2   9  -1 3432.52 1222.63   2
   9  -7  -1 2494.87 833.801   1
  -9   2   1 2981.64 853.932   1
   7  -9   1 4684.46 1280.14   1
  -7   9  -1 3874.74 1220.08   1
   7   2   1 4405.16 1210.90   2
   9  -2  -1 2507.79 1065.07   2
  -9   7   0 667.513 472.664   1
  -7  -2   0 177.753 192.206   1
   7   2   0 102.317 468.250   1
  -7   9   0-261.940 525.130   1
   9  -2   0 142.187 272.518   1
  -2   9   0 497.439 352.035   2
   9  -7   0-148.083 293.897   1
   7  -9   0-389.176 663.577   1
  -9   2   0 359.094 290.403   1
   7   2   0-534.090 538.065   2
  -7  -2   1 1069.07 682.748   1
  -9   7  -1 15.1702 253.228   1
   7   2  -1 997.379 644.792   1
   9  -2   1-6.46399 454.806   1
  -2   9   1 372.020 473.802   2
   7  -9  -1 324.520 287.804   1
   9  -7   1 544.027 493.738   1
   2   7  -1 432.398 412.908   2
   7   2  -1 491.657 231.995   2
  -9   2  -1 1044.81 525.166   1
  -9   2  -2 128542. 6938.09   1
   7   2  -2 106822. 6342.98   1
  -9   7  -2 118544. 6757.97   1
   9  -2   2 151134. 7630.22   1
   9  -7   2 125030. 7034.80   1
  -2   9   2 136101. 7291.58   2
   2   7  -2 127260. 6917.20   2
  -7  -2   2 137390. 7159.36   1
   7   2  -2 149083. 7215.56   2
  -9   2  -3 41279.8 3992.07   1
   7   2  -3 59130.3 4678.14   1
  -9   7  -3 36160.0 3835.12   1
   9  -2   3 52976.6 4505.43   1
   9  -7   3 46134.3 4293.65   1
  -7  -2   3 39279.5 3858.22   1
   2   7  -3 49981.7 4382.30   2
   7   2  -3 55295.6 4400.09   2
  -9   2  -4 66673.5 5074.46   1
   7   2  -4 61008.4 4811.44   1
   9  -2   4 68271.9 5052.30   1
  -9   7  -4 61521.8 4881.89   1
   9  -7   4 60034.5 4822.61   1
  -7  -2   4 63695.0 4919.85   1
   2   7  -4 64317.0 4971.39   2
   7   2  -4 60709.1 4645.30   2
   7   2  -5 48068.7 4244.84   1
  -9   2  -5 46899.7 4167.38   1
   9  -2   5 42506.8 4010.02   1
  -7  -2   5 40874.9 3951.74   1
  -9   7  -5 43111.2 4046.32   1
   9  -7   5 41147.6 4083.23   1
   2   7  -5 47609.8 4446.34   2
   7   2  -5 42287.4 3928.61   2
   7   2  -6 93425.0 6114.36   1
  -9   2  -6 104610. 6512.26   1
   9  -2   6 117539. 6787.59   1
  -7  -2   6 111143. 6735.30   1
   9  -7   6 101940. 6413.61   1
  -9   7  -6 113922. 6602.49   1
   2   7  -6 93452.5 6161.80   2
   7   2  -6 115188. 6668.40   2
   7   2  -7 18064.7 2690.64   1
  -9   2  -7 17990.0 2702.52   1
  -7  -2   7 16476.8 2630.89   1
   9  -2   7 15683.4 2493.19   1
   9  -7   7 17578.3 2729.72   1
   2   7  -7 16917.1 2565.01   2
  -9   7  -7 16750.5 2620.75   1
   7   2  -7 13068.3 2423.02   2
  -9   7  -8 1374.01 935.449   1
   7   2  -8 266.102 373.544   1
  -9   2  -8 19.8597 375.517   1
   9  -2   8 27.5402 408.437   1
   2   7  -8 1626.80 942.321   2
   9  -7   8-140.778 497.396   1
   7   2  -8 346.808 569.391   2
  -7  -2   8-172.829 321.255   1
  -2  -7   9 11893.0 2287.72   1
   7   2  -9 13277.5 2468.81   1
   9  -2   9 16542.0 2644.57   1
   7   2  -9 14549.3 2508.94   2
  -9   7  -9 14969.3 2608.16   1
  -9   2  -9 8858.20 1914.28   1
   2   7  -9 13666.3 2471.05   2
   9  -7   9 15988.6 2435.74   1
  -7  -2   9 13892.1 2511.40   1
  -2  -7  10 14000.6 2500.29   1
   2   7 -10 12597.2 2416.26   1
   7   2 -10 14274.3 2499.70   1
  -7  -2  10 12567.7 2311.88   1
   7   2 -10 11251.2 2411.79   2
   9  -2  10 11845.8 2331.17   1
   2   7 -10 13719.6 2423.99   2
  -9   7 -10 13825.5 2446.86   1
   9  -7  10 12789.2 2393.99   1
  -9   2 -10 8911.19 2195.44   1
  -2  -7  11 10111.8 2225.84   1
   2   7 -11 8406.96 2053.45   1
   7   2 -11 10663.7 2274.75   1
  -9   7 -11 13051.6 2359.55   1
   2   7 -11 11822.1 2307.98   2
   9  -2  11 9114.16 1974.80   1
  -7  -2  11 11052.8 2165.41   1
   7   2 -11 10561.9 2191.03   2
   9  -7  11 11343.5 2187.21   1
  -9   2 -11 10822.7 2211.71   1
  -9   2 -12 4788.93 1512.85   1
   2   7 -12 4731.54 1534.91   1
   7   2 -12 4716.66 1536.54   1
  -2  -7  12 5085.87 1607.66   1
  -9   7 -12 6889.32 1779.39   1
   2   7 -12 5307.57 1560.38   2
  -7  -2  12 5065.02 1287.23   1
   9  -2  12 5806.99 1624.08   1
   7   2 -12 5316.04 1703.48   2
   9  -7  12 6184.74 1559.74   1
  -9   2 -13 2621.98 1056.13   1
   2   7 -13 1539.49 946.344   1
   7   2 -13 1439.11 803.784   1
  -2  -7  13 1790.84 1034.84   1
  -9   7 -13 3482.22 1217.59   1
  -7  -2  13 2706.55 1271.54   1
   2   7 -13 1609.04 836.394   2
   9  -2  13 1666.61 929.482   1
   7   2 -13 2016.86 1129.24   2
   9  -7  13 3646.80 1316.91   1
  -2  -7  14 28272.7 3809.36   1
   2   7 -14 19901.7 3252.60   1
   7   2 -14 27327.5 3722.56   1
  -7  -2  14 31107.4 3728.95   1
   9  -2  14 22321.4 3310.92   1
  -9   2 -14 22032.0 3306.84   1
   2   7 -14 27729.8 3702.01   2
   9  -7  14 31692.6 3818.95   1
   7   2 -14 24339.7 3509.22   2
  -9   7 -14 29326.4 3603.60   1
  -9   2 -15 2045.90 1047.26   1
   2   7 -15 457.326 566.401   1
  -2  -7  15 701.849 546.349   1
   9  -2  15 1206.72 729.299   1
  -8   9 -14 11945.1 2592.45   2
   1  -9  14 17214.3 3060.61   1
   1  -9  13 3086.66 1297.54   1
   9  -1 -13 2294.65 993.386   1
  -8   9 -13 2639.82 1293.84   2
  -1   9 -13 3429.50 1290.02   2
  -8   9 -13 1776.93 729.104   1
   9  -1 -13 3943.41 1345.80   2
  -9   1  13 2635.67 1163.37   1
   9  -8 -13 723.877 652.148   2
   8  -9  13 1708.82 905.951   1
   9  -1 -12 969.292 570.072   1
  -1   9 -12 869.954 787.735   2
  -8   9 -12 683.744 592.928   1
   9  -1 -12 290.420 603.973   2
   8  -9  12 135.608 281.423   1
  -9   1  12 1730.44 976.911   1
   9  -8 -12 115.284 534.984   2
  -8   9 -11 15500.0 2643.17   1
   9  -1 -11 16194.6 2696.64   1
  -9   1  11 14491.1 2505.66   1
  -1   9 -11 14815.8 2608.20   2
   9  -1 -11 12449.2 2216.88   2
   8  -9  11 13907.1 2456.10   1
  -8   9 -10 32469.7 3855.36   1
   9  -1 -10 31845.2 3746.94   1
  -9   1  10 38331.6 4112.59   1
  -1   9 -10 27763.8 3578.50   2
   8  -9  10 41013.5 4293.97   1
   9  -1 -10 29062.7 3457.99   2
   9  -1  -9 26116.8 3254.84   1
   9  -8  -9 32627.2 3798.48   1
  -9   1   9 31385.1 3586.08   1
  -1   9  -9 29751.5 3725.03   2
   8  -9   9 30234.6 3703.92   1
   9  -1  -9 26906.6 3335.28   2
  -8   9  -9 23019.7 3265.44   1
   9  -1  -8 26520.4 3348.67   1
   9  -8  -8 29935.8 3563.14   1
  -9   1   8 25127.4 3175.19   1
  -1   9  -8 26146.8 3323.09   2
   8  -9   8 24692.0 3310.72   1
  -9   8   8 27808.6 3354.84   1
   9  -1  -8 28951.1 3284.71   2
  -8   9  -8 25959.1 3355.15   1
  -8  -1  -7 2437.46 930.490   1
  -9   1   7 2693.02 1102.90   1
  -9   8   7 3960.34 1175.37   1
  -8   9  -7 2649.48 1153.91   1
   9  -1  -7 3325.53 1197.07   1
   9  -8  -7 4039.10 1348.40   1
  -1   9  -7 3098.42 1191.13   2
   8  -9   7 3840.39 1266.74   1
   9  -1  -7 1986.67 765.493   2
  -8  -1  -6 54314.3 4740.51   1
   9  -1  -6 48663.3 4466.39   1
   8   1   6 59474.2 4957.57   1
   8  -9   6 56475.0 4829.04   1
  -1   9  -6 50387.4 4600.43   2
  -9   1   6 49552.7 4400.53   1
  -8   9  -6 52318.0 4829.51   1
  -9   8   6 40336.8 3928.11   1
   9  -1  -6 53522.4 4467.55   2
  -8   9  -5 4377.45 1582.16   1
  -9   1   5 6747.82 1656.47   1
   9  -1  -5 6042.83 1525.71   1
   9  -8  -5 8225.29 1890.35   1
   8   1   5 7264.36 1754.50   1
  -9   8   5 10563.8 1942.61   1
  -1   9  -5 5979.02 1642.93   2
   8  -9   5 7924.34 1737.12   1
  -8  -1  -5 3861.93 1264.65   1
   9  -1  -5 6086.42 1501.01   2
  -8   9  -4 1758.16 862.424   1
  -9   1   4 1184.69 456.301   1
   9  -1  -4 922.861 622.101   1
   9  -8  -4 2937.36 1100.96   1
   8   1   4 2033.61 995.623   1
  -1   9  -4 2061.29 990.892   2
  -9   8   4 967.014 271.064   1
  -8  -1  -4 2003.60 754.607   1
   8  -9   4 1984.98 827.646   1
   9  -1  -4 2155.56 820.059   2
  -9   8   3 28635.8 3329.97   1
   9  -1  -3 27300.3 3245.89   1
   8   1   3 29460.2 3389.84   1
   9  -8  -3 32853.2 3601.94   1
  -8   9  -3 28150.0 3300.03   1
   8  -9   3 31065.2 3499.44   1
  -1   9  -3 28222.3 3437.55   2
  -9   1   3 29652.2 3179.85   1
   9  -1  -3 25422.2 3132.27   2
  -8  -1  -3 31447.1 3424.24   1
  -9   8   2 60230.4 4755.93   1
   9  -1  -2 61322.3 4742.41   1
   8   1   2 55583.5 4646.78   1
   9  -8  -2 65029.3 5183.67   1
  -8   9  -2 44873.0 4228.69   1
   8  -9   2 59947.7 4982.79   1
  -1   9  -2 53769.0 4828.40   2
  -9   1   2 55715.3 4493.32   1
   9  -1  -2 47653.6 4449.29   2
  -8  -1  -2 54409.2 4452.70   1
  -9   8   1 33667.7 3611.26   1
   8   1   1 33492.2 3586.19   1
   9  -1  -1 22551.9 2929.30   1
  -8   9  -1 34981.8 3665.25   1
   9  -8  -1 33178.1 3696.25   1
   8  -9   1 34763.4 3737.64   1
  -1   9  -1 21770.3 3235.83   2
   8   1   1 24774.9 2985.33   2
   9  -1  -1 24801.8 3072.70   2
  -8  -1  -1 25075.4 2984.05   1
  -9   1   1 24742.6 3024.66   1
  -9   8   0 5389.97 1381.69   1
  -8   9   0 6492.39 1602.50   1
  -8  -1   0 5352.04 1382.05   1
   8   1   0 5908.21 1521.99   1
   9  -1   0 4596.16 1315.17   1
  -1   9   0 3468.97 1312.58   2
   9  -8   0 4546.37 1401.21   1
  -9   1   0 5946.07 1507.10   1
   8  -9   0 5630.00 1464.57   1
   8   1   0 3357.96 1151.43   2
   9  -1   0 4522.74 1326.77   2
  -8   9   1 38951.9 3691.75   1
  -9   8  -1 30271.4 3525.15   1
   8   1  -1 32741.3 3599.80   1
   9  -1   1 35256.0 3684.51   1
   8  -9  -1 46187.6 4144.63   1
   9  -8   1 34274.2 3661.89   1
   1   8  -1 33690.5 3621.02   2
  -8  -1   1 34990.3 3527.56   1
   8   1  -1 28756.8 3224.18   2
  -9   1  -1 36605.0 3726.94   1
  -9   1  -2 98516.1 6213.12   1
  -8   9   2 106832. 6277.46   1
   8   1  -2 100885. 6311.24   1
  -9   8  -2 97775.5 6221.58   1
   9  -1   2 127492. 7039.96   1
   8  -9  -2 66910.6 5222.47   1
   9  -8   2 90282.1 6164.19   1
   1   8  -2 106246. 6533.38   2
  -8  -1   2 99329.5 6216.56   1
   8   1  -2 93047.6 5784.83   2
   9  -1   2 41446.3 4044.55   2
  -9   1  -3 22162.6 2954.35   1
   8   1  -3 16187.0 2558.94   1
   8  -9  -3 16431.4 2550.38   1
   9  -1   3 21489.4 2960.42   1
  -9   8  -3 20640.9 2893.30   1
   9  -8   3 19450.6 2858.91   1
   1   8  -3 16432.1 2609.83   2
  -8  -1   3 20068.1 2775.22   1
   8   1  -3 21589.3 2726.63   2
  -9   1  -4 27147.2 3288.46   1
   8   1  -4 26384.7 3258.29   1
   9  -1   4 31152.9 3486.54   1
  -9   8  -4 22705.5 3079.98   1
   9  -8   4 27445.9 3394.83   1
  -8  -1   4 29280.8 3396.62   1
   1   8  -4 26089.7 3267.08   2
   8   1  -4 24535.7 3049.78   2
  -9   8  -5 8766.38 1833.07   1
  -9   1  -5 9453.58 1832.54   1
  -8  -1   5 8185.82 1811.69   1
   8   1  -5 9778.16 1975.49   1
   9  -1   5 10578.1 2121.30   1
   1   8  -5 8653.74 1877.83   2
   9  -8   5 7048.02 1702.40   1
   8   1  -5 6913.44 1612.93   2
  -9   1  -6 43116.5 4206.39   1
   8   1  -6 41430.4 4154.22   1
   9  -1   6 44768.1 4304.15   1
  -8  -1   6 39123.4 3940.39   1
   9  -8   6 43981.5 4308.21   1
  -9   8  -6 38283.8 3970.88   1
   1   8  -6 38047.0 3972.85   2
   8   1  -6 33471.7 3585.17   2
   8   1  -7 12816.7 2338.06   1
  -9   1  -7 17542.0 2680.09   1
   9  -1   7 22059.3 3104.15   1
  -8  -1   7 17881.8 2767.48   1
   1   8  -7 16325.0 2693.97   2
  -9   8  -7 18754.6 2838.56   1
   9  -8   7 17626.5 2645.08   1
   8   1  -7 17262.8 2616.93   2
  -8  -1   8 2581.50 1127.09   1
  -9   8  -8 1711.88 747.605   1
   8   1  -8 723.007 576.091   1
  -9   1  -8 2293.51 960.250   1
   9  -1   8 2153.64 994.618   1
   1   8  -8 988.245 539.015   2
   9  -8   8 1886.25 857.648   1
   8   1  -8 1322.62 667.977   2
   8   1  -9 11822.7 2216.67   1
  -9   8  -9 10917.4 2167.18   1
  -9   1  -9 10070.2 2090.15   1
   9  -1   9 10904.0 2198.99   1
   1   8  -9 9389.10 1943.79   2
   9  -8   9 10857.0 2143.86   1
   8   1  -9 10640.8 2224.47   2
  -8  -1   9 9694.38 1963.04   1
   8   1 -10 39050.9 4165.08   1
  -9   1 -10 34873.7 4017.57   1
  -8  -1  10 31887.6 3743.99   1
   9  -1  10 32747.9 3902.59   1
   9  -8  10 35384.4 3998.04   1
   1   8 -10 34666.9 3901.50   2
   8   1 -10 30687.9 3903.25   2
  -9   8 -10 37037.6 4068.90   1
   8   1 -11 2445.62 1010.21   1
  -9   8 -11 2709.45 1252.77   1
  -9   1 -11 2880.46 1268.42   1
   9  -1  11 2101.88 1011.56   1
   1   8 -11 1930.10 813.113   2
   8   1 -11 2170.20 1120.36   2
   9  -8  11 2664.76 1255.01   1
  -8  -1  11 2669.61 1171.50   1
   8   1 -12 3358.76 1110.91   1
  -1  -8  12 2121.65 978.254   1
  -9   8 -12 3118.89 1063.29   1
   1   8 -12 2939.54 1280.83   2
  -9   1 -12 2906.99 1206.30   1
  -8  -1  12 4498.24 1390.28   1
   8   1 -12 1962.47 1079.06   2
   9  -8  12 2980.37 1266.82   1
  -8  -1  13 15225.3 2658.92   1
   8   1 -13 17500.5 2789.21   1
   1   8 -13 12255.7 2486.43   2
   8   1 -13 14895.5 2631.89   2
   9  -8  13 15717.6 2612.12   1
  -1  -8  13 13087.0 2644.06   1
  -9   8 -13 20986.1 3117.47   1
   1   8 -14 10735.0 2502.93   1
  -1  -8  14 12111.4 2545.89   1
   9   0   0 354036. 12015.4   1
   9   0   0 374309. 12097.7   2
  -9   0   0 359363. 11758.3   1
  -9   9   1 4.10296 605.203   1
  -9   9  -1-8.30628 189.054   1
  -9   0   1 3.94355 358.346   1
   9   0  -1 180.157 592.545   1
   9   0   1 1368.23 798.329   1
  -9   0  -1 822.130 559.525   1
   9  -9  -1 345.312 59.4906   1
   9  -9   1 927.248 541.682   1
   9   0  -1 242.624 438.940   2
   9   0   1 619.531 517.013   2
  -9   9   2 117.387 261.567   1
  -9   0   2-492.138 460.188   1
   9   0  -2 110.997 151.148   1
   9   0   2 573.781 412.852   1
  -9   9  -2 7.09378 186.265   1
   9  -9  -2-77.0658 401.701   1
   0   9  -2 59.6862 383.029   2
  -9   0  -2 103.627 309.209   1
   9  -9   2 376.950 295.061   1
   9   0  -2-154.827 369.531   2
  -9   0   3 1213.76 669.028   1
   9   0  -3 476.269 609.429   1
   9   0   3 185.027 191.417   1
   9  -9  -3 596.053 446.936   1
   0   9  -3 861.915 718.005   2
   9  -9   3 373.696 557.767   1
  -9   9  -3 159.846 221.659   1
  -9   0  -3 1029.49 641.360   1
  -9   9   3 1156.10 827.698   1
   9   0  -3 83.8759 452.535   2
  -9   0  -4 18829.1 2704.60   1
   9   0  -4 16085.5 2654.12   1
   9  -9  -4 19749.7 2897.88   1
   9   0   4 17701.5 2751.51   1
  -9   9  -4 16856.1 2771.03   1
   9  -9   4 19742.5 2843.83   1
   0   9  -4 17057.3 2766.65   2
  -9   0   4 17422.1 2611.31   1
   9   0  -4 14164.6 2369.17   2
  -9   9   4 16743.0 2562.06   1
  -9   9  -5 537.540 421.358   1
  -9   0   5-78.7448 420.574   1
   9   0  -5-2.87370 270.038   1
   0   9  -5 134.852 349.907   2
   9  -9   5 11.9336 206.773   1
   9   0  -5-43.7056 301.100   2
  -9   0  -5 263.299 314.413   1
  -9   0  -6 1335.63 522.804   1
  -9   9  -6 701.915 580.144   1
  -9   0   6 1530.68 532.150   1
   9   0  -6 633.897 392.591   1
   9   0   6 1653.02 991.212   1
   0   9  -6 1831.75 832.515   2
   9  -9   6 1436.88 583.282   1
   9   0  -6 1845.14 801.355   2
  -9   0  -7 328.839 269.582   1
  -9   0   7 60.4478 548.611   1
  -9   9  -7 248.997 519.722   1
   9   0  -7-344.398 111.939   1
   9   0   7 1222.06 654.118   1
   0   9  -7-30.8169 207.209   2
   9  -9   7 81.3790 466.733   1
   9   0  -7-439.737 491.003   2
  -9   0  -8 57395.7 5148.71   1
   9   0  -8 50967.7 4593.14   1
   9   0   8 56056.5 5003.69   1
  -9   0   8 55453.1 4829.07   1
   9  -9   8 58294.8 5183.25   1
   0   9  -8 47739.4 4760.01   2
  -9   9  -8 54200.9 5014.28   1
   9   0  -8 47570.6 4527.39   2
  -9   0   9 1145.00 986.106   1
  -9   9  -9 1499.28 795.257   1
   9   0  -9-376.465 613.284   1
   0   9  -9-47.5402 347.314   2
   9  -9   9 1868.90 860.828   1
   9   0  -9 300.707 692.068   2
   9   0 -10 151.367 441.278   1
  -9   9 -10 476.238 535.808   1
   0   9 -10 652.824 739.723   2
   9  -9  10 948.567 803.059   1
   9   0 -10 393.798 612.245   2
  -9   0  10-60.8122 201.227   1
   9   0 -11-305.670 249.326   1
  -9   9 -11 33.4611 141.729   1
   0   9 -11 141.956 465.469   2
   9   0 -11 43.3060 420.786   2
   9  -9  11-160.046 463.570   1
  -9   0  11-414.652 567.097   1
   9   0 -12 61778.6 5448.62   1
  -9   0  12 59058.0 5071.68   1
   0   9 -12 43715.9 4641.54   2
   9  -9  12 47073.7 4763.83   1
   9   0 -12 52007.4 4857.45   2
  -9   9 -12 61829.3 5315.49   1
   5 -10  14 6123.58 1819.04   1
  10  -5 -14 8935.59 2059.47   1
 -10   5  14 7839.73 1979.82   1
 -10   5  13 302.673 622.841   1
   5 -10  13 331.423 666.436   1
  -5  10 -13 126.986 45.0562   1
  10  -5 -13-654.211 450.640   1
  -5  10 -13-378.625 222.909   2
  10  -5 -13 513.716 499.244   2
  10  -5 -12 87399.2 6418.09   1
 -10   5  12 91199.5 6541.87   1
  -5  10 -12 76170.1 6271.67   2
   5 -10  12 78799.4 6504.31   1
  10  -5 -12 65978.6 5504.11   2
   5 -10  11-327.684 107.353   1
 -10   5  11 602.145 468.567   1
  10  -5 -11 727.328 688.700   1
  -5  10 -11 1077.14 702.663   2
  -5  10 -11 115.724 237.540   1
  10  -5 -11 1962.08 892.907   2
   5 -10  10 4472.28 1517.69   1
 -10   5  10 5587.17 1384.76   1
  10  -5 -10 5990.70 1619.79   1
  -5  10 -10 2339.60 1042.77   1
  -5  10 -10 6439.08 1750.09   2
  10  -5 -10 3352.52 1172.18   2
   5 -10   9 253.919 241.450   1
 -10   5   9 365.497 713.225   1
  10  -5  -9 516.238 597.732   1
  -5  10  -9-683.066 761.374   2
  10  -5  -9-698.801 552.514   2
  10  -5  -8 33215.2 3708.41   1
 -10   5   8 45033.0 4276.03   1
   5 -10   8 37080.7 4264.62   1
  -5  10  -8 37171.7 4142.12   2
 -10   5   7 206.172 277.070   1
  10  -5  -7-887.790 735.615   1
  -5  10  -7 390.231 553.770   2
  10  -5  -7 218.191 237.570   2
 -10   5   6 2577.67 923.312   1
  10  -5  -6 3091.77 1081.91   1
  -5  10  -6 771.471 480.086   2
 -10   5   5-614.749 688.488   1
  10  -5  -5-351.000 204.349   1
  -5  10  -5-26.0878 366.626   2
  10  -5  -4 69245.4 5232.44   1
  -5  10  -4 61006.8 5093.84   2
 -10   5   4 73645.4 5236.47   1
  10  -5  -3 712.120 664.544   1
 -10   5   3-654.025 723.795   1
  -5  10  -3-1035.75 913.289   2
  10  -5  -2 1332.69 698.022   1
  -5  10  -2 1475.14 929.453   2
 -10   5   2 3607.48 1168.54   1
  -5  10  -1-834.055 713.494   2
  10  -5  -1 807.759 694.171   1
 -10   5   1-554.721 628.028   1
 -10   5   0 301078. 10789.9   1
  10  -5   0 276884. 10695.0   1
 -10   5  -1-68.7694 407.493   1
  10  -5   1 582.531 624.025   1
 -10   5  -2 11505.8 2127.99   1
  10  -5   2 11949.1 2198.30   1
   5   5  -2 7444.00 1942.95   2
 -10   5  -3-48.0715 102.862   1
   5   5  -3-293.947 245.007   2
 -10   5  -4 78486.6 5619.16   1
   5   5  -4 69976.9 5460.31   2
 -10   5  -5 288.408 444.952   1
  10  -5   5-957.694 699.665   1
  -5  -5   5-461.708 269.560   1
   5   5  -5-638.173 456.563   2
 -10   5  -6 10989.8 2184.74   1
  10  -5   6 12996.9 2422.20   1
  -5  -5   6 11267.4 2053.88   1
   5   5  -6 9606.11 2013.31   2
   5   5  -7-274.934 503.130   1
  -5  -5   7-79.5536 415.477   1
  10  -5   7 87.9876 264.113   1
 -10   5  -7 475.250 582.219   1
   5   5  -7-259.854 546.949   2
   5   5  -8 21517.2 3168.46   1
  -5  -5   8 21075.2 3063.25   1
 -10   5  -8 19303.8 2907.82   1
  10  -5   8 22899.4 3135.34   1
   5   5  -8 19213.1 2890.64   2
 -10   5  -9 422.079 231.938   1
   5   5  -9-83.2134 550.624   1
  -5  -5   9 197.551 345.902   1
  10  -5   9 718.400 632.655   1
   5   5  -9-901.109 817.646   2
 -10   5 -10 3068.46 1149.13   1
   5   5 -10 3414.52 1315.76   1
  -5  -5  10 2863.55 1195.42   1
  10  -5  10 2666.44 1008.51   1
   5   5 -10 2781.54 990.368   2
 -10   5 -11-181.048 269.594   1
   5   5 -11 1325.34 965.765   1
  -5  -5  11-259.023 492.765   1
  10  -5  11 608.204 784.327   1
   5   5 -11 757.019 807.612   2
   5   5 -12 124461. 7944.20   1
  -5  -5  12 145715. 8427.27   1
  10  -5  12 157229. 8606.80   1
 -10   5 -12 174917. 8834.60   1
   5   5 -12 138968. 7873.35   2
 -10   5 -13-35.0588 497.557   1
   5   5 -13 239.389 461.780   1
  -5  -5  13 352.676 488.147   1
   5   5 -13 531.251 507.187   2
  10  -5  13-83.1708 590.498   1
   5   5 -14 344.684 340.079   1
  -5  -5  14 104.541 209.727   1
  -4  10 -14 4823.60 1898.60   1
  10  -6 -14 19021.7 3053.61   1
 -10   6  14 16241.0 2821.71   1
  -6  10 -14 11727.1 2448.89   1
   6 -10  14 22557.6 3391.95   1
   4 -10  14 22257.2 3453.90   1
  10  -6 -14 10602.6 2260.91   2
 -10   6  13-89.5477 268.155   1
   6 -10  13-637.022 604.371   1
   4 -10  13 66.9887 187.607   1
  10  -4 -13-829.890 751.547   1
  10  -6 -13 848.028 819.882   1
  -6  10 -13 301.671 355.415   1
  -6  10 -13-141.440 413.944   2
  -4  10 -13-1011.99 617.927   2
  10  -4 -13 810.489 503.573   2
  10  -6 -13 104.581 466.093   2
 -10   4  13 702.043 382.525   1
  -4  10 -13 1.97343 140.739   1
   6 -10  12 4082.67 1427.22   1
 -10   4  12 4322.53 1268.26   1
 -10   6  12 4330.89 1429.39   1
   4 -10  12 4244.01 1549.73   1
  10  -4 -12 4087.76 1321.61   1
  10  -6 -12 4377.23 1448.89   1
  -6  10 -12 1425.08 752.367   1
  -6  10 -12 2514.62 1137.09   2
  -4  10 -12 3196.23 1300.52   2
  10  -4 -12 4053.24 1392.28   2
  10  -6 -12 1372.46 595.635   2
  10  -4 -11 23286.6 3266.34   1
  10  -6 -11 23711.4 3349.63   1
  -6  10 -11 13011.0 2526.21   1
 -10   4  11 25837.1 3378.61   1
 -10   6  11 16706.7 2763.95   1
  -6  10 -11 24564.0 3500.06   2
  -4  10 -11 21468.7 3270.02   2
   6 -10  11 20954.0 3185.45   1
   4 -10  11 23170.7 3441.86   1
  10  -4 -11 24288.3 3258.80   2
  10  -4 -10 35472.2 4028.65   1
  10  -6 -10 32389.7 3728.82   1
  -6  10 -10 19787.0 3078.88   1
 -10   4  10 36127.6 3906.63   1
  -6  10 -10 37236.9 4230.22   2
  -4  10 -10 38865.9 4326.27   2
 -10   6  10 36970.6 4027.06   1
   6 -10  10 36233.6 4265.17   1
  10  -4 -10 31911.8 3748.38   2
  10  -4  -9 38058.6 4028.73   1
  10  -6  -9 38441.0 4183.85   1
  -6  10  -9 36252.4 4020.77   1
  -4  10  -9 40626.1 4339.16   2
 -10   4   9 42947.6 4188.55   1
 -10   6   9 38510.9 3957.23   1
  -6  10  -9 31884.3 3893.19   2
   6 -10   9 39051.0 4340.61   1
  10  -4  -9 24328.7 3069.12   2
 -10   4   8 4019.08 1244.28   1
 -10   6   8 3332.92 1065.07   1
  10  -4  -8 5733.43 1516.51   1
  10  -6  -8 3711.24 1277.37   1
  -6  10  -8 5562.77 1686.77   2
  -4  10  -8 5283.78 1554.99   2
  10  -4  -8 4153.92 1371.16   2
   6 -10   8 3619.02 1265.07   1
  -6  10  -8 4839.70 1411.91   1
 -10   4   7 2929.39 1139.41   1
 -10   6   7 2934.51 1116.62   1
  10  -4  -7 4059.12 1312.59   1
  10  -6  -7 2691.14 1039.28   1
  -6  10  -7 3729.43 1438.76   2
  -4  10  -7 5080.60 1587.29   2
  -6  10  -7 4634.54 1459.38   1
  10  -4  -7 4174.74 1394.03   2
   6 -10   7 2587.82 1198.12   1
  10  -4  -6 36554.6 3789.46   1
  10  -6  -6 37295.3 3977.76   1
  -6  10  -6 29854.3 3725.71   2
  -4  10  -6 32783.8 3709.45   2
   6 -10   6 38704.6 4151.40   1
 -10   4   6 31148.2 3396.20   1
 -10   6   6 33254.3 3478.13   1
  10  -4  -6 26142.1 3518.10   2
 -10   4   5 5168.69 1337.12   1
  10  -4  -5 3965.98 1326.16   1
  10  -6  -5 6411.09 1569.89   1
 -10   6   5 4302.57 1287.77   1
  -6  10  -5 4485.12 1600.10   2
  -4  10  -5 4750.31 1485.90   2
  10  -4  -5 3201.17 1218.67   2
  10  -4  -4 2262.17 971.744   1
 -10   4   4 1500.98 791.434   1
  10  -6  -4 1784.32 730.801   1
  -6  10  -4 3062.94 1183.22   2
  -4  10  -4 3208.96 1231.97   2
 -10   6   4 480.934 98.5128   1
  10  -4  -3 12457.8 2190.72   1
  10  -6  -3 10400.5 2082.96   1
  -6  10  -3 9342.47 2291.01   2
  -4  10  -3 7987.52 1951.83   2
 -10   4   3 11319.1 1950.92   1
 -10   6   3 11806.1 2161.45   1
 -10   6   2 87898.5 5876.49   1
  10  -4  -2 76912.3 5474.17   1
  10  -6  -2 72934.2 5428.31   1
  -4  10  -2 65656.3 5338.47   2
 -10   4   2 80652.5 5471.86   1
 -10   6   1 16569.4 2543.66   1
  10  -4  -1 17414.7 2652.60   1
  10  -6  -1 17072.8 2572.21   1
  -4  10  -1 14848.7 2591.57   2
 -10   4   1 14651.6 2331.22   1
 -10   4   0 28389.1 3354.86   1
 -10   6   0 32685.4 3583.56   1
  10  -4   0 29384.6 3497.99   1
  10  -6   0 27835.9 3403.65   1
  -4  10   0 21366.5 3365.91   2
 -10   4  -1 41403.4 4030.29   1
 -10   6  -1 36859.3 3864.77   1
  10  -4   1 41607.3 4133.78   1
  10  -6   1 41653.8 4144.49   1
  -4  10   1 37714.3 3944.44   2
   6   4  -1 33815.4 3815.02   2
 -10   4  -2 109157. 6597.05   1
 -10   6  -2 104629. 6471.65   1
  10  -4   2 116277. 6899.72   1
  10  -6   2 103934. 6526.95   1
   4   6  -2 109198. 6487.61   2
   6   4  -2 95091.6 6159.74   2
  -6  -4   3 11003.3 2153.20   1
 -10   4  -3 16744.0 2620.23   1
 -10   6  -3 16133.0 2610.57   1
  10  -4   3 15071.9 2432.51   1
  10  -6   3 14254.3 2423.03   1
   4   6  -3 16129.0 2434.59   2
   6   4  -3 13077.4 2409.61   2
 -10   4  -4 2633.04 1060.99   1
   6   4  -4 1584.88 784.662   1
 -10   6  -4 2314.72 913.582   1
  10  -4   4 2343.64 940.793   1
  10  -6   4 2360.79 1054.50   1
   4   6  -4 2075.72 906.292   2
   6   4  -4 3237.66 1297.32   2
  -6  -4   4 3125.14 1108.45   1
   6   4  -5 5561.00 1391.32   1
 -10   4  -5 7573.36 1831.49   1
  10  -4   5 8786.36 1815.55   1
 -10   6  -5 6857.75 1707.52   1
  10  -6   5 8727.67 1954.64   1
   4   6  -5 5914.35 1552.11   2
   6   4  -5 6892.81 1714.33   2
  -6  -4   5 9599.41 2045.85   1
   6   4  -6 24449.8 3241.79   1
 -10   4  -6 21497.5 2792.10   1
  -6  -4   6 23588.7 3150.03   1
 -10   6  -6 24206.2 3242.15   1
  10  -4   6 26598.6 3302.28   1
  10  -6   6 23624.8 3134.45   1
   4   6  -6 19745.4 2899.63   2
   6   4  -6 21380.1 2959.74   2
   6   4  -7 21246.5 3142.20   1
  -6  -4   7 25199.0 3308.18   1
 -10   4  -7 24004.8 3204.01   1
 -10   6  -7 23126.3 3078.51   1
  10  -4   7 25910.4 3243.30   1
  10  -6   7 25970.4 3294.36   1
   4   6  -7 19925.9 2877.05   2
   6   4  -7 22929.8 3115.70   2
 -10   6  -8 651.254 215.877   1
   6   4  -8 9.45392 285.265   1
  -4  -6   8 637.308 477.633   1
  10  -4   8 90.0980 544.537   1
 -10   4  -8 109.290 115.929   1
  10  -6   8-457.964 591.656   1
   4   6  -8 522.900 303.551   2
  -6  -4   8 788.822 515.962   1
   6   4  -8 200.097 478.241   2
 -10   6  -9 3787.60 851.111   1
   6   4  -9 3533.69 1306.32   1
  -4  -6   9 2712.23 1194.94   1
  10  -4   9 2683.54 1049.25   1
  -6  -4   9 1588.34 769.585   1
   4   6  -9 3458.32 1273.57   2
  10  -6   9 3683.48 1257.48   1
   6   4  -9 2049.07 1143.78   2
 -10   4  -9 3585.23 1325.90   1
   4   6 -10 45783.3 4788.14   1
   6   4 -10 47584.0 4704.50   1
  -4  -6  10 54690.2 5071.38   1
  -6  -4  10 55759.2 5003.64   1
 -10   4 -10 54033.0 4850.79   1
  10  -4  10 56413.4 5040.51   1
  10  -6  10 55928.6 5029.17   1
 -10   6 -10 59695.7 5172.07   1
   4   6 -10 57281.7 4930.53   2
   6   4 -10 42634.7 4580.62   2
 -10   4 -11 3072.98 940.133   1
 -10   6 -11 3843.79 1504.12   1
   4   6 -11 2754.13 1218.73   1
   6   4 -11 1990.15 925.118   1
  -4  -6  11 3154.87 1338.48   1
  -6  -4  11 2872.13 1091.94   1
  10  -4  11 3128.06 1258.31   1
   4   6 -11 2637.13 1004.99   2
  10  -6  11 1827.27 845.902   1
   6   4 -11 3229.95 1373.39   2
   6   4 -12 15758.5 2811.06   1
  -4  -6  12 15389.0 2795.65   1
  -6  -4  12 16994.0 2825.29   1
   4   6 -12 11814.3 2367.17   1
 -10   4 -12 17513.6 2772.63   1
   4   6 -12 15036.7 2648.74   2
 -10   6 -12 17809.6 2913.53   1
   6   4 -12 16412.5 2861.73   2
  10  -4  12 14556.2 2503.95   1
  10  -6  12 16332.7 2679.20   1
   4   6 -13 13284.3 2712.44   1
   6   4 -13 17574.7 2988.41   1
  -4  -6  13 17803.6 3042.00   1
  -6  -4  13 18409.5 2945.18   1
  10  -4  13 17739.0 2779.47   1
 -10   4 -13 25126.9 3325.95   1
  10  -6  13 22464.6 3078.43   1
   4   6 -13 19717.4 3049.79   2
   6   4 -13 18639.3 3100.18   2
 -10   6 -13 22591.5 3292.95   1
  -4  -6  14 12871.3 2551.23   1
   4   6 -14 10416.9 2383.40   1
  10  -7 -14 2223.87 970.304   2
  -7  10 -13 8136.41 2049.06   1
  10  -7 -13 9486.70 2162.17   1
  -7  10 -13 9516.96 2156.35   2
   7 -10  13 11166.3 2383.20   1
 -10   3  12 2174.93 1082.80   1
  -7  10 -12 1169.48 736.484   1
 -10   7  12 991.051 662.307   1
  10  -3 -12 1439.52 822.895   1
  10  -7 -12 1771.27 957.340   1
  -7  10 -12 740.883 540.431   2
  -3  10 -12 2311.18 1040.84   2
  10  -3 -12 1896.32 932.751   2
  10  -7 -12 109.805 843.798   2
   7 -10  12 932.340 643.113   1
 -10   3  11 3045.26 1185.44   1
 -10   7  11 1180.65 646.417   1
  10  -3 -11 2135.99 862.755   1
  10  -7 -11 1591.23 914.410   1
  -7  10 -11 2806.42 1389.74   2
  -3  10 -11 3605.71 1517.22   2
  10  -3 -11 2725.44 962.730   2
  10  -7 -11 1284.76 786.493   2
   7 -10  11 1421.56 604.802   1
  -7  10 -11 1552.09 1020.67   1
  -7  10 -10 32361.7 3951.05   1
  10  -3 -10 55966.2 4978.98   1
  10  -7 -10 56700.9 5154.59   1
 -10   3  10 52221.7 4700.09   1
  -7  10 -10 38763.1 4401.65   2
 -10   7  10 48919.5 4655.68   1
  -3  10 -10 46670.0 4879.86   2
   7 -10  10 55447.0 5073.07   1
  10  -3 -10 50090.0 4657.00   2
  10  -3  -9 17311.0 2680.71   1
  10  -7  -9 14137.5 2448.44   1
 -10   3   9 17718.6 2637.48   1
 -10   7   9 12572.9 2378.47   1
  -7  10  -9 14864.7 2729.20   2
   7 -10   9 16356.6 2770.05   1
  -3  10  -9 13703.1 2678.54   2
  -7  10  -9 12101.6 2227.80   1
  10  -3  -9 15915.5 2546.64   2
 -10   3   8 3323.96 1108.67   1
 -10   7   8 3622.11 1240.26   1
  10  -3  -8 5075.32 1388.57   1
  10  -7  -8 4520.08 1546.88   1
  -7  10  -8 3211.44 1141.92   2
  -3  10  -8 2200.65 1070.16   2
  -7  10  -8 3403.83 1226.28   1
  10  -3  -8 4536.05 1392.65   2
   7 -10   8 3735.26 1329.77   1
  10  -3  -7 49087.5 4523.50   1
  10  -7  -7 50284.9 4756.90   1
  -7  10  -7 49206.6 4830.95   2
  -3  10  -7 51331.5 4902.70   2
   7 -10   7 60836.2 5269.49   1
 -10   3   7 57349.4 4773.02   1
 -10   7   7 46559.9 4380.47   1
  10  -3  -7 47969.1 4426.22   2
  10  -3  -6 41647.4 4162.07   1
  10  -7  -6 44868.5 4370.00   1
  -7  10  -6 42512.7 4512.50   2
  -3  10  -6 39365.0 4161.50   2
   7 -10   6 42412.4 4349.13   1
 -10   3   6 47223.0 4360.18   1
 -10   7   6 49478.0 4359.62   1
  10  -3  -6 37660.0 3995.99   2
  -7  10  -6 41827.3 4239.91   1
  10  -3  -5 13996.7 2409.93   1
  10  -7  -5 15553.4 2555.49   1
   7 -10   5 14761.9 2471.06   1
 -10   7   5 10771.3 2062.21   1
  -3  10  -5 11730.1 2390.92   2
 -10   3   5 15366.8 2461.50   1
  -7  10  -5 12382.6 2366.94   1
  10  -3  -5 12522.0 2311.31   2
 -10   3   4 9966.95 1858.01   1
  10  -3  -4 11351.3 2159.98   1
  10  -7  -4 10990.7 2108.98   1
  -3  10  -4 12237.8 2354.96   2
   7 -10   4 11983.6 2215.44   1
 -10   7   4 12119.1 2203.19   1
  10  -3  -4 5436.28 1316.26   2
  10  -3  -3 163.245 286.162   1
 -10   3   3 706.324 451.283   1
  10  -7  -3 1117.66 682.970   1
  -3  10  -3-315.191 588.495   2
 -10   7   3 529.342 387.513   1
  10  -3  -3 363.917 707.784   2
 -10   7   2 67544.7 5105.53   1
  10  -3  -2 48365.4 4451.42   1
  10  -7  -2 54414.7 4705.17   1
  -3  10  -2 48873.7 4588.76   2
 -10   3   2 58830.3 4685.86   1
  10  -3  -2 37168.4 4222.47   2
 -10   7   1 6658.16 1653.37   1
  10  -3  -1 6402.06 1533.24   1
  -3  10  -1 5888.10 1643.39   2
  10  -7  -1 6325.74 1774.11   1
 -10   3   1 8271.51 1850.45   1
 -10   7   0 13904.7 2395.29   1
  10  -3   0 14554.7 2363.77   1
  -7  -3   0 13789.9 2307.40   1
  -3  10   0 10693.2 2349.04   2
  10  -7   0 14914.6 2496.24   1
 -10   3   0 8771.87 1909.49   1
 -10   3  -1 23325.5 3069.80   1
 -10   7  -1 23101.2 3061.13   1
   7   3  -1 33553.3 3637.88   1
  10  -3   1 23844.2 3018.23   1
  10  -7   1 22890.1 3095.08   1
  -3  10   1 21772.7 3260.35   2
  -7  -3   1 29208.0 3396.16   1
   7   3  -1 22839.2 3014.67   2
 -10   3  -2 60768.3 4839.12   1
   7   3  -2 51647.5 4512.60   1
 -10   7  -2 53066.8 4529.53   1
  10  -3   2 54628.5 4804.42   1
  10  -7   2 59983.9 4997.31   1
  -7  -3   2 67334.1 5144.62   1
   3   7  -2 49901.7 4654.71   2
   7   3  -2 50367.3 4479.40   2
 -10   3  -3 30929.6 3446.20   1
   7   3  -3 31985.9 3598.91   1
 -10   7  -3 30931.9 3523.38   1
  10  -3   3 28317.7 3454.99   1
  10  -7   3 30620.0 3577.21   1
  -7  -3   3 35199.2 3674.35   1
   3   7  -3 27252.8 3401.17   2
   7   3  -3 21109.8 2870.41   2
  -7  -3   4 1162.37 695.817   1
 -10   3  -4 1169.68 829.210   1
   7   3  -4 318.693 596.562   1
 -10   7  -4 1135.81 761.053   1
  10  -3   4 539.676 586.534   1
  10  -7   4 1317.43 817.657   1
   3   7  -4 1098.27 722.721   2
   7   3  -4 387.484 817.359   2
   7   3  -5 19584.4 2883.67   1
 -10   3  -5 19878.5 2911.50   1
 -10   7  -5 28547.6 3505.79   1
  10  -3   5 23951.4 3131.00   1
  -7  -3   5 23233.5 3146.87   1
  10  -7   5 21599.9 3121.60   1
   3   7  -5 24073.5 3222.64   2
   7   3  -5 23902.5 3191.22   2
   7   3  -6 76101.9 5868.88   1
 -10   3  -6 66007.8 5318.81   1
  -7  -3   6 79909.1 5855.19   1
  10  -3   6 71212.9 5400.27   1
 -10   7  -6 70363.0 5516.93   1
  10  -7   6 72124.4 5532.05   1
   7   3  -6 60065.8 5040.59   2
   3   7  -6 65287.2 5342.68   2
 -10   7  -7 14855.5 2357.71   1
   7   3  -7 14156.9 2542.41   1
 -10   3  -7 13110.9 2356.71   1
  -7  -3   7 14327.4 2531.31   1
  10  -7   7 16406.7 2664.86   1
  10  -3   7 11562.2 2186.77   1
   3   7  -7 12932.6 2370.72   2
   7   3  -7 11768.2 2207.41   2
 -10   7  -8 13946.5 2416.04   1
 -10   3  -8 12267.1 2347.50   1
   7   3  -8 12193.1 2374.24   1
  10  -3   8 9423.86 2010.53   1
   3   7  -8 9666.52 2130.56   2
  10  -7   8 13616.7 2326.80   1
   7   3  -8 12645.1 2351.59   2
  -7  -3   8 14950.9 2468.94   1
  -7  -3   9 15496.9 2702.06   1
   7   3  -9 11496.6 2405.06   1
 -10   3  -9 16215.4 2693.45   1
  10  -7   9 15122.8 2618.85   1
 -10   7  -9 14893.5 2588.20   1
   3   7  -9 18487.3 2912.26   2
  10  -3   9 10430.4 2238.02   1
   7   3  -9 13360.9 2662.20   2
  -7  -3  10 18777.0 2889.07   1
   7   3 -10 15285.1 2704.62   1
 -10   3 -10 19618.9 2971.55   1
  10  -3  10 18159.4 2952.76   1
  10  -7  10 18558.6 2843.05   1
 -10   7 -10 17232.2 3061.10   1
   3   7 -10 19504.9 3044.44   2
   7   3 -10 18740.3 2963.46   2
 -10   7 -11 2463.62 1070.56   1
   7   3 -11 2031.54 957.206   1
  10  -3  11 2084.80 997.826   1
  -7  -3  11 1866.18 905.190   1
   3   7 -11 2997.09 1348.66   2
  10  -7  11 1806.29 911.615   1
 -10   3 -11 3317.50 1266.08   1
   7   3 -11 3469.35 1287.43   2
   7   3 -12 1686.03 812.803   1
 -10   7 -12 5385.82 1533.87   1
  -3  -7  12 3284.35 1244.72   1
  -7  -3  12 4206.30 1412.38   1
  10  -3  12 2961.20 1248.06   1
   3   7 -12 3640.94 1364.62   2
  10  -7  12 3468.35 1222.46   1
   7   3 -12 1780.55 901.501   2
 -10   3 -12 2816.37 1134.26   1
   7   3 -13-679.445 591.392   1
  -3  -7  13-129.649 392.015   1
  -7  -3  13 174.901 362.171   1
  10  -3  13 216.279 298.870   1
 -10   3 -13 75.2326 241.241   1
  -3  -7  14 93.2704 373.014   1
  10  -8 -13-323.320 646.985   2
  -8  10 -12 35425.2 4063.91   1
 -10   2  12 35356.4 4061.73   1
  -8  10 -12 33392.2 4200.06   2
  -2  10 -12 30710.5 4147.20   2
   8 -10  12 38052.2 4378.95   1
 -10   2  11 641.213 585.385   1
  10  -2 -11-203.222 91.0285   1
  -8  10 -11 12.7834 460.468   2
  -2  10 -11-295.428 580.320   2
  -8  10 -11 296.322 374.400   1
  10  -2 -11 1143.36 559.632   2
   8 -10  11-607.790 836.703   1
  10  -8 -11 229.258 628.149   2
 -10   2  10 270.310 332.152   1
  10  -2 -10 875.611 440.188   1
  10  -8 -10 400.046 610.066   1
  -8  10 -10-479.508 470.891   1
  -2  10 -10 332.551 357.242   2
  10  -2 -10 851.987 639.587   2
   8 -10  10 1464.07 950.446   1
 -10   2   9 2513.35 1093.44   1
 -10   8   9 1427.66 580.361   1
  10  -2  -9 1013.59 734.377   1
  10  -8  -9 1712.74 922.344   1
  -8  10  -9 320.169 447.865   1
  -2  10  -9 1301.27 1001.28   2
   8 -10   9-96.5691 379.246   1
  10  -2  -9 1159.33 663.522   2
  10  -2  -8 62972.7 5246.74   1
  10  -8  -8 71248.8 5851.89   1
 -10   2   8 70663.4 5477.57   1
  -2  10  -8 64688.5 5558.01   2
   8 -10   8 67227.6 5685.54   1
 -10   8   8 57155.0 5044.29   1
  10  -2  -8 59583.1 5016.88   2
  -8  10  -8 64192.3 5486.88   1
 -10   2   7 1807.60 922.607   1
  -8  10  -7 738.528 722.323   1
 -10   8   7 1018.59 551.845   1
  10  -2  -7 1567.18 851.668   1
  10  -8  -7 1468.29 900.854   1
  -2  10  -7 579.265 511.770   2
   8 -10   7 1000.41 665.772   1
  10  -2  -7 3049.79 1264.55   2
 -10   2   6-429.125 517.458   1
  -8  10  -6-339.063 577.641   1
  10  -2  -6 79.7251 231.160   1
 -10   8   6-850.073 756.740   1
  10  -8  -6-234.160 187.123   1
  -2  10  -6-122.789 232.203   2
   8 -10   6-179.695 387.984   1
  10  -2  -6-921.091 606.096   2
  -8  10  -5 1281.31 853.660   1
 -10   2   5 3285.20 1222.86   1
  10  -2  -5 3177.10 1137.84   1
  10  -8  -5 3559.25 1338.92   1
 -10   8   5 2120.20 951.384   1
  -2  10  -5 1245.61 759.189   2
   8 -10   5 2749.86 1092.85   1
  10  -2  -5 3436.08 1135.22   2
  10  -2  -4 85332.7 5990.59   1
  10  -8  -4 76664.5 5826.19   1
   8 -10   4 79649.5 5957.92   1
  -2  10  -4 73576.5 6000.07   2
  -8  10  -4 64741.1 5217.59   1
 -10   2   4 83488.7 5841.75   1
  10  -2  -4 60619.0 4973.84   2
 -10   8   4 85086.2 5796.17   1
 -10   2   3 72.8835 159.078   1
  10  -2  -3-506.502 661.901   1
  10  -8  -3 841.200 537.640   1
  -2  10  -3 24.4492 162.455   2
   8 -10   3 600.948 504.456   1
 -10   8   3-30.8970 389.347   1
  10  -2  -3 125.006 357.430   2
  -8  10  -3 317.070 400.140   1
  -8  -2  -2 10302.4 1966.21   1
  10  -2  -2 9070.05 1931.14   1
 -10   2   2 10115.4 2008.21   1
  10  -8  -2 8072.77 1776.45   1
  -2  10  -2 7190.86 1797.06   2
   8 -10   2 8264.80 1883.01   1
 -10   8   2 7080.57 1718.71   1
  10  -2  -2 6533.07 1516.55   2
 -10   8   1-197.679 543.786   1
  -8  -2  -1 202.337 507.725   1
   8   2   1 214.672 339.335   1
  10  -2  -1 845.884 609.182   1
 -10   2   1 761.826 611.986   1
  10  -8  -1 1229.95 913.882   1
  -2  10  -1 260.502 491.695   2
  10  -2  -1 263.179 291.383   2
 -10   8   0 73337.4 5587.55   1
   8   2   0 81945.8 5894.15   1
  10  -2   0 70317.8 5428.91   1
  10  -8   0 78039.4 5775.46   1
  -8  -2   0 86230.4 5964.18   1
 -10   2   0 70079.3 5339.42   1
 -10   8  -1-903.424 668.018   1
  -8  -2   1 682.108 709.371   1
   8   2  -1 696.804 505.674   1
  10  -2   1-192.350 404.464   1
  10  -8   1 87.9004 420.813   1
 -10   2  -1 158.178 237.857   1
   8   2  -1-239.420 326.868   2
  10  -2   1-123.587 296.153   2
  -8  -2   2 6067.47 1450.02   1
 -10   8  -2 7841.37 1793.18   1
   8   2  -2 5302.04 1580.78   1
  10  -2   2 6822.38 1620.57   1
  10  -8   2 4491.43 1398.19   1
 -10   2  -2 6595.52 1560.83   1
   8   2  -2 4789.05 1495.04   2
  10  -2   2 1932.91 948.658   2
  -8  -2   3 2834.97 1056.01   1
   8   2  -3 2328.62 1060.34   1
 -10   8  -3 2285.40 955.184   1
  10  -2   3 2549.68 1074.63   1
  10  -8   3 3334.85 1164.78   1
   2   8  -3 2455.57 901.413   2
   8   2  -3 1245.29 574.545   2
 -10   2  -3 2683.16 942.200   1
 -10   2  -4 119496. 7134.76   1
   8   2  -4 124474. 7156.19   1
 -10   8  -4 123000. 7170.50   1
  10  -2   4 118528. 7158.92   1
  10  -8   4 116235. 7232.61   1
  -8  -2   4 113554. 6875.01   1
   2   8  -4 116456. 7158.13   2
   8   2  -4 105493. 6858.07   2
  -8  -2   5 164.822 90.1445   1
 -10   2  -5 428.038 582.754   1
   8   2  -5-83.4945 289.372   1
  10  -2   5 173.967 321.057   1
   2   8  -5-718.585 788.753   2
  10  -8   5-193.105 377.747   1
 -10   8  -5-128.465 210.545   1
   8   2  -5-185.141 466.671   2
  -8  -2   6 915.521 746.233   1
 -10   2  -6 1301.22 721.871   1
   8   2  -6-186.023 502.811   1
  10  -2   6 591.238 433.612   1
   2   8  -6-255.305 540.443   2
  10  -8   6 181.372 668.829   1
   8   2  -6 14.4960 77.0560   2
 -10   8  -6 606.706 634.887   1
  -8  -2   7 4582.97 1467.59   1
 -10   8  -7 2822.04 1041.35   1
 -10   2  -7 2634.42 974.487   1
   8   2  -7 4759.60 1338.91   1
  10  -2   7 3529.77 1278.19   1
   2   8  -7 4248.62 1378.87   2
  10  -8   7 3108.81 1256.86   1
   8   2  -7 2192.04 1135.10   2
   8   2  -8 46858.3 4736.84   1
 -10   2  -8 44443.3 4463.32   1
  -8  -2   8 46997.7 4604.26   1
  10  -2   8 42023.5 4314.70   1
  10  -8   8 49918.5 4638.48   1
 -10   8  -8 47564.9 4556.19   1
   2   8  -8 45829.6 4638.46   2
   8   2  -8 42854.3 4350.92   2
 -10   8  -9-459.218 310.958   1
   8   2  -9 52.0705 154.730   1
 -10   2  -9 524.772 254.363   1
  10  -2   9-194.006 419.868   1
   2   8  -9 530.642 649.830   2
  10  -8   9-483.623 586.055   1
   8   2  -9 9.13704 223.162   2
  -8  -2   9-1029.89 887.027   1
 -10   8 -10-774.761 714.277   1
   8   2 -10 323.738 546.818   1
 -10   2 -10 618.176 474.322   1
  10  -2  10 1134.66 967.339   1
   2   8 -10 493.999 280.309   2
  10  -8  10 292.377 183.119   1
   8   2 -10 800.313 570.850   2
  -8  -2  10 615.617 550.637   1
 -10   8 -11 1321.99 743.984   1
   8   2 -11 926.782 711.283   1
 -10   2 -11 552.977 373.888   1
  10  -2  11 1130.05 628.278   1
   2   8 -11 966.467 758.388   2
  -8  -2  11-264.660 268.755   1
  10  -8  11 695.909 473.361   1
   8   2 -11 1392.34 675.798   2
   8   2 -12 27301.8 3760.00   1
  -8  -2  12 35266.3 4102.97   1
 -10   2 -12 31132.4 3982.67   1
  10  -2  12 31955.4 4022.43   1
  10  -8  12 33302.2 3987.33   1
   2   8 -12 29064.4 3797.14   2
   8   2 -12 25986.0 3683.98   2
 -10   8 -12 33138.5 4083.38   1
 -10   2 -13 767.477 596.406   1
  10  -9 -12 2165.59 1354.19   2
  -9  10 -11 732.517 742.826   1
  -1  10 -11 1589.73 853.642   2
   9 -10  11 1034.59 711.670   1
  10  -1 -10 35329.1 4045.08   1
 -10   1  10 39447.5 4228.75   1
  -1  10 -10 34091.0 4122.11   2
   9 -10  10 37287.7 4238.00   1
  10  -1 -10 36051.5 3853.18   2
  -9  10 -10 32909.4 4019.77   1
 -10   1   9 8157.42 1901.71   1
  -9  10  -9 5382.54 1784.84   1
  10  -1  -9 6619.64 1719.19   1
  -1  10  -9 6100.90 1765.72   2
   9 -10   9 6273.72 1776.99   1
  10  -1  -9 6713.87 1676.37   2
 -10   1   8 571.180 329.377   1
  -9  10  -8 78.4430 221.907   1
  10  -1  -8 1126.83 916.866   1
  -1  10  -8 935.862 662.412   2
   9 -10   8 427.195 455.583   1
  10  -1  -8 840.804 475.607   2
  10  -1  -7 27784.6 3416.16   1
   9 -10   7 25660.6 3447.99   1
 -10   1   7 28004.4 3473.96   1
  -1  10  -7 19012.2 3142.63   2
  -9  10  -7 19885.4 3208.23   1
  10  -1  -7 21761.8 3045.81   2
 -10   1   6 12331.3 2133.25   1
  10  -1  -6 13042.7 2286.99   1
  10  -9  -6 13058.5 2421.25   1
   9 -10   6 12200.0 2469.92   1
  -9  10  -6 13671.6 2510.93   1
  -1  10  -6 10969.4 2344.98   2
  10  -1  -6 13814.4 2204.35   2
  -9  10  -5 526.241 578.550   1
 -10   1   5 1226.48 770.403   1
  10  -1  -5 1100.68 746.936   1
  10  -9  -5 1007.47 692.254   1
 -10   9   5 1958.22 966.815   1
  -1  10  -5 567.020 521.631   2
   9 -10   5 1032.89 502.699   1
  10  -1  -5 1375.04 654.045   2
  10  -1  -4 12654.4 2343.99   1
 -10   1   4 10119.6 2016.93   1
  10  -9  -4 8887.36 1988.72   1
  -1  10  -4 8141.25 1936.14   2
  -9  -1  -4 8369.96 1891.73   1
 -10   9   4 8041.08 1826.49   1
   9 -10   4 10064.0 2210.61   1
  10  -1  -4 8524.84 1844.21   2
  -9  10  -4 7914.40 1868.28   1
 -10   1   3 8081.81 1839.19   1
  10  -1  -3 5764.60 1582.65   1
   9   1   3 4943.14 1554.92   1
  10  -9  -3 7734.92 1764.99   1
  -9  -1  -3 7711.39 1858.39   1
  -1  10  -3 7331.30 1810.66   2
  -9  10  -3 6829.15 1763.12   1
   9 -10   3 10547.4 2236.09   1
  10  -1  -3 5024.07 1421.69   2
 -10   9   3 10511.2 2165.20   1
 -10   9   2 84369.6 6023.13   1
  10  -1  -2 56542.2 4999.98   1
   9   1   2 61336.7 5083.63   1
  -9  10  -2 77886.4 5886.06   1
  10  -9  -2 63956.3 5313.74   1
   9 -10   2 83509.4 6131.63   1
  -1  10  -2 61589.2 5412.77   2
 -10   1   2 64334.8 5183.33   1
  10  -1  -2 39984.8 4108.78   2
  -9  -1  -2 57359.8 4887.99   1
 -10   9   1 38888.0 3987.62   1
  -9  10  -1 29901.8 3645.03   1
   9   1   1 30198.1 3544.40   1
  10  -1  -1 25190.1 3189.04   1
  10  -9  -1 24344.3 3401.77   1
   9 -10   1 34776.2 3864.18   1
  -9  -1  -1 30573.5 3556.45   1
 -10   1   1 26816.0 3314.11   1
  10  -1  -1 18910.3 2725.99   2
 -10   9   0 12093.6 2313.44   1
   9   1   0 13209.9 2416.14   1
  -9  -1   0 11124.6 2151.67   1
  10  -1   0 9586.71 2016.21   1
 -10   1   0 11669.5 2026.61   1
  10  -9   0 14143.5 2466.11   1
   9 -10   0 11319.4 2249.58   1
  10  -1   0 7629.84 1815.79   2
 -10   9  -1 14272.4 2397.36   1
  10  -1   1 12871.1 2405.15   1
  10  -9   1 11957.1 2331.24   1
   9   1  -1 12434.3 2309.80   1
  -9  -1   1 14865.3 2578.16   1
   9   1  -1 14152.1 2390.29   2
 -10   1  -1 17200.5 2584.05   1
  10  -1   1 9853.15 2097.46   2
   9   1  -2 65719.2 5330.01   1
 -10   9  -2 61706.7 5223.94   1
  10  -1   2 64316.4 5234.12   1
  10  -9   2 63293.9 5304.23   1
  -9  -1   2 74726.8 5712.76   1
   9   1  -2 61907.8 5126.99   2
 -10   1  -2 67723.9 5377.47   1
   9   1  -3 16035.5 2681.19   1
  -9  -1   3 12521.0 2306.36   1
 -10   9  -3 13247.4 2506.01   1
  10  -9   3 15567.2 2739.02   1
   1   9  -3 13792.0 2546.58   2
  10  -1   3 12752.6 2295.98   1
 -10   1  -3 14331.7 2375.59   1
   9   1  -3 9033.84 1968.64   2
  -9  -1   4 1323.99 820.600   1
   9   1  -4 909.317 368.376   1
  10  -1   4 342.879 468.181   1
   1   9  -4 336.346 485.724   2
 -10   9  -4 76.1941 296.085   1
  10  -9   4 393.493 301.818   1
 -10   1  -4 457.168 400.770   1
   9   1  -4 664.257 455.473   2
  -9  -1   5 5443.94 1477.92   1
   9   1  -5 5340.85 1536.19   1
  10  -1   5 5874.22 1661.47   1
   1   9  -5 4187.07 1326.60   2
  10  -9   5 4240.18 1382.22   1
   9   1  -5 4024.46 1316.31   2
 -10   9  -5 5186.24 1521.68   1
 -10   1  -5 4549.66 1417.95   1
 -10   9  -6 11475.1 2285.83   1
 -10   1  -6 13177.4 2357.81   1
   9   1  -6 10125.6 2062.49   1
  -9  -1   6 12416.4 2345.78   1
   1   9  -6 12865.9 2526.12   2
  10  -1   6 9327.88 2094.71   1
  10  -9   6 10553.6 2239.51   1
   9   1  -6 10734.8 2019.82   2
  -9  -1   7 2907.78 1130.01   1
 -10   9  -7 1599.25 835.058   1
 -10   1  -7 1670.19 848.687   1
   9   1  -7 1120.64 628.833   1
  10  -1   7 1606.65 907.664   1
   1   9  -7 2172.57 1173.61   2
  10  -9   7 1769.05 902.500   1
   9   1  -7 1973.07 945.588   2
  -9  -1   8 10027.7 2127.40   1
 -10   9  -8 8768.04 1995.43   1
 -10   1  -8 9028.32 2122.80   1
   9   1  -8 10651.2 2158.28   1
  10  -1   8 8884.12 2043.21   1
   1   9  -8 6730.61 1821.62   2
  10  -9   8 9491.02 2152.64   1
   9   1  -8 9944.71 2173.73   2
   9   1  -9 20114.3 3157.56   1
 -10   1  -9 18867.1 2925.78   1
  -9  -1   9 20143.0 3037.01   1
  10  -1   9 15123.6 2715.90   1
  10  -9   9 17957.1 2820.71   1
 -10   9  -9 16659.0 2731.76   1
   1   9  -9 15164.1 2652.77   2
   9   1  -9 14858.2 2530.34   2
   9   1 -10 27232.1 3686.93   1
 -10   1 -10 26134.0 3566.78   1
  -9  -1  10 35177.8 4010.45   1
  10  -9  10 28686.0 3709.84   1
   1   9 -10 22363.2 3353.98   2
 -10   9 -10 29195.8 3741.30   1
   9   1 -10 26656.6 3602.95   2
   9   1 -11 11377.0 2416.01   1
  -9  -1  11 13866.9 2563.73   1
 -10   9 -11 12160.3 2542.25   1
   1   9 -11 8789.63 2216.89   2
  10  -9  11 10137.6 2136.88   1
 -10  10   0 17923.2 2816.78   1
  10 -10   0 20477.4 3205.80   1
  10   0   0 14860.6 2485.78   1
 -10   0   0 14697.0 2528.09   1
 -10  10  -1 17520.7 2841.03   1
  10   0  -1 20256.7 3010.04   1
  10   0   1 21609.4 3125.25   1
  10 -10  -1 27372.5 3684.71   1
  10 -10   1 20299.4 3030.31   1
 -10   0   1 17064.3 2751.41   1
  10   0  -1 12894.3 2320.52   2
 -10   0  -1 20595.6 2910.40   1
 -10  10  -2 51066.5 4843.04   1
  10   0  -2 48065.8 4690.61   1
  10   0   2 55190.4 4993.29   1
  10 -10   2 66061.8 5565.98   1
 -10   0   2 59841.1 5194.07   1
  10   0  -2 39615.2 4093.73   2
 -10   0  -2 51328.6 4737.50   1
 -10   0   3 7395.33 1742.37   1
  10   0  -3 6443.82 1805.24   1
 -10  10  -3 6508.11 1797.81   1
  10   0   3 6034.18 1688.25   1
 -10   0  -3 6181.35 1589.36   1
  10 -10   3 7301.13 1866.45   1
  10   0  -3 5518.95 1600.49   2
 -10   0   4 1189.16 773.554   1
  10   0  -4 1837.55 839.895   1
  10   0   4 1764.37 905.410   1
   0  10  -4 1974.12 987.468   2
 -10  10  -4 2092.16 1170.31   1
 -10   0  -4 1989.85 683.035   1
  10 -10   4 3985.65 1491.51   1
  10   0  -4 1276.77 674.035   2
 -10   0   5 3532.21 1227.16   1
  10   0  -5 6374.22 1714.86   1
  10   0   5 5127.83 1540.94   1
   0  10  -5 3634.57 1312.43   2
  10 -10   5 6573.16 1736.71   1
 -10   0  -5 5445.79 1616.88   1
 -10  10  -5 4154.89 1504.49   1
  10   0  -5 3672.83 1245.69   2
 -10  10  -6 4277.92 1448.42   1
 -10   0   6 7470.08 1781.88   1
  10   0  -6 4986.57 1526.46   1
   0  10  -6 3973.30 1425.31   2
  10 -10   6 5376.19 1579.76   1
 -10   0  -6 3712.54 1273.83   1
  10   0  -6 2851.53 1150.19   2
 -10  10  -7 5454.31 1705.01   1
 -10   0   7 7207.34 1748.99   1
  10   0  -7 6810.49 1852.72   1
   0  10  -7 5782.11 1769.35   2
  10 -10   7 8312.36 2034.23   1
  10   0  -7 6165.18 1663.80   2
 -10   0   8 1694.69 821.326   1
 -10  10  -8 50.2175 499.139   1
  10   0  -8 765.187 507.018   1
  10 -10   8 773.850 432.635   1
  10   0  -8 1418.87 756.390   2
 -10   0   9 9886.17 2169.42   1
 -10  10  -9 6787.43 1959.48   1
  10   0  -9 10508.4 2164.75   1
   0  10  -9 7616.64 1987.05   2
  10 -10   9 8890.20 2065.92   1
  10   0  -9 11462.5 2297.42   2
  10 -10  10 27341.9 3689.83   1
 -10  10 -10 28890.0 3810.78   1
 -11   5  11 1595.05 862.027   1
 -11   6  11 1773.65 1024.88   1
  11  -5 -11 888.000 706.495   1
  11  -6 -11 1487.11 930.957   1
  11  -6 -11-37.5292 478.230   2
  11  -5 -10 26411.0 3574.86   1
  11  -6 -10 24740.7 3433.14   1
 -11   5  10 27646.8 3510.58   1
  -6  11 -10 21288.9 3292.60   2
  -5  11 -10 22230.8 3362.56   2
 -11   6  10 25247.0 3337.04   1
  11  -5 -10 15179.9 2464.14   2
  11  -6 -10 12294.8 2251.73   2
 -11   5   9 8917.36 1947.85   1
 -11   6   9 9713.65 2072.67   1
  11  -5  -9 10580.2 2207.63   1
  11  -6  -9 9139.33 2046.99   1
  -6  11  -9 9412.55 2261.50   2
  -5  11  -9 9336.93 2080.92   2
  11  -5  -9 8016.88 1899.73   2
  11  -6  -9 3606.68 1153.69   2
 -11   5   8-667.194 653.625   1
 -11   6   8-166.614 467.828   1
  11  -5  -8 611.312 686.933   1
  11  -6  -8-62.9387 308.451   1
  -6  11  -8 960.371 868.300   2
  -5  11  -8-448.003 238.663   2
  11  -5  -8 840.880 974.773   2
  11  -6  -8-1078.24 468.741   2
  11  -6  -7 13017.2 2453.11   1
 -11   5   7 11785.9 2128.23   1
 -11   6   7 12541.0 2349.42   1
  11  -5  -7 11792.2 2251.94   1
  -6  11  -7 11501.3 2438.47   2
  -5  11  -7 12124.4 2361.86   2
  11  -5  -7 5385.87 1328.36   2
  11  -5  -6 25944.9 3329.78   1
  11  -6  -6 26210.6 3322.13   1
  -6  11  -6 25268.2 3451.10   2
  -5  11  -6 21791.1 3233.78   2
 -11   5   6 23872.4 3097.26   1
 -11   6   6 24462.3 3217.04   1
  11  -5  -6 15514.9 2663.33   2
 -11   5   5 10651.7 2026.49   1
  11  -5  -5 13356.8 2415.54   1
 -11   6   5 12422.6 2147.89   1
  11  -6  -5 11628.1 2198.50   1
  -6  11  -5 7549.80 2049.99   2
  -5  11  -5 9893.29 2179.86   2
  11  -5  -4 8322.98 1949.75   1
  11  -6  -4 4529.88 1310.22   1
 -11   5   4 7088.79 1657.03   1
 -11   6   4 6721.55 1583.43   1
  -6  11  -4 3269.19 1273.92   2
  -5  11  -4 3545.93 1203.35   2
  11  -5  -3 28416.2 3529.65   1
  11  -6  -3 27754.8 3518.82   1
  -5  11  -3 16708.5 2902.84   2
  -6  11  -3 16942.9 2813.27   2
 -11   5   3 25476.7 3176.10   1
 -11   6   3 28227.5 3430.33   1
  11  -5  -2 70263.7 5512.22   1
  11  -6  -2 68470.0 5425.79   1
 -11   5   2 65599.7 5236.76   1
 -11   6   2 67336.7 5307.50   1
  11  -5  -1 8146.56 1798.65   1
  -5  11  -1 7751.33 1861.01   2
  11  -6  -1 8857.99 1932.26   1
 -11   5   1 9054.03 1964.61   1
 -11   6   1 11181.4 2099.24   1
  11  -5   0 9962.81 1975.98   1
  11  -6   0 8438.97 1832.20   1
 -11   5   0 9179.32 1927.91   1
 -11   6   0 10458.4 2108.83   1
 -11   6  -1 1654.35 858.194   1
  11  -5   1 1614.70 854.013   1
  11  -6   1-283.653 538.233   1
 -11   5  -1-117.822 545.360   1
 -11   5  -2 57192.0 4855.73   1
 -11   6  -2 48889.0 4559.42   1
  11  -5   2 56951.7 5023.58   1
  11  -6   2 48903.9 4660.09   1
 -11   5  -3 13309.8 2386.03   1
 -11   6  -3 13966.6 2292.57   1
  11  -5   3 12092.5 2329.66   1
  11  -6   3 14683.6 2602.86   1
   6   5  -3 8240.25 1993.02   2
 -11   5  -4 5516.33 1430.16   1
 -11   6  -4 6231.71 1687.00   1
  11  -5   4 4112.44 1280.32   1
  11  -6   4 5052.72 1537.09   1
   5   6  -4 1686.20 1004.24   2
   6   5  -4 4157.58 1410.07   2
 -11   5  -5 12727.3 2362.96   1
 -11   6  -5 13647.1 2479.98   1
  11  -5   5 12841.6 2420.65   1
  11  -6   5 14943.8 2459.23   1
   5   6  -5 10501.6 2275.37   2
   6   5  -5 8325.96 2102.20   2
 -11   5  -6 17882.4 2847.17   1
 -11   6  -6 17049.9 2693.72   1
  11  -5   6 14822.0 2518.58   1
   5   6  -6 16419.1 2655.85   2
   6   5  -6 15641.8 2724.53   2
  11  -6   6 15707.8 2529.96   1
 -11   5  -7 3825.14 1256.95   1
 -11   6  -7 6483.65 1748.07   1
  11  -5   7 6085.86 1625.23   1
  11  -6   7 4643.43 1382.62   1
   5   6  -7 3655.67 1203.54   2
   6   5  -7 3919.61 1373.46   2
 -11   5  -8 2818.80 1151.54   1
  11  -5   8 3370.49 1162.39   1
  11  -6   8 957.510 556.359   1
 -11   6  -8 2707.63 1033.18   1
   5   6  -8 2741.41 1156.18   2
   6   5  -8 2327.76 1177.04   2
  -6  -5   9 11840.2 2401.82   1
 -11   6  -9 14166.4 2544.35   1
  11  -6   9 17281.1 2960.74   1
 -11   5  -9 13815.1 2618.28   1
  11  -5   9 15288.3 2553.49   1
   5   6  -9 12441.7 2395.03   2
   6   5  -9 13270.8 2541.25   2
   6   5 -10 33157.6 4163.94   1
  -6  -5  10 47835.9 4942.33   1
 -11   5 -10 47371.0 4689.57   1
 -11   6 -10 46768.3 4547.56   1
  11  -5  10 47612.8 4888.56   1
  11  -6  10 45428.0 4707.41   1
   5   6 -10 39925.9 4379.25   2
   6   5 -10 44367.8 4540.48   2
   6   5 -11 10476.1 2262.72   1
  -6  -5  11 8620.26 2121.41   1
  11  -5  11 12446.4 2440.72   1
   5   6 -11 9633.40 2124.30   2
   6   5 -11 7992.93 2122.03   2
 -11   5 -11 13063.2 2430.41   1
   6   5 -12 2729.67 1415.26   1
  -6  -5  12 3103.35 1367.02   1
 -11   7  12 11646.5 2393.47   1
  11  -7 -12 10118.1 2115.68   1
 -11   7  11 1867.35 914.908   1
  11  -7 -11 682.469 533.704   1
  11  -7 -11-170.103 559.309   2
   7 -11  11 891.196 593.370   1
 -11   4  10 142.573 481.307   1
 -11   7  10 18.9456 240.322   1
  11  -4 -10 537.283 387.880   1
  11  -7 -10 528.563 679.812   1
  -7  11 -10 233.187 559.661   2
  -4  11 -10 168.197 347.435   2
  11  -4 -10 736.594 739.217   2
   7 -11  10 1198.15 832.633   1
  11  -7 -10 102.990 352.207   2
 -11   4   9 1913.96 671.877   1
 -11   7   9 2500.00 1034.93   1
  11  -4  -9 2998.80 1126.03   1
  11  -7  -9 2647.17 1143.47   1
  -7  11  -9 2869.34 1234.66   2
  -4  11  -9 425.169 366.146   2
  11  -4  -9 2499.65 1140.89   2
  11  -7  -9 1354.85 953.580   2
  11  -4  -8 90287.2 6458.15   1
  11  -7  -8 94846.8 6707.13   1
  -7  11  -8 80150.4 6420.81   2
  -4  11  -8 70326.2 5974.59   2
 -11   4   8 96914.6 6414.93   1
 -11   7   8 77834.6 5946.61   1
  11  -4  -8 59380.1 5090.69   2
 -11   4   7-135.149 235.576   1
 -11   7   7 506.670 615.702   1
  11  -4  -7-334.501 395.263   1
  11  -7  -7 553.598 604.604   1
  -7  11  -7 1004.13 883.542   2
  -4  11  -7 560.567 772.248   2
  11  -4  -7 642.896 804.528   2
 -11   4   6 689.537 472.445   1
 -11   7   6 278.165 151.299   1
  11  -4  -6 1649.55 962.848   1
  11  -7  -6 1212.54 651.253   1
  -7  11  -6 454.971 385.411   2
  -4  11  -6 1363.09 771.197   2
  11  -4  -6 1500.97 711.466   2
 -11   4   5 9348.03 1726.81   1
  11  -4  -5 7746.84 1740.96   1
  11  -7  -5 6710.12 1694.26   1
 -11   7   5 8548.44 1897.20   1
  -4  11  -5 4922.11 1561.55   2
  11  -4  -5 3653.65 1298.07   2
  11  -4  -4 59542.9 4959.07   1
  11  -7  -4 51321.8 4830.14   1
  -4  11  -4 34970.7 4010.90   2
 -11   4   4 54994.2 4633.36   1
  11  -4  -4 26986.6 3610.21   2
 -11   7   4 51042.7 4625.08   1
  11  -4  -3 39.5517 141.455   1
 -11   4   3-525.817 763.929   1
  11  -7  -3 936.817 792.843   1
  -4  11  -3-1008.15 692.972   2
 -11   7   3-333.344 664.047   1
  11  -4  -3 705.622 830.183   2
  11  -4  -2 9174.98 1825.29   1
  11  -7  -2 8541.07 1908.27   1
  -4  11  -2 6652.52 1820.96   2
 -11   4   2 9512.40 1923.51   1
 -11   7   2 9628.36 2111.73   1
  11  -4  -1 1498.33 812.531   1
  -4  11  -1 851.793 269.259   2
  11  -7  -1 1250.39 909.850   1
 -11   4   1 2183.94 1098.65   1
 -11   7   1 1641.00 877.995   1
 -11   7   0 103699. 6605.21   1
  11  -4   0 99128.2 6459.11   1
  11  -7   0 99944.2 6797.46   1
 -11   4   0 107154. 6671.87   1
  11  -4   1 136.119 211.645   1
  11  -7   1 630.803 231.941   1
 -11   4  -1 258.673 355.850   1
 -11   7  -2 3817.04 1379.53   1
  11  -4   2 1523.90 1083.56   1
  11  -7   2 3324.82 1062.86   1
 -11   4  -2 2405.65 981.033   1
 -11   4  -3 929.037 826.341   1
 -11   7  -3 1607.44 937.850   1
  11  -4   3 964.447 740.257   1
  11  -7   3 1976.65 976.028   1
   7   4  -3 629.989 824.119   2
 -11   4  -4 52066.0 4662.01   1
 -11   7  -4 50835.7 4622.22   1
  11  -4   4 41283.9 4321.81   1
  11  -7   4 49055.8 4596.28   1
   4   7  -4 40242.3 4400.16   2
   7   4  -4 43030.3 4670.50   2
 -11   4  -5-73.3857 279.207   1
 -11   7  -5-757.898 507.046   1
  11  -4   5-285.335 589.006   1
  11  -7   5 628.701 831.388   1
   4   7  -5 358.989 530.001   2
   7   4  -5 1174.34 709.345   2
 -11   4  -6 2020.38 992.887   1
 -11   7  -6 1915.36 858.703   1
  11  -4   6 1215.86 726.215   1
  11  -7   6 1632.70 948.748   1
   4   7  -6 610.295 603.720   2
   7   4  -6 967.897 575.590   2
  -7  -4   6 218.973 65.3351   1
   7   4  -7 5134.25 1572.30   1
 -11   4  -7 3906.72 1313.26   1
  11  -4   7 5223.82 1496.11   1
 -11   7  -7 4802.03 1684.42   1
  11  -7   7 4577.59 1572.28   1
   4   7  -7 5726.71 1697.26   2
  -7  -4   7 6204.68 1687.18   1
   7   4  -7 3597.31 1499.13   2
   7   4  -8 69706.5 5934.94   1
  -7  -4   8 79402.3 6038.30   1
 -11   4  -8 95596.9 6682.67   1
 -11   7  -8 92920.0 6432.95   1
  11  -4   8 88811.9 6349.58   1
  11  -7   8 84657.8 6370.92   1
   4   7  -8 69477.2 5741.30   2
   7   4  -8 70549.9 5953.69   2
   7   4  -9 31.1824 296.970   1
 -11   4  -9 1365.79 850.183   1
  11  -4   9 316.850 264.931   1
  11  -7   9 1247.94 904.930   1
   4   7  -9 1041.26 811.754   2
   7   4  -9 689.641 716.873   2
 -11   7  -9-538.749 557.738   1
 -11   7 -10 10588.1 2229.03   1
   7   4 -10 4646.83 1615.46   1
 -11   4 -10 7366.18 1893.96   1
  11  -4  10 11492.9 2399.11   1
  -7  -4  10 6543.26 1750.95   1
   4   7 -10 5675.12 1418.68   2
  11  -7  10 6361.96 1703.95   1
   7   4 -10 5048.21 1651.22   2
   7   4 -11 941.391 689.304   1
  -7  -4  11 1979.82 937.129   1
 -11   4 -11 1279.75 627.826   1
  11  -4  11 804.202 544.639   1
   4   7 -11 2078.46 971.748   2
  -8  11 -11 4139.99 1606.65   1
   8 -11  11 2297.11 997.431   1
  11  -8 -10 13793.7 2541.96   1
  -8  11 -10 11156.3 2375.71   1
 -11   8  10 10363.3 2238.37   1
   8 -11  10 11491.9 2465.90   1
  -3  11 -10 12005.3 2578.68   2
  11  -3  -9 16267.4 2715.49   1
  11  -8  -9 11310.9 2393.82   1
 -11   8   9 11176.6 2252.47   1
 -11   3   9 14730.0 2536.19   1
  -3  11  -9 12792.0 2610.64   2
  -8  11  -9 14543.7 2789.60   1
   8 -11   9 9775.28 2238.01   1
  11  -3  -9 11491.9 2205.99   2
 -11   3   8 619.024 581.580   1
 -11   8   8 323.458 267.869   1
  11  -3  -8 398.806 521.619   1
  11  -8  -8 1375.23 906.298   1
  -3  11  -8-59.5907 174.088   2
   8 -11   8-530.939 431.476   1
  11  -3  -8 945.868 717.397   2
  11  -3  -7 24223.7 3279.42   1
  11  -8  -7 21191.4 3181.89   1
  -3  11  -7 15797.0 2843.40   2
 -11   3   7 21737.1 3076.93   1
 -11   8   7 21365.9 3130.48   1
  11  -3  -7 20883.3 2991.44   2
  11  -3  -6 56369.6 5099.53   1
  11  -8  -6 55923.7 5101.00   1
  -3  11  -6 45921.8 4846.43   2
 -11   3   6 57155.6 5027.89   1
 -11   8   6 51107.9 4698.67   1
 -11   3   5 9924.23 2078.03   1
  11  -3  -5 7297.17 1823.88   1
  11  -8  -5 6074.89 1609.46   1
 -11   8   5 7721.20 1815.63   1
  -3  11  -5 7445.80 1906.89   2
  11  -3  -5 5070.07 1371.26   2
  11  -3  -4 24504.3 3279.26   1
  11  -8  -4 24115.2 3409.10   1
  -3  11  -4 15256.9 2698.74   2
 -11   3   4 20859.1 2975.30   1
 -11   8   4 19428.5 2929.97   1
  11  -3  -4 10434.4 2026.05   2
 -11   3   3 3748.93 1337.82   1
  11  -3  -3 2999.81 1099.05   1
  11  -8  -3 3394.60 1322.87   1
  -3  11  -3 1860.62 850.672   2
 -11   8   3 3825.64 1322.73   1
  11  -3  -3 1509.97 992.625   2
  11  -3  -2 36807.0 3963.54   1
  11  -8  -2 36998.1 4038.93   1
  -3  11  -2 27641.7 3831.94   2
 -11   3   2 40918.4 4052.30   1
 -11   8   2 44180.8 4297.06   1
  11  -3  -1 1758.38 1004.96   1
  11  -8  -1 2111.38 989.515   1
  -3  11  -1 1430.03 563.460   2
 -11   3   1 1043.20 216.602   1
 -11   8   1 1256.88 716.563   1
  11  -3  -1-807.185 724.614   2
 -11   8   0 3097.61 1108.51   1
  11  -3   0 1871.34 863.748   1
  11  -8   0 3421.57 1202.21   1
 -11   3   0 3947.53 1334.73   1
  11  -3   0 469.945 544.727   2
 -11   8  -1 6277.05 1686.83   1
  11  -3   1 8398.38 1833.69   1
  11  -8   1 6000.67 1683.64   1
 -11   3  -1 7276.86 1789.05   1
 -11   3  -2 25684.3 3207.89   1
 -11   8  -2 27105.4 3286.19   1
  11  -3   2 23032.6 3205.90   1
  11  -8   2 25177.6 3455.13   1
 -11   3  -3 24151.9 3242.53   1
 -11   8  -3 25009.5 3275.29   1
  11  -3   3 28503.0 3549.75   1
  11  -8   3 25380.2 3375.92   1
  -8  -3   3 22249.5 3197.15   1
   8   3  -3 20840.2 3196.41   2
 -11   3  -4 217.829 338.342   1
  -8  -3   4 1506.46 808.248   1
   8   3  -4 1077.93 790.089   1
 -11   8  -4 71.7738 422.582   1
  11  -3   4-479.070 506.093   1
  11  -8   4 319.346 454.408   1
   8   3  -4 915.943 680.195   2
 -11   3  -5 23250.8 3085.41   1
   8   3  -5 17009.2 2887.51   1
 -11   8  -5 27565.6 3576.18   1
  11  -3   5 23210.2 3381.11   1
  -8  -3   5 23932.3 3272.47   1
  11  -8   5 26298.6 3388.49   1
   3   8  -5 18902.1 3006.36   2
   8   3  -5 19415.5 3022.43   2
   8   3  -6 38925.0 4320.48   1
 -11   3  -6 52944.1 4965.36   1
 -11   8  -6 50652.3 4833.74   1
  -8  -3   6 48018.6 4838.29   1
  11  -3   6 50836.9 4889.36   1
  11  -8   6 48616.0 4839.18   1
   3   8  -6 43113.6 4464.05   2
   8   3  -6 33185.4 3868.27   2
 -11   3  -7 11182.4 2243.14   1
   8   3  -7 7575.04 1916.94   1
  11  -3   7 11598.0 2338.99   1
   3   8  -7 9090.08 2135.12   2
  11  -8   7 12896.8 2576.57   1
 -11   8  -7 14886.1 2535.07   1
   8   3  -7 8305.27 2079.22   2
  -8  -3   7 9737.11 2139.90   1
   8   3  -8 15121.0 2800.95   1
 -11   3  -8 19331.1 2986.00   1
  -8  -3   8 15792.9 2708.60   1
  11  -3   8 14842.7 2685.19   1
 -11   8  -8 14067.3 2595.29   1
  11  -8   8 21733.9 3226.42   1
   8   3  -8 14210.2 2677.71   2
   3   8  -8 15776.7 2701.13   2
 -11   8  -9 2640.18 1059.92   1
   8   3  -9 2544.47 1117.21   1
 -11   3  -9 1489.26 864.042   1
  11  -3   9 3526.94 1348.95   1
   3   8  -9 1647.59 804.633   2
  11  -8   9 2093.53 1067.20   1
  -8  -3   9 1145.64 845.890   1
   8   3  -9 1684.32 1016.72   2
   8   3 -10 17323.8 3051.24   1
  -8  -3  10 22091.1 3279.63   1
 -11   3 -10 23079.3 3321.40   1
  11  -3  10 23984.3 3380.68   1
   3   8 -10 23578.2 3305.93   2
   8   3 -10 15006.9 3066.07   2
   8   3 -11 15.9447 444.717   1
 -11   3 -11 222.963 211.146   1
  11  -3  11 93.5656 230.552   1
  -8  -3  11 820.037 894.595   1
  -9  11 -10 6558.73 1921.40   1
   9 -11  10 7295.68 1879.60   1
  -9  11  -9 3716.93 1389.40   1
  -2  11  -9 3199.58 1322.78   2
   9 -11   9 1842.53 1050.36   1
 -11   2   8 1756.76 1094.20   1
  -9  11  -8 88.0104 302.855   1
  11  -2  -8 1186.00 891.555   1
  -2  11  -8-497.812 526.260   2
   9 -11   8 482.925 532.491   1
  11  -2  -8-677.454 730.995   2
  -9  11  -7 1536.06 973.758   1
 -11   2   7 2132.77 1062.89   1
  11  -2  -7 1922.24 879.879   1
  11  -9  -7 1944.04 985.168   1
  -2  11  -7 1321.03 824.400   2
   9 -11   7 2538.90 1156.07   1
  11  -2  -7 1094.07 684.323   2
  11  -2  -6 36650.9 4145.38   1
  11  -9  -6 43890.6 4544.46   1
   9 -11   6 34245.9 4218.34   1
  -2  11  -6 29943.9 4048.06   2
 -11   2   6 45519.8 4505.87   1
 -11   9   6 48090.9 4688.83   1
  11  -2  -6 37250.4 3962.21   2
  11  -2  -5 45005.0 4459.15   1
  11  -9  -5 39913.7 4325.11   1
  -2  11  -5 27318.4 3826.08   2
 -11   2   5 38207.9 4133.70   1
  11  -2  -5 25269.0 3326.59   2
 -11   9   5 32134.3 3778.36   1
  11  -2  -4 15375.0 2605.24   1
  11  -9  -4 10282.7 2271.65   1
  -2  11  -4 9374.04 2146.57   2
 -11   2   4 17424.4 2723.81   1
 -11   9   4 15255.0 2648.35   1
  11  -2  -4 10366.2 2136.80   2
 -11   2   3 12657.2 2219.10   1
  11  -2  -3 8658.35 1964.99   1
  11  -9  -3 8840.00 2046.41   1
  -2  11  -3 7302.06 1956.53   2
 -11   9   3 5999.63 1673.52   1
  11  -2  -3 2680.83 1006.49   2
  11  -2  -2 45900.6 4564.40   1
  11  -9  -2 29917.5 3784.33   1
 -11   2   2 46869.8 4459.29   1
  11  -2  -2 23633.0 3335.26   2
 -11   9   2 52423.2 4914.43   1
  11  -2  -1 746.435 546.892   1
 -11   2   1 208.378 544.413   1
  11  -9  -1 436.114 633.277   1
  11  -2  -1 483.542 444.966   2
 -11   9   1 214.838 403.761   1
 -11   9   0 3319.26 1231.47   1
  11  -2   0 4712.31 1460.37   1
 -11   2   0 3116.01 1106.87   1
  11  -9   0 1775.02 876.231   1
  11  -2   0 343.527 342.857   2
 -11   9  -1 12824.8 2429.09   1
  -9  -2   1 11446.7 2261.11   1
  11  -2   1 14113.2 2447.85   1
  11  -9   1 12396.9 2427.33   1
 -11   2  -1 12292.4 2294.24   1
 -11   9  -2 12905.0 2456.81   1
  -9  -2   2 11596.1 2229.64   1
  11  -2   2 12870.2 2458.65   1
   9   2  -2 10789.1 2197.95   1
  11  -9   2 16996.4 2769.84   1
 -11   2  -2 14244.5 2448.62   1
   9   2  -3 20217.5 3032.76   1
 -11   9  -3 20470.8 3144.29   1
  11  -2   3 14911.0 2652.01   1
  11  -9   3 15864.2 2722.57   1
  -9  -2   3 14646.0 2553.49   1
   9   2  -3 14136.5 2449.79   2
 -11   2  -3 20217.9 3075.64   1
  -9  -2   4 3674.54 1346.69   1
   9   2  -4 2694.86 1124.33   1
 -11   9  -4 4915.51 1507.48   1
  11  -2   4 2951.69 1087.08   1
  11  -9   4 4776.23 1482.30   1
   9   2  -4 3122.31 1158.11   2
 -11   2  -4 3932.01 1366.09   1
  -9  -2   5 10691.0 2218.45   1
  11  -2   5 12926.1 2509.50   1
   9   2  -5 7538.49 1840.16   1
  11  -9   5 12661.8 2499.14   1
 -11   9  -5 10236.2 2367.71   1
   2   9  -5 10120.0 2256.30   2
   9   2  -5 8250.78 1941.29   2
 -11   2  -5 12220.4 2369.68   1
 -11   2  -6 34355.0 3960.32   1
   9   2  -6 25625.3 3500.20   1
 -11   9  -6 35967.1 4142.78   1
  11  -2   6 28832.1 3790.68   1
  -9  -2   6 39640.8 4361.80   1
  11  -9   6 35965.9 4177.67   1
   2   9  -6 23960.1 3492.55   2
   9   2  -6 30367.7 3782.03   2
 -11   2  -7 4521.64 1431.16   1
   9   2  -7 3541.86 1316.38   1
  11  -2   7 4772.12 1543.26   1
   2   9  -7 6311.33 1845.06   2
  11  -9   7 6915.96 1824.04   1
   9   2  -7 4503.79 1583.11   2
 -11   9  -7 5055.73 1581.20   1
  -9  -2   7 5839.71 1646.38   1
 -11   2  -8 2737.91 1203.85   1
   9   2  -8 1820.16 938.428   1
  11  -2   8 2572.83 1092.24   1
   2   9  -8 1270.22 783.330   2
  11  -9   8 1733.39 919.452   1
   9   2  -8 1470.95 970.671   2
  -9  -2   8 3401.71 1250.29   1
 -11   9  -8 3364.05 1233.55   1
 -11   2  -9 3069.52 1380.05   1
   9   2  -9 1077.54 638.826   1
  11  -2   9 1376.10 824.490   1
   2   9  -9 812.091 634.298   2
   9   2  -9 1437.67 952.226   2
  -9  -2   9 660.182 565.127   1
 -11   2 -10 17642.6 2963.11   1
  10 -11   8 14257.8 2780.76   1
 -10  11  -8 15466.4 2850.32   1
  -1  11  -8 16325.9 2934.73   2
 -10  11  -7 1990.05 1094.53   1
 -11   1   7 1829.45 856.332   1
  11  -1  -7 2346.47 997.665   1
  -1  11  -7 636.713 347.365   2
  10 -11   7 1948.48 1010.14   1
  11  -1  -7 2181.53 962.758   2
 -11   1   6 2244.77 1081.49   1
  11  -1  -6 1714.95 843.695   1
  -1  11  -6 1095.68 748.783   2
  10 -11   6 918.187 706.233   1
  11  -1  -6 1674.37 761.767   2
 -10  11  -6 650.830 501.929   1
 -11   1   5 2928.36 1341.46   1
  11  -1  -5 1276.00 741.777   1
  -1  11  -5 273.738 401.611   2
  10 -11   5 1476.37 832.844   1
 -10  11  -5 813.210 805.831   1
  11  -1  -5 1024.14 776.271   2
  11  -1  -4 65642.9 5444.99   1
  10 -11   4 45614.8 4920.66   1
 -11   1   4 61851.6 5291.87   1
  11  -1  -4 36353.4 3940.48   2
 -11   1   3-68.3842 355.343   1
  11  -1  -3-133.148 252.962   1
  11 -10  -3-73.6014 297.624   1
  11  -1  -3-476.827 660.912   2
 -11   1   2 559.448 464.365   1
  11  -1  -2 885.772 539.995   1
  11 -10  -2 265.410 258.890   1
 -11  10   2 423.132 478.297   1
  11  -1  -2-137.640 420.244   2
 -10  -1  -1 261.167 505.535   1
 -11   1   1 407.932 565.618   1
  11  -1  -1 822.729 360.355   1
  11 -10  -1 552.163 406.536   1
  11  -1  -1 19.3803 316.597   2
 -11  10   1 244.777 558.440   1
 -11  10   0 43792.2 4576.84   1
  10   1   0 50766.8 5019.69   1
  11  -1   0 49186.9 4773.52   1
  11 -10   0 40803.0 4574.63   1
 -10  -1   0 63322.7 5432.84   1
 -11   1   0 64966.7 5384.10   1
 -11  10  -1 333.839 268.211   1
 -10  -1   1 978.973 762.558   1
  10   1  -1 208.035 297.840   1
  11  -1   1 39.9153 326.504   1
 -11   1  -1 291.560 300.464   1
  11 -10   1 604.973 586.119   1
 -10  -1   2 1632.07 749.232   1
 -11  10  -2 1053.75 638.142   1
  10   1  -2 424.947 203.752   1
  11  -1   2 1252.80 759.412   1
 -11   1  -2 1318.42 829.373   1
  11 -10   2 1767.66 909.839   1
 -10  -1   3 1396.68 879.920   1
 -11  10  -3 822.429 692.611   1
  10   1  -3 598.429 584.877   1
  11  -1   3 1066.67 755.606   1
 -11   1  -3 2000.02 979.581   1
  11 -10   3 434.996 506.224   1
  10   1  -3 423.229 387.426   2
  10   1  -4 23837.9 3370.54   1
 -11  10  -4 22242.8 3347.30   1
  11  -1   4 18307.6 2959.33   1
  11 -10   4 25819.0 3553.30   1
 -10  -1   4 26025.7 3399.93   1
  10   1  -4 19323.5 2951.94   2
 -11   1  -4 30135.1 3705.71   1
 -10  -1   5 678.802 574.270   1
  10   1  -5 805.052 590.644   1
  11  -1   5 858.270 675.943   1
 -11  10  -5 994.639 961.451   1
  11 -10   5 800.736 350.371   1
 -11   1  -5 134.219 265.710   1
  10   1  -5 922.925 669.511   2
 -10  -1   6 944.058 675.094   1
  10   1  -6 649.584 665.315   1
  11  -1   6 42.2849 254.301   1
   1  10  -6 929.043 838.736   2
 -11  10  -6 268.710 278.822   1
  11 -10   6-265.736 583.556   1
 -11   1  -6 502.063 514.004   1
  10   1  -6-387.510 359.643   2
 -10  -1   7 658.029 575.980   1
  10   1  -7 759.415 606.222   1
   1  10  -7 586.520 533.662   2
  11 -10   7 2239.26 1101.90   1
  10   1  -7 2007.13 947.739   2
 -11  10  -7 1532.72 927.730   1
 -11   1  -7 1722.48 829.629   1
 -10  -1   8 24740.9 3559.20   1
   1  10  -8 22851.2 3416.79   2
 -11   0   0 5311.54 1608.01   1
  11   0   0 4688.09 1509.55   1
 -11   0   1 19.8718 417.547   1
 -11   0  -1 1606.67 923.657   1
  11   0  -1 1709.25 910.261   1
  11   0   1 217.321 368.140   1
  11   0  -2 14253.9 2638.44   1
  11   0   2 20923.6 3082.81   1
  11 -11   2 19043.7 3097.00   1
 -11   0   2 20366.6 3137.34   1
 -11   0  -2 17532.9 2871.93   1
 -11   0   3 8525.54 2068.51   1
  11   0  -3 9922.95 2195.53   1
 -11   0  -3 8313.14 1978.88   1
  11 -11   3 6853.77 1977.20   1
  11   0  -3 4458.66 1419.16   2
 -11   0   4 2761.43 1143.62   1
  11   0  -4 5664.24 1620.51   1
 -11  11  -4 2777.20 1146.63   1
  11 -11   4 2687.30 1250.25   1
  11   0  -4 3285.36 1142.70   2
 -11   0   5 11101.7 2315.39   1
  11   0  -5 11429.8 2390.19   1
 -11  11  -5 9448.62 2298.43   1
  11 -11   5 11465.2 2474.89   1
  11   0  -5 10439.5 2150.78   2
 -11  11  -6 16632.3 3093.04   1
  11 -11   6 17028.5 3055.08   1
 -12   6   7 411.805 413.849   1
  12  -6  -7-469.727 352.014   1
  -6  12  -7 93.7928 589.805   2
  12  -6  -7-232.939 452.477   2
 -12   6   6 8500.47 2053.70   1
  12  -6  -6 5721.21 1553.19   1
  -6  12  -6 5579.53 1688.34   2
 -12   6   5-490.190 626.404   1
  12  -6  -5 281.731 337.107   1
  -6  12  -5 1226.85 987.131   2
  12  -6  -4 101475. 6698.01   1
 -12   6   4 92788.6 6270.89   1
  12  -6  -3-545.312 640.673   1
 -12   6   3 32.0082 106.604   1
  12  -6  -2 91.9320 528.409   1
 -12   6   2 33.8964 152.713   1
  12  -6  -1-280.386 364.960   1
 -12   6   1 104.493 135.128   1
  12  -6   0 39101.0 4041.21   1
 -12   6   0 38121.3 4106.79   1
  12  -6   1 515.962 430.259   1
 -12   6  -1 159.819 459.006   1
 -12   6  -2 651.131 524.780   1
  12  -6   2 81.6352 339.285   1
 -12   6  -3-270.815 472.842   1
  12  -6   3-79.2724 92.3211   1
 -12   6  -4 56286.3 4961.46   1
  12  -6   4 46038.4 4585.75   1
 -12   6  -5-282.327 335.780   1
  12  -6   5 304.938 445.134   1
 -12   6  -6 4297.71 1332.22   1
  12  -6   6 6585.91 1724.46   1
   6   6  -6 3715.23 1407.55   2
 -12   6  -7-101.875 376.511   1
  12  -6   7-107.217 307.882   1
   6   6  -7 434.248 479.122   2
   6   6  -8 42752.9 4643.83   2
 -12   7   8 4019.30 1401.56   1
  12  -7  -8 4720.83 1510.28   1
 -12   5   7 14360.6 2513.32   1
 -12   7   7 11409.9 2354.18   1
  12  -5  -7 14300.1 2581.76   1
  12  -7  -7 11846.1 2312.90   1
  -7  12  -7 10105.9 2147.09   2
  -5  12  -7 10044.8 2373.98   2
  12  -5  -6 39493.7 4148.87   1
  12  -7  -6 39485.5 4271.04   1
  -7  12  -6 24853.0 3645.49   2
  -5  12  -6 38935.4 4392.77   2
 -12   5   6 41634.4 4302.94   1
 -12   7   6 37009.0 3968.03   1
  12  -5  -5 26623.5 3525.05   1
  12  -7  -5 23911.3 3348.16   1
  -5  12  -5 18783.7 3171.02   2
 -12   5   5 23742.7 3243.55   1
 -12   7   5 28301.0 3509.42   1
 -12   5   4 954.041 558.127   1
  12  -5  -4 1614.74 480.849   1
  12  -7  -4 1073.03 594.481   1
 -12   7   4 447.833 267.852   1
  -5  12  -4 124.516 586.111   2
  12  -5  -4 279.922 501.939   2
  12  -5  -3 731.052 638.443   1
  12  -7  -3 75.2237 317.192   1
 -12   5   3 868.855 661.794   1
  -5  12  -3 495.480 741.896   2
 -12   7   3-22.4259 444.620   1
  12  -5  -2 35636.8 4072.29   1
  12  -7  -2 28428.1 3700.80   1
 -12   5   2 35599.0 3915.66   1
 -12   7   2 42931.7 4307.62   1
  12  -5  -1 7257.29 1869.56   1
  12  -7  -1 7338.25 1844.31   1
 -12   5   1 7258.06 1736.21   1
 -12   7   1 7579.49 1748.63   1
  12  -5   0 6073.40 1566.19   1
  12  -7   0 7850.32 1783.49   1
 -12   5   0 6397.16 1553.37   1
 -12   7   0 6885.16 1716.48   1
 -12   5  -1 21163.0 3075.75   1
 -12   7  -1 22800.3 3166.57   1
  12  -5   1 19450.9 2902.80   1
  12  -7   1 20759.1 3138.48   1
 -12   7  -2 14267.5 2467.02   1
  12  -5   2 17077.6 2697.04   1
  12  -7   2 13480.0 2493.24   1
 -12   5  -2 14117.3 2441.90   1
 -12   5  -3 1825.66 814.607   1
 -12   7  -3 1002.99 704.992   1
  12  -5   3 1263.22 603.973   1
  12  -7   3 425.803 268.406   1
 -12   5  -4 2561.68 1233.39   1
 -12   7  -4 1118.86 393.791   1
  12  -5   4 1335.15 801.974   1
  12  -7   4 2868.17 1239.50   1
 -12   5  -5 1900.36 1012.33   1
 -12   7  -5 1411.03 834.067   1
  12  -5   5 962.006 534.295   1
  12  -7   5 1015.72 506.940   1
 -12   5  -6 53862.0 5055.67   1
 -12   7  -6 62850.4 5248.95   1
  12  -5   6 53654.5 5004.99   1
  12  -7   6 60480.1 5350.99   1
   5   7  -6 45456.8 4786.58   2
   7   5  -6 42480.5 4654.72   2
 -12   5  -7 10676.6 2233.33   1
 -12   7  -7 11946.0 2384.03   1
  12  -5   7 12648.0 2421.95   1
  12  -7   7 12432.0 2441.87   1
   5   7  -7 8916.12 2126.32   2
   7   5  -7 6713.57 1903.32   2
   5   7  -8 4357.35 1345.60   2
   7   5  -8 4871.62 1622.24   2
 -12   8   8 2904.16 1160.03   1
  12  -8  -8 4968.36 1626.53   1
 -12   8   7 5609.24 1618.47   1
  12  -8  -7 4401.20 1411.54   1
  -4  12  -7 4784.20 1563.68   2
  12  -4  -6 49332.7 4829.45   1
  12  -8  -6 48016.2 4801.72   1
  -4  12  -6 35882.5 4320.75   2
 -12   4   6 48240.8 4563.16   1
 -12   8   6 47080.3 4704.23   1
 -12   4   5 902.823 654.145   1
  12  -4  -5 1169.15 810.968   1
 -12   8   5 623.863 479.688   1
  12  -8  -5 253.558 273.603   1
  -4  12  -5 553.439 314.151   2
  12  -4  -5 365.145 343.092   2
 -12   4   4 10214.4 2119.61   1
  12  -4  -4 10468.3 2208.34   1
  12  -8  -4 12867.2 2340.81   1
 -12   8   4 9899.38 1977.01   1
  -4  12  -4 5620.40 1740.10   2
  12  -4  -4 6172.43 1584.60   2
  12  -4  -3 13756.5 2443.60   1
  12  -8  -3 12112.2 2411.18   1
  -4  12  -3 6358.20 1847.71   2
 -12   8   3 12358.5 2341.38   1
 -12   4   3 16091.5 2570.42   1
  12  -4  -3 2541.35 909.123   2
  12  -4  -2 28729.4 3462.38   1
  12  -8  -2 26019.0 3533.55   1
  -4  12  -2 10058.6 2290.12   2
 -12   4   2 21593.5 2948.22   1
 -12   8   2 23914.6 3234.54   1
  12  -4  -2 3460.18 1139.25   2
  12  -4  -1 11786.3 2300.95   1
  12  -8  -1 9893.35 2213.00   1
 -12   4   1 9671.19 2022.55   1
 -12   8   1 12026.8 2345.39   1
  12  -4   0 249.620 288.476   1
  12  -8   0-223.837 363.893   1
 -12   4   0 1167.61 879.624   1
 -12   8   0-231.942 683.852   1
  12  -4   0 1.70877 494.184   2
 -12   8  -1 2407.19 971.285   1
  12  -4   1 2141.56 1019.77   1
  12  -8   1 2938.66 1273.00   1
 -12   4  -1 1094.06 505.074   1
 -12   8  -2 28608.3 3586.75   1
  12  -4   2 21960.6 3062.01   1
  12  -8   2 23638.2 3423.72   1
 -12   4  -2 21119.0 3045.17   1
 -12   8  -3 10913.1 2303.56   1
  12  -4   3 9811.41 1942.74   1
  12  -8   3 13052.0 2474.73   1
 -12   4  -3 10771.2 2186.41   1
 -12   4  -4 1494.21 922.364   1
 -12   8  -4 960.101 717.480   1
  12  -4   4 764.561 614.301   1
  12  -8   4 1227.51 815.977   1
 -12   4  -5 16159.1 2773.24   1
 -12   8  -5 20214.4 3024.37   1
  12  -4   5 17572.2 2907.49   1
  12  -8   5 14683.5 2686.92   1
 -12   4  -6 20444.7 3135.26   1
 -12   8  -6 22852.1 3250.90   1
  12  -4   6 19087.5 3035.34   1
  12  -8   6 26099.9 3521.22   1
   8   4  -6 16450.2 2915.72   2
 -12   4  -7 4743.33 1519.73   1
  12  -4   7 7814.70 1878.79   1
   4   8  -7 4953.12 1565.27   2
   8   4  -7 5010.43 1642.96   2
   4   8  -8 10658.7 2257.29   2
   8   4  -8 10851.0 2386.88   2
  12  -9  -7 1400.44 1005.07   1
 -12   9   6 2098.96 975.743   1
  12  -9  -6 2437.29 1108.83   1
  -3  12  -6 1248.87 736.636   2
 -12   9   5 987.087 754.044   1
  12  -9  -5 1468.47 931.356   1
  -3  12  -5 1030.35 821.225   2
  12  -3  -5 92.5673 406.741   2
  12  -3  -4 73673.5 5866.48   1
  12  -9  -4 55312.6 5350.59   1
  -3  12  -4 42219.3 4827.51   2
 -12   3   4 75339.0 5884.78   1
  12  -3  -4 24626.2 3377.54   2
 -12   9   4 60555.3 5223.17   1
 -12   3   3 589.689 276.095   1
  12  -3  -3 1208.48 811.152   1
  12  -9  -3 2000.51 1145.59   1
 -12   9   3 1349.71 766.549   1
  12  -3  -3 994.917 822.573   2
 -12   3   2 827.850 483.805   1
  12  -3  -2 629.992 521.533   1
  12  -9  -2-442.032 810.398   1
 -12   9   2-152.752 126.775   1
  12  -3  -2 34.3501 313.501   2
  12  -3  -1 737.458 564.935   1
 -12   3   1 472.487 436.338   1
  12  -9  -1-114.183 692.079   1
 -12   9   1 718.348 628.112   1
  12  -3  -1-210.404 568.010   2
 -12   9   0 22592.5 3265.16   1
  12  -3   0 27464.4 3572.77   1
  12  -9   0 31090.9 3926.25   1
 -12   3   0 31753.2 3687.57   1
 -12   9  -1 748.137 519.105   1
  12  -3   1-1002.64 872.150   1
  12  -9   1-275.662 530.517   1
 -12   3  -1-204.459 338.904   1
  12  -3   1 540.737 586.113   2
 -12   9  -2 470.665 565.746   1
  12  -3   2 1010.27 744.590   1
  12  -9   2 315.566 311.653   1
 -12   3  -2 945.960 731.627   1
 -12   9  -3 446.806 668.068   1
  12  -3   3-354.541 484.657   1
  12  -9   3-629.244 601.378   1
 -12   3  -3-236.066 368.604   1
 -12   3  -4 46748.5 4738.86   1
 -12   9  -4 37728.8 4262.23   1
  12  -3   4 44433.0 4612.59   1
  12  -9   4 40417.9 4452.69   1
 -12   9  -5 742.022 537.933   1
  12  -3   5 539.013 750.521   1
  12  -9   5 65.6454 429.151   1
   9   3  -5 32.5533 337.102   2
 -12   3  -5 395.253 499.497   1
 -12   3  -6 903.396 824.972   1
  12  -3   6 301.078 374.750   1
   9   3  -6 1023.07 923.852   2
   9   3  -7 18.7736 214.688   2
  12 -10  -4-193.990 300.151   1
  12  -2  -4 872.734 689.223   2
  12 -10  -3 16496.9 2953.43   1
  12  -2  -3 3333.66 1311.92   2
  12  -2  -2 24708.5 3341.77   1
  12 -10  -2 19877.1 3243.97   1
 -12   2   2 29525.0 3714.36   1
 -12  10   2 18056.9 2984.11   1
 -12   2   1 10534.3 2157.06   1
  12  -2  -1 7035.64 1831.06   1
  12 -10  -1 7893.07 1953.43   1
 -12  10   1 7853.72 2021.16   1
  12  -2  -1 2375.23 974.389   2
 -12   2   0 4163.33 1430.12   1
  12  -2   0 2581.30 1144.96   1
  12 -10   0 2424.76 1088.71   1
 -12  10   0 1944.42 956.753   1
 -12  10  -1-473.704 579.371   1
  12  -2   1 391.680 527.861   1
 -12   2  -1-793.357 622.657   1
  12 -10   1 563.607 665.688   1
 -12  10  -2 17530.0 2994.05   1
  12 -10   2 13074.9 2614.44   1
  12  -2   2 10486.6 2237.45   1
 -12   2  -2 13515.6 2496.55   1
 -12  10  -3 2482.10 1088.20   1
  12  -2   3 1584.49 915.653   1
  12 -10   3 2530.89 1056.39   1
 -12   2  -3 3414.31 1217.47   1
 -12  10  -4 3074.33 1231.89   1
  12  -2   4 4804.24 1543.30   1
  12 -10   4 2852.14 1211.94   1
 -12   2  -4 5941.27 1616.50   1
 -12   2  -5 6464.67 1692.38   1
   0   0   0    0.00    0.00   0

;
_shelx_hkl_checksum              93515
loop_
_space_group_symop_operation_xyz
'x, y, z'
'-y, x-y, z'
'-x+y, -x, z'
'-y, -x, -z+1/2'
'-x+y, y, -z+1/2'
'x, x-y, -z+1/2'
'-x, -y, -z'
'y, -x+y, -z'
'x-y, x, -z'
'y, x, z-1/2'
'x-y, -y, z-1/2'
'-x, -x+y, z-1/2'
loop_
_atom_site_label
_atom_site_type_symbol
_atom_site_fract_x
_atom_site_fract_y
_atom_site_fract_z
_atom_site_U_iso_or_equiv
_atom_site_adp_type
_atom_site_occupancy
_atom_site_site_symmetry_order
_atom_site_calc_flag
_atom_site_refinement_flags_posn
_atom_site_refinement_flags_adp
_atom_site_refinement_flags_occupancy
Mn2 Mn 0.6667 0.3333 0.2500 0.0249(2) Uani 1 6 d S T P
Fe1 Fe 1.0000 0.0000 0.0000 0.0250(2) Uani 1 6 d S T P
O1 O 0.8890(3) 0.3421(2) 0.16637(14) 0.0443(5) Uani 1 1 d . . .
O2 O 1.0153(2) 0.2084(2) 0.08210(12) 0.0368(4) Uani 1 1 d . . .
C1 C 0.8790(3) 0.2113(3) 0.11901(16) 0.0354(4) Uani 1 1 d . . .
H1 H 0.7614 0.1071 0.1101 0.071(13) Uiso 1 1 calc R . .
C2 C 1.3333 0.6667 0.156(3) 0.41(5) Uani 1 3 d S T P
N1 N 1.2823(10) 0.565(2) 0.2500 0.21(2) Uani 0.3333 2 d S T P
loop_
_atom_site_aniso_label
_atom_site_aniso_U_11
_atom_site_aniso_U_22
_atom_site_aniso_U_33
_atom_site_aniso_U_23
_atom_site_aniso_U_13
_atom_site_aniso_U_12
Mn2 0.0222(3) 0.0222(3) 0.0301(3) 0.000 0.000 0.01111(13)
Fe1 0.0218(2) 0.0218(2) 0.0312(3) 0.000 0.000 0.01091(12)
O1 0.0361(8) 0.0364(8) 0.0590(10) -0.0113(7) 0.0106(7) 0.0171(7)
O2 0.0317(7) 0.0327(7) 0.0477(9) -0.0051(6) 0.0039(6) 0.0174(6)
C1 0.0310(9) 0.0336(9) 0.0427(10) -0.0063(7) 0.0007(7) 0.0172(8)
C2 0.044(3) 0.044(3) 1.14(14) 0.000 0.000 0.0220(14)
N1 0.062(8) 0.030(6) 0.53(6) 0.000 -0.12(2) 0.015(3)
loop_
_atom_type_symbol
_atom_type_description
_atom_type_scat_dispersion_real
_atom_type_scat_dispersion_imag
_atom_type_scat_source
C C 0.0030 0.0010 'International Tables Vol C Tables 4.2.6.8 and 6.1.1.4'
H H 0.0000 0.0000 'International Tables Vol C Tables 4.2.6.8 and 6.1.1.4'
N N 0.0050 0.0030 'International Tables Vol C Tables 4.2.6.8 and 6.1.1.4'
O O 0.0090 0.0050 'International Tables Vol C Tables 4.2.6.8 and 6.1.1.4'
Fe Fe 0.3380 0.7620 'International Tables Vol C Tables 4.2.6.8 and 6.1.1.4'
Mn Mn 0.3240 0.6570 'International Tables Vol C Tables 4.2.6.8 and 6.1.1.4'
loop_
_geom_angle_atom_site_label_1
_geom_angle_atom_site_label_2
_geom_angle_atom_site_label_3
_geom_angle
_geom_angle_site_symmetry_1
_geom_angle_site_symmetry_3
O1 Mn2 O1 93.48(8) 4_665 6
O1 Mn2 O1 84.12(10) 4_665 3_665
O1 Mn2 O1 176.65(9) 6 3_665
O1 Mn2 O1 176.65(9) 4_665 2_655
O1 Mn2 O1 89.01(11) 6 2_655
O1 Mn2 O1 93.48(8) 3_665 2_655
O1 Mn2 O1 93.48(8) 4_665 5_655
O1 Mn2 O1 93.48(8) 6 5_655
O1 Mn2 O1 89.01(11) 3_665 5_655
O1 Mn2 O1 84.12(10) 2_655 5_655
O1 Mn2 O1 89.01(11) 4_665 .
O1 Mn2 O1 84.12(10) 6 .
O1 Mn2 O1 93.48(8) 3_665 .
O1 Mn2 O1 93.48(8) 2_655 .
O1 Mn2 O1 176.65(9) 5_655 .
O2 Fe1 O2 180.0 . 7_755
O2 Fe1 O2 88.79(7) . 9_545
O2 Fe1 O2 91.21(7) 7_755 9_545
O2 Fe1 O2 91.21(7) . 3_765
O2 Fe1 O2 88.79(7) 7_755 3_765
O2 Fe1 O2 180.00(11) 9_545 3_765
O2 Fe1 O2 91.21(7) . 2_645
O2 Fe1 O2 88.79(7) 7_755 2_645
O2 Fe1 O2 88.79(7) 9_545 2_645
O2 Fe1 O2 91.21(7) 3_765 2_645
O2 Fe1 O2 88.79(7) . 8_665
O2 Fe1 O2 91.21(7) 7_755 8_665
O2 Fe1 O2 91.21(7) 9_545 8_665
O2 Fe1 O2 88.79(7) 3_765 8_665
O2 Fe1 O2 180.00(19) 2_645 8_665
C1 O1 Mn2 125.36(16) . .
C1 O2 Fe1 125.21(15) . .
O1 C1 O2 124.8(2) . .
N1 C2 N1 49.9(18) 3_775 .
N1 C2 N1 49.9(18) 3_775 2_755
N1 C2 N1 49.9(18) . 2_755
N1 N1 N1 60.000(5) 3_775 2_755
N1 N1 C2 65.0(9) 3_775 .
N1 N1 C2 65.0(9) 2_755 .
N1 N1 C2 65.0(9) 3_775 4_775
N1 N1 C2 65.0(9) 2_755 4_775
C2 N1 C2 122(2) . 4_775
loop_
_geom_bond_atom_site_label_1
_geom_bond_atom_site_label_2
_geom_bond_distance
_geom_bond_site_symmetry_2
Mn2 O1 2.1445(17) 4_665
Mn2 O1 2.1445(17) 6
Mn2 O1 2.1445(17) 3_665
Mn2 O1 2.1445(17) 2_655
Mn2 O1 2.1445(17) 5_655
Mn2 O1 2.1445(17) .
Fe1 O2 2.0161(16) .
Fe1 O2 2.0161(16) 7_755
Fe1 O2 2.0161(16) 9_545
Fe1 O2 2.0161(16) 3_765
Fe1 O2 2.0161(16) 2_645
Fe1 O2 2.0161(16) 8_665
O1 C1 1.232(3) .
O2 C1 1.248(2) .
C2 N1 1.50(4) 3_775
C2 N1 1.50(4) .
C2 N1 1.50(4) 2_755
N1 N1 1.26(3) 3_775
N1 N1 1.26(3) 2_755
N1 C2 1.50(4) 4_775
