#------------------------------------------------------------------------------
#$Date: 2017-04-20 01:34:28 +0300 (Thu, 20 Apr 2017) $
#$Revision: 195564 $
#$URL: file:///home/coder/svn-repositories/cod/cif/4/34/57/4345711.cif $
#------------------------------------------------------------------------------
#
# This file is available in the Crystallography Open Database (COD),
# http://www.crystallography.net/
#
# All data on this site have been placed in the public domain by the
# contributors.
#
data_4345711
loop_
_publ_author_name
'Malaestean, Iurie L.'
'Kravtsov, Victor Ch'
'Lipkowski, Janusz'
'Cariati, Elena'
'Righetto, Stefania'
'Marinotto, Daniele'
'Forni, Alessandra'
'Fonari, Marina S.'
_publ_section_title
;
 Partial in Situ Reduction of Copper(II) Resulting in One-Pot Formation of
 2D Neutral and 3D Cationic Copper(I) Iodide-Pyrazine Coordination
 Polymers: Structure and Emissive Properties.
;
_journal_name_full               'Inorganic chemistry'
_journal_paper_doi               10.1021/acs.inorgchem.7b00290
_journal_year                    2017
_chemical_formula_moiety         'C4 H4 Cu1 I1 N2'
_chemical_formula_sum            'C4 H4 Cu I N2'
_chemical_formula_weight         270.53
_space_group_crystal_system      monoclinic
_space_group_IT_number           13
_space_group_name_Hall           '-P 2yc'
_space_group_name_H-M_alt        'P 1 2/c 1'
_symmetry_space_group_name_Hall  '-P 2yc'
_symmetry_space_group_name_H-M   'P 1 2/c 1'
_atom_sites_solution_hydrogens   geom
_audit_creation_method           SHELXL-2014/7
_cell_angle_alpha                90
_cell_angle_beta                 98.104(9)
_cell_angle_gamma                90
_cell_formula_units_Z            2
_cell_length_a                   4.2472(14)
_cell_length_b                   6.890(4)
_cell_length_c                   11.065(4)
_cell_measurement_reflns_used    9890
_cell_measurement_temperature    130(2)
_cell_measurement_theta_max      28.31
_cell_measurement_theta_min      4.8475
_cell_volume                     320.6(2)
_computing_structure_refinement  'SHELXL-2014/7 (Sheldrick, 2014)'
_diffrn_ambient_temperature      130(2)
_diffrn_measured_fraction_theta_full 0.933
_diffrn_measured_fraction_theta_max 0.935
_diffrn_measurement_device_type  'Bruker SMART APEXII CCD area detector'
_diffrn_measurement_method       '/w type'
_diffrn_radiation_type           MoK\a
_diffrn_radiation_wavelength     0.71073
_diffrn_reflns_av_R_equivalents  0.0214
_diffrn_reflns_av_unetI/netI     0.0085
_diffrn_reflns_Laue_measured_fraction_full 0.933
_diffrn_reflns_Laue_measured_fraction_max 0.935
_diffrn_reflns_limit_h_max       5
_diffrn_reflns_limit_h_min       -5
_diffrn_reflns_limit_k_max       8
_diffrn_reflns_limit_k_min       -8
_diffrn_reflns_limit_l_max       13
_diffrn_reflns_limit_l_min       -13
_diffrn_reflns_number            11073
_diffrn_reflns_point_group_measured_fraction_full 0.933
_diffrn_reflns_point_group_measured_fraction_max 0.935
_diffrn_reflns_theta_full        25.242
_diffrn_reflns_theta_max         25.526
_diffrn_reflns_theta_min         4.848
_exptl_absorpt_coefficient_mu    8.109
_exptl_absorpt_correction_T_max  0.385
_exptl_absorpt_correction_T_min  0.247
_exptl_absorpt_correction_type   multi-scan
_exptl_absorpt_process_details
;
Multi-scan absorption
corrections were applied by using the SADABS program 
for area detector. The crystal faces were determined 
by APEX2/Crystal Faces 
APEX2 (version 2009.11-0). 
Program for Bruker CCD X-ray Diffractometer Control, 
Bruker AXS Inc., Madison, WI, 2009.
;
_exptl_crystal_colour            orange
_exptl_crystal_density_diffrn    2.803
_exptl_crystal_description       block
_exptl_crystal_F_000             248
_exptl_crystal_size_max          0.45
_exptl_crystal_size_mid          0.15
_exptl_crystal_size_min          0.15
_refine_diff_density_max         0.238
_refine_diff_density_min         -0.188
_refine_diff_density_rms         0.052
_refine_ls_extinction_coef       0.088(3)
_refine_ls_extinction_expression Fc^*^=kFc[1+0.001xFc^2^\l^3^/sin(2\q)]^-1/4^
_refine_ls_extinction_method     'SHELXL-2014/7 (Sheldrick 2014'
_refine_ls_goodness_of_fit_ref   1.002
_refine_ls_hydrogen_treatment    constr
_refine_ls_matrix_type           full
_refine_ls_number_parameters     39
_refine_ls_number_reflns         562
_refine_ls_number_restraints     0
_refine_ls_restrained_S_all      1.002
_refine_ls_R_factor_all          0.0081
_refine_ls_R_factor_gt           0.0081
_refine_ls_shift/su_max          0.002
_refine_ls_shift/su_mean         0.000
_refine_ls_structure_factor_coef Fsqd
_refine_ls_weighting_details
'w=1/[\s^2^(Fo^2^)+(0.0152P)^2^+0.1695P] where P=(Fo^2^+2Fc^2^)/3'
_refine_ls_weighting_scheme      calc
_refine_ls_wR_factor_gt          0.0225
_refine_ls_wR_factor_ref         0.0225
_reflns_Friedel_coverage         0.000
_reflns_number_gt                559
_reflns_number_total             562
_reflns_threshold_expression     'I > 2\s(I)'
_cod_data_source_file            ic7b00290_si_003.cif
_cod_data_source_block           CuIpyz_LT_R1
_cod_original_cell_volume        320.6(3)
_cod_original_formula_sum        'C4 H4 Cu1 I1 N2'
_cod_database_code               4345711
_shelx_shelxl_version_number     2014/7
_shelx_space_group_comment
;
The symmetry employed for this shelxl refinement is uniquely defined
by the following loop, which should always be used as a source of
symmetry information in preference to the above space-group names.
They are only intended as comments.
;
_shelx_res_file
;

    mo_victorred.res created by SHELXL-2014/7


CELL  0.71073   4.2472   6.8901  11.0653   90.000   98.104   90.000
ZERR    1.000   0.0014   0.0043   0.0038    0.000    0.009    0.000
LATT  1
SYMM -X, Y, 1/2-Z
SFAC C H N Cu I
UNIT 8 8 4  2 2

omit -4 51.1
omit  -1   1   3

acta
TEMP -143.140
L.S. 10
BOND $H
FMAP 2
PLAN 20
WGHT    0.015170    0.169500
EXTI    0.087786
FVAR       0.36990
I1    5    1.000000   -0.021449    0.250000    10.50000    0.01059    0.00827 =
         0.01722    0.00000    0.00510    0.00000
CU1   4    0.500000    0.198555    0.250000    10.50000    0.01558    0.00989 =
         0.01086    0.00000    0.00599    0.00000
N1    3    0.505978    0.375381    0.399999    11.00000    0.01426    0.01058 =
         0.01137   -0.00053    0.00302   -0.00037
C1    1    0.640032    0.552626    0.404895    11.00000    0.01841    0.01420 =
         0.01307    0.00056    0.00725   -0.00355
AFIX  43
H1    2    0.743286    0.594456    0.338697    11.00000   -1.20000
AFIX   0
C2    1    0.367404    0.323863    0.496846    11.00000    0.02010    0.01066 =
         0.01385    0.00007    0.00548   -0.00395
AFIX  43
H2    2    0.271830    0.199349    0.498060    11.00000   -1.20000
AFIX   0
HKLF 4

REM
REM R1 =  0.0081 for     559 Fo > 4sig(Fo)  and  0.0081 for all     562 data
REM     39 parameters refined using      0 restraints

END

WGHT      0.0093      0.1729

REM Highest difference peak  0.238,  deepest hole -0.188,  1-sigma level  0.052
Q1    1   0.6236  0.6194  0.4506  11.00000  0.05    0.24
Q2    1   0.4566  0.3266  0.3417  11.00000  0.05    0.23
Q3    1   0.5862  0.4603  0.4120  11.00000  0.05    0.22
Q4    1   1.0000  0.4102  0.2500  10.50000  0.05    0.18
Q5    1   0.2595  0.2734  0.4913  11.00000  0.05    0.18
Q6    1   0.3713  0.3642  0.4312  11.00000  0.05    0.17
Q7    1   0.2047  0.2026  0.2546  11.00000  0.05    0.16
Q8    1   0.6117  0.6114  0.3042  11.00000  0.05    0.14
Q9    1   1.2759 -0.0226  0.2437  11.00000  0.05    0.14
Q10   1   1.0235 -0.0001  0.3286  11.00000  0.05    0.13
Q11   1   1.0000  0.5995  0.2500  10.50000  0.05    0.13
Q12   1   0.5000  0.7532  0.2500  10.50000  0.05    0.13
Q13   1   0.8974  0.3869  0.4334  11.00000  0.05    0.12
Q14   1   0.4538  0.2068  0.1620  11.00000  0.05    0.12
Q15   1   0.5000  0.3559  0.2500  10.50000  0.05    0.12
Q16   1   0.8663  0.4888  0.5139  11.00000  0.05    0.11
Q17   1   0.4645  0.1050  0.4967  11.00000  0.05    0.11
Q18   1   0.2776  0.1126  0.3455  11.00000  0.05    0.11
Q19   1   0.5306  0.8345  0.3217  11.00000  0.05    0.10
Q20   1   0.6718  0.4521  0.2285  11.00000  0.05    0.10
;
_shelx_res_checksum              29638
_shelx_hkl_file
;
   1   0   0    8.62    0.25
   1   0   0    8.74    0.33
   1   0   0    9.15    0.30
   1   0   0    9.53    0.30
  -1   0   0    8.63    0.30
  -1   0   0    8.57    0.30
  -1   0   0    8.14    0.33
   1   0   0    8.35    0.31
   1   0   0    7.85    0.29
   1   0   0    8.49    0.30
   3   0   0  140.34    3.99
   3   0   0  137.69    4.18
   3   0   0  140.93    4.00
   3   0   0  136.74    4.04
   3   0   0  137.44    4.05
   3   0   0  138.16    4.00
   3   0   0  141.77    4.02
   3   0   0  135.95    4.08
   4   0   0  565.53   15.63
   4   0   0  555.39   15.82
   4   0   0  545.76   15.55
   4   0   0  559.98   15.62
   4   0   0  554.26   15.53
   4   0   0  560.47   15.60
   5   0   0   48.77    1.89
   5   0   0   51.36    1.90
   5   0   0   51.34    1.90
   5   0   0   52.42    2.17
   5   0   0   50.93    1.87
   3  -1   0  289.49    8.21
   3  -1   0  286.52    8.07
   3  -1   0  292.49    8.06
   3  -1   0  284.84    8.14
   3  -1   0  290.00    8.32
   3  -1   0  289.24    8.11
   3  -1   0  281.95    8.02
   3  -1   0  284.31    8.02
   3  -1   0  291.44    8.12
   3  -1   0  285.78    8.05
   3   1   0  280.87    8.16
   3   1   0  287.61    8.13
   3   1   0  289.88    8.16
   3   1   0  293.12    8.12
   3   1   0  283.32    8.23
   3   1   0  293.56    8.08
   3   1   0  286.01    8.13
  -3   1   0  290.32    8.14
   3   1   0  286.66    8.19
   3   1   0  284.19    8.12
   3   1   0  288.87    8.10
  -3   1   0  289.29    8.07
   4  -1   0  384.15   11.16
   4  -1   0  378.42   11.60
   4  -1   0  394.91   11.18
   4  -1   0  380.07   11.19
   4  -1   0  388.93   11.29
  -4   1   0  392.46   11.27
   4   1   0  381.89   11.31
   4   1   0  392.48   11.30
   4   1   0  384.72   11.33
   4   1   0  423.89   11.30
   4   1   0  422.40   11.42
   4   1   0  395.32   11.27
   4   1   0  459.81   11.55
   4   1   0  416.18   11.68
   4   1   0  390.59   11.43
   5  -1   0  142.72    4.34
   5  -1   0  141.07    4.24
   5  -1   0  144.01    4.71
   5  -1   0  138.99    4.37
   5   1   0  147.03    4.43
   5   1   0  142.46    4.60
   5   1   0  141.47    4.41
   5   1   0  144.73    4.37
   5   1   0  140.92    4.38
   0  -2   0  268.18    7.50
   2  -2   0  174.52    4.91
   2  -2   0  170.70    4.90
  -2  -2   0  173.18    4.86
   2  -2   0  172.25    4.84
   2  -2   0  170.77    4.81
   2  -2   0  174.15    4.88
   2  -2   0  171.52    4.90
  -2  -2   0  165.24    4.80
   2  -2   0  177.20    4.84
  -2  -2   0  171.66    4.80
   2  -2   0  168.53    5.02
   2  -2   0  175.54    4.96
  -2  -2   0  173.58    4.92
   2   2   0  169.95    4.84
   2   2   0  169.19    4.85
   2   2   0  172.27    4.83
  -2   2   0  172.12    4.82
  -2   2   0  172.99    4.93
  -2   2   0  171.84    4.88
   2   2   0  178.08    4.91
  -2   2   0  170.93    4.86
   2   2   0  173.48    4.83
  -2   2   0  170.00    4.84
   2   2   0  167.89    4.82
  -2   2   0  172.16    4.89
  -2   2   0  167.60    4.90
   2   2   0  175.19    4.90
   2   2   0  166.29    4.93
   3  -2   0  763.95   21.51
   3  -2   0  775.19   21.40
   3  -2   0  770.56   21.62
  -3   2   0  780.09   21.47
   3   2   0  766.45   21.47
   3   2   0  770.94   21.43
   4  -2   0   95.62    2.79
   4  -2   0   92.84    3.19
   4  -2   0   94.27    2.79
   4  -2   0   97.20    2.94
   4  -2   0   94.46    2.76
   4  -2   0   93.05    2.76
   4  -2   0   94.51    2.77
   4   2   0   95.95    2.99
  -4   2   0   80.27    3.31
  -4   2   0   94.96    2.73
   4   2   0   95.68    2.87
   4   2   0   93.73    3.01
   4   2   0   89.56    2.87
  -4   2   0   94.72    2.80
   4   2   0   92.48    2.94
   4   2   0   92.52    2.86
  -4   2   0   94.01    2.75
   4   2   0   96.46    3.05
   5  -2   0  256.73    7.67
   5  -2   0  272.24    7.90
   5  -2   0  282.08    7.99
   5  -2   0  281.12    8.36
  -5   2   0  266.00    7.67
   5   2   0  272.93    8.09
   5   2   0  270.07    7.99
   5   2   0  281.55    8.06
  -5   2   0  272.29    7.66
   5   2   0  280.31    7.92
   5   2   0  276.74    8.11
  -5   2   0  273.59    7.98
   0  -3   0  341.90    9.72
   0  -3   0  340.67    9.71
   0   3   0  348.65    9.73
   0   3   0  354.57    9.68
   2  -3   0  210.21    5.92
   2  -3   0  207.34    5.93
  -2  -3   0  202.75    5.83
  -2  -3   0  207.22    5.90
  -2  -3   0  207.70    5.79
  -2  -3   0  204.65    5.80
  -2  -3   0  210.64    5.79
   2  -3   0  207.89    5.84
   2  -3   0  205.57    5.87
  -2  -3   0  206.12    5.82
   2  -3   0  205.65    6.00
   2  -3   0  202.94    5.84
   2  -3   0  206.24    5.84
   2  -3   0  199.91    5.90
  -2   3   0  203.29    5.85
  -2   3   0  204.83    5.78
   2   3   0  209.91    5.80
  -2   3   0  199.71    5.73
   2   3   0  209.45    5.85
   2   3   0  203.55    5.85
  -2   3   0  211.09    5.92
  -2   3   0  204.53    5.90
  -2   3   0  204.82    5.89
   2   3   0  206.17    5.79
  -2   3   0  206.78    5.91
   2   3   0  203.78    5.87
   2   3   0  208.39    5.76
   2   3   0  201.23    5.76
   2   3   0  208.00    5.93
   3  -3   0  567.58   15.89
   3  -3   0  566.26   15.89
   3  -3   0  573.01   16.11
  -3  -3   0  571.21   15.93
  -3  -3   0  559.20   15.84
   3  -3   0  569.37   15.91
  -3   3   0  562.01   15.92
   3   3   0  548.32   15.90
   3   3   0  574.69   15.97
  -3   3   0  569.68   15.78
   3   3   0  644.34   16.42
  -3   3   0  563.56   15.95
   3   3   0  559.12   15.82
  -3   3   0  543.57   15.93
   3   3   0  562.25   15.79
   3   3   0  566.02   15.84
   4  -3   0   88.12    2.68
   4  -3   0   82.38    2.46
   4  -3   0   86.93    3.03
   4  -3   0   85.91    2.73
  -4  -3   0   86.60    2.66
  -4  -3   0   82.52    2.43
  -4  -3   0   85.39    2.44
   4  -3   0   83.88    2.53
   4  -3   0   86.62    2.66
  -4   3   0   87.60    2.77
   4   3   0   84.55    2.45
   4   3   0   88.23    2.59
   4   3   0   84.09    2.80
   4   3   0   86.75    2.63
   4   3   0   85.96    2.72
   4   3   0   87.60    2.90
  -4   3   0   86.67    2.57
  -4   3   0   84.51    2.60
  -4   3   0   83.91    2.57
  -4   3   0   82.37    2.50
   4   3   0   82.79    2.45
   5  -3   0  227.68    7.09
   5  -3   0  227.34    6.69
   5  -3   0  216.95    6.49
   5   3   0  230.28    6.58
   5   3   0  229.74    6.76
   5   3   0  220.19    6.71
   5   3   0  234.23    6.90
  -5   3   0  230.22    6.74
   5   3   0  223.76    6.79
  -5   3   0  220.89    6.46
   0  -4   0  394.13   10.94
   0  -4   0  387.73   10.99
   0  -4   0  368.17   10.97
   0  -4   0  383.50   10.90
   0  -4   0  394.75   10.93
   0  -4   0  391.53   10.92
   0   4   0  404.62   10.92
   0   4   0  403.73   11.02
   0   4   0  389.76   11.00
   0   4   0  382.31   10.91
  -1  -4   0  438.83   12.13
  -1  -4   0  412.73   12.12
   1  -4   0  439.39   12.12
   1  -4   0  428.34   12.12
   1  -4   0  440.18   12.14
  -1  -4   0  442.46   12.13
  -1  -4   0  431.29   12.21
   1  -4   0  435.83   12.16
  -1  -4   0  430.19   12.16
   1  -4   0  449.35   12.23
   1  -4   0  419.64   12.20
  -1   4   0  423.39   12.09
  -1   4   0  454.05   12.14
  -1   4   0  428.98   12.23
  -1   4   0  430.55   12.22
  -1   4   0  421.34   12.15
   1   4   0  435.36   12.18
   1   4   0  443.31   12.09
   1   4   0  438.49   12.20
   1   4   0  432.73   12.19
   2  -4   0  320.07    8.98
  -2  -4   0  322.14    8.89
   2  -4   0  324.06    8.92
  -2  -4   0  322.04    8.89
   2  -4   0  303.11    8.88
   2  -4   0  311.87    8.91
  -2  -4   0  301.54    8.87
  -2  -4   0  308.29    8.95
   2  -4   0  314.10    8.92
   2  -4   0  321.02    9.01
   2  -4   0  314.51    9.05
  -2  -4   0  315.22    8.87
   2  -4   0  313.59    8.84
   2  -4   0  331.88    9.03
  -2  -4   0  317.46    8.90
  -2  -4   0  319.06    8.87
  -2   4   0  309.73    8.76
  -2   4   0  311.80    8.96
  -2   4   0  321.72    8.83
  -2   4   0  318.74    9.01
   2   4   0  310.77    8.83
   2   4   0  318.69    8.95
   2   4   0  313.41    8.99
   2   4   0  312.91    8.85
   2   4   0  315.06    8.84
   2   4   0  310.93    8.92
  -2   4   0  317.18    8.99
  -2   4   0  317.50    8.93
  -2   4   0  317.49    8.91
   2   4   0  314.46    8.95
  -3  -4   0  237.58    6.83
   3  -4   0  239.94    7.00
   3  -4   0  232.51    6.71
   3  -4   0  230.73    6.63
   3  -4   0  238.54    6.79
  -3  -4   0  233.40    6.65
  -3  -4   0  231.81    6.56
  -3  -4   0  237.94    6.74
   3  -4   0  242.24    6.84
  -3  -4   0  236.18    6.67
   3  -4   0  244.62    6.85
   3  -4   0  230.21    6.52
   3  -4   0  222.47    6.50
   3   4   0  232.57    6.55
   3   4   0  237.90    6.74
  -3   4   0  245.24    6.83
  -3   4   0  243.30    6.73
   3   4   0  233.62    6.65
  -3   4   0  235.80    6.84
  -3   4   0  233.68    6.76
   3   4   0  237.63    6.67
  -3   4   0  233.57    6.65
   3   4   0  223.29    6.52
   3   4   0  233.82    6.67
   3   4   0  234.13    6.73
   3   4   0  236.25    6.87
  -4  -4   0  151.28    4.78
   4  -4   0  166.79    4.81
   4  -4   0  153.15    4.77
  -4  -4   0  153.81    4.54
   4  -4   0  161.95    5.10
   4  -4   0  162.70    4.80
  -4  -4   0  160.51    4.56
   4   4   0  169.36    4.68
  -4   4   0  169.13    4.88
   4   4   0  163.25    4.90
  -4   4   0  161.94    4.71
  -4   4   0  143.83    4.70
   4   4   0  154.46    4.60
   4   4   0  156.52    4.64
   4   4   0  158.61    4.60
  -4   4   0  162.74    4.61
   5  -4   0   99.70    3.92
   5  -4   0   95.97    3.19
   5  -4   0   97.28    3.29
   5   4   0  101.33    3.44
  -5   4   0  102.54    3.19
   5   4   0  106.78    3.16
  -5   4   0   98.51    3.36
   5   4   0   99.73    3.55
   0  -5   0  806.08   22.77
   0  -5   0  830.22   22.86
   0   5   0  822.55   22.76
  -1  -5   0   18.16    0.78
   1  -5   0   19.61    0.90
   1  -5   0   19.17    0.83
   1  -5   0   18.88    0.79
  -1  -5   0   17.97    0.88
  -1  -5   0   19.49    0.80
   1  -5   0   18.51    1.11
  -1  -5   0   18.36    0.85
   1  -5   0   19.82    0.78
  -1  -5   0   18.84    0.83
  -1  -5   0   19.59    0.79
   1  -5   0   19.73    0.81
   1  -5   0   22.15    0.81
   1  -5   0   19.12    0.69
   1  -5   0   19.29    0.83
  -1  -5   0   18.44    0.77
   1  -5   0   18.56    0.77
  -1   5   0   19.62    0.69
   1   5   0   19.83    0.79
   1   5   0   20.19    0.77
  -1   5   0   19.51    0.82
   1   5   0   19.50    0.85
   1   5   0   18.15    0.73
   1   5   0   18.46    0.87
  -1   5   0   19.08    0.86
   1   5   0   20.01    0.79
  -1   5   0   19.43    0.91
  -1   5   0   20.41    0.94
  -1   5   0   18.43    0.78
   1   5   0   18.01    0.87
  -1   5   0   18.99    0.81
   2  -5   0  644.76   18.07
   2  -5   0  668.47   18.21
  -2  -5   0  634.37   18.04
   2  -5   0  741.33   18.35
   2  -5   0  646.97   18.20
  -2  -5   0  635.44   18.07
   2  -5   0  641.93   18.00
  -2  -5   0  653.73   18.06
   2  -5   0  676.68   18.22
   2  -5   0  648.70   18.09
   2  -5   0  651.26   18.12
  -2  -5   0  662.36   18.13
  -2  -5   0  643.04   18.07
  -2   5   0  645.16   18.08
   2   5   0  628.57   18.00
   2   5   0  629.58   17.98
  -2   5   0  649.07   18.11
  -2   5   0  600.58   18.24
   2   5   0  643.61   18.16
  -2   5   0  649.49   18.22
  -2   5   0  644.04   18.14
   2   5   0  627.46   18.14
  -2   5   0  634.91   17.90
   2   5   0  642.23   18.14
   3  -5   0    8.32    0.64
  -3  -5   0    8.22    0.57
   3  -5   0    8.19    0.53
   3  -5   0    7.78    0.68
  -3  -5   0    7.90    0.50
   3  -5   0    7.70    0.70
   3  -5   0    8.02    0.74
  -3  -5   0    8.09    0.58
   3  -5   0    8.19    0.59
  -3  -5   0    8.13    0.46
  -3  -5   0    8.24    0.68
  -3  -5   0    8.10    0.50
  -3   5   0    8.38    0.60
   3   5   0    7.77    0.41
  -3   5   0    7.53    0.65
   3   5   0    8.35    0.59
   3   5   0    7.42    0.63
  -3   5   0    7.45    0.66
   3   5   0    8.38    0.67
   3   5   0    8.35    0.50
  -3   5   0    9.43    0.47
   4  -5   0  343.49   10.04
   4  -5   0  343.60    9.80
  -4  -5   0  345.46    9.70
  -4  -5   0  339.48    9.54
   4  -5   0  342.88    9.73
  -4  -5   0  322.01    9.51
   4   5   0  343.48    9.86
   4   5   0  319.45    9.61
   4   5   0  338.70    9.56
   4   5   0  332.48    9.60
  -4   5   0  347.17    9.70
  -4   5   0  343.24    9.86
  -4   5   0  333.09    9.68
   0  -6   0  323.65    9.12
   0  -6   0  319.93    8.97
   0  -6   0  275.21    8.94
   0  -6   0  308.74    8.82
   0  -6   0  315.75    9.04
   0  -6   0  312.75    9.01
   0  -6   0  315.19    8.94
   0  -6   0  325.73    9.12
   0  -6   0  307.32    8.91
   0  -6   0  331.13    9.03
   0   6   0  338.07    9.01
   0   6   0  323.06    9.01
   0   6   0  308.91    8.92
   0   6   0  308.27    8.88
   0   6   0  316.07    9.15
   0   6   0  322.18    9.15
   0   6   0  313.41    9.01
   1  -6   0   78.25    2.50
   1  -6   0   77.11    2.32
   1  -6   0   79.10    2.44
  -1  -6   0   79.60    2.44
  -1  -6   0   73.46    2.45
  -1  -6   0   76.99    2.45
   1  -6   0   74.14    2.49
  -1  -6   0   68.29    2.46
   1  -6   0   76.30    2.44
  -1  -6   0   78.69    2.47
   1  -6   0   79.95    2.60
  -1  -6   0   77.79    2.52
   1  -6   0   79.19    2.40
   1  -6   0   75.27    2.44
   1  -6   0   77.00    2.60
   1   6   0   73.11    2.43
  -1   6   0   79.52    2.33
  -1   6   0   78.53    2.46
  -1   6   0   80.47    2.64
  -1   6   0   78.04    2.44
   1   6   0   76.37    2.60
   1   6   0   77.99    2.59
   1   6   0   79.48    2.52
  -1   6   0   76.62    2.49
  -1   6   0   83.54    2.50
   1   6   0   77.56    2.37
  -1   6   0   76.01    2.63
   2  -6   0  213.16    6.26
   2  -6   0  215.28    6.47
  -2  -6   0  217.60    6.32
   2  -6   0  222.28    6.37
  -2  -6   0  219.50    6.31
   2  -6   0  219.94    6.43
  -2  -6   0  190.69    6.31
  -2  -6   0  218.99    6.37
   2  -6   0  224.37    6.50
  -2  -6   0  220.04    6.34
   2  -6   0  220.76    6.33
   2  -6   0  208.08    6.09
  -2   6   0  228.71    6.53
  -2   6   0  225.42    6.39
  -2   6   0  216.19    6.37
   2   6   0  217.75    6.45
   2   6   0  224.40    6.45
   2   6   0  217.61    6.42
  -2   6   0  218.30    6.28
   2   6   0  218.72    6.27
   2   6   0  208.27    6.21
  -2   6   0  218.36    6.40
  -3  -6   0   73.55    2.52
  -3  -6   0   73.42    2.35
   3  -6   0   76.02    2.44
   3  -6   0   73.07    2.58
   3  -6   0   71.68    2.62
  -3  -6   0   73.11    2.44
  -3   6   0   73.67    2.47
  -3   6   0   70.63    2.53
   3   6   0   71.94    2.29
  -3   6   0   72.69    2.28
   3   6   0   71.69    2.55
   3   6   0   72.35    2.46
   4  -6   0   96.77    3.15
  -4  -6   0   98.95    3.17
   4  -6   0   98.05    3.48
   4  -6   0   96.32    3.26
  -4  -6   0   91.71    2.95
  -4   6   0   97.20    3.15
   4   6   0   97.74    3.31
   4   6   0   95.84    2.98
   4   6   0   95.06    3.09
  -4   6   0   92.70    3.30
   0  -7   0    9.13    0.47
   0  -7   0    8.90    0.68
   0  -7   0   10.56    0.78
   0  -7   0    8.13    0.60
   0  -7   0    8.96    0.43
   0  -7   0    9.82    0.61
   0  -7   0    9.45    0.71
   0   7   0    8.49    0.60
   0   7   0   10.01    0.81
   0   7   0    8.74    0.69
   0   7   0    9.24    0.64
   0   7   0    8.05    0.87
   0   7   0   10.07    0.62
   1  -7   0  281.37    7.97
   1  -7   0  273.96    7.86
   1  -7   0  279.28    8.09
  -1  -7   0  277.23    7.87
  -1  -7   0  279.07    7.96
  -1  -7   0  247.78    7.98
   1  -7   0  272.49    7.84
   1  -7   0  273.27    7.80
  -1  -7   0  270.83    8.00
  -1  -7   0  268.12    7.92
   1  -7   0  265.91    7.74
   1   7   0  277.45    7.92
  -1   7   0  278.39    7.89
  -1   7   0  284.04    8.15
   1   7   0  278.83    8.11
   1   7   0  280.62    7.97
   1   7   0  267.41    7.79
  -1   7   0  281.29    7.94
  -1   7   0  274.88    7.96
  -1   7   0  276.15    7.91
   1   7   0  258.29    8.08
  -1   7   0  271.40    7.75
   2  -7   0    4.13    0.77
  -2  -7   0    3.32    0.59
  -2  -7   0    3.76    0.64
   2  -7   0    4.55    0.37
  -2  -7   0    4.76    0.60
   2   7   0    3.95    0.49
  -2   7   0    3.06    0.50
   2   7   0    3.82    0.65
   2   7   0    5.12    0.65
  -2   7   0    3.96    0.65
  -2   7   0    5.15    0.98
  -3  -7   0  179.36    5.74
   3  -7   0  194.98    5.72
   3  -7   0  185.23    5.88
   3  -7   0  201.45    5.95
  -3  -7   0  192.38    5.81
  -3  -7   0  193.40    5.65
  -3   7   0  182.96    5.91
  -3   7   0  188.97    5.85
  -3   7   0  196.63    5.78
   3   7   0  190.86    5.81
   3   7   0  189.57    5.55
   3   7   0  191.18    5.85
   0  -8   0   -0.18    0.44
   0  -8   0   -0.25    0.35
   0  -8   0    0.80    0.35
   0   8   0    0.56    0.38
   0   8   0    0.02    0.40
   0   8   0   -0.08    0.34
   0   8   0   -0.15    0.28
  -1  -8   0  159.07    4.66
   1  -8   0  150.30    4.87
   1  -8   0  152.67    4.56
   1  -8   0  150.74    4.50
  -1  -8   0  153.92    4.72
   1  -8   0  152.20    4.76
   1  -8   0  150.65    4.63
  -1  -8   0  152.42    4.66
   1   8   0  156.99    4.75
  -1   8   0  156.49    4.69
  -1   8   0  151.38    4.94
   1   8   0  154.65    4.93
  -1   8   0  159.75    4.67
   1   8   0  149.59    4.55
   2  -8   0   10.28    0.88
  -2  -8   0    9.32    0.89
  -2  -8   0    8.72    0.93
   2  -8   0    9.55    0.81
   2  -8   0    9.80    1.05
  -2  -8   0    9.54    0.87
   2   8   0    9.78    0.92
  -2   8   0    8.88    0.89
   2   8   0    9.72    0.99
  -2   8   0    9.49    0.94
  -2   8   0    8.88    0.78
   2   8   0    9.71    0.72
   0  -9   0   50.45    1.90
   0  -9   0   47.90    1.87
   0   9   0   49.29    2.22
   0   9   0   52.65    1.91
   0   9   0   52.88    1.94
  -1  -9   0    6.24    0.85
  -1  -9   0    5.58    0.96
   1  -9   0    5.89    0.91
  -1  -9   0    6.20    0.84
   1   9   0    6.89    0.84
  -1   9   0    5.54    0.79
   1   9   0    5.43    0.74
   1   9   0    4.75    0.74
  -1   9   0    5.00    0.82
   5   0  -1    0.38    0.38
   5   0  -1    0.02    0.55
   5   0  -1    0.69    0.45
   5   0  -1    0.23    0.40
   5   0  -1   -0.13    0.41
   4   0  -1    0.45    0.27
   4   0  -1    0.17    0.40
   4   0  -1    0.38    0.23
   4   0  -1    0.09    0.31
   4   0  -1    0.62    0.27
   4   0  -1    0.71    0.30
   3   0  -1    0.05    0.13
   3   0  -1    0.23    0.14
   3   0  -1    0.18    0.19
   3   0  -1    0.16    0.17
   3   0  -1   -0.02    0.18
   3   0  -1    0.41    0.23
   3   0  -1    0.11    0.05
  -3   0   1    0.06    0.14
  -3   0   1    0.29    0.05
   3   0  -1   -0.02    0.14
   3   0  -1   -0.01    0.16
  -3   0   1    0.19    0.05
   2   0  -1    1.01    0.10
  -2   0   1    0.91    0.09
   1   0  -1    0.39    0.07
   1   0  -1    0.57    0.11
  -1   0   1    0.46    0.06
  -1   0   1    0.51    0.06
   1   0  -1    0.30    0.06
   0   0  -1    0.06    0.02
   0   0  -1    0.03    0.01
   0   0   1    0.04    0.02
   1   0   1    0.10    0.06
  -1   0  -1    0.19    0.06
   1   0   1    0.25    0.04
   1   0   1    0.08    0.04
  -1   0  -1    0.12    0.03
   1   0   1    0.16    0.03
  -1   0  -1    0.20    0.04
   1   0   1    0.13    0.07
  -1   0  -1    0.25    0.04
  -1   0  -1    0.19    0.08
  -2   0  -1    0.23    0.04
  -2   0  -1    0.21    0.10
   2   0   1    0.03    0.13
   2   0   1    0.11    0.09
   2   0   1    0.18    0.11
   2   0   1    0.24    0.05
   2   0   1    0.22    0.12
  -2   0  -1    0.26    0.14
   3   0   1    0.03    0.17
   3   0   1    0.76    0.20
   3   0   1    0.17    0.17
   3   0   1    0.36    0.19
  -3   0  -1    0.23    0.14
  -3   0  -1    0.49    0.08
   4   0   1    0.54    0.29
   4   0   1    0.20    0.24
   4   0   1    0.90    0.35
   4   0   1    0.09    0.42
   4   0   1    0.46    0.33
   5   0   1   -0.49    0.38
   5   0   1    0.11    0.44
   5   0   1    0.14    0.42
   5   0   1   -0.11    0.41
   5   0   1    0.33    0.58
   5  -1  -1   86.72    2.92
   5  -1  -1   90.73    3.26
   5  -1  -1   92.07    3.05
   5  -1  -1   89.77    2.82
   5   1  -1   93.81    2.99
   5   1  -1   91.86    3.16
   5   1  -1   93.99    2.96
   5   1  -1   93.02    3.05
   5   1  -1   88.30    3.00
   4  -1  -1   52.73    1.79
   4  -1  -1   55.66    2.10
   4  -1  -1   53.98    1.76
   4  -1  -1   55.36    1.76
   4  -1  -1   54.88    1.64
   4  -1  -1   55.84    1.66
   4  -1  -1   53.41    1.84
   4  -1  -1   56.29    1.74
   4   1  -1   56.98    2.01
   4   1  -1   52.72    1.82
   4   1  -1   56.17    1.75
   4   1  -1   56.69    1.87
   4   1  -1   57.62    1.92
  -4   1   1   56.14    1.63
   4   1  -1   54.42    1.85
  -4   1   1   57.17    1.79
  -4   1   1   58.23    1.87
   4   1  -1   52.99    1.88
   4   1  -1   53.53    1.91
  -4   1   1   54.70    1.62
   3  -1  -1  199.88    5.88
   3  -1  -1  196.36    5.65
   3  -1  -1  201.75    5.67
   3  -1  -1  193.42    5.70
   3  -1  -1  197.87    5.60
   3  -1  -1  195.70    5.62
   3  -1  -1  199.02    5.64
   3  -1  -1  199.42    5.71
   3  -1  -1  202.55    5.81
  -3   1   1  198.78    5.67
   3   1  -1  198.68    5.69
   3   1  -1  199.02    5.80
   3   1  -1  199.85    5.63
  -3   1   1  203.44    5.58
   3   1  -1  204.11    5.71
   3   1  -1  201.80    5.71
   3   1  -1  198.43    5.72
  -3   1   1  199.60    5.72
  -3   1   1  195.56    5.58
   3   1  -1  200.19    5.70
   3   1  -1  206.45    5.73
   2  -1  -1   73.90    2.09
  -2  -1   1   74.25    2.13
  -2  -1   1   71.37    2.06
   2  -1  -1   68.00    2.17
   2  -1  -1   74.83    2.17
   2  -1  -1   72.11    2.10
   2  -1  -1   75.49    2.25
  -2  -1   1   72.60    2.07
   2  -1  -1   74.48    2.15
   2  -1  -1   74.54    2.09
  -2  -1   1   75.19    2.18
   2  -1  -1   75.51    2.18
   2  -1  -1   73.48    2.11
   2  -1  -1   74.55    2.29
   2  -1  -1   74.60    2.14
   2   1  -1   72.98    2.18
  -2   1   1   71.09    2.11
  -2   1   1   73.06    2.15
  -2   1   1   77.46    2.39
  -2   1   1   76.68    2.12
  -2   1   1   75.11    2.19
   2   1  -1   73.90    2.17
   2   1  -1   72.84    2.17
   2   1  -1   73.16    2.18
  -2   1   1   73.75    2.12
   2   1  -1   71.81    2.17
   2   1  -1   74.59    2.12
   2   1  -1   73.57    2.21
  -2   1   1   71.60    2.11
   2   1  -1   75.49    2.09
   2  -1   1  280.97    7.74
  -2  -1  -1  270.69    7.70
   2  -1   1  273.46    7.70
  -2   1  -1  275.57    7.67
   2   1   1  279.88    7.69
  -2   1  -1  267.78    7.74
   2   1   1  268.93    7.73
   3  -1   1  242.76    7.04
   3  -1   1  250.97    7.09
   3  -1   1  243.62    6.91
   3  -1   1  241.47    6.99
   3  -1   1  247.98    6.98
   3  -1   1  251.68    6.96
   3  -1   1  242.74    6.90
   3  -1   1  242.72    6.96
   3   1   1  255.24    6.97
   3   1   1  243.57    7.03
   3   1   1  249.99    7.08
   3   1   1  245.28    7.01
  -3   1  -1  249.66    7.01
   3   1   1  251.58    7.02
   3   1   1  252.77    6.98
   3   1   1  239.67    6.96
  -3   1  -1  239.00    6.88
   3   1   1  248.80    6.99
   4  -1   1   34.07    1.21
   4  -1   1   32.22    1.10
   4  -1   1   33.22    1.13
   4  -1   1   33.18    1.03
   4  -1   1   33.66    1.32
   4  -1   1   32.15    1.19
   4  -1   1   31.66    1.20
   4   1   1   32.72    1.32
   4   1   1   35.29    1.34
   4   1   1   30.08    1.42
  -4   1  -1   33.50    1.23
   4   1   1   31.38    1.21
   4   1   1   35.13    1.25
   4   1   1   33.04    1.22
   4   1   1   33.80    1.28
  -4   1  -1   32.90    1.01
   5  -1   1   39.09    1.54
   5  -1   1   39.60    1.49
   5  -1   1   40.49    1.64
   5  -1   1   39.28    1.96
   5   1   1   39.66    1.66
   5   1   1   39.42    1.67
   5   1   1   41.29    1.63
   5   1   1   41.50    1.57
   5   1   1   39.50    1.88
   5  -2  -1   17.08    0.71
   5  -2  -1   19.62    1.03
   5  -2  -1   18.21    1.43
   5   2  -1   18.64    1.06
   5   2  -1   19.94    1.04
   5   2  -1   16.98    1.21
   5   2  -1   18.57    1.23
   5   2  -1   21.39    1.19
  -5   2   1   17.48    0.69
   4  -2  -1    5.22    0.42
   4  -2  -1    5.57    0.43
   4  -2  -1    5.66    0.37
   4  -2  -1    4.73    0.52
   4  -2  -1    5.61    0.37
   4  -2  -1    5.62    0.39
   4  -2  -1    5.24    0.76
  -4   2   1    6.00    0.42
   4   2  -1    5.25    0.50
  -4   2   1    5.48    0.33
   4   2  -1    5.92    0.43
   4   2  -1    5.58    0.60
   4   2  -1    5.65    0.51
  -4   2   1    6.16    0.36
   4   2  -1    5.46    0.54
   4   2  -1    6.38    0.61
   3  -2  -1  121.24    3.50
   3  -2  -1  121.39    3.51
  -3  -2   1  126.76    3.60
   3  -2  -1  123.46    3.62
   3  -2  -1  124.70    3.64
   3  -2  -1  123.07    3.77
   3  -2  -1  124.80    3.57
   3  -2  -1  121.82    3.51
  -3  -2   1  128.90    3.69
   3  -2  -1  123.68    3.86
  -3  -2   1  120.56    3.49
   3  -2  -1  126.78    3.66
  -3  -2   1  122.18    3.49
   3  -2  -1  126.19    3.66
   3   2  -1  124.99    3.64
  -3   2   1  125.61    3.56
   3   2  -1  125.20    3.56
   3   2  -1  124.41    3.52
  -3   2   1  124.86    3.61
  -3   2   1  118.86    3.57
   3   2  -1  126.05    3.67
  -3   2   1  128.53    3.70
   3   2  -1  124.97    3.64
   3   2  -1  129.71    3.69
  -3   2   1  125.52    3.70
  -3   2   1  123.44    3.57
   3   2  -1  127.53    3.74
   3   2  -1  124.93    3.62
   3   2  -1  121.16    3.68
   3   2  -1  120.41    3.51
  -3   2   1  121.72    3.56
  -2  -2   1    7.39    0.40
   2  -2  -1    7.65    0.25
  -2  -2   1    7.37    0.29
   2  -2  -1    7.59    0.25
   2  -2  -1    7.74    0.33
   2  -2  -1    7.33    0.37
  -2  -2   1    7.50    0.38
   2  -2  -1    7.27    0.39
   2  -2  -1    7.43    0.47
   2  -2  -1    7.34    0.33
   2  -2  -1    7.71    0.38
   2  -2  -1    7.57    0.45
  -2  -2   1    7.46    0.33
  -2  -2   1    7.78    0.29
  -2  -2   1    7.28    0.27
   2  -2  -1    7.58    0.39
   2  -2  -1    7.58    0.34
  -2   2   1    8.32    0.40
  -2   2   1    8.01    0.35
  -2   2   1    7.48    0.34
   2   2  -1    7.47    0.32
  -2   2   1    7.64    0.33
  -2   2   1    7.26    0.37
   2   2  -1    7.09    0.35
   2   2  -1    7.04    0.38
   2   2  -1    7.98    0.26
   2   2  -1    8.12    0.27
   2   2  -1    7.40    0.39
   2   2  -1    6.54    0.38
  -2   2   1    7.00    0.39
  -2   2   1    7.31    0.37
   2   2  -1    8.53    0.34
   2   2  -1    7.48    0.43
   2   2  -1    7.54    0.33
   0  -2  -1    0.40    0.09
   0  -2   1    0.71    0.12
   0  -2  -1    0.59    0.11
   0  -2  -1    0.48    0.09
   0  -2   1    0.41    0.10
   0  -2  -1    0.73    0.10
   0  -2   1    0.63    0.12
   0  -2  -1    0.62    0.10
   0  -2  -1    0.53    0.11
   0  -2  -1    0.44    0.08
   0  -2  -1    0.94    0.12
   0  -2   1    0.63    0.12
   0  -2   1    0.45    0.09
   0   2   1    0.88    0.12
   0   2  -1    0.48    0.10
   0   2  -1    0.89    0.12
   0   2  -1    0.70    0.14
   0   2  -1    0.70    0.12
   0   2  -1    0.82    0.10
   0   2   1    0.59    0.09
   0   2  -1    0.67    0.09
   0   2   1    0.51    0.14
   0   2   1    0.85    0.13
   0   2   1    0.72    0.14
   0   2   1    0.66    0.10
   1  -2   1  103.79    2.94
  -1  -2  -1  106.64    3.02
  -1  -2  -1  107.43    2.99
  -1  -2  -1  104.09    2.97
  -1  -2  -1   90.37    3.03
  -1  -2  -1  107.26    2.97
  -1  -2  -1  102.30    2.95
   1  -2   1  107.43    3.02
   1  -2   1  107.84    3.00
  -1  -2  -1  107.12    2.99
   1  -2   1  106.44    3.03
   1  -2   1  107.87    3.04
   1  -2   1  102.28    3.04
  -1  -2  -1  107.52    2.94
   1  -2   1  106.34    3.00
   1   2   1  105.55    2.98
  -1   2  -1  106.96    3.04
  -1   2  -1  101.10    2.99
   1   2   1  107.74    3.02
   1   2   1  107.54    3.04
  -1   2  -1  108.83    3.05
   1   2   1   95.97    3.00
   1   2   1  103.08    2.94
  -1   2  -1  100.15    3.00
  -1   2  -1   99.74    3.08
  -1   2  -1  103.84    2.95
   1   2   1  105.37    2.96
   1   2   1  107.13    3.00
  -1   2  -1  108.59    3.02
  -2  -2  -1   37.19    1.20
   2  -2   1   38.18    1.28
  -2  -2  -1   37.47    1.14
   2  -2   1   37.02    1.20
   2  -2   1   39.36    1.17
   2  -2   1   37.59    1.16
   2  -2   1   36.92    1.14
   2  -2   1   37.17    1.11
   2  -2   1   37.07    1.24
   2  -2   1   38.49    1.22
  -2  -2  -1   37.15    1.13
  -2  -2  -1   38.00    1.19
   2  -2   1   38.02    1.23
  -2   2  -1   37.97    1.27
  -2   2  -1   38.16    1.22
  -2   2  -1   36.87    1.18
   2   2   1   37.57    1.16
  -2   2  -1   38.15    1.13
   2   2   1   38.81    1.18
   2   2   1   37.04    1.26
   2   2   1   39.77    1.25
   2   2   1   37.15    1.07
  -2   2  -1   37.36    1.23
  -2   2  -1   38.07    1.21
   2   2   1   38.28    1.16
   2   2   1   37.96    1.16
  -2   2  -1   37.89    1.17
  -2   2  -1   38.19    1.17
   2   2   1   37.67    1.16
   3  -2   1   63.25    1.88
   3  -2   1   61.93    1.80
   3  -2   1   61.47    1.83
  -3  -2  -1   60.09    1.78
   3  -2   1   61.78    2.00
   3  -2   1   62.32    1.94
   3  -2   1   57.77    2.04
   3  -2   1   62.18    1.92
   3  -2   1   63.28    1.95
  -3  -2  -1   64.43    1.95
   3  -2   1   60.84    1.80
  -3  -2  -1   61.73    1.79
   3  -2   1   60.86    2.18
   3  -2   1   61.88    1.87
   3   2   1   60.81    1.96
   3   2   1   62.66    1.91
   3   2   1   66.63    2.10
   3   2   1   63.62    1.92
   3   2   1   64.73    1.91
   3   2   1   60.24    1.90
  -3   2  -1   64.75    1.86
   3   2   1   66.06    2.01
  -3   2  -1   62.16    1.86
   3   2   1   62.38    1.81
   3   2   1   63.02    2.02
  -3   2  -1   59.54    1.85
   3   2   1   63.25    1.82
  -3   2  -1   60.99    1.88
  -3   2  -1   61.01    1.86
  -3   2  -1   62.17    1.98
   4  -2   1    0.54    0.20
   4  -2   1    0.29    0.45
   4  -2   1    0.56    0.23
   4  -2   1    0.68    0.19
   4  -2   1    0.49    0.25
   4   2   1    0.17    0.30
  -4   2  -1    0.90    0.17
   4   2   1    0.65    0.29
   4   2   1    0.25    0.35
   4   2   1    0.64    0.27
   4   2   1    0.65    0.32
   5  -2   1   49.30    2.29
   5  -2   1   47.13    1.58
   5  -2   1   52.27    1.94
  -5   2  -1   47.08    1.60
   5   2   1   53.24    1.82
   5   2   1   52.46    2.07
  -5   2  -1   50.13    1.88
   5   2   1   53.68    1.99
  -5   2  -1   48.75    1.57
   5   2   1   47.90    2.09
   5   2   1   54.60    1.98
   5  -3  -1   11.33    0.69
   5  -3  -1   13.02    1.36
   5  -3  -1   14.22    0.95
   5   3  -1   13.14    0.98
   5   3  -1   12.71    0.99
   5   3  -1   14.62    0.89
  -5   3   1   11.99    0.68
   5   3  -1   12.85    1.22
  -5   3   1   15.25    0.77
  -5   3   1   14.75    1.00
   5   3  -1   13.89    1.08
   4  -3  -1   69.05    2.26
   4  -3  -1   67.05    2.00
   4  -3  -1   71.42    2.25
   4  -3  -1   70.68    2.01
   4  -3  -1   71.05    2.57
   4  -3  -1   65.37    2.03
   4  -3  -1   66.13    2.49
   4  -3  -1   68.65    2.15
  -4  -3   1   72.95    2.05
  -4  -3   1   70.77    2.04
   4   3  -1   72.38    2.19
  -4   3   1   72.23    2.20
   4   3  -1   70.41    2.28
  -4   3   1   71.05    2.11
  -4   3   1   71.57    2.17
  -4   3   1   72.76    2.20
   4   3  -1   74.04    2.43
  -4   3   1   69.41    2.34
   4   3  -1   69.75    2.07
   4   3  -1   70.85    2.07
   4   3  -1   72.51    2.25
  -3  -3   1   17.29    0.62
   3  -3  -1   16.96    0.77
   3  -3  -1   17.43    0.76
  -3  -3   1   17.66    0.69
  -3  -3   1   16.39    0.80
   3  -3  -1   15.43    0.91
   3  -3  -1   16.83    0.65
   3  -3  -1   15.45    0.66
   3  -3  -1   16.34    0.77
  -3  -3   1   16.51    0.62
   3   3  -1   18.62    0.85
   3   3  -1   17.93    0.65
  -3   3   1   17.05    0.73
   3   3  -1   16.87    0.67
  -3   3   1   17.51    0.82
   3   3  -1   18.34    0.66
  -3   3   1   16.78    0.78
   3   3  -1   17.26    0.87
   3   3  -1   18.27    0.69
   3   3  -1   16.32    0.70
   3   3  -1   17.31    0.80
  -3   3   1   17.99    0.68
  -3   3   1   16.60    0.67
  -3   3   1   16.32    0.70
   3   3  -1   18.45    0.72
   2  -3  -1  240.45    6.81
  -2  -3   1  240.98    6.78
  -2  -3   1  245.67    6.78
   2  -3  -1  245.29    6.84
  -2  -3   1  246.69    6.87
   2  -3  -1  235.15    6.76
   2  -3  -1  240.99    6.82
   2  -3  -1  237.22    6.90
  -2  -3   1  234.89    6.76
  -2  -3   1  240.80    6.78
   2  -3  -1  242.48    6.89
  -2  -3   1  243.44    6.84
   2  -3  -1  240.47    6.97
  -2  -3   1  238.71    6.76
   2  -3  -1  246.77    6.82
   2  -3  -1  236.82    6.89
  -2   3   1  244.93    6.83
  -2   3   1  240.10    6.87
  -2   3   1  242.58    6.78
   2   3  -1  241.37    6.84
   2   3  -1  242.35    6.82
  -2   3   1  239.99    6.88
   2   3  -1  245.91    6.80
   2   3  -1  241.36    6.90
  -2   3   1  243.26    6.86
   2   3  -1  240.98    6.73
  -2   3   1  243.49    6.89
   2   3  -1  239.88    6.86
   2   3  -1  244.86    6.85
   2   3  -1  240.88    6.76
   2   3  -1  235.29    6.74
  -1  -3   1    2.07    0.19
  -1  -3   1    2.06    0.27
  -1  -3   1    1.77    0.20
  -1  -3   1    2.73    0.25
  -1  -3   1    2.09    0.28
  -1  -3   1    2.45    0.23
   1  -3  -1    2.31    0.24
   1  -3  -1    2.32    0.14
   1  -3  -1    1.87    0.27
   1  -3  -1    2.07    0.23
   1  -3  -1    2.66    0.21
  -1  -3   1    2.37    0.25
   1  -3  -1    2.85    0.28
  -1   3   1    1.93    0.27
  -1   3   1    2.09    0.20
   1   3  -1    2.10    0.25
   1   3  -1    2.27    0.26
   1   3  -1    1.92    0.21
   1   3  -1    2.09    0.25
  -1   3   1    2.42    0.20
  -1   3   1    2.00    0.22
  -1   3   1    2.45    0.26
  -1   3   1    2.06    0.21
   1   3  -1    2.11    0.19
  -1   3   1    1.96    0.26
   1   3  -1    1.99    0.20
   0  -3  -1  384.51   10.86
   0  -3   1  404.58   10.88
   0   3   1  374.99   10.87
  -1  -3  -1   23.49    0.80
  -1  -3  -1   23.70    0.82
   1  -3   1   24.59    0.83
   1  -3   1   22.90    0.82
  -1  -3  -1   23.99    0.82
  -1  -3  -1   23.68    0.77
   1  -3   1   23.36    0.77
  -1  -3  -1   23.67    0.84
   1  -3   1   23.13    0.88
   1  -3   1   23.13    0.87
  -1  -3  -1   22.54    0.87
  -1  -3  -1   24.84    0.71
   1  -3   1   23.54    0.81
  -1  -3  -1   24.99    0.80
   1  -3   1   22.57    0.82
   1  -3   1   23.80    0.82
   1   3   1   22.70    0.85
   1   3   1   23.10    0.84
  -1   3  -1   23.85    0.82
   1   3   1   23.29    0.79
   1   3   1   23.00    0.75
   1   3   1   23.66    0.78
  -1   3  -1   23.55    0.85
   1   3   1   24.04    0.82
   1   3   1   22.96    0.85
  -1   3  -1   22.85    0.87
   1   3   1   23.10    0.70
  -1   3  -1   23.25    0.88
  -1   3  -1   23.17    0.75
  -1   3  -1   22.71    0.82
   1   3   1   24.57    0.79
  -1   3  -1   21.69    0.81
  -2  -3  -1  153.92    4.55
  -2  -3  -1  155.43    4.44
  -2  -3  -1  152.54    4.40
   2  -3   1  153.24    4.50
   2  -3   1  150.02    4.34
   2  -3   1  157.79    4.61
  -2  -3  -1  153.61    4.49
  -2  -3  -1  152.36    4.39
   2  -3   1  153.09    4.43
  -2  -3  -1  151.68    4.39
   2  -3   1  155.94    4.48
   2  -3   1  148.99    4.43
   2  -3   1  157.51    4.53
  -2  -3  -1  148.81    4.44
  -2  -3  -1  156.88    4.38
   2  -3   1  155.84    4.34
   2  -3   1  159.18    4.44
  -2  -3  -1  157.07    4.40
   2  -3   1  155.74    4.51
   2   3   1  158.85    4.49
  -2   3  -1  155.58    4.49
   2   3   1  156.78    4.40
  -2   3  -1  151.17    4.34
   2   3   1  156.27    4.52
   2   3   1  154.64    4.33
   2   3   1  158.63    4.45
  -2   3  -1  155.53    4.50
  -2   3  -1  151.89    4.37
   2   3   1  157.09    4.37
  -2   3  -1  153.51    4.45
  -2   3  -1  155.76    4.51
   2   3   1  154.81    4.35
   2   3   1  152.47    4.35
  -2   3  -1  156.94    4.52
   2   3   1  152.16    4.44
  -3  -3  -1   21.15    0.72
   3  -3   1   19.98    1.06
   3  -3   1   21.18    0.71
   3  -3   1   18.91    0.80
  -3  -3  -1   21.16    0.73
   3  -3   1   20.49    0.89
   3  -3   1   20.68    0.71
   3  -3   1   21.35    0.88
  -3  -3  -1   22.08    0.85
   3  -3   1   20.20    0.88
  -3   3  -1   20.73    0.89
  -3   3  -1   20.91    0.78
   3   3   1   20.97    0.91
   3   3   1   22.22    0.78
   3   3   1   20.07    0.78
   3   3   1   22.37    0.76
  -3   3  -1   20.99    0.83
   3   3   1   21.88    0.80
   3   3   1   22.72    0.96
  -3   3  -1   21.67    0.73
   3   3   1   20.82    0.80
   3   3   1   21.07    0.78
   4  -3   1   79.86    2.56
   4  -3   1   80.84    2.42
  -4  -3  -1   82.50    2.36
   4  -3   1   85.86    2.97
   4  -3   1   84.00    2.67
   4  -3   1   81.84    2.59
   4  -3   1   79.50    2.42
   4  -3   1   79.47    2.46
  -4  -3  -1   82.76    2.35
  -4   3  -1   81.80    2.48
   4   3   1   83.01    2.68
   4   3   1   82.18    2.37
   4   3   1   82.31    2.52
  -4   3  -1   82.44    2.67
  -4   3  -1   84.89    2.45
  -4   3  -1   81.77    2.52
  -4   3  -1   82.09    2.46
   4   3   1   80.10    2.55
   4   3   1   82.88    2.51
   4   3   1   88.14    2.84
   4   3   1   81.08    2.71
   4   3   1   79.89    2.37
   5  -3   1    5.06    0.81
   5  -3   1    3.28    0.51
   5  -3   1    3.75    0.84
   5   3   1    4.29    0.72
   5   3   1    4.31    0.81
   5   3   1    5.70    0.91
   5   3   1    5.12    0.88
  -5   3  -1    5.41    0.79
   5   3   1    4.66    0.66
  -5   3  -1    3.46    0.48
   5  -4  -1    1.61    0.51
   5  -4  -1    1.25    0.81
   5  -4  -1    1.05    0.36
   5   4  -1    2.15    0.50
   5   4  -1    1.94    0.63
   5   4  -1    1.25    0.78
  -5   4   1    1.92    0.61
  -5   4   1    1.64    0.35
   4  -4  -1  223.56    6.65
  -4  -4   1  225.31    6.42
  -4  -4   1  227.40    6.43
  -4  -4   1  229.76    6.57
   4  -4  -1  211.27    6.50
   4  -4  -1  233.36    6.95
   4  -4  -1  233.65    6.64
   4  -4  -1  230.87    6.66
  -4   4   1  225.62    6.51
   4   4  -1  223.51    6.47
   4   4  -1  234.39    6.56
  -4   4   1  223.70    6.57
   4   4  -1  221.23    6.48
   4   4  -1  222.71    6.46
  -4   4   1  231.20    6.56
  -4   4   1  231.46    6.72
   4   4  -1  236.47    6.79
  -3  -4   1    0.66    0.14
  -3  -4   1    0.81    0.22
   3  -4  -1    0.56    0.23
   3  -4  -1    1.33    0.30
  -3  -4   1    0.51    0.15
   3  -4  -1    0.68    0.21
   3  -4  -1    0.37    0.24
  -3  -4   1    0.61    0.32
  -3  -4   1    0.45    0.15
   3  -4  -1    0.92    0.23
  -3  -4   1    0.93    0.27
   3  -4  -1    1.19    0.39
   3   4  -1    0.66    0.21
  -3   4   1    0.68    0.21
   3   4  -1    0.96    0.34
  -3   4   1    1.02    0.20
   3   4  -1    1.08    0.23
  -3   4   1    1.02    0.30
   3   4  -1    0.74    0.20
   3   4  -1    0.34    0.22
   3   4  -1    0.61    0.11
  -3   4   1    0.53    0.21
   3   4  -1    0.89    0.13
  -3   4   1    1.24    0.25
   2  -4  -1  481.12   13.39
   2  -4  -1  488.39   13.55
   2  -4  -1  480.65   13.58
  -2  -4   1  487.58   13.44
   2  -4  -1  465.18   13.42
  -2  -4   1  486.71   13.40
   2  -4  -1  491.10   13.46
  -2  -4   1  462.43   13.41
   2  -4  -1  501.88   13.56
   2  -4  -1  474.77   13.45
  -2  -4   1  478.39   13.50
  -2  -4   1  477.75   13.42
  -2  -4   1  495.18   13.42
  -2  -4   1  489.20   13.47
   2  -4  -1  497.29   13.46
   2  -4  -1  483.41   13.52
   2   4  -1  483.87   13.49
   2   4  -1  477.17   13.53
   2   4  -1  477.21   13.50
   2   4  -1  486.74   13.38
  -2   4   1  473.82   13.49
  -2   4   1  473.33   13.45
  -2   4   1  474.13   13.51
   2   4  -1  482.63   13.46
  -2   4   1  457.40   13.53
   1  -4  -1    1.61    0.27
   1  -4  -1    1.88    0.29
  -1  -4   1    1.76    0.28
  -1  -4   1    2.08    0.31
   1  -4  -1    1.95    0.27
   1  -4  -1    2.22    0.25
   1  -4  -1    1.47    0.26
  -1  -4   1    1.87    0.33
  -1  -4   1    2.11    0.25
  -1  -4   1    1.49    0.23
  -1  -4   1    1.57    0.23
   1  -4  -1    1.50    0.30
   1  -4  -1    1.69    0.23
  -1  -4   1    1.66    0.28
  -1   4   1    1.21    0.22
  -1   4   1    1.90    0.15
  -1   4   1    1.70    0.29
  -1   4   1    1.70    0.24
  -1   4   1    1.51    0.25
   1   4  -1    1.91    0.24
  -1   4   1    1.91    0.24
  -1   4   1    1.67    0.25
  -1   4   1    2.12    0.34
   1   4  -1    1.58    0.29
   1   4  -1    1.61    0.22
   1   4  -1    2.02    0.29
   1   4  -1    1.52    0.23
   0  -4  -1  522.76   14.61
   0  -4  -1  531.78   14.65
   0  -4   1  518.85   14.68
   0  -4  -1  526.50   14.66
   0   4   1  533.79   14.62
   0   4   1  522.91   14.66
   0   4  -1  516.54   14.68
   0   4   1  514.74   14.67
  -1  -4  -1    1.19    0.22
  -1  -4  -1    0.54    0.18
   1  -4   1    1.07    0.22
  -1  -4  -1    0.41    0.18
  -1  -4  -1    0.38    0.13
   1  -4   1    1.02    0.22
   1  -4   1    0.92    0.14
   1  -4   1    0.72    0.17
  -1  -4  -1    1.11    0.27
   1  -4   1    0.87    0.18
  -1  -4  -1    0.64    0.08
   1  -4   1    0.59    0.16
   1  -4   1    0.85    0.21
  -1  -4  -1    0.71    0.16
   1   4   1    0.39    0.12
  -1   4  -1    0.52    0.13
   1   4   1    0.76    0.20
  -1   4  -1    1.22    0.22
  -1   4  -1    0.62    0.15
  -1   4  -1    1.14    0.22
  -1   4  -1    0.28    0.17
   1   4   1    0.74    0.14
   1   4   1    0.76    0.21
   1   4   1    0.86    0.12
   1   4   1    0.59    0.16
   1   4   1    0.64    0.17
   1   4   1    1.30    0.23
   2  -4   1  429.26   11.92
  -2  -4  -1  423.91   11.81
   2  -4   1  423.89   11.96
   2  -4   1  422.31   11.86
   2  -4   1  426.15   11.85
   2  -4   1  409.87   11.93
  -2  -4  -1  424.35   11.81
   2  -4   1  399.76   11.78
  -2  -4  -1  430.82   11.85
  -2  -4  -1  428.53   11.82
  -2  -4  -1  405.90   11.82
  -2  -4  -1  412.11   11.89
  -2  -4  -1  416.46   11.98
   2  -4   1  436.56   11.86
   2  -4   1  423.53   12.00
   2  -4   1  431.85   11.88
  -2  -4  -1  422.69   11.80
  -2   4  -1  426.64   11.85
   2   4   1  421.86   11.89
   2   4   1  421.21   11.76
   2   4   1  430.17   11.88
  -2   4  -1  433.78   11.96
  -2   4  -1  422.45   11.91
   2   4   1  431.21   11.94
  -2   4  -1  408.28   11.86
   2   4   1  428.60   11.90
   2   4   1  418.71   11.79
  -2   4  -1  426.14   11.75
   3  -4   1    0.31    0.24
   3  -4   1    0.54    0.19
   3  -4   1    0.14    0.22
  -3  -4  -1    0.16    0.13
   3  -4   1    0.15    0.18
   3  -4   1    0.18    0.25
  -3  -4  -1    0.26    0.16
   3  -4   1    0.24    0.36
  -3  -4  -1    0.24    0.11
  -3  -4  -1    0.32    0.21
  -3   4  -1    0.47    0.25
   3   4   1    0.48    0.24
   3   4   1    0.19    0.08
  -3   4  -1    0.24    0.18
  -3   4  -1    0.49    0.24
   3   4   1    0.00    0.20
   3   4   1    0.51    0.19
  -3   4  -1    0.48    0.13
   3   4   1    0.33    0.21
   3   4   1    0.36    0.32
   3   4   1    0.63    0.23
   4  -4   1  199.02    6.22
  -4  -4  -1  202.00    5.87
  -4  -4  -1  191.88    5.64
   4  -4   1  197.42    5.91
   4  -4   1  210.63    6.16
  -4  -4  -1  198.51    5.66
   4  -4   1  203.32    5.92
   4   4   1  206.29    6.13
  -4   4  -1  200.96    5.66
  -4   4  -1  196.08    5.82
  -4   4  -1  197.07    5.96
   4   4   1  191.69    5.71
   4   4   1  201.16    5.99
   4   4   1  195.85    5.80
   4   4   1  206.49    5.74
   4   4   1  195.52    5.70
   4  -5  -1   81.87    2.76
   4  -5  -1   83.64    2.68
   4  -5  -1   81.00    2.99
  -4  -5   1   84.25    2.63
  -4  -5   1   81.58    2.49
  -4  -5   1   81.30    2.51
   4   5  -1   82.50    2.83
   4   5  -1   80.29    2.58
  -4   5   1   77.82    2.77
  -4   5   1   82.11    2.54
   4   5  -1   77.14    2.60
   4   5  -1   82.10    2.56
  -4   5   1   80.58    2.64
   3  -5  -1   96.88    3.00
  -3  -5   1  102.15    3.18
   3  -5  -1   92.62    3.17
   3  -5  -1  103.81    3.10
  -3  -5   1  102.73    2.97
   3  -5  -1  101.03    3.21
  -3  -5   1   99.99    3.00
   3  -5  -1   98.50    3.29
  -3  -5   1  100.49    3.03
   3  -5  -1   97.04    3.06
  -3  -5   1  100.48    3.06
  -3   5   1   97.70    3.19
   3   5  -1   99.87    3.10
   3   5  -1   98.70    3.00
   3   5  -1   97.55    3.19
  -3   5   1   98.69    3.10
  -3   5   1   99.44    3.07
   3   5  -1   96.24    2.90
  -3   5   1  110.59    3.03
   3   5  -1   99.52    3.14
  -3   5   1  100.20    3.19
   2  -5  -1  183.74    5.52
   2  -5  -1  187.27    5.45
  -2  -5   1  185.60    5.36
  -2  -5   1  192.64    5.45
   2  -5  -1  182.64    5.34
   2  -5  -1  188.93    5.42
  -2  -5   1  185.64    5.36
   2  -5  -1  188.10    5.40
  -2  -5   1  175.80    5.42
   2  -5  -1  184.15    5.42
   2  -5  -1  185.80    5.51
  -2  -5   1  190.64    5.41
  -2  -5   1  189.69    5.38
   2  -5  -1  175.41    5.49
   2   5  -1  182.91    5.32
   2   5  -1  189.26    5.47
  -2   5   1  188.08    5.54
   2   5  -1  185.05    5.33
  -2   5   1  192.40    5.37
  -2   5   1  181.71    5.16
  -2   5   1  175.50    5.51
  -2   5   1  191.62    5.40
   2   5  -1  184.16    5.32
   2   5  -1  188.68    5.48
  -2   5   1  184.95    5.44
   2   5  -1  184.52    5.48
  -2   5   1  184.24    5.42
   1  -5  -1  104.89    3.22
  -1  -5   1   90.04    3.22
   1  -5  -1  103.11    3.19
  -1  -5   1  105.10    3.30
   1  -5  -1  105.30    3.18
  -1  -5   1  106.71    3.23
  -1  -5   1  110.28    3.23
   1  -5  -1  110.28    3.20
   1  -5  -1  112.82    3.27
   1  -5  -1  109.91    3.34
   1  -5  -1  109.48    3.09
  -1  -5   1  107.77    3.19
  -1  -5   1  110.45    3.23
  -1  -5   1  109.86    3.29
  -1  -5   1  106.20    3.29
   1  -5  -1  107.41    3.26
   1  -5  -1  106.27    3.34
   1  -5  -1  107.82    3.23
   1   5  -1  110.00    3.21
   1   5  -1  106.59    3.19
   1   5  -1  105.64    3.17
   1   5  -1  110.56    3.20
  -1   5   1  106.89    3.25
   1   5  -1  108.49    3.32
  -1   5   1  108.66    3.37
  -1   5   1  113.80    3.25
   1   5  -1  109.35    3.34
  -1   5   1  105.50    3.21
  -1   5   1  105.17    3.27
  -1   5   1  105.48    3.22
  -1   5   1  110.45    3.36
   1   5  -1  107.52    3.27
   1   5  -1  108.64    3.22
   0  -5   1  291.67    8.20
   0  -5   1  284.18    8.09
   0  -5   1  281.97    8.15
   0  -5   1  283.22    8.22
   0  -5  -1  297.29    8.17
   0  -5  -1  280.53    8.12
   0  -5   1  284.92    8.21
   0  -5  -1  284.33    8.09
   0  -5   1  300.26    8.31
   0  -5  -1  283.57    8.07
   0  -5   1  285.87    8.14
   0  -5  -1  288.82    8.46
   0  -5  -1  279.68    8.16
   0  -5  -1  299.37    8.30
   0  -5  -1  291.87    8.22
   0  -5   1  290.01    8.06
   0  -5   1  290.86    8.21
   0  -5  -1  288.79    8.30
   0  -5  -1  286.38    8.24
   0  -5   1  291.36    8.29
   0   5  -1  262.80    8.35
   0   5  -1  286.65    8.12
   0   5  -1  293.19    8.32
   0   5  -1  296.04    8.21
   0   5  -1  272.00    8.20
   0   5  -1  289.99    8.20
   0   5  -1  296.76    8.20
   0   5   1  300.82    8.21
   0   5   1  285.88    8.35
   0   5   1  299.97    8.24
   0   5   1  285.38    8.13
   0   5   1  291.31    8.21
   0   5   1  291.62    8.19
   0   5   1  298.90    8.34
   0   5  -1  291.80    8.17
   0   5   1  289.71    8.11
  -1  -5  -1  113.48    3.59
  -1  -5  -1  117.33    3.49
   1  -5   1  115.96    3.51
  -1  -5  -1  112.88    3.55
   1  -5   1  116.07    3.48
  -1  -5  -1  120.22    3.50
   1  -5   1  120.47    3.62
   1  -5   1  118.29    3.49
  -1  -5  -1  116.98    3.26
  -1  -5  -1  116.72    3.47
  -1  -5  -1  118.56    3.50
   1  -5   1  118.08    3.38
   1  -5   1  117.70    3.46
   1  -5   1  117.18    3.52
  -1  -5  -1  119.83    3.55
   1  -5   1  117.78    3.46
  -1   5  -1  113.77    3.46
  -1   5  -1  114.64    3.54
   1   5   1  119.57    3.47
   1   5   1  115.10    3.40
  -1   5  -1  117.15    3.52
   1   5   1  119.99    3.61
   1   5   1  119.44    3.48
   1   5   1  111.73    3.57
   1   5   1  118.14    3.56
  -1   5  -1  123.01    3.65
   1   5   1  117.48    3.48
  -1   5  -1  121.36    3.65
  -1   5  -1  115.03    3.40
   1   5   1  116.10    3.46
   2  -5   1  164.49    4.96
  -2  -5  -1  162.08    4.87
  -2  -5  -1  168.31    4.80
   2  -5   1  167.43    4.85
   2  -5   1  154.89    4.65
   2  -5   1  164.36    4.74
  -2  -5  -1  165.89    4.84
   2  -5   1  167.12    4.88
  -2  -5  -1  172.40    4.82
   2  -5   1  165.55    4.95
   2  -5   1  168.15    4.85
  -2  -5  -1  161.41    4.80
  -2  -5  -1  168.97    4.83
   2  -5   1  162.78    4.96
   2   5   1  166.46    4.91
  -2   5  -1  169.65    4.74
   2   5   1  167.41    4.92
  -2   5  -1  169.62    4.85
  -2   5  -1  152.45    4.91
   2   5   1  166.17    4.76
  -2   5  -1  164.08    4.90
   2   5   1  158.99    4.72
  -2   5  -1  164.89    4.87
   2   5   1  164.98    4.93
  -2   5  -1  169.41    4.98
   3  -5   1   94.06    3.19
   3  -5   1  100.91    3.13
   3  -5   1   94.68    2.73
   3  -5   1   93.93    2.83
  -3  -5  -1   96.34    2.89
  -3  -5  -1   95.90    2.83
   3  -5   1   90.31    2.95
  -3  -5  -1   96.51    2.90
   3  -5   1   98.37    3.03
   3  -5   1   93.93    3.08
  -3   5  -1   95.16    2.81
  -3   5  -1   98.73    3.01
   3   5   1   97.35    2.85
  -3   5  -1   93.19    2.78
  -3   5  -1   97.69    3.10
   3   5   1   97.35    3.00
   3   5   1   90.90    2.76
   3   5   1   96.40    3.10
  -3   5  -1   97.69    3.10
   3   5   1   93.10    3.00
   4  -5   1   75.15    2.50
   4  -5   1   71.99    2.53
  -4  -5  -1   71.06    2.27
  -4  -5  -1   71.50    2.25
  -4  -5  -1   73.82    2.47
   4  -5   1   71.15    2.78
   4   5   1   68.67    2.36
   4   5   1   75.83    2.76
  -4   5  -1   73.06    2.59
   4   5   1   71.06    2.33
   4   5   1   73.39    2.27
   4   5   1   73.09    2.59
  -4   5  -1   72.42    2.42
   4  -6  -1   15.12    1.08
   4  -6  -1   15.38    1.01
  -4  -6   1   14.40    0.79
   4  -6  -1   13.78    1.29
  -4  -6   1   17.38    1.01
   4   6  -1   15.83    0.87
   4   6  -1   13.86    0.89
   4   6  -1   15.59    1.14
  -4   6   1   15.40    0.97
  -4   6   1   14.52    1.07
   3  -6  -1  345.99   10.20
  -3  -6   1  343.30    9.93
   3  -6  -1  357.64   10.18
  -3  -6   1  359.43   10.11
  -3  -6   1  354.71   10.01
   3  -6  -1  353.05   10.01
   3  -6  -1  339.64   10.03
  -3   6   1  349.90   10.05
   3   6  -1  352.65   10.07
   3   6  -1  342.58    9.90
  -3   6   1  351.48    9.93
   3   6  -1  352.45   10.14
  -3   6   1  345.68   10.12
  -2  -6   1    2.19    0.44
   2  -6  -1    1.99    0.43
   2  -6  -1    1.45    0.37
   2  -6  -1    1.31    0.39
  -2  -6   1    1.44    0.26
  -2  -6   1    2.29    0.42
  -2  -6   1    1.90    0.33
   2  -6  -1    2.73    0.39
   2  -6  -1    1.32    0.29
  -2   6   1    2.04    0.34
   2   6  -1    2.23    0.43
  -2   6   1    1.80    0.33
   2   6  -1    2.60    0.38
   2   6  -1    1.30    0.31
  -2   6   1    2.10    0.39
  -2   6   1    1.74    0.23
   2   6  -1    2.44    0.32
   1  -6  -1  643.22   17.73
   1  -6  -1  643.92   17.68
   1  -6  -1  642.95   17.74
  -1  -6   1  632.25   17.65
   1  -6  -1  633.90   17.64
  -1  -6   1  652.48   17.72
  -1  -6   1  640.45   17.78
  -1  -6   1  626.06   17.69
   1  -6  -1  632.49   17.84
  -1  -6   1  645.30   17.69
  -1  -6   1  544.74   17.70
   1  -6  -1  605.78   17.68
   1  -6  -1  656.91   17.85
   1  -6  -1  632.72   17.66
   1   6  -1  644.16   17.75
  -1   6   1  639.85   17.70
  -1   6   1  626.23   17.86
  -1   6   1  619.06   17.72
   1   6  -1  640.94   17.69
  -1   6   1  661.49   17.90
  -1   6   1  646.19   17.72
   1   6  -1  627.39   17.84
  -1   6   1  612.42   17.53
  -1   6   1  635.54   17.69
   1   6  -1  626.59   17.83
   0  -6  -1    5.12    0.50
   0  -6  -1    5.25    0.43
   0  -6   1    4.65    0.43
   0  -6  -1    4.49    0.49
   0  -6   1    4.42    0.49
   0  -6  -1    4.03    0.52
   0  -6   1    4.75    0.30
   0  -6   1    5.12    0.50
   0  -6   1    4.40    0.52
   0  -6  -1    4.41    0.31
   0  -6   1    4.34    0.61
   0  -6  -1    3.66    0.58
   0  -6   1    3.63    0.52
   0  -6   1    4.76    0.32
   0  -6  -1    4.89    0.33
   0  -6  -1    4.38    0.42
   0  -6   1    4.49    0.40
   0  -6  -1    4.47    0.42
   0   6   1    4.50    0.46
   0   6  -1    4.49    0.41
   0   6  -1    4.22    0.44
   0   6  -1    4.42    0.44
   0   6   1    4.55    0.38
   0   6   1    5.43    0.50
   0   6  -1    4.31    0.48
   0   6  -1    3.73    0.63
   0   6  -1    5.04    0.39
   0   6   1    4.15    0.58
   0   6   1    4.67    0.40
   0   6   1    4.60    0.57
   0   6   1    4.03    0.46
   1  -6   1  466.56   13.54
   1  -6   1  475.86   13.44
  -1  -6  -1  478.60   13.59
  -1  -6  -1  477.30   13.55
   1  -6   1  489.11   13.50
   1  -6   1  486.05   13.61
   1  -6   1  495.17   13.72
  -1  -6  -1  481.77   13.58
  -1  -6  -1  423.89   13.54
   1  -6   1  496.22   13.73
   1  -6   1  474.63   13.56
   1  -6   1  498.89   13.63
  -1  -6  -1  477.18   13.55
   1  -6   1  474.06   13.54
  -1  -6  -1  489.30   13.66
  -1   6  -1  474.20   13.53
  -1   6  -1  501.66   13.77
  -1   6  -1  482.19   13.61
  -1   6  -1  501.57   13.59
   1   6   1  479.40   13.46
   1   6   1  482.63   13.56
   1   6   1  486.28   13.71
   1   6   1  494.96   13.73
   1   6   1  495.17   13.64
  -1   6  -1  496.40   13.60
  -1   6  -1  469.44   13.75
  -1   6  -1  474.83   13.45
   2  -6   1   29.35    1.12
  -2  -6  -1   27.52    1.15
   2  -6   1   29.46    1.22
   2  -6   1   29.18    1.36
   2  -6   1   31.93    1.22
  -2  -6  -1   31.10    1.18
   2  -6   1   29.56    1.34
  -2  -6  -1   31.59    1.26
  -2  -6  -1   25.15    1.30
   2  -6   1   30.46    1.30
   2  -6   1   31.27    1.00
  -2  -6  -1   30.48    1.18
  -2   6  -1   25.90    1.04
   2   6   1   29.34    1.13
   2   6   1   31.49    1.30
   2   6   1   30.67    1.30
  -2   6  -1   31.53    1.33
  -2   6  -1   30.66    1.27
  -2   6  -1   30.01    1.19
   2   6   1   29.68    1.31
  -2   6  -1   30.62    1.10
   2   6   1   30.25    1.06
  -2   6  -1   30.53    1.23
  -3  -6  -1  247.51    7.17
   3  -6   1  252.84    7.47
   3  -6   1  243.90    7.39
   3  -6   1  254.72    7.26
  -3  -6  -1  254.92    7.29
   3   6   1  243.15    7.07
  -3   6  -1  245.11    7.28
   3   6   1  247.12    7.37
   3   6   1  251.72    7.30
  -3   6  -1  245.02    7.05
  -3   6  -1  251.04    7.39
   4  -6   1   11.91    1.04
   4  -6   1   11.83    0.94
  -4  -6  -1   11.54    0.71
   4  -6   1   11.83    1.27
  -4  -6  -1   13.25    1.01
   4   6   1   11.58    1.25
   4   6   1   12.47    1.07
   4   6   1   11.52    0.86
  -4   6  -1   11.81    1.14
  -4   6  -1   11.09    0.89
  -3  -7   1  176.09    5.21
   3  -7  -1  175.52    5.45
  -3  -7   1  166.24    5.28
   3  -7  -1  174.65    5.25
  -3  -7   1  176.77    5.36
   3  -7  -1  174.86    5.46
  -3   7   1  175.73    5.33
  -3   7   1  171.64    5.39
   3   7  -1  172.99    5.14
   3   7  -1  180.26    5.42
  -3   7   1  169.40    5.19
   3   7  -1  179.46    5.38
   2  -7  -1  103.70    4.10
  -2  -7   1  126.30    3.79
   2  -7  -1  124.50    3.71
  -2  -7   1  123.31    3.72
  -2  -7   1  122.06    3.73
  -2   7   1  108.94    3.69
   2   7  -1  120.95    3.63
   2   7  -1  123.74    3.83
   2   7  -1  122.97    3.87
  -2   7   1  124.68    3.80
  -1  -7   1  231.35    6.58
  -1  -7   1  222.23    6.43
   1  -7  -1  219.41    6.27
   1  -7  -1  223.54    6.51
   1  -7  -1  206.99    6.60
  -1  -7   1  220.13    6.40
   1  -7  -1  222.68    6.62
   1  -7  -1  221.48    6.38
   1  -7  -1  219.47    6.35
   1  -7  -1  224.74    6.41
  -1  -7   1  220.62    6.46
   1   7  -1  215.46    6.68
  -1   7   1  218.52    6.74
  -1   7   1  221.24    6.43
   1   7  -1  206.57    6.67
   1   7  -1  225.65    6.50
  -1   7   1  225.35    6.45
   1   7  -1  209.68    6.43
   1   7  -1  219.74    6.62
  -1   7   1  226.60    6.48
  -1   7   1  226.29    6.51
  -1   7   1  221.52    6.67
  -1   7   1  219.14    6.26
   0  -7  -1   99.65    3.08
   0  -7  -1   99.94    2.92
   0  -7  -1  102.30    3.19
   0  -7   1   97.56    3.04
   0  -7   1  100.02    3.07
   0  -7   1  101.01    3.26
   0  -7  -1  101.80    3.26
   0  -7   1  103.91    3.19
   0  -7  -1  100.56    3.04
   0  -7   1   97.83    2.90
   0  -7  -1  100.79    2.92
   0  -7   1  102.53    3.17
   0  -7  -1   99.33    3.16
   0   7   1   96.97    3.00
   0   7   1   93.64    3.14
   0   7  -1   98.15    3.36
   0   7   1   94.47    3.32
   0   7  -1  105.13    3.14
   0   7  -1  101.46    3.17
   0   7   1   96.28    3.26
   0   7  -1   98.33    3.30
   0   7   1   98.67    3.05
   0   7   1  102.53    3.33
   0   7  -1   98.47    3.07
   1  -7   1  346.56    9.84
  -1  -7  -1  357.45   10.10
   1  -7   1  360.60    9.88
  -1  -7  -1  304.85   10.35
   1  -7   1  352.75    9.94
  -1  -7  -1  356.11   10.13
   1  -7   1  348.12   10.17
  -1  -7  -1  365.89    9.99
  -1  -7  -1  321.53   10.31
   1  -7   1  349.15   10.04
  -1   7  -1  369.68   10.24
   1   7   1  364.40   10.08
  -1   7  -1  373.56   10.04
  -1   7  -1  360.46    9.96
  -1   7  -1  347.79    9.86
  -1   7  -1  348.75   10.05
   1   7   1  360.77   10.24
  -1   7  -1  357.72   10.01
   1   7   1  336.67    9.85
   1   7   1  347.90    9.99
   1   7   1  309.59   10.47
  -2  -7  -1   29.58    1.33
   2  -7   1   30.71    1.08
   2  -7   1   33.01    1.49
  -2  -7  -1   30.80    1.36
   2  -7   1   32.90    1.32
  -2  -7  -1   31.69    1.30
   2   7   1   32.19    1.44
  -2   7  -1   30.20    1.22
  -2   7  -1   32.24    1.39
  -2   7  -1   32.62    1.41
   2   7   1   32.29    1.17
   2   7   1   31.60    1.41
   3  -7   1  233.61    6.71
   3  -7   1  228.28    6.89
  -3  -7  -1  221.90    6.62
  -3  -7  -1  221.34    6.75
   3  -7   1  223.31    6.89
  -3   7  -1  226.67    6.75
   3   7   1  228.61    6.80
   3   7   1  222.30    6.49
   3   7   1  231.25    6.84
  -3   7  -1  224.28    6.85
   2  -8  -1  189.37    5.55
   2  -8  -1  180.24    5.78
   2  -8  -1  188.14    5.61
  -2  -8   1  183.13    5.58
  -2  -8   1  185.25    5.62
  -2  -8   1  187.88    5.59
  -2   8   1  187.85    5.67
   2   8  -1  180.38    5.77
   2   8  -1  188.12    5.47
  -2   8   1  179.82    5.58
   2   8  -1  187.86    5.69
  -2   8   1  186.16    5.65
  -1  -8   1  111.45    3.49
   1  -8  -1  108.48    3.59
   1  -8  -1  110.23    3.45
   1  -8  -1  109.43    3.38
   1  -8  -1  111.88    3.70
  -1  -8   1  108.60    3.54
  -1  -8   1  110.99    3.46
  -1   8   1  116.86    3.52
   1   8  -1  113.67    3.57
  -1   8   1  111.06    3.49
  -1   8   1  110.13    3.76
  -1   8   1  110.39    3.58
   1   8  -1  107.22    3.39
   1   8  -1  106.44    3.70
   0  -8  -1  255.56    7.56
   0  -8   1  261.20    7.67
   0  -8  -1  251.46    7.62
   0  -8   1  261.81    7.91
   0  -8   1  250.31    7.51
   0  -8   1  263.30    7.55
   0  -8  -1  255.67    7.67
   0   8   1  257.23    7.54
   0   8   1  263.07    7.88
   0   8  -1  259.71    7.56
   0   8  -1  260.54    7.71
   0   8   1  289.38    8.27
   0   8   1  263.71    7.63
   0   8  -1  259.45    7.86
   0   8  -1  264.73    7.60
   1  -8   1   60.68    2.16
  -1  -8  -1   64.01    2.21
   1  -8   1   62.13    2.31
   1  -8   1   63.65    2.07
   1  -8   1   63.98    2.12
  -1  -8  -1   62.50    2.28
  -1  -8  -1   63.03    2.21
   1  -8   1   63.17    2.42
  -1   8  -1   66.14    2.18
   1   8   1   64.43    2.10
   1   8   1   65.53    2.48
  -1   8  -1   66.29    2.25
   1   8   1   64.18    2.28
  -1   8  -1   62.47    2.47
  -1   8  -1   63.92    2.32
   2  -8   1  246.73    7.29
  -2  -8  -1  250.28    7.27
  -2  -8  -1  246.51    7.29
   2  -8   1  238.87    7.22
   2  -8   1  249.88    7.50
   2   8   1  238.16    7.05
  -2   8  -1  248.86    7.35
  -2   8  -1  240.07    7.18
   2   8   1  247.35    7.46
  -2   8  -1  252.91    7.36
   2   8   1  250.06    7.37
  -1  -9   1   51.33    2.07
  -1  -9   1   50.20    1.99
  -1  -9   1   55.22    1.98
   1  -9  -1   55.92    2.50
  -1   9   1   51.23    1.97
   1   9  -1   51.09    1.88
  -1   9   1   50.80    1.98
   1   9  -1   50.52    2.25
   1   9  -1   50.59    2.02
   0  -9   1  278.42    8.15
   0  -9   1  276.97    7.95
   0  -9  -1  259.66    8.11
   0  -9  -1  263.60    7.97
   0  -9   1  273.85    7.97
   0   9   1  277.49    7.97
   0   9  -1  275.21    8.01
   0   9   1  274.97    8.36
   0   9   1  283.05    8.06
   0   9  -1  275.03    8.00
   0   9  -1  275.99    8.37
   5   0  -2   71.49    2.39
   5   0  -2   73.89    2.51
   5   0  -2   72.50    2.50
   5   0  -2   69.15    2.37
   5   0  -2   74.12    2.68
   4   0  -2  714.25   19.67
   4   0  -2  720.03   19.76
   4   0  -2  703.65   19.59
   4   0  -2  692.54   19.86
   4   0  -2  703.42   19.59
   4   0  -2  701.20   19.64
   3   0  -2   56.70    1.69
  -3   0   2   54.14    1.59
   3   0  -2   54.79    1.81
   3   0  -2   55.86    1.64
   3   0  -2   55.66    1.73
   3   0  -2   54.58    1.75
  -3   0   2   56.48    1.61
   3   0  -2   55.22    1.67
   3   0  -2   54.70    1.61
   3   0  -2   54.70    1.80
   3   0  -2   58.99    1.89
   3   0  -2   54.37    1.71
  -3   0   2   55.57    1.74
  -3   0  -2   96.95    2.77
   3   0   2   93.73    2.73
   3   0   2   95.00    2.85
  -3   0  -2   91.46    2.63
   3   0   2   91.75    2.77
  -3   0  -2   88.87    2.65
  -3   0  -2   92.15    2.90
   3   0   2   94.34    2.84
   3   0   2   96.23    2.81
   3   0   2   94.06    2.65
   3   0   2   95.74    2.88
   3   0   2   92.82    2.80
   3   0   2   94.56    2.75
   3   0   2   92.23    2.68
   4   0   2  587.07   16.34
   4   0   2  576.47   16.58
   4   0   2  598.34   16.41
   4   0   2  589.91   16.27
   4   0   2  571.79   16.30
   5   0   2   39.25    1.57
   5   0   2   38.01    1.92
   5   0   2   38.13    1.52
   5   0   2   39.76    1.68
   5   0   2   40.30    1.58
   5  -1  -2  123.23    3.89
   5  -1  -2  121.98    4.08
   5  -1  -2  120.55    3.63
   5  -1  -2  116.74    3.71
   5   1  -2  122.18    3.73
   5   1  -2  121.64    3.94
   5   1  -2  123.59    3.82
   5   1  -2  125.62    3.89
   5   1  -2  121.03    3.82
  -5   1   2  118.17    3.42
   4  -1  -2  356.14   10.19
   4  -1  -2  360.08   10.21
   4  -1  -2  359.27   10.23
   4  -1  -2  372.66   10.51
   4  -1  -2  358.08   10.12
   4  -1  -2  366.54   10.17
   4  -1  -2  363.62   10.12
   4  -1  -2  350.98   10.09
  -4   1   2  357.70   10.08
  -4   1   2  347.33   10.07
  -4   1   2  371.22   10.25
   4   1  -2  366.71   10.31
   4   1  -2  362.77   10.23
   4   1  -2  374.38   10.24
   4   1  -2  366.52   10.15
   4   1  -2  363.47   10.31
   4   1  -2  367.48   10.40
   3  -1  -2  381.29   10.97
   3  -1  -2  400.46   11.03
   3  -1  -2  391.76   10.94
  -3  -1   2  393.88   11.00
   3  -1  -2  389.10   11.17
   3  -1  -2  386.69   11.11
   3  -1  -2  391.54   10.97
   3   1  -2  391.03   11.04
   3   1  -2  395.75   11.04
  -3   1   2  396.87   11.04
   3   1  -2  390.53   10.91
   3   1  -2  393.15   11.02
   3   1  -2  391.55   11.02
   3   1  -2  387.17   11.08
   3   1  -2  402.97   10.99
   3   1  -2  402.85   10.98
   1  -1   2  240.77    6.64
  -1  -1  -2  236.64    6.64
  -1   1  -2  232.49    6.62
  -1   1  -2  238.53    6.65
   3  -1   2  265.14    7.54
   3  -1   2  266.35    7.53
   3  -1   2  266.02    7.48
  -3  -1  -2  265.70    7.54
   3  -1   2  268.85    7.36
   3  -1   2  266.49    7.45
   3  -1   2  264.55    7.40
   3  -1   2  262.61    7.43
   3  -1   2  258.00    7.42
   3  -1   2  238.28    7.38
   3  -1   2  256.74    7.39
   3   1   2  265.68    7.40
   3   1   2  264.85    7.47
   3   1   2  261.97    7.54
   3   1   2  262.27    7.44
   3   1   2  273.93    7.49
   3   1   2  273.29    7.43
  -3   1  -2  263.58    7.45
   3   1   2  261.12    7.31
  -3   1  -2  252.47    7.34
  -3   1  -2  258.89    7.59
   3   1   2  270.24    7.50
   3   1   2  265.79    7.43
  -3   1  -2  263.64    7.33
   4  -1   2  273.25    7.96
   4  -1   2  285.66    8.31
   4  -1   2  281.60    7.80
   4  -1   2  279.80    7.84
   4  -1   2  278.34    7.92
   4  -1   2  279.04    7.96
   4  -1   2  262.88    8.23
   4  -1   2  269.08    7.83
   4   1   2  287.72    8.09
  -4   1  -2  270.29    7.80
   4   1   2  278.58    7.94
   4   1   2  288.64    7.97
  -4   1  -2  287.92    7.99
  -4   1  -2  280.04    7.78
   4   1   2  281.55    8.28
   4   1   2  281.02    7.92
   4   1   2  283.79    8.01
   5  -1   2  124.61    4.32
   5  -1   2  131.27    4.03
   5  -1   2  119.97    3.98
   5   1   2  127.93    3.94
   5   1   2  125.11    4.23
   5   1   2  124.28    4.02
   5   1   2  130.32    4.04
   5   1   2  128.60    3.89
   5  -2  -2  348.65   10.30
   5  -2  -2  335.37    9.74
   5  -2  -2  347.05    9.91
   5  -2  -2  324.66    9.70
  -5   2   2  360.53    9.89
  -5   2   2  334.90    9.68
  -5   2   2  340.65    9.69
   5   2  -2  364.65    9.98
   5   2  -2  348.31   10.04
   5   2  -2  345.72    9.92
   5   2  -2  361.29   10.11
   5   2  -2  351.18   10.09
  -4  -2   2   85.06    2.38
   4  -2  -2   85.48    2.57
   4  -2  -2   82.60    2.46
  -4  -2   2   82.57    2.37
   4  -2  -2   85.19    2.90
   4  -2  -2   82.08    2.44
   4  -2  -2   84.09    2.53
   4  -2  -2   82.71    2.61
   4  -2  -2   81.27    2.55
   4   2  -2   84.92    2.69
   4   2  -2   82.54    2.61
   4   2  -2   84.40    2.63
   4   2  -2   85.50    2.65
  -4   2   2   86.40    2.50
  -4   2   2   84.34    2.60
   4   2  -2   83.99    2.50
  -4   2   2   84.34    2.50
  -4   2   2   86.43    2.69
   3  -2  -2  767.94   21.07
   3  -2  -2  739.70   20.98
   3  -2  -2  761.78   20.88
  -3   2   2  741.81   20.87
   3   2  -2  757.85   20.89
   3   2  -2  739.45   20.86
   2  -2  -2  231.08    6.68
   2  -2  -2  240.02    6.85
   2  -2  -2  245.96    6.73
   2  -2  -2  235.47    6.75
   2  -2  -2  239.31    6.74
   2  -2  -2  244.31    6.69
  -2  -2   2  236.11    6.75
  -2  -2   2  239.12    6.66
   2  -2  -2  239.75    6.69
   2  -2  -2  238.88    6.71
  -2  -2   2  233.14    6.74
   2   2  -2  236.13    6.79
   2   2  -2  240.23    6.68
  -2   2   2  236.29    6.70
   2   2  -2  240.43    6.70
  -2   2   2  233.99    6.69
  -2   2   2  231.22    6.73
  -2   2   2  236.61    6.75
   2   2  -2  244.40    6.73
  -2   2   2  243.95    6.75
  -2   2   2  239.62    6.73
   2   2  -2  241.48    6.72
   2   2  -2  239.84    6.75
   2  -2   2  106.37    3.08
   2  -2   2  105.44    3.06
   2  -2   2  102.56    3.01
  -2  -2  -2  103.91    3.08
   2  -2   2  103.51    3.04
   2  -2   2  101.29    2.99
   2  -2   2  103.42    2.97
  -2  -2  -2  104.61    3.01
  -2  -2  -2  100.34    2.93
  -2  -2  -2   99.19    2.92
   2  -2   2  105.49    2.96
   2  -2   2  103.31    2.96
  -2  -2  -2  103.96    3.01
   2  -2   2   99.11    2.87
   2   2   2  106.89    2.99
   2   2   2  103.50    2.93
  -2   2  -2  105.97    3.02
  -2   2  -2  103.65    3.03
  -2   2  -2   97.59    2.96
   2   2   2  102.96    3.11
  -2   2  -2  101.43    3.10
  -2   2  -2  102.10    3.02
   2   2   2  106.01    2.98
   2   2   2  104.55    2.96
  -2   2  -2   99.29    2.98
   2   2   2  101.32    2.89
  -2   2  -2  100.05    2.88
   2   2   2  100.98    2.93
   2   2   2  102.78    3.06
   2   2   2  108.19    3.05
   3  -2   2  821.14   20.67
   3  -2   2  708.71   20.03
   3  -2   2  704.49   20.12
   3   2   2  707.02   20.10
   3   2   2  693.03   20.05
   3   2   2  690.94   20.10
   3   2   2  727.98   20.19
   4  -2   2   86.22    2.54
   4  -2   2   86.84    2.61
   4  -2   2   87.80    2.61
   4  -2   2   86.99    2.64
   4  -2   2   86.60    2.65
   4  -2   2   86.75    3.04
   4  -2   2   86.89    2.67
   4  -2   2   84.65    2.80
   4   2   2   86.99    2.65
   4   2   2   88.08    2.89
   4   2   2   87.25    2.78
  -4   2  -2   88.92    2.56
   4   2   2   87.99    2.65
  -4   2  -2   86.92    2.60
   5  -2   2  232.02    6.69
   5  -2   2  214.75    6.36
   5  -2   2  226.09    7.04
   5  -2   2  213.72    6.34
   5   2   2  221.83    6.70
   5   2   2  229.51    6.75
   5   2   2  216.28    6.80
   5   2   2  232.87    6.52
  -5   2  -2  228.26    6.60
  -5   2  -2  217.35    6.32
   5   2   2  226.98    6.65
   5  -3  -2  230.46    7.19
   5  -3  -2  235.94    6.79
   5  -3  -2  225.88    6.65
   5   3  -2  230.01    6.80
   5   3  -2  229.77    7.01
  -5   3   2  237.40    6.73
   5   3  -2  237.94    6.78
   5   3  -2  230.07    6.96
  -5   3   2  232.83    6.90
  -5   3   2  230.53    6.61
   5   3  -2  226.28    6.78
   4  -3  -2   96.54    3.10
   4  -3  -2  106.31    3.51
   4  -3  -2   97.65    2.98
  -4  -3   2  106.05    3.00
  -4  -3   2  102.85    2.99
   4  -3  -2  106.20    3.21
  -4  -3   2  109.49    3.29
   4  -3  -2  100.68    3.20
   4  -3  -2  105.52    3.18
  -4   3   2  105.71    3.16
   4   3  -2  104.86    3.12
   4   3  -2  106.73    3.20
  -4   3   2  104.90    3.07
   4   3  -2  105.89    3.18
  -4   3   2  106.53    3.11
  -4   3   2  106.68    3.30
   4   3  -2   99.08    3.06
   4   3  -2  108.06    3.37
   4   3  -2  104.82    3.04
   4   3  -2  102.35    3.03
  -4   3   2  107.39    3.13
   3  -3  -2  622.19   17.59
  -3  -3   2  637.94   17.73
   3  -3  -2  637.89   17.66
   3  -3  -2  630.15   17.71
   3  -3  -2  641.05   17.89
   3   3  -2  642.04   17.79
  -3   3   2  634.71   17.72
  -3   3   2  659.80   17.69
   3   3  -2  602.69   17.68
  -2  -3   2   78.33    2.37
   2  -3  -2   81.60    2.40
  -2  -3   2   81.32    2.44
   2  -3  -2   78.39    2.46
   2  -3  -2   79.28    2.47
   2  -3  -2   81.56    2.40
  -2  -3   2   79.20    2.34
   2  -3  -2   83.40    2.55
   2  -3  -2   81.78    2.40
  -2  -3   2   79.09    2.36
  -2  -3   2   77.17    2.35
   2  -3  -2   81.66    2.40
  -2  -3   2   80.94    2.45
  -2  -3   2   81.90    2.34
   2  -3  -2   85.91    2.37
   2   3  -2   79.77    2.48
   2   3  -2   77.05    2.27
   2   3  -2   78.65    2.32
   2   3  -2   80.77    2.40
   2   3  -2   80.53    2.44
  -2   3   2   80.99    2.38
  -2   3   2   77.65    2.45
  -2   3   2   77.87    2.43
  -2   3   2   80.56    2.43
   2   3  -2   76.03    2.27
   2   3  -2   81.27    2.39
   2   3  -2   81.14    2.42
  -2   3   2   80.55    2.41
   2   3  -2   78.94    2.42
   2   3  -2   80.20    2.31
   2   3  -2   77.96    2.33
  -2   3   2   81.56    2.47
   0  -3   2   74.73    2.19
   0  -3  -2   71.11    2.18
   0  -3   2   71.11    2.19
   0  -3   2   71.68    2.22
   0  -3  -2   75.56    2.22
   0  -3  -2   67.61    2.19
   0  -3  -2   71.34    2.22
   0  -3   2   75.24    2.25
   0  -3   2   73.04    2.11
   0  -3  -2   71.62    2.15
   0  -3  -2   76.53    2.25
   0  -3   2   75.32    2.18
   0  -3   2   74.21    2.16
   0  -3  -2   71.03    2.18
   0  -3   2   71.54    2.16
   0  -3   2   74.13    2.15
   0  -3  -2   71.14    2.12
   0   3   2   72.17    2.23
   0   3   2   73.24    2.13
   0   3  -2   71.57    2.14
   0   3   2   75.50    2.26
   0   3   2   73.45    2.12
   0   3  -2   71.43    2.11
   0   3  -2   73.30    2.18
   0   3   2   73.97    2.20
   0   3  -2   74.81    2.24
   0   3   2   71.33    2.18
   0   3  -2   73.58    2.26
   0   3  -2   78.99    2.18
   0   3  -2   74.41    2.17
   0   3  -2   74.29    2.19
   0   3   2   71.82    2.15
   0   3  -2   76.32    2.16
   0   3   2   73.91    2.18
   2  -3   2  125.93    3.65
   2  -3   2  125.98    3.63
  -2  -3  -2  123.43    3.53
  -2  -3  -2  123.97    3.51
   2  -3   2  122.44    3.62
   2  -3   2  121.86    3.57
   2  -3   2  124.94    3.56
  -2  -3  -2  122.89    3.69
  -2  -3  -2  123.79    3.58
  -2  -3  -2  122.38    3.52
  -2  -3  -2  119.65    3.52
   2  -3   2  125.86    3.57
   2  -3   2  118.59    3.44
  -2  -3  -2  119.15    3.53
   2  -3   2  122.80    3.65
   2  -3   2  124.82    3.49
   2   3   2  123.79    3.65
   2   3   2  118.27    3.48
   2   3   2  122.69    3.70
  -2   3  -2  122.32    3.63
  -2   3  -2  124.16    3.64
   2   3   2  125.14    3.59
   2   3   2  123.63    3.57
   2   3   2  124.26    3.62
   2   3   2  120.69    3.47
   2   3   2  119.96    3.47
  -2   3  -2  124.92    3.67
  -2   3  -2  122.46    3.62
  -2   3  -2  121.27    3.66
   2   3   2  125.30    3.55
  -2   3  -2  117.24    3.57
  -2   3  -2  119.98    3.43
   2   3   2  122.27    3.48
  -2   3  -2  121.96    3.54
   3  -3   2  516.17   14.41
   3  -3   2  508.35   14.28
  -3  -3  -2  511.87   14.34
   3  -3   2  507.23   14.41
   3  -3   2  526.30   14.38
  -3  -3  -2  509.41   14.37
  -3   3  -2  508.13   14.32
   3   3   2  527.94   14.54
   3   3   2  512.61   14.29
  -3   3  -2  505.77   14.41
   3   3   2  518.66   14.44
   3   3   2  495.69   14.39
  -3   3  -2  523.58   14.30
   3   3   2  514.54   14.26
  -4  -3  -2   66.76    1.97
  -4  -3  -2   68.52    1.99
   4  -3   2   67.92    2.30
   4  -3   2   69.05    2.17
   4  -3   2   68.24    2.22
   4  -3   2   68.50    2.07
  -4  -3  -2   69.81    2.25
   4  -3   2   63.23    2.44
   4  -3   2   67.73    2.59
   4  -3   2   67.27    2.05
   4   3   2   70.22    2.11
   4   3   2   67.13    2.33
   4   3   2   68.07    2.14
  -4   3  -2   70.21    2.16
   4   3   2   65.13    2.00
  -4   3  -2   68.72    2.28
  -4   3  -2   68.81    2.09
   4   3   2   69.36    2.32
   4   3   2   63.47    2.11
   4   3   2   66.48    2.01
   4   3   2   68.51    2.44
   5  -3   2  220.90    7.04
   5  -3   2  212.25    6.43
   5  -3   2  232.55    6.68
  -5   3  -2  211.09    6.38
   5   3   2  219.52    6.71
   5   3   2  223.91    6.71
   5   3   2  226.91    6.69
   5   3   2  226.36    6.82
  -5   3  -2  229.62    6.65
   5  -4  -2   83.96    3.26
   5  -4  -2   81.49    2.75
  -5  -4   2   87.64    2.44
   5  -4  -2   87.98    2.84
   5   4  -2   87.31    3.05
  -5   4   2   83.65    2.96
  -5   4   2   83.90    2.70
   5   4  -2   80.07    2.89
   5   4  -2   88.98    2.80
   4  -4  -2  217.73    6.54
  -4  -4   2  209.21    6.05
  -4  -4   2  217.17    6.33
  -4  -4   2  207.62    6.03
   4  -4  -2  210.56    6.29
   4  -4  -2  213.13    6.22
  -4  -4   2  213.87    6.14
   4  -4  -2  213.46    6.26
   4   4  -2  207.44    6.10
   4   4  -2  222.86    6.20
   4   4  -2  219.93    6.40
   4   4  -2  204.27    6.10
   4   4  -2  205.53    6.04
  -4   4   2  217.59    6.17
  -4   4   2  215.57    6.34
  -4   4   2  216.65    6.34
  -4   4   2  211.11    6.18
   3  -4  -2  172.36    5.02
   3  -4  -2  176.12    5.17
  -3  -4   2  169.11    4.85
  -3  -4   2  168.93    4.83
   3  -4  -2  173.11    4.93
  -3  -4   2  171.17    5.01
   3  -4  -2  169.01    5.03
  -3  -4   2  162.46    4.97
  -3  -4   2  172.79    4.80
  -3  -4   2  173.47    4.87
   3  -4  -2  164.61    4.85
   3  -4  -2  164.30    4.88
  -3   4   2  167.84    5.00
   3   4  -2  167.08    4.91
  -3   4   2  170.13    4.89
  -3   4   2  171.46    5.01
  -3   4   2  164.34    4.92
  -3   4   2  170.66    4.91
   3   4  -2  164.69    4.70
   3   4  -2  162.37    4.71
   3   4  -2  169.86    4.90
   3   4  -2  174.19    5.06
   3   4  -2  165.91    4.82
   3   4  -2  169.50    4.94
   3   4  -2  163.79    4.74
  -2  -4   2  492.74   13.74
   2  -4  -2  508.62   13.71
   2  -4  -2  488.18   13.66
   2  -4  -2  474.50   13.69
   2  -4  -2  494.01   13.65
   2  -4  -2  510.17   13.80
  -2  -4   2  489.31   13.67
  -2  -4   2  494.68   13.69
   2  -4  -2  500.71   13.78
  -2  -4   2  478.40   13.66
  -2  -4   2  494.96   13.74
   2  -4  -2  491.58   13.82
   2  -4  -2  496.45   13.69
   2  -4  -2  479.54   13.78
   2   4  -2  473.62   13.71
  -2   4   2  490.93   13.81
  -2   4   2  497.62   13.70
   2   4  -2  488.09   13.61
   2   4  -2  496.36   13.73
   2   4  -2  489.72   13.61
   2   4  -2  496.15   13.70
  -2   4   2  477.29   13.78
  -2   4   2  485.81   13.72
  -2   4   2  471.56   13.74
   2   4  -2  472.82   13.74
   2   4  -2  500.50   13.78
  -1  -4   2  212.77    6.14
  -1  -4   2  217.54    6.14
   1  -4  -2  229.62    6.18
  -1  -4   2  210.76    6.09
   1  -4  -2  216.71    6.18
   1  -4  -2  214.02    6.14
  -1  -4   2  211.63    6.18
   1  -4  -2  212.65    6.09
   1  -4  -2  205.66    6.22
   1  -4  -2  214.08    6.12
   1  -4  -2  222.75    6.17
  -1  -4   2  209.47    6.12
   1  -4  -2  218.27    6.23
  -1  -4   2  216.98    6.20
  -1   4   2  224.80    6.27
   1   4  -2  215.04    6.17
  -1   4   2  213.79    6.23
  -1   4   2  220.46    6.17
  -1   4   2  217.67    6.13
  -1   4   2  215.48    6.17
  -1   4   2  213.89    6.14
   1   4  -2  219.20    6.13
  -1   4   2  213.82    6.20
   1   4  -2  214.61    6.20
  -1   4   2  213.33    6.15
   1   4  -2  215.02    6.14
   1   4  -2  213.85    6.10
   1   4  -2  219.41    6.24
   1   4  -2  209.31    6.11
  -1  -4  -2  214.18    6.23
   1  -4   2  217.00    6.11
  -1  -4  -2  216.84    6.18
  -1  -4  -2  205.95    6.06
   1  -4   2  220.05    6.17
  -1  -4  -2  227.02    6.18
   1  -4   2  215.52    6.19
  -1  -4  -2  222.85    6.30
   1  -4   2  216.23    6.26
   1  -4   2  218.19    6.28
   1  -4   2  217.27    6.18
  -1  -4  -2  209.50    6.17
  -1  -4  -2  220.95    6.17
   1  -4   2  216.59    6.09
   1  -4   2  209.18    6.18
   1  -4   2  227.24    6.21
   1   4   2  215.90    6.16
   1   4   2  220.07    6.17
  -1   4  -2  212.09    6.12
  -1   4  -2  216.76    6.20
  -1   4  -2  215.76    6.21
  -1   4  -2  220.81    6.28
  -1   4  -2  215.93    6.22
   1   4   2  221.98    6.25
   1   4   2  210.49    6.23
   1   4   2  212.20    6.14
   1   4   2  218.02    6.08
   1   4   2  224.32    6.16
   1   4   2  219.07    6.26
  -1   4  -2  201.10    6.10
  -1   4  -2  219.00    6.19
  -1   4  -2  221.83    6.30
   2  -4   2  399.54   11.60
  -2  -4  -2  412.80   11.57
   2  -4   2  429.75   11.62
   2  -4   2  414.40   11.61
   2  -4   2  425.54   11.73
  -2  -4  -2  418.34   11.61
  -2  -4  -2  411.50   11.52
  -2  -4  -2  409.65   11.75
   2  -4   2  405.87   11.47
   2  -4   2  418.48   11.69
  -2  -4  -2  417.45   11.56
   2  -4   2  419.01   11.66
  -2  -4  -2  400.46   11.59
  -2  -4  -2  422.91   11.57
   2  -4   2  424.31   11.64
   2   4   2  407.49   11.51
   2   4   2  416.37   11.63
   2   4   2  403.85   11.52
   2   4   2  419.19   11.65
  -2   4  -2  417.79   11.60
   2   4   2  414.13   11.64
  -2   4  -2  414.34   11.70
   2   4   2  412.53   11.69
  -2   4  -2  409.73   11.67
  -2   4  -2  398.60   11.61
   2   4   2  411.41   11.55
  -2   4  -2  405.51   11.69
  -2   4  -2  416.68   11.55
   3  -4   2  127.29    4.45
   3  -4   2  148.41    4.27
   3  -4   2  139.51    4.02
  -3  -4  -2  138.50    4.10
  -3  -4  -2  141.73    4.21
   3  -4   2  139.17    4.01
  -3  -4  -2  143.57    4.10
   3  -4   2  141.54    4.15
  -3  -4  -2  142.58    3.99
  -3   4  -2  145.83    4.28
   3   4   2  135.35    3.95
   3   4   2  143.53    4.03
  -3   4  -2  141.06    3.99
  -3   4  -2  145.31    4.16
   3   4   2  146.63    4.31
   3   4   2  142.94    4.41
  -3   4  -2  141.77    4.13
   3   4   2  141.04    4.19
   3   4   2  142.48    4.18
   3   4   2  142.35    4.05
   3   4   2  141.61    4.08
   4  -4   2  205.13    5.96
   4  -4   2  197.56    5.65
   4  -4   2  206.69    6.29
  -4  -4  -2  198.85    5.91
   4  -4   2  195.14    5.94
  -4  -4  -2  196.27    5.68
  -4  -4  -2  201.33    5.70
   4   4   2  198.98    6.13
   4   4   2  205.39    6.02
   4   4   2  198.14    5.74
   4   4   2  203.12    5.72
   4   4   2  196.54    5.87
   4   4   2  195.93    5.75
  -4   4  -2  200.68    5.85
  -4   4  -2  204.90    6.01
   4  -5  -2  258.72    7.50
   4  -5  -2  256.51    7.71
  -4  -5   2  251.07    7.23
  -4  -5   2  252.68    7.51
  -4  -5   2  244.40    7.28
   4  -5  -2  258.08    7.39
  -4  -5   2  262.58    7.48
  -4   5   2  254.00    7.32
  -4   5   2  254.05    7.39
   4   5  -2  241.98    7.34
   4   5  -2  251.63    7.33
   4   5  -2  259.25    7.33
  -4   5   2  252.15    7.52
   4   5  -2  261.55    7.58
  -3  -5   2   38.79    1.32
  -3  -5   2   40.41    1.37
   3  -5  -2   39.63    1.63
   3  -5  -2   37.31    1.37
   3  -5  -2   39.61    1.43
  -3  -5   2   38.45    1.52
   3  -5  -2   36.78    1.41
   3  -5  -2   39.26    1.54
  -3  -5   2   41.67    1.38
   3  -5  -2   38.18    1.54
  -3  -5   2   38.91    1.34
  -3   5   2   38.73    1.52
   3   5  -2   35.95    1.32
  -3   5   2   40.88    1.46
   3   5  -2   40.27    1.37
  -3   5   2   37.90    1.49
   3   5  -2   37.98    1.26
   3   5  -2   39.78    1.44
   3   5  -2   37.98    1.49
  -3   5   2   41.61    1.39
  -3   5   2   38.20    1.38
   3   5  -2   38.86    1.54
  -2  -5   2  569.18   15.89
   2  -5  -2  568.06   15.99
   2  -5  -2  568.27   16.06
  -2  -5   2  569.40   15.88
   2  -5  -2  564.02   15.89
  -2  -5   2  554.11   15.99
   2  -5  -2  569.27   16.04
  -2  -5   2  571.56   15.95
   2  -5  -2  565.58   15.95
  -2  -5   2  570.67   15.92
   2  -5  -2  591.41   16.07
   2  -5  -2  575.82   15.97
  -2  -5   2  573.93   15.97
   2  -5  -2  572.76   15.91
  -2   5   2  588.70   16.09
   2   5  -2  574.68   16.04
   2   5  -2  555.67   15.87
  -2   5   2  596.52   15.93
   2   5  -2  547.59   15.85
  -2   5   2  584.04   15.94
  -2   5   2  568.78   15.96
  -2   5   2  553.12   16.05
   2   5  -2  566.05   16.01
   2   5  -2  566.03   15.87
   2   5  -2  550.03   15.98
  -2   5   2  565.20   15.96
  -1  -5   2   21.30    0.82
   1  -5  -2   21.70    0.88
   1  -5  -2   21.06    0.87
   1  -5  -2   21.43    0.89
  -1  -5   2   19.15    0.90
  -1  -5   2   20.69    0.92
  -1  -5   2   21.54    0.87
   1  -5  -2   21.65    0.84
   1  -5  -2   20.96    0.95
  -1  -5   2   21.95    0.86
  -1  -5   2   21.28    0.86
   1  -5  -2   20.87    0.80
   1  -5  -2   21.63    0.99
   1  -5  -2   23.01    0.92
  -1  -5   2   21.43    0.91
   1   5  -2   21.36    0.89
   1   5  -2   21.81    0.84
  -1   5   2   22.49    0.87
  -1   5   2   19.97    0.90
  -1   5   2   21.30    0.97
   1   5  -2   21.15    0.83
  -1   5   2   21.80    0.85
  -1   5   2   21.05    0.89
  -1   5   2   22.06    0.99
  -1   5   2   21.74    0.72
   1   5  -2   21.33    0.97
   1   5  -2   21.01    0.85
   1   5  -2   20.06    0.82
   1   5  -2   21.76    0.94
  -1   5   2   20.74    0.86
   0  -5  -2  774.25   21.55
   0  -5  -2  748.92   21.52
   0  -5   2  774.96   21.55
   0  -5   2  782.23   21.46
   0  -5  -2  780.81   21.50
   0  -5   2  772.54   21.53
   0   5  -2  759.06   21.55
   0   5   2  765.97   21.43
   0   5  -2  783.29   21.59
   1  -5   2   29.23    1.12
   1  -5   2   29.73    1.20
  -1  -5  -2   30.04    1.08
   1  -5   2   32.32    1.07
  -1  -5  -2   28.27    1.11
  -1  -5  -2   28.99    1.08
   1  -5   2   30.01    1.12
  -1  -5  -2   29.50    1.09
   1  -5   2   30.44    1.09
   1  -5   2   26.44    1.07
   1  -5   2   29.20    1.03
   1  -5   2   26.99    1.42
  -1  -5  -2   30.97    1.17
   1  -5   2   29.55    1.12
  -1  -5  -2   30.91    0.92
  -1  -5  -2   29.16    1.21
  -1  -5  -2   30.77    1.09
   1  -5   2   31.36    1.00
  -1   5  -2   29.00    1.02
   1   5   2   29.57    1.07
   1   5   2   30.26    0.98
  -1   5  -2   29.74    1.24
   1   5   2   29.45    1.07
   1   5   2   30.44    1.20
   1   5   2   27.24    1.15
  -1   5  -2   28.70    1.10
  -1   5  -2   29.41    1.20
   1   5   2   31.24    1.07
   1   5   2   30.44    0.94
  -1   5  -2   27.92    1.10
  -1   5  -2   27.89    1.14
  -1   5  -2   28.29    1.03
  -1   5  -2   28.92    1.11
   1   5   2   29.12    1.15
   2  -5   2  467.74   13.46
   2  -5   2  475.50   13.30
  -2  -5  -2  468.70   13.46
   2  -5   2  481.75   13.48
   2  -5   2  500.94   13.62
   2  -5   2  475.09   13.60
  -2  -5  -2  492.64   13.45
  -2  -5  -2  506.80   13.45
  -2  -5  -2  474.36   13.43
  -2  -5  -2  460.82   13.37
   2  -5   2  474.40   13.50
   2  -5   2  484.80   13.58
   2  -5   2  470.12   13.32
   2   5   2  478.52   13.54
  -2   5  -2  488.77   13.47
  -2   5  -2  465.96   13.53
  -2   5  -2  506.33   13.63
   2   5   2  467.98   13.52
   2   5   2  462.23   13.37
  -2   5  -2  491.64   13.51
  -2   5  -2  470.40   13.39
   2   5   2  476.24   13.55
   3  -5   2   42.00    1.79
  -3  -5  -2   43.42    1.39
  -3  -5  -2   43.43    1.58
   3  -5   2   42.56    1.32
   3  -5   2   42.62    1.67
   3  -5   2   40.42    1.55
  -3  -5  -2   40.94    1.44
   3  -5   2   45.76    1.62
   3  -5   2   39.99    1.63
  -3  -5  -2   41.69    1.45
   3   5   2   41.62    1.33
   3   5   2   39.91    1.33
  -3   5  -2   49.40    1.72
   3   5   2   45.28    1.76
  -3   5  -2   42.43    1.56
  -3   5  -2   44.90    1.90
   3   5   2   43.10    1.67
  -3   5  -2   46.79    1.45
   3   5   2   41.28    1.37
   3   5   2   43.23    1.57
   3   5   2   41.67    1.39
  -3   5  -2   44.00    1.32
   3   5   2   42.30    1.56
   4  -5   2  196.06    5.83
   4  -5   2  194.63    6.14
  -4  -5  -2  193.88    5.60
  -4  -5  -2  198.63    5.83
   4  -5   2  192.33    5.88
   4   5   2  201.18    6.08
   4   5   2  190.69    5.68
   4   5   2  181.51    5.77
  -4   5  -2  197.66    5.96
   4   5   2  195.14    5.92
  -4   5  -2  196.60    5.77
   4  -6  -2  141.05    4.40
   4  -6  -2  139.65    4.56
  -4  -6   2  130.03    4.35
   4  -6  -2  134.13    4.23
  -4  -6   2  145.47    4.23
  -4  -6   2  135.08    4.09
  -4   6   2  138.09    4.18
   4   6  -2  131.73    4.40
  -4   6   2  137.93    4.41
   4   6  -2  135.70    4.15
   4   6  -2  137.38    4.23
  -4   6   2  138.83    4.27
  -3  -6   2   51.77    1.97
   3  -6  -2   54.11    1.88
  -3  -6   2   53.43    1.88
  -3  -6   2   51.96    1.79
   3  -6  -2   49.97    2.05
   3  -6  -2   52.98    2.03
   3   6  -2   51.16    1.92
   3   6  -2   53.03    2.00
   3   6  -2   53.20    1.80
  -3   6   2   53.59    1.92
  -3   6   2   53.01    1.97
  -3   6   2   55.54    1.85
   2  -6  -2  201.40    6.00
  -2  -6   2  210.79    6.01
  -2  -6   2  204.93    5.96
   2  -6  -2  208.16    6.06
   2  -6  -2  181.51    6.20
  -2  -6   2  210.06    6.02
   2  -6  -2  207.19    5.94
  -2  -6   2  202.94    5.93
  -2  -6   2  196.94    5.93
   2  -6  -2  215.56    6.14
  -2   6   2  201.73    6.00
  -2   6   2  207.81    6.16
   2   6  -2  204.99    5.92
   2   6  -2  199.68    6.06
  -2   6   2  201.52    5.97
   2   6  -2  203.84    5.90
  -2   6   2  198.09    6.00
   2   6  -2  208.12    6.06
   2   6  -2  197.75    6.10
  -2   6   2  217.75    6.00
   1  -6  -2  128.95    3.91
   1  -6  -2  135.94    3.93
  -1  -6   2  134.70    3.96
  -1  -6   2  133.41    3.90
   1  -6  -2  135.44    4.00
   1  -6  -2  134.80    4.09
   1  -6  -2  134.74    3.91
  -1  -6   2  130.23    3.94
   1  -6  -2  132.36    4.10
  -1  -6   2  133.35    3.97
  -1  -6   2  133.89    4.04
  -1   6   2  132.04    3.92
  -1   6   2  129.89    3.98
  -1   6   2  129.54    3.96
  -1   6   2  129.77    3.76
  -1   6   2  130.62    4.12
  -1   6   2  128.21    4.09
   1   6  -2  126.27    4.09
   1   6  -2  129.28    4.06
  -1   6   2  135.77    3.97
   1   6  -2  132.11    3.98
   1   6  -2  129.10    3.89
   1   6  -2  120.70    3.92
   0  -6   2  219.21    6.39
   0  -6   2  224.35    6.30
   0  -6  -2  216.33    6.37
   0  -6  -2  218.78    6.29
   0  -6  -2  215.72    6.11
   0  -6  -2  218.32    6.19
   0  -6  -2  213.23    6.21
   0  -6   2  212.11    6.18
   0  -6   2  214.14    6.37
   0  -6   2  211.52    6.26
   0  -6   2  208.36    6.25
   0  -6  -2  216.31    6.36
   0  -6   2  211.69    6.10
   0  -6  -2  221.42    6.28
   0  -6  -2  209.70    6.16
   0  -6   2  214.86    6.20
   0   6  -2  208.86    6.41
   0   6   2  207.30    6.38
   0   6   2  222.51    6.43
   0   6  -2  225.21    6.30
   0   6  -2  211.93    6.21
   0   6   2  215.55    6.14
   0   6   2  217.45    6.25
   0   6  -2  216.60    6.39
   0   6   2  214.95    6.17
   0   6  -2  211.47    6.17
   0   6  -2  224.93    6.25
   0   6  -2  218.55    6.26
   0   6   2  204.48    6.25
   0   6   2  221.96    6.29
   1  -6   2   96.15    3.00
   1  -6   2   97.97    2.88
  -1  -6  -2   92.64    2.94
  -1  -6  -2   97.88    2.69
  -1  -6  -2   96.28    2.96
  -1  -6  -2   83.37    2.88
   1  -6   2   98.64    2.94
   1  -6   2   95.60    3.10
   1  -6   2   95.73    2.98
  -1  -6  -2   97.16    2.94
  -1  -6  -2   98.30    3.02
   1  -6   2   94.84    2.82
   1  -6   2   95.20    2.90
   1  -6   2   92.79    2.94
   1  -6   2   95.80    3.10
  -1   6  -2   97.26    2.90
  -1   6  -2   89.38    3.12
  -1   6  -2  100.06    2.98
   1   6   2   92.24    3.07
   1   6   2   95.17    2.93
   1   6   2   92.26    2.80
  -1   6  -2   92.77    2.85
   1   6   2   93.53    3.07
  -1   6  -2   96.76    2.98
  -1   6  -2   95.67    3.12
  -1   6  -2   90.26    2.97
   1   6   2   97.41    3.03
   2  -6   2  220.17    6.54
   2  -6   2  229.29    6.68
  -2  -6  -2  214.91    6.43
   2  -6   2  234.78    6.54
  -2  -6  -2  230.28    6.51
  -2  -6  -2  231.18    6.55
   2  -6   2  219.70    6.33
  -2  -6  -2  228.11    6.52
   2  -6   2  221.36    6.39
   2  -6   2  230.20    6.70
   2  -6   2  224.62    6.64
  -2   6  -2  222.78    6.60
   2   6   2  230.59    6.65
   2   6   2  212.57    6.60
   2   6   2  217.77    6.34
  -2   6  -2  234.21    6.71
  -2   6  -2  206.30    6.42
  -2   6  -2  230.36    6.58
  -2   6  -2  221.61    6.54
   2   6   2  228.70    6.62
  -2   6  -2  224.29    6.38
   2   6   2  215.67    6.43
  -3  -6  -2   36.23    1.49
  -3  -6  -2   34.85    1.34
   3  -6   2   38.06    1.49
   3  -6   2   34.92    1.59
   3  -6   2   34.71    1.67
   3   6   2   36.14    1.67
   3   6   2   35.54    1.23
   3   6   2   34.58    1.51
   3   6   2   36.19    1.49
  -3   6  -2   35.56    1.59
  -3   6  -2   37.44    1.47
   4  -6   2  106.37    3.82
  -4  -6  -2  107.71    3.33
   4  -6   2  109.39    3.63
   4  -6   2  111.39    3.55
  -4  -6  -2  111.08    3.59
  -4   6  -2  110.95    3.51
   4   6   2  105.31    3.45
   4   6   2  108.08    3.63
  -4   6  -2  102.87    3.68
   3  -7  -2  137.49    4.15
   3  -7  -2  141.03    4.40
   3  -7  -2  136.04    4.36
  -3  -7   2  129.68    4.18
  -3  -7   2  132.17    4.27
  -3  -7   2  133.16    4.11
   3   7  -2  135.92    4.08
  -3   7   2  135.90    4.30
   3   7  -2  135.01    4.32
   3   7  -2  135.41    4.28
  -3   7   2  129.49    4.16
  -3   7   2  133.90    4.23
  -2  -7   2   21.90    1.13
   2  -7  -2   22.24    1.02
  -2  -7   2   21.57    1.04
   2  -7  -2   20.78    1.24
  -2  -7   2   21.75    1.02
   2   7  -2   21.90    1.17
  -2   7   2   20.66    1.06
  -2   7   2   18.85    1.17
   2   7  -2   22.99    0.99
   2   7  -2   21.79    1.14
  -1  -7   2  202.99    6.25
   1  -7  -2  204.69    6.34
  -1  -7   2  219.09    6.11
   1  -7  -2  209.52    6.11
   1  -7  -2  207.49    6.22
   1  -7  -2  205.45    6.31
   1  -7  -2  226.86    6.65
  -1  -7   2  213.80    6.15
  -1  -7   2  205.84    6.16
   1  -7  -2  211.27    6.09
   1  -7  -2  205.84    6.07
  -1  -7   2  208.96    6.33
  -1   7   2  209.44    6.38
   1   7  -2  206.83    6.32
  -1   7   2  216.55    6.19
  -1   7   2  201.56    6.19
   1   7  -2  210.33    6.09
   1   7  -2  200.83    7.04
  -1   7   2  212.71    6.36
   1   7  -2  213.92    6.20
   1   7  -2  209.12    6.17
  -1   7   2  208.47    5.95
  -1   7   2  213.96    6.14
  -1   7   2  203.97    6.43
   0  -7  -2   15.36    0.79
   0  -7  -2   16.00    0.63
   0  -7  -2   15.53    0.85
   0  -7   2   15.29    0.61
   0  -7   2   14.91    0.85
   0  -7   2   15.50    0.97
   0  -7   2   14.57    0.76
   0  -7   2   14.73    0.78
   0  -7  -2   14.52    0.64
   0  -7  -2   14.52    0.89
   0  -7   2   15.75    0.66
   0  -7   2   16.30    0.89
   0  -7  -2   14.74    0.90
   0   7   2   14.39    0.96
   0   7  -2   15.29    0.85
   0   7   2   14.65    0.74
   0   7  -2   15.12    0.80
   0   7  -2   14.46    1.12
   0   7   2   14.69    0.84
   0   7  -2   14.84    0.78
   0   7  -2   15.44    0.97
   0   7   2   14.17    0.69
   0   7   2   15.14    0.87
   1  -7   2  226.93    7.08
   1  -7   2  236.10    7.31
  -1  -7  -2  250.58    7.25
   1  -7   2  248.37    7.34
   1  -7   2  249.38    7.03
   1  -7   2  245.11    7.01
   1  -7   2  251.66    7.21
   1  -7   2  251.39    7.12
  -1  -7  -2  236.01    7.11
  -1  -7  -2  222.90    7.30
  -1  -7  -2  255.33    7.15
   1  -7   2  247.49    7.11
   1   7   2  237.47    7.76
  -1   7  -2  256.73    7.19
  -1   7  -2  261.40    7.10
  -1   7  -2  234.58    7.03
  -1   7  -2  255.85    7.19
   1   7   2  243.42    7.00
  -1   7  -2  255.70    7.39
   1   7   2  250.10    7.22
   2  -7   2    6.27    0.73
   2  -7   2    7.03    0.50
   2  -7   2    6.80    0.85
  -2  -7  -2    5.95    0.72
  -2  -7  -2    6.82    0.67
  -2   7  -2    7.00    0.53
   2   7   2    6.45    0.79
  -2   7  -2    7.48    0.73
   2   7   2    6.67    0.50
   2   7   2    7.37    0.76
   3  -7   2  130.73    4.33
  -3  -7  -2  131.29    4.05
  -3  -7  -2  129.26    4.20
   3  -7   2  130.65    4.13
   3  -7   2  131.44    4.34
  -3   7  -2  129.10    4.30
   3   7   2  132.33    4.24
   3   7   2  134.16    4.40
  -3   7  -2  135.36    4.19
   3   7   2  136.43    4.27
  -2  -8   2   -0.04    0.45
   2  -8  -2    1.11    0.54
  -2  -8   2    0.02    0.33
  -2  -8   2    0.77    0.53
   2   8  -2    0.63    0.40
   2   8  -2    0.70    0.49
  -2   8   2    1.16    0.50
  -2   8   2    0.27    0.35
   2   8  -2    1.34    0.58
  -2   8   2   -0.30    0.45
   1  -8  -2  152.52    4.82
  -1  -8   2  156.77    4.72
  -1  -8   2  158.71    4.68
   1  -8  -2  156.08    4.92
  -1  -8   2  158.88    4.77
   1  -8  -2  154.71    4.60
   1  -8  -2  147.08    4.65
  -1   8   2  152.34    4.59
  -1   8   2  157.53    4.71
  -1   8   2  162.73    4.76
  -1   8   2  154.84    5.00
  -1   8   2  147.17    4.77
   1   8  -2  154.38    4.95
   1   8  -2  155.49    4.65
   1   8  -2  157.12    4.76
   0  -8   2    6.85    0.94
   0  -8  -2    6.45    0.65
   0  -8   2    6.60    0.79
   0  -8   2    5.39    0.60
   0  -8   2    5.02    0.65
   0  -8  -2    4.48    0.78
   0   8  -2    6.19    0.87
   0   8   2    6.28    0.92
   0   8  -2    6.21    0.65
   0   8   2    6.14    0.60
   0   8   2    6.07    0.71
   0   8  -2    6.28    0.63
   0   8  -2    5.54    0.87
   1  -8   2  111.25    3.42
   1  -8   2  102.55    3.75
   1  -8   2  105.73    3.65
  -1  -8  -2  104.45    3.50
  -1  -8  -2  112.59    3.46
   1  -8   2  108.67    3.35
   1  -8   2  107.06    3.30
  -1   8  -2  110.90    3.48
  -1   8  -2   99.00    4.28
  -1   8  -2  113.65    3.41
  -1   8  -2  108.09    3.54
   1   8   2  113.22    3.73
   1   8   2  110.88    3.52
   1   8   2  110.06    3.41
   2  -8   2    2.48    0.55
   2  -8   2    2.28    0.54
  -2  -8  -2    2.17    0.49
  -2  -8  -2    2.32    0.58
   2  -8   2    1.66    0.48
   2   8   2    1.77    0.58
   2   8   2    2.74    0.60
  -2   8  -2    2.50    0.56
   2   8   2    2.18    0.55
  -2   8  -2    2.86    0.65
   0  -9  -2   17.16    1.28
   0  -9   2   17.13    1.02
   0  -9   2   17.33    1.32
   0  -9   2   18.38    1.10
   0  -9  -2   17.31    1.08
   0   9  -2   18.29    1.06
   0   9   2   20.35    1.11
   0   9  -2   17.57    1.38
   0   9   2   18.18    1.43
   0   9   2   16.27    1.11
   0   9   2   18.02    1.04
   0   9  -2   18.19    1.04
   5   0  -3   -0.44    0.39
   5   0  -3    0.22    0.47
   5   0  -3   -0.35    0.38
   5   0  -3    0.24    0.33
   4   0  -3    0.24    0.11
   4   0  -3    0.01    0.23
  -4   0   3    0.21    0.09
   4   0  -3    0.50    0.23
   4   0  -3    0.46    0.20
  -4   0   3    0.29    0.10
   4   0  -3    0.63    0.32
   4   0  -3   -0.47    0.37
   4   0  -3    0.40    0.15
   3   0  -3    0.23    0.14
   3   0  -3    0.31    0.09
   3   0  -3    0.09    0.21
   3   0  -3    0.57    0.15
  -3   0   3    0.16    0.07
  -3   0   3    0.15    0.12
   3   0  -3   -0.01    0.19
   3   0  -3    0.53    0.20
   3   0  -3    0.27    0.12
   3   0  -3    0.36    0.21
   3   0  -3   -0.01    0.10
   2   0  -3    0.61    0.11
   2   0  -3    0.55    0.16
   2   0  -3    0.46    0.09
   2   0  -3    0.33    0.07
   2   0  -3    0.75    0.14
   2   0  -3    0.55    0.15
  -2   0   3    0.35    0.09
  -2   0   3    0.23    0.13
   2   0  -3    0.59    0.17
   2   0  -3    0.32    0.09
  -2   0   3    0.45    0.11
   2   0  -3    0.50    0.11
   1   0  -3    0.20    0.08
   1   0  -3    0.09    0.05
   1   0  -3    0.12    0.09
  -1   0   3    0.09    0.07
   1   0  -3    0.04    0.06
  -1   0   3    0.11    0.06
   1   0  -3    0.04    0.08
  -1   0   3    0.11    0.05
   1   0  -3    0.13    0.08
  -1   0   3    0.10    0.09
   1   0  -3    0.12    0.05
   0   0   3    0.29    0.07
   0   0  -3    0.38    0.08
   0   0   3    0.13    0.07
   0   0   3    0.17    0.07
   0   0  -3    0.20    0.05
   0   0  -3    0.07    0.06
   0   0  -3    0.30    0.09
   0   0  -3    0.05    0.08
   0   0  -3    0.17    0.05
   0   0  -3    0.41    0.09
   0   0   3    0.11    0.06
   0   0  -3    0.20    0.06
   0   0  -3    0.23    0.06
  -1   0  -3    0.15    0.10
   1   0   3    0.40    0.08
  -1   0  -3    0.26    0.08
   1   0   3    0.06    0.07
   1   0   3    0.08    0.09
  -1   0  -3    0.12    0.11
   1   0   3    0.06    0.10
   1   0   3    0.08    0.06
   2   0   3    0.36    0.09
  -2   0  -3    0.49    0.11
   2   0   3    0.22    0.07
   2   0   3    0.40    0.17
  -2   0  -3    0.22    0.15
   2   0   3    0.19    0.12
   2   0   3    0.07    0.14
   2   0   3    0.35    0.10
  -2   0  -3    0.43    0.10
  -2   0  -3    0.30    0.08
   2   0   3    0.28    0.17
   2   0   3    0.67    0.17
   2   0   3    0.07    0.10
  -2   0  -3    0.09    0.08
   3   0   3    0.44    0.22
  -3   0  -3    0.11    0.13
  -3   0  -3    0.46    0.23
   3   0   3    0.22    0.17
   3   0   3   -0.11    0.21
   3   0   3    0.24    0.20
   3   0   3    0.30    0.16
   3   0   3    0.61    0.24
   4   0   3    0.47    0.14
   4   0   3    0.39    0.27
   4   0   3    0.80    0.28
   4   0   3    0.41    0.24
  -4   0  -3    0.43    0.09
   4   0   3    0.32    0.11
   4   0   3    0.55    0.37
   5   0   3   -0.17    0.44
   5   0   3    0.51    0.69
   5   0   3   -0.34    0.51
   5   0   3    0.55    0.47
   5  -1  -3   30.68    1.45
   5  -1  -3   30.59    1.62
   5  -1  -3   30.03    1.23
   5  -1  -3   30.77    0.99
   5  -1  -3   31.63    1.35
  -5   1   3   32.27    1.28
   5   1  -3   30.60    1.49
  -5   1   3   30.72    0.99
  -5   1   3   29.87    0.97
   5   1  -3   31.47    1.24
   5   1  -3   27.32    1.54
   5   1  -3   31.92    1.39
   5   1  -3   31.44    1.45
   4  -1  -3   12.42    0.54
  -4  -1   3   12.68    0.43
  -4  -1   3   13.33    0.65
   4  -1  -3    9.95    0.69
   4  -1  -3   11.41    0.59
   4  -1  -3   13.40    0.62
  -4  -1   3   12.85    0.44
   4  -1  -3   12.51    0.63
   4  -1  -3   11.91    0.58
   4  -1  -3   11.46    0.91
   4   1  -3   11.50    0.73
   4   1  -3   11.23    0.78
   4   1  -3   12.70    0.68
  -4   1   3   13.27    0.67
  -4   1   3   12.09    0.60
   4   1  -3   12.33    0.62
  -4   1   3   11.89    0.50
   4   1  -3   12.42    0.48
   4   1  -3   10.48    0.75
   4   1  -3   12.59    0.55
  -3  -1   3  145.86    4.27
   3  -1  -3  146.53    4.22
   3  -1  -3  148.84    4.11
   3  -1  -3  152.79    4.29
   3  -1  -3  143.33    4.19
   3  -1  -3  145.13    4.13
   3  -1  -3  142.65    4.11
   3  -1  -3  147.15    4.23
  -3  -1   3  148.51    4.25
   3  -1  -3  145.26    4.20
  -3  -1   3  140.83    4.11
  -3  -1   3  148.41    4.13
   3  -1  -3  150.58    4.42
  -3   1   3  148.42    4.17
   3   1  -3  148.83    4.30
   3   1  -3  146.34    4.22
   3   1  -3  138.62    4.18
   3   1  -3  148.53    4.30
   3   1  -3  148.65    4.27
   3   1  -3  144.49    4.14
   3   1  -3  143.86    4.18
   3   1  -3  148.54    4.18
  -3   1   3  142.20    4.15
  -3   1   3  148.55    4.27
   3   1  -3  151.10    4.29
  -3   1   3  144.86    4.16
  -3   1   3  151.40    4.15
   3   1  -3  148.17    4.32
   2  -1  -3  104.67    3.06
  -2  -1   3  100.43    2.88
  -2  -1   3   92.37    3.07
   2  -1  -3  104.44    2.94
  -2  -1   3  101.99    2.89
  -2  -1   3  102.50    2.97
   2  -1  -3  100.75    2.93
   2  -1  -3  100.59    2.90
   2  -1  -3  106.17    2.97
  -2  -1   3  102.18    2.95
  -2  -1   3  101.61    2.88
   2  -1  -3  101.95    2.90
  -2  -1   3   99.78    2.90
   2  -1  -3  104.50    2.90
   2  -1  -3  104.10    2.96
   2  -1  -3  100.37    2.85
  -2   1   3   99.41    2.90
   2   1  -3   99.25    2.84
  -2   1   3  100.75    2.97
  -2   1   3  103.22    2.86
   2   1  -3  100.53    2.97
   2   1  -3  103.66    2.97
   2   1  -3  100.88    2.94
   2   1  -3  100.20    2.97
  -2   1   3  102.84    2.91
   2   1  -3  101.39    2.86
   2   1  -3   99.30    2.87
  -2   1   3  100.37    2.91
   2   1  -3  102.23    2.87
  -2   1   3  103.61    2.96
   2   1  -3   99.93    2.90
  -2   1   3  103.01    2.95
   2   1  -3  102.76    2.93
  -2   1   3  100.18    3.08
  -2   1   3  102.02    2.93
  -1   1   3  177.10    5.09
   0  -1   3   80.20    2.43
   0  -1  -3   84.67    2.48
   0  -1   3   83.02    2.41
   0  -1   3   86.08    2.45
   0  -1   3   83.46    2.48
   0  -1  -3   87.29    2.41
   0  -1  -3   85.37    2.45
   0  -1   3   83.93    2.46
   0  -1  -3   85.27    2.43
   0  -1   3   86.40    2.43
   0  -1  -3   85.60    2.44
   0  -1   3   85.62    2.43
   0  -1   3   84.68    2.43
   0  -1  -3   86.76    2.44
   0  -1  -3   84.89    2.43
   0   1   3   85.54    2.40
   0   1   3   85.55    2.44
   0   1   3   86.28    2.45
   0   1  -3   85.84    2.42
   0   1  -3   81.75    2.44
   0   1  -3   87.48    2.43
   0   1  -3   80.95    2.43
   0   1   3   87.08    2.49
   0   1  -3   87.12    2.49
   0   1   3   85.31    2.44
   0   1  -3   83.89    2.44
   0   1   3   84.63    2.45
   0   1   3   87.51    2.44
   0   1  -3   84.12    2.44
  -1  -1  -3  145.04    4.26
   1  -1   3  152.64    4.28
   1  -1   3  148.10    4.26
  -1  -1  -3  151.01    4.25
  -1  -1  -3  151.47    4.22
  -1  -1  -3  148.05    4.29
  -1  -1  -3  154.40    4.24
   1  -1   3  144.47    4.26
   1  -1   3  154.12    4.24
  -1  -1  -3  150.50    4.24
   1  -1   3  154.49    4.25
   1  -1   3  144.28    4.21
   1  -1   3  149.58    4.24
   1   1   3  156.08    4.26
  -1   1  -3  148.69    4.28
   1   1   3  147.25    4.28
  -1   1  -3  148.13    4.25
  -1   1  -3  149.17    4.28
   1   1   3  149.91    4.24
   1   1   3  145.76    4.22
  -1   1  -3  144.79    4.22
  -1   1  -3  152.48    4.23
   1   1   3  153.44    4.23
  -2  -1  -3   11.88    0.44
  -2  -1  -3   11.42    0.55
  -2  -1  -3   11.48    0.41
   2  -1   3   12.83    0.51
  -2  -1  -3   12.07    0.43
   2  -1   3   11.28    0.51
   2  -1   3   12.11    0.47
  -2  -1  -3   11.83    0.52
   2  -1   3   12.15    0.52
   2  -1   3   11.66    0.54
   2  -1   3   11.69    0.40
  -2  -1  -3   11.28    0.51
   2  -1   3   11.73    0.38
  -2  -1  -3   10.62    0.45
   2  -1   3   12.27    0.44
   2  -1   3   11.58    0.56
   2  -1   3   12.07    0.44
  -2   1  -3   13.12    0.55
   2   1   3   11.81    0.50
   2   1   3   11.66    0.39
   2   1   3   12.19    0.42
  -2   1  -3   11.87    0.48
  -2   1  -3   12.70    0.49
   2   1   3   11.69    0.50
   2   1   3   11.51    0.57
  -2   1  -3   12.09    0.59
  -2   1  -3   11.57    0.47
  -2   1  -3   11.88    0.46
   2   1   3   11.49    0.47
  -2   1  -3   11.87    0.44
   3  -1   3   72.00    2.23
  -3  -1  -3   70.07    2.05
   3  -1   3   69.57    2.19
   3  -1   3   69.37    2.26
   3  -1   3   71.60    2.14
   3  -1   3   68.27    2.09
   3  -1   3   70.81    2.05
   3  -1   3   71.27    2.11
   3  -1   3   70.78    2.15
   3  -1   3   71.67    2.28
  -3  -1  -3   72.86    2.04
  -3  -1  -3   71.14    2.29
   3   1   3   70.54    2.20
   3   1   3   70.62    2.19
  -3   1  -3   69.07    2.02
   3   1   3   70.48    2.14
   3   1   3   73.56    2.10
  -3   1  -3   69.59    2.09
   3   1   3   71.05    2.08
   3   1   3   70.42    2.14
   3   1   3   69.98    2.06
   3   1   3   69.83    2.27
  -3   1  -3   70.84    2.34
  -3   1  -3   71.77    2.03
  -3   1  -3   70.54    2.17
  -3   1  -3   72.14    2.07
   3   1   3   70.24    2.19
   3   1   3   72.17    2.24
   4  -1   3   10.71    0.53
  -4  -1  -3    9.52    0.38
  -4  -1  -3   10.06    0.74
   4  -1   3   11.37    0.56
   4  -1   3   10.58    0.66
   4  -1   3   10.38    0.80
   4  -1   3   10.29    0.49
   4  -1   3   10.11    0.47
  -4  -1  -3    9.73    0.37
  -4   1  -3   10.54    0.42
   4   1   3    9.78    0.62
   4   1   3    9.81    0.61
  -4   1  -3   10.32    0.47
   4   1   3   10.00    0.58
  -4   1  -3   11.22    0.62
   4   1   3    9.69    0.65
   4   1   3    9.73    0.79
   5  -1   3   32.76    1.40
   5  -1   3   34.21    1.56
   5  -1   3   32.52    1.85
   5   1   3   33.00    1.57
   5   1   3   33.73    1.45
   5   1   3   34.91    1.39
  -5   1  -3   32.19    1.05
  -5   1  -3   33.91    1.03
   5   1   3   33.86    1.55
   5   1   3   33.88    1.80
   5  -2  -3   89.88    2.82
   5  -2  -3   89.98    2.75
   5  -2  -3   91.39    3.33
   5  -2  -3   91.08    2.91
   5   2  -3   97.69    3.04
  -5   2   3   94.66    2.96
  -5   2   3   91.23    2.73
   5   2  -3   93.39    2.91
  -5   2   3   91.12    2.74
   5   2  -3   93.13    3.07
   4  -2  -3   12.89    0.65
  -4  -2   3   12.47    0.46
  -4  -2   3   12.70    0.71
   4  -2  -3   12.73    0.67
  -4  -2   3   12.29    0.46
   4  -2  -3   12.41    0.92
   4  -2  -3   12.21    0.59
   4  -2  -3   12.48    0.45
   4   2  -3   12.20    0.73
   4   2  -3   12.27    0.65
  -4   2   3   11.83    0.48
   4   2  -3   12.61    0.54
   4   2  -3   11.96    0.74
  -4   2   3   12.05    0.65
   4   2  -3   12.25    0.51
   4   2  -3   12.27    0.52
  -4   2   3   12.13    0.55
   4   2  -3   13.52    0.82
  -4   2   3   13.09    0.73
  -4   2   3   12.51    0.55
   4   2  -3   10.60    0.71
   3  -2  -3  208.22    5.96
   3  -2  -3  223.24    6.18
   3  -2  -3  213.02    6.11
   3  -2  -3  217.21    6.18
   3  -2  -3  216.04    6.17
   3  -2  -3  220.17    6.14
   3  -2  -3  210.29    5.95
   3  -2  -3  217.13    6.35
   3  -2  -3  212.19    6.11
  -3  -2   3  219.22    6.05
   3  -2  -3  216.26    6.06
  -3  -2   3  221.89    6.19
   3   2  -3  217.59    6.20
   3   2  -3  214.11    6.06
  -3   2   3  219.88    6.16
  -3   2   3  202.58    6.10
   3   2  -3  214.83    6.14
   3   2  -3  215.68    6.15
   3   2  -3  214.38    6.17
   3   2  -3  216.36    6.17
  -3   2   3  215.44    6.15
   3   2  -3  215.79    6.02
  -3   2   3  216.16    6.09
   3   2  -3  219.32    6.10
   3   2  -3  208.39    6.14
  -3   2   3  214.63    6.09
  -3   2   3  214.16    6.20
   2  -2  -3   17.05    0.61
  -2  -2   3   16.50    0.58
   2  -2  -3   16.35    0.68
  -2  -2   3   16.49    0.58
  -2  -2   3   17.00    0.67
  -2  -2   3   16.67    0.64
   2  -2  -3   16.42    0.61
   2  -2  -3   17.00    0.62
  -2  -2   3   17.53    0.62
  -2  -2   3   16.34    0.67
   2  -2  -3   17.00    0.65
  -2  -2   3   17.15    0.57
   2  -2  -3   16.64    0.66
   2  -2  -3   17.47    0.63
  -2  -2   3   16.70    0.59
   2  -2  -3   16.38    0.74
  -2   2   3   17.49    0.64
  -2   2   3   17.84    0.67
   2   2  -3   16.70    0.65
  -2   2   3   18.81    0.63
   2   2  -3   17.19    0.65
   2   2  -3   16.62    0.54
  -2   2   3   16.82    0.63
  -2   2   3   17.09    0.78
   2   2  -3   17.08    0.65
  -2   2   3   16.57    0.63
  -2   2   3   17.21    0.67
  -2   2   3   16.23    0.66
   2   2  -3   17.29    0.56
   2   2  -3   17.19    0.58
   2   2  -3   16.02    0.65
  -1  -2   3  367.59   10.14
  -1   2   3  359.49   10.19
   0  -2   3   33.20    1.12
   0  -2  -3   32.38    1.13
   0  -2   3   34.83    1.06
   0  -2   3   35.04    1.07
   0  -2  -3   34.85    1.08
   0  -2  -3   32.77    0.99
   0  -2   3   36.53    1.09
   0  -2  -3   36.11    1.08
   0  -2  -3   35.70    1.11
   0  -2   3   35.10    1.05
   0  -2  -3   32.07    1.12
   0  -2  -3   34.30    1.13
   0  -2   3   32.71    1.10
   0  -2   3   33.30    1.05
   0  -2  -3   35.32    1.05
   0   2  -3   34.79    1.07
   0   2  -3   35.07    1.04
   0   2   3   35.19    1.09
   0   2  -3   34.22    1.06
   0   2   3   35.14    1.11
   0   2  -3   34.56    1.14
   0   2  -3   33.98    1.02
   0   2   3   35.19    1.08
   0   2  -3   35.39    1.11
   0   2  -3   32.87    1.08
   0   2   3   35.00    1.05
   0   2   3   33.75    1.00
   0   2   3   29.11    1.20
   0   2  -3   34.89    1.09
   0   2   3   34.08    1.07
   0   2   3   33.49    1.07
   0   2   3   36.36    1.08
  -1  -2  -3  408.48   11.43
  -2  -2  -3   55.63    1.65
   2  -2   3   55.35    1.80
  -2  -2  -3   55.34    1.76
  -2  -2  -3   55.65    1.67
   2  -2   3   57.29    1.73
   2  -2   3   56.69    1.71
   2  -2   3   55.28    1.74
   2  -2   3   57.45    1.70
  -2  -2  -3   55.90    1.66
  -2  -2  -3   56.40    1.75
  -2  -2  -3   56.02    1.68
  -2  -2  -3   56.13    1.81
   2  -2   3   54.98    1.78
   2  -2   3   53.78    1.78
   2  -2   3   56.33    1.69
   2   2   3   54.99    1.62
  -2   2  -3   55.79    1.75
  -2   2  -3   58.62    1.76
   2   2   3   56.55    1.78
   2   2   3   56.10    1.70
  -2   2  -3   56.44    1.75
  -2   2  -3   57.68    1.72
   2   2   3   56.19    1.84
   2   2   3   55.07    1.62
  -2   2  -3   54.76    1.83
   2   2   3   57.12    1.78
  -2   2  -3   56.04    1.82
  -2   2  -3   57.93    1.76
   2   2   3   55.64    1.64
   2   2   3   57.13    1.72
   2   2   3   57.12    1.73
   2   2   3   54.39    1.62
   2   2   3   57.19    1.70
  -2   2  -3   57.74    1.70
   3  -2   3  226.13    6.35
   3  -2   3  212.59    6.29
   3  -2   3  223.56    6.42
  -3  -2  -3  218.08    6.20
  -3  -2  -3  223.07    6.19
  -3  -2  -3  220.20    6.40
   3  -2   3  223.59    6.29
  -3  -2  -3  223.84    6.36
   3  -2   3  220.18    6.30
   3  -2   3  215.65    6.16
   3  -2   3  214.90    6.13
   3  -2   3  215.86    6.20
  -3   2  -3  226.10    6.38
  -3   2  -3  224.43    6.35
   3   2   3  227.39    6.47
  -3   2  -3  220.81    6.28
   3   2   3  226.37    6.22
   3   2   3  225.10    6.23
  -3   2  -3  221.59    6.49
   3   2   3  220.73    6.24
  -3   2  -3  210.71    6.26
   3   2   3  224.55    6.23
   3   2   3  219.33    6.29
   3   2   3  224.61    6.38
  -3   2  -3  221.11    6.25
   3   2   3  221.53    6.32
  -4  -2  -3    6.46    0.31
   4  -2   3    7.42    0.46
   4  -2   3    7.73    0.43
  -4  -2  -3    6.63    0.31
   4  -2   3    7.06    0.61
   4  -2   3    7.40    0.53
   4  -2   3    6.10    0.69
  -4   2  -3    7.65    0.39
   4   2   3    6.40    0.50
   4   2   3    7.22    0.64
   4   2   3    7.27    0.36
   4   2   3    6.83    0.50
   4   2   3    6.85    0.35
   4   2   3    7.64    0.77
  -4   2  -3    8.27    0.46
   5  -2   3   44.77    1.57
   5  -2   3   50.82    2.01
   5  -2   3   46.36    1.53
   5  -2   3   46.99    1.94
   5  -2   3   46.67    2.30
   5   2   3   46.53    1.97
   5   2   3   48.83    2.04
  -5   2  -3   45.59    1.54
  -5   2  -3   48.42    1.79
   5   2   3   48.99    1.88
   5   2   3   47.29    2.14
   5  -3  -3    1.66    0.47
   5   3  -3    1.23    0.63
   5   3  -3    1.59    0.46
   5   3  -3    1.64    0.59
  -5   3   3    1.65    0.42
   5   3  -3    2.80    0.69
  -5   3   3    1.81    0.49
   4  -3  -3  178.02    5.38
  -4  -3   3  177.23    5.16
   4  -3  -3  172.26    5.11
   4  -3  -3  170.68    5.05
   4  -3  -3  164.28    4.88
  -4  -3   3  172.28    4.90
   4  -3  -3  175.70    5.06
  -4  -3   3  168.19    4.88
  -4   3   3  178.37    5.08
  -4   3   3  175.25    5.17
   4   3  -3  170.14    5.02
   4   3  -3  179.56    5.26
   4   3  -3  170.38    4.91
  -4   3   3  171.23    5.00
   4   3  -3  169.90    4.94
   4   3  -3  168.09    4.94
   4   3  -3  173.36    5.08
  -4   3   3  173.87    4.97
  -4   3   3  171.33    5.00
   4   3  -3  173.37    5.00
   3  -3  -3    2.27    0.47
  -3  -3   3    2.86    0.25
  -3  -3   3    3.13    0.26
   3  -3  -3    3.09    0.33
   3  -3  -3    2.90    0.42
  -3  -3   3    3.06    0.25
   3  -3  -3    3.87    0.41
   3  -3  -3    2.97    0.31
  -3  -3   3    2.76    0.25
   3  -3  -3    3.33    0.37
  -3  -3   3    2.69    0.24
  -3  -3   3    2.48    0.44
  -3   3   3    3.09    0.34
   3   3  -3    2.89    0.32
   3   3  -3    3.38    0.26
   3   3  -3    3.54    0.21
   3   3  -3    3.10    0.36
   3   3  -3    3.03    0.31
  -3   3   3    3.33    0.41
  -3   3   3    2.72    0.28
   3   3  -3    2.60    0.18
   3   3  -3    2.72    0.47
   3   3  -3    2.06    0.36
   3   3  -3    2.28    0.30
   3   3  -3    2.58    0.34
  -3   3   3    3.46    0.39
  -3   3   3    2.35    0.33
   2  -3  -3  359.74   10.75
  -2  -3   3  388.45   10.69
  -2  -3   3  376.27   10.65
  -2  -3   3  396.57   10.74
   2  -3  -3  382.66   10.68
   2  -3  -3  391.73   10.70
   2  -3  -3  371.14   10.68
   2  -3  -3  388.20   10.83
   2  -3  -3  388.20   10.76
  -2  -3   3  386.85   10.74
  -2  -3   3  378.88   10.65
   2  -3  -3  384.23   10.67
   2   3  -3  390.48   10.69
   2   3  -3  390.18   10.73
   2   3  -3  386.77   10.71
   2   3  -3  369.35   10.63
  -2   3   3  382.35   10.72
  -2   3   3  377.80   10.71
  -2   3   3  367.70   11.14
  -2   3   3  375.43   10.85
   2   3  -3  386.30   10.61
  -2   3   3  376.75   10.75
   2   3  -3  383.08   10.77
   2   3  -3  384.11   10.73
  -2   3   3  366.12   10.69
  -2   3   3  386.56   10.69
   2   3  -3  391.41   10.70
  -1  -3   3    1.68    0.25
  -1  -3   3    0.99    0.16
   1  -3  -3    1.35    0.18
  -1  -3   3    1.32    0.13
   1  -3  -3    1.46    0.22
  -1  -3   3    1.39    0.19
   1  -3  -3    1.20    0.20
   1  -3  -3    1.26    0.21
  -1  -3   3    1.35    0.21
   1  -3  -3    1.55    0.22
  -1  -3   3    1.55    0.23
   1  -3  -3    1.29    0.21
  -1  -3   3    1.80    0.24
  -1  -3   3    1.15    0.19
   1  -3  -3    1.28    0.24
   1   3  -3    1.49    0.22
  -1   3   3    1.67    0.22
  -1   3   3    1.36    0.26
  -1   3   3    1.29    0.27
  -1   3   3    1.85    0.31
   1   3  -3    1.32    0.19
   1   3  -3    1.11    0.18
  -1   3   3    1.68    0.26
  -1   3   3    1.38    0.11
   1   3  -3    1.21    0.19
   1   3  -3    1.54    0.23
  -1   3   3    1.69    0.21
  -1   3   3    1.67    0.24
  -1   3   3    1.39    0.12
  -1   3   3    1.32    0.20
   1   3  -3    1.42    0.21
   0  -3   3  327.31    9.41
   0  -3  -3  300.31    9.38
   0  -3   3  334.45    9.36
   0  -3  -3  333.07    9.35
   0  -3   3  331.06    9.28
   0  -3   3  331.59    9.34
   0  -3  -3  348.47    9.37
   0   3  -3  331.65    9.37
   0   3  -3  336.87    9.31
   0   3   3  334.48    9.29
   0   3   3  338.49    9.41
   0   3  -3  341.75    9.41
   0   3   3  338.11    9.37
   1  -3   3    7.18    0.38
  -1  -3  -3    5.79    0.34
  -1  -3  -3    5.92    0.34
   1  -3   3    5.76    0.40
  -1  -3  -3    6.01    0.24
   1  -3   3    5.97    0.35
   1  -3   3    5.85    0.36
  -1  -3  -3    6.31    0.32
   1  -3   3    6.00    0.34
  -1  -3  -3    5.64    0.37
   1  -3   3    5.98    0.35
  -1  -3  -3    5.55    0.42
  -1  -3  -3    6.24    0.34
   1  -3   3    6.10    0.31
  -1   3  -3    6.10    0.36
   1   3   3    7.17    0.35
  -1   3  -3    5.65    0.24
   1   3   3    5.80    0.36
   1   3   3    6.16    0.32
  -1   3  -3    5.65    0.39
   1   3   3    5.41    0.35
  -1   3  -3    6.95    0.39
  -1   3  -3    5.39    0.36
  -1   3  -3    6.36    0.39
   1   3   3    5.57    0.23
   1   3   3    6.17    0.33
   1   3   3    5.31    0.39
   1   3   3    5.96    0.40
  -1   3  -3    6.31    0.43
   1   3   3    6.72    0.30
  -1   3  -3    5.51    0.33
   1   3   3    5.43    0.39
   2  -3   3  268.30    7.38
  -2  -3  -3  255.70    7.34
  -2  -3  -3  261.61    7.34
   2  -3   3  263.10    7.32
   2  -3   3  262.98    7.44
  -2  -3  -3  261.05    7.33
  -2  -3  -3  253.46    7.40
   2  -3   3  262.10    7.38
   2  -3   3  255.39    7.39
   2  -3   3  266.50    7.46
  -2  -3  -3  273.77    7.39
   2  -3   3  269.47    7.49
  -2  -3  -3  265.59    7.53
  -2  -3  -3  249.31    7.36
   2   3   3  258.39    7.30
   2   3   3  260.99    7.31
  -2   3  -3  255.80    7.43
   2   3   3  267.47    7.37
   2   3   3  256.75    7.51
  -2   3  -3  257.92    7.38
  -2   3  -3  271.30    7.47
   2   3   3  259.65    7.46
   2   3   3  256.08    7.38
  -2   3  -3  254.42    7.39
   2   3   3  268.29    7.42
  -2   3  -3  252.04    7.48
   2   3   3  255.27    7.29
   2   3   3  268.12    7.44
  -2   3  -3  264.36    7.46
  -3  -3  -3    0.58    0.14
  -3  -3  -3    0.81    0.16
   3  -3   3    0.65    0.18
  -3  -3  -3    1.08    0.24
   3  -3   3    0.51    0.20
   3  -3   3    1.49    0.34
   3  -3   3    1.03    0.26
   3   3   3    1.26    0.32
  -3   3  -3    0.80    0.18
   3   3   3    0.95    0.18
  -3   3  -3    0.97    0.17
   3   3   3    0.98    0.38
  -3   3  -3    1.32    0.30
   3   3   3    1.45    0.30
   3   3   3    0.65    0.19
   3   3   3    0.53    0.18
  -3   3  -3    0.96    0.32
  -3   3  -3    0.86    0.25
   3   3   3    1.08    0.20
  -4  -3  -3  125.22    3.69
   4  -3   3  131.87    3.88
   4  -3   3  131.54    4.03
  -4  -3  -3  126.97    3.96
   4  -3   3  129.16    3.79
   4  -3   3  128.93    3.93
   4  -3   3  130.49    4.31
  -4  -3  -3  132.87    3.71
  -4   3  -3  132.56    3.99
  -4   3  -3  129.55    3.86
   4   3   3  124.92    3.73
   4   3   3  132.70    4.15
  -4   3  -3  130.87    3.80
   4   3   3  125.61    3.74
   4   3   3  129.23    3.76
   4   3   3  130.89    4.01
   5  -3   3    0.51    0.33
   5  -3   3    0.50    0.99
   5  -3   3    0.04    0.55
   5   3   3   -0.24    0.57
  -5   3  -3    0.33    0.27
   5   3   3    0.64    0.65
  -5   3  -3    0.83    0.51
   5   3   3    0.76    0.70
   5   3   3    1.13    0.59
  -5  -4   3    0.70    0.17
  -5  -4   3    0.63    0.17
   5  -4  -3    0.31    0.46
   5  -4  -3    0.17    0.33
   5  -4  -3   -0.19    0.74
   5   4  -3    0.89    0.48
  -5   4   3    0.53    0.50
   5   4  -3    0.81    0.60
   5   4  -3    0.61    0.21
  -5   4   3    0.16    0.27
  -5   4   3    0.24    0.40
   5   4  -3    0.57    0.23
  -4  -4   3  174.08    5.07
   4  -4  -3  177.86    5.54
   4  -4  -3  179.53    5.22
  -4  -4   3  176.90    5.09
   4  -4  -3  176.04    5.28
  -4  -4   3  179.87    5.13
  -4  -4   3  172.27    5.34
  -4   4   3  182.62    5.22
   4   4  -3  176.41    5.41
   4   4  -3  186.17    5.24
   4   4  -3  169.27    5.15
  -4   4   3  182.65    5.23
   4   4  -3  177.20    5.15
   4   4  -3  170.95    5.05
  -4   4   3  179.41    5.36
   3  -4  -3   14.93    0.82
  -3  -4   3   15.26    0.81
  -3  -4   3   14.97    0.73
  -3  -4   3   15.67    0.64
  -3  -4   3   15.72    0.64
   3  -4  -3   15.15    0.91
  -3  -4   3   16.00    0.66
   3  -4  -3   13.92    0.69
   3  -4  -3   15.89    0.73
   3  -4  -3   15.44    0.80
   3  -4  -3   14.69    0.69
   3   4  -3   14.47    0.75
  -3   4   3   15.38    0.70
   3   4  -3   16.05    0.73
   3   4  -3   16.62    0.87
   3   4  -3   14.70    0.58
  -3   4   3   15.61    0.78
   3   4  -3   13.76    1.11
  -3   4   3   17.38    0.76
   3   4  -3   15.21    0.52
  -3   4   3   15.07    0.78
   3   4  -3   15.55    0.63
  -3   4   3   15.44    0.79
   3   4  -3   15.43    0.53
  -2  -4   3  306.31    8.89
   2  -4  -3  325.76    8.97
  -2  -4   3  319.91    8.93
   2  -4  -3  311.57    8.92
   2  -4  -3  322.07    8.92
  -2  -4   3  319.33    9.01
  -2  -4   3  322.08    8.96
   2  -4  -3  309.17    8.91
   2  -4  -3  316.37    9.04
  -2  -4   3  317.58    8.99
  -2  -4   3  327.94    8.87
   2  -4  -3  317.28    9.06
  -2  -4   3  305.40    8.92
   2  -4  -3  311.60    8.96
   2  -4  -3  323.48    9.08
  -2   4   3  316.56    9.06
   2   4  -3  325.97    8.99
   2   4  -3  316.48    8.90
   2   4  -3  312.76    8.97
   2   4  -3  312.26    9.01
  -2   4   3  316.30    8.97
  -2   4   3  311.95    8.95
   2   4  -3  311.96    8.92
  -2   4   3  310.95    9.10
  -2   4   3  309.12    8.99
  -2   4   3  317.78    9.04
   2   4  -3  321.19    9.03
   2   4  -3  315.34    8.86
   2   4  -3  313.15    8.87
  -2   4   3  329.26    8.95
  -2   4   3  315.34    8.97
  -1  -4   3    0.18    0.18
  -1  -4   3    0.50    0.17
  -1  -4   3    0.46    0.10
   1  -4  -3    0.39    0.17
   1  -4  -3    0.26    0.15
  -1  -4   3    0.27    0.13
  -1  -4   3    0.22    0.10
  -1  -4   3    0.20    0.12
  -1  -4   3    0.24    0.15
  -1  -4   3    0.42    0.21
   1  -4  -3    0.70    0.20
   1  -4  -3    0.24    0.20
   1  -4  -3    0.13    0.14
   1  -4  -3    0.57    0.15
  -1   4   3    0.36    0.19
   1   4  -3    0.53    0.10
   1   4  -3    0.36    0.15
  -1   4   3    0.68    0.19
  -1   4   3    0.23    0.18
   1   4  -3    0.25    0.15
   1   4  -3    0.28    0.12
   1   4  -3    0.44    0.17
  -1   4   3    0.29    0.21
   1   4  -3    0.44    0.16
   1   4  -3    0.64    0.22
  -1   4   3    0.39    0.09
  -1   4   3    0.10    0.12
  -1   4   3    0.13    0.12
   1   4  -3    0.18    0.13
   1   4  -3    0.42    0.19
   0  -4  -3  702.00   19.40
   0   4  -3  694.09   19.47
  -1  -4  -3   19.20    0.70
   1  -4   3   18.53    0.78
  -1  -4  -3   19.01    0.67
   1  -4   3   20.71    0.81
   1  -4   3   19.20    0.84
   1  -4   3   19.91    0.68
   1  -4   3   19.33    0.77
   1  -4   3   19.74    0.76
  -1  -4  -3   20.34    0.76
  -1  -4  -3   17.97    0.80
   1  -4   3   19.61    0.86
   1  -4   3   19.94    0.70
  -1  -4  -3   17.50    0.75
  -1  -4  -3   19.73    0.76
   1  -4   3   20.12    0.78
  -1  -4  -3   19.66    0.88
   1   4   3   20.22    0.79
   1   4   3   18.97    0.81
   1   4   3   18.99    0.75
   1   4   3   20.57    0.84
  -1   4  -3   18.59    0.78
  -1   4  -3   20.51    0.77
   1   4   3   19.34    0.83
   1   4   3   21.31    0.76
  -1   4  -3   19.35    0.88
   1   4   3   18.94    0.84
  -1   4  -3   18.47    0.81
  -1   4  -3   19.71    0.78
   1   4   3   19.13    0.64
  -1   4  -3   19.91    0.74
  -1   4  -3   17.40    0.67
  -1   4  -3   19.46    0.80
   1   4   3   19.03    0.72
  -1   4  -3   20.61    0.85
   2  -4   3  442.66   12.48
   2  -4   3  442.03   12.55
   2  -4   3  452.90   12.60
  -2  -4  -3  430.80   12.64
  -2  -4  -3  453.32   12.40
  -2  -4  -3  445.18   12.44
  -2  -4  -3  447.83   12.49
  -2  -4  -3  460.38   12.45
  -2  -4  -3  435.36   12.44
   2  -4   3  429.77   12.48
   2  -4   3  451.50   12.49
   2  -4   3  447.83   12.53
   2  -4   3  454.32   12.52
  -2   4  -3  442.58   12.47
  -2   4  -3  439.11   12.50
   2   4   3  452.32   12.57
  -2   4  -3  439.13   12.56
  -2   4  -3  448.14   12.46
  -2   4  -3  439.66   12.55
  -2   4  -3  444.66   12.59
   2   4   3  449.14   12.62
   2   4   3  446.04   12.54
   2   4   3  439.10   12.51
  -3  -4  -3    1.53    0.25
  -3  -4  -3    1.05    0.20
   3  -4   3    1.66    0.29
  -3  -4  -3    1.22    0.22
   3  -4   3    0.90    0.22
  -3  -4  -3    1.24    0.39
   3  -4   3    1.72    0.32
  -3  -4  -3    1.51    0.27
   3  -4   3    0.94    0.31
   3   4   3    1.58    0.43
   3   4   3    1.38    0.22
   3   4   3    1.30    0.43
  -3   4  -3    1.02    0.38
   3   4   3    1.41    0.26
   3   4   3    1.70    0.29
   3   4   3    1.19    0.24
  -3   4  -3    1.48    0.30
   3   4   3    1.14    0.19
  -3   4  -3    2.14    0.37
  -3   4  -3    2.05    0.33
   4  -4   3  116.77    3.71
   4  -4   3  116.34    4.01
  -4  -4  -3  119.97    3.70
   4  -4   3  115.41    3.44
  -4  -4  -3  119.10    3.46
  -4  -4  -3  118.37    3.45
   4  -4   3  123.11    3.75
   4   4   3  117.11    3.52
  -4   4  -3  119.40    3.62
   4   4   3  116.87    3.52
   4   4   3  112.07    3.51
   4   4   3  118.29    3.76
   4   4   3  120.65    3.91
  -4   4  -3  120.36    3.77
   4  -5  -3   75.42    2.89
   4  -5  -3   79.06    2.70
  -4  -5   3   79.33    2.50
  -4  -5   3   79.62    2.46
  -4  -5   3   77.92    2.74
   4  -5  -3   81.65    2.60
  -4   5   3   80.40    2.58
  -4   5   3   78.31    2.74
   4   5  -3   79.16    2.79
  -4   5   3   78.99    2.61
   4   5  -3   80.86    2.57
   4   5  -3   80.54    2.57
  -3  -5   3   83.68    2.50
   3  -5  -3   81.01    2.70
   3  -5  -3   73.98    2.91
   3  -5  -3   80.48    2.76
  -3  -5   3   82.27    2.51
  -3  -5   3   81.59    2.50
   3  -5  -3   81.23    2.73
   3  -5  -3   79.42    2.58
   3   5  -3   83.09    2.61
  -3   5   3   79.91    2.69
  -3   5   3   81.77    2.67
   3   5  -3   76.44    2.46
   3   5  -3   79.49    2.67
   3   5  -3   77.89    2.43
  -3   5   3   85.89    2.59
  -3   5   3   81.77    2.60
   3   5  -3   81.10    2.67
  -3   5   3   84.10    2.58
   3   5  -3   83.40    2.72
  -2  -5   3  174.41    4.94
   2  -5  -3  168.68    5.02
  -2  -5   3  165.69    4.94
  -2  -5   3  171.37    5.04
   2  -5  -3  175.17    5.11
   2  -5  -3  164.57    5.12
   2  -5  -3  198.25    5.55
   2  -5  -3  165.49    4.97
  -2  -5   3  171.33    5.02
   2  -5  -3  169.47    4.96
   2   5  -3  166.47    5.05
   2   5  -3  169.22    5.10
  -2   5   3  172.64    5.15
  -2   5   3  168.51    5.02
   2   5  -3  168.06    4.95
  -2   5   3  163.54    5.22
  -2   5   3  173.85    5.01
  -2   5   3  170.10    5.00
  -2   5   3  166.62    5.01
   2   5  -3  172.43    5.07
   2   5  -3  166.90    4.90
   2   5  -3  168.97    4.95
   1  -5  -3  192.34    5.66
  -1  -5   3  199.67    5.73
   1  -5  -3  198.18    5.76
   1  -5  -3  201.62    5.88
  -1  -5   3  192.73    5.79
   1  -5  -3  208.67    5.79
   1  -5  -3  197.22    5.76
   1  -5  -3  198.36    5.86
  -1  -5   3  179.58    5.79
  -1  -5   3  196.17    5.74
  -1  -5   3  204.55    5.83
   1  -5  -3  198.50    5.71
   1  -5  -3  199.29    5.79
  -1  -5   3  205.05    5.77
  -1  -5   3  193.04    5.68
   1   5  -3  200.03    5.71
  -1   5   3  208.37    5.93
  -1   5   3  197.48    5.63
   1   5  -3  200.95    5.77
   1   5  -3  198.59    5.75
   1   5  -3  201.60    5.73
  -1   5   3  194.55    5.71
  -1   5   3  199.45    5.87
   1   5  -3  202.82    5.85
   1   5  -3  199.36    5.73
  -1   5   3  197.02    5.58
  -1   5   3  196.01    5.77
   1   5  -3  205.82    5.74
  -1   5   3  194.62    5.80
   1   5  -3  203.46    5.89
  -1   5   3  198.76    5.79
  -1   5   3  207.49    5.77
   1   5  -3  193.64    5.71
  -1   5   3  198.48    5.78
   0  -5  -3   78.99    2.58
   0  -5  -3   81.52    2.61
   0  -5   3   80.70    2.55
   0  -5   3   81.84    2.53
   0  -5  -3   91.23    2.47
   0  -5  -3   78.14    2.62
   0  -5   3   82.35    2.48
   0  -5  -3   80.44    2.49
   0  -5  -3   85.36    2.57
   0  -5   3   82.89    2.64
   0  -5  -3   83.01    2.45
   0  -5   3   81.38    2.61
   0  -5   3   83.55    2.56
   0  -5   3   80.53    2.48
   0   5   3   82.92    2.55
   0   5  -3   81.55    2.64
   0   5  -3   78.03    2.52
   0   5  -3   81.39    2.49
   0   5   3   77.95    2.48
   0   5   3   84.49    2.57
   0   5  -3   83.12    2.53
   0   5  -3   82.49    2.68
   0   5   3   77.93    2.51
   0   5   3   81.30    2.43
   0   5   3   84.57    2.54
   0   5  -3   79.64    2.48
   0   5   3   79.68    2.65
   0   5   3   82.67    2.43
   0   5   3   80.31    2.51
  -1  -5  -3  282.18    7.87
  -1  -5  -3  262.18    7.74
   1  -5   3  266.51    7.77
   1  -5   3  279.60    7.90
  -1  -5  -3  288.29    7.89
   1  -5   3  287.10    7.84
   1  -5   3  276.13    7.86
  -1  -5  -3  269.94    7.88
  -1  -5  -3  265.04    7.94
   1  -5   3  277.41    7.78
   1  -5   3  289.67    8.03
  -1  -5  -3  282.34    7.92
   1  -5   3  292.10    7.93
  -1  -5  -3  247.59    7.78
  -1   5  -3  279.46    7.91
   1   5   3  278.19    7.95
   1   5   3  275.51    7.85
   1   5   3  274.48    7.86
  -1   5  -3  277.64    8.03
  -1   5  -3  259.46    7.89
   1   5   3  282.88    8.01
  -1   5  -3  281.02    7.89
  -1   5  -3  272.18    7.93
   1   5   3  287.32    7.85
  -1   5  -3  261.68    7.78
  -1   5  -3  270.19    7.82
   1   5   3  272.30    7.75
   1   5   3  271.36    7.73
   1   5   3  285.66    7.96
  -1   5  -3  293.43    8.03
   1   5   3  279.69    7.97
   2  -5   3   68.02    2.34
  -2  -5  -3   69.65    2.20
   2  -5   3   70.57    2.26
   2  -5   3   68.62    2.06
  -2  -5  -3   73.62    2.28
  -2  -5  -3   71.99    2.22
   2  -5   3   69.40    2.10
  -2  -5  -3   69.78    2.10
  -2  -5  -3   68.67    2.21
   2  -5   3   70.03    2.38
  -2  -5  -3   71.72    2.08
   2  -5   3   67.43    2.31
   2   5   3   72.59    2.34
   2   5   3   71.45    2.34
   2   5   3   69.76    2.06
  -2   5  -3   71.36    2.24
   2   5   3   67.70    2.29
  -2   5  -3   70.80    2.03
   2   5   3   70.47    2.06
  -2   5  -3   68.33    2.21
  -2   5  -3   70.00    2.27
  -2   5  -3   67.86    2.35
   2   5   3   68.99    2.16
  -2   5  -3   67.63    2.35
   2   5   3   70.09    2.39
  -3  -5  -3   92.52    2.74
  -3  -5  -3   92.54    2.82
   3  -5   3   91.16    3.16
   3  -5   3   91.63    2.70
   3  -5   3   92.25    2.95
  -3  -5  -3   91.68    2.94
  -3  -5  -3   95.22    2.83
   3  -5   3   94.22    3.04
   3   5   3   95.58    2.95
  -3   5  -3   92.62    2.93
   3   5   3   95.51    3.03
   3   5   3   90.86    2.92
  -3   5  -3   89.75    3.24
   3   5   3   85.50    2.67
  -3   5  -3   89.18    3.03
   3   5   3   92.19    3.11
   3   5   3   90.14    2.68
  -4  -5  -3   69.90    2.41
   4  -5   3   67.50    2.39
   4  -5   3   67.42    2.73
   4  -5   3   66.43    2.42
  -4  -5  -3   66.65    2.14
   4   5   3   66.14    2.61
   4   5   3   66.46    2.23
  -4   5  -3   68.26    2.31
   4   5   3   69.54    2.47
  -4   5  -3   65.92    2.49
   4  -6  -3   21.07    1.25
   4  -6  -3   21.29    1.14
  -4  -6   3   22.81    1.07
   4  -6  -3   21.25    1.42
  -4  -6   3   21.79    0.97
  -4  -6   3   20.47    1.28
  -4   6   3   21.11    1.09
  -4   6   3   22.55    1.30
   4   6  -3   22.50    1.09
   4   6  -3   22.32    1.32
   4   6  -3   21.80    1.12
  -4   6   3   19.93    1.12
   3  -6  -3  282.46    8.02
   3  -6  -3  269.31    8.01
  -3  -6   3  272.51    7.78
  -3  -6   3  265.59    7.91
   3  -6  -3  270.04    7.80
  -3  -6   3  266.51    7.76
   3   6  -3  272.53    7.90
   3   6  -3  268.19    7.77
   3   6  -3  275.77    7.98
  -3   6   3  264.15    7.86
  -3   6   3  267.15    7.92
  -2  -6   3   43.37    1.53
   2  -6  -3   42.74    1.51
  -2  -6   3   42.73    1.51
   2  -6  -3   40.88    1.73
   2  -6  -3   42.41    1.68
  -2  -6   3   42.36    1.58
   2  -6  -3   42.84    1.63
  -2  -6   3   43.31    1.60
  -2  -6   3   40.91    1.49
  -2   6   3   45.38    1.57
   2   6  -3   41.07    1.49
   2   6  -3   43.31    1.63
  -2   6   3   42.72    1.59
  -2   6   3   42.79    1.58
   2   6  -3   40.81    1.68
   2   6  -3   42.43    1.64
  -2   6   3   42.78    1.58
  -1  -6   3  319.49    9.21
  -1  -6   3  321.36    9.15
  -1  -6   3  332.29    9.33
   1  -6  -3  331.10    9.39
   1  -6  -3  336.78    9.27
   1  -6  -3  335.26    9.37
   1  -6  -3  324.80    9.20
   1  -6  -3  310.97    9.17
  -1  -6   3  323.12    9.21
  -1  -6   3  313.65    9.24
   1  -6  -3  331.74    9.28
   1  -6  -3  325.60    9.21
   1   6  -3  320.62    9.24
  -1   6   3  309.39    9.36
  -1   6   3  328.90    9.24
   1   6  -3  325.07    9.40
  -1   6   3  315.67    9.02
  -1   6   3  320.95    9.09
  -1   6   3  342.20    9.45
  -1   6   3  329.94    9.26
  -1   6   3  310.47    9.24
   1   6  -3  321.52    9.23
  -1   6   3  318.24    9.18
   1   6  -3  313.20    9.17
   1   6  -3  321.03    9.35
   0  -6   3   77.16    2.38
   0  -6   3   78.75    2.45
   0  -6  -3   77.03    2.65
   0  -6  -3   78.26    2.55
   0  -6   3   77.76    2.52
   0  -6  -3   80.99    2.43
   0  -6   3   75.38    2.61
   0  -6  -3   77.85    2.47
   0  -6  -3   79.35    2.54
   0  -6   3   81.23    2.46
   0  -6   3   77.17    2.62
   0  -6   3   82.82    2.33
   0  -6  -3   76.79    2.60
   0  -6   3   81.22    2.56
   0  -6  -3   82.04    2.40
   0   6   3   77.73    2.45
   0   6   3   81.38    2.42
   0   6   3   80.93    2.70
   0   6   3   72.94    2.62
   0   6  -3   77.62    2.54
   0   6   3   77.31    2.49
   0   6  -3   77.74    2.45
   0   6  -3   77.35    2.69
   0   6   3   78.07    2.40
   0   6  -3   81.13    2.48
   0   6  -3   83.54    2.52
   0   6   3   78.52    2.51
   0   6  -3   80.13    2.66
   0   6   3   80.59    2.55
   0   6   3   79.81    2.53
   1  -6   3  306.79    8.42
   1  -6   3  292.84    8.50
   1  -6   3  308.06    8.54
  -1  -6  -3  296.85    8.56
   1  -6   3  289.80    8.40
  -1  -6  -3  305.03    8.52
   1  -6   3  303.49    8.64
   1  -6   3  311.95    8.57
  -1  -6  -3  292.84    8.51
   1  -6   3  306.72    8.67
  -1  -6  -3  310.20    8.31
   1  -6   3  293.55    8.38
   1  -6   3  283.06    8.60
  -1  -6  -3  281.51    8.41
   1   6   3  302.51    8.63
  -1   6  -3  291.56    8.43
  -1   6  -3  292.30    8.54
   1   6   3  293.02    8.33
   1   6   3  302.52    8.58
  -1   6  -3  306.62    8.42
  -1   6  -3  286.45    8.55
   1   6   3  310.13    8.68
   1   6   3  289.07    8.48
  -1   6  -3  305.67    8.52
  -1   6  -3  309.31    8.68
   1   6   3  283.97    8.64
  -1   6  -3  275.64    8.66
   1   6   3  281.17    8.31
   2  -6   3   33.30    1.11
   2  -6   3   33.05    1.31
   2  -6   3   31.86    1.10
  -2  -6  -3   32.12    1.26
   2  -6   3   32.71    1.29
   2  -6   3   30.46    1.42
  -2  -6  -3   32.97    0.97
  -2  -6  -3   32.73    1.30
   2  -6   3   31.87    1.40
   2  -6   3   32.80    1.45
  -2  -6  -3   34.09    1.32
  -2  -6  -3   31.84    1.14
   2   6   3   33.79    1.36
   2   6   3   32.02    1.44
   2   6   3   30.65    1.20
   2   6   3   32.08    1.00
   2   6   3   30.13    1.36
  -2   6  -3   32.23    1.07
  -2   6  -3   32.42    1.40
  -2   6  -3   27.83    1.22
  -2   6  -3   32.29    1.32
   2   6   3   32.36    1.41
   2   6   3   32.94    1.07
  -2   6  -3   31.74    1.38
  -2   6  -3   34.03    1.50
   3  -6   3  227.46    6.50
   3  -6   3  236.35    6.71
   3  -6   3  222.89    6.83
  -3  -6  -3  220.41    6.71
  -3  -6  -3  221.36    6.59
   3  -6   3  227.23    6.91
  -3   6  -3  219.49    6.69
   3   6   3  238.42    6.92
   3   6   3  231.11    6.78
  -3   6  -3  222.67    6.83
   3   6   3  227.82    6.74
   3  -7  -3  245.94    7.08
   3  -7  -3  246.38    7.29
  -3  -7   3  230.20    7.09
  -3  -7   3  244.16    7.22
   3  -7  -3  253.52    7.35
  -3  -7   3  235.80    7.05
  -3   7   3  242.58    7.22
   3   7  -3  243.59    7.26
   3   7  -3  244.09    7.05
  -3   7   3  229.22    7.14
  -3   7   3  244.10    7.18
   3   7  -3  243.47    7.23
  -2  -7   3   25.13    1.14
   2  -7  -3   26.31    1.23
  -2  -7   3   26.52    1.17
  -2  -7   3   26.85    1.26
   2  -7  -3   26.80    1.15
   2   7  -3   28.35    1.35
   2   7  -3   27.25    1.26
  -2   7   3   25.00    1.22
   2   7  -3   27.49    1.13
  -2   7   3   25.44    1.20
  -1  -7   3  431.96   12.16
  -1  -7   3  434.74   12.22
  -1  -7   3  411.66   12.25
   1  -7  -3  431.00   12.16
   1  -7  -3  408.98   12.39
  -1  -7   3  439.66   12.37
   1  -7  -3  426.11   12.16
   1  -7  -3  422.30   12.29
   1  -7  -3  435.52   12.40
   1  -7  -3  423.55   12.17
   1   7  -3  430.16   12.25
  -1   7   3  405.54   12.26
  -1   7   3  479.47   13.42
   1   7  -3  436.02   12.42
   1   7  -3  428.79   12.24
  -1   7   3  440.35   12.26
  -1   7   3  441.49   12.28
  -1   7   3  415.25   12.07
  -1   7   3  428.29   12.09
   1   7  -3  430.68   12.18
  -1   7   3  447.72   12.50
   0  -7  -3   30.60    1.21
   0  -7   3   29.68    1.18
   0  -7   3   28.89    1.37
   0  -7   3   30.27    1.28
   0  -7   3   29.68    1.04
   0  -7  -3   28.79    1.31
   0  -7  -3   31.68    1.31
   0  -7  -3   31.35    1.07
   0  -7  -3   29.92    1.27
   0  -7   3   31.89    1.04
   0  -7   3   29.24    1.28
   0  -7   3   30.13    1.17
   0   7  -3   26.62    1.46
   0   7   3   29.35    1.09
   0   7  -3   28.53    1.26
   0   7   3   31.52    1.15
   0   7   3   30.31    1.44
   0   7   3   30.69    1.28
   0   7  -3   31.75    1.21
   0   7   3   30.09    1.21
   0   7  -3   29.48    1.19
   0   7  -3   30.03    1.40
   0   7   3   29.74    1.45
   1  -7   3  297.07    9.04
  -1  -7  -3  320.91    9.14
   1  -7   3  324.34    9.12
   1  -7   3  318.25    9.18
  -1  -7  -3  319.99    9.18
   1  -7   3  313.15    9.11
   1  -7   3  321.98    9.34
   1  -7   3  325.05    9.02
   1  -7   3  307.92    9.00
  -1  -7  -3  315.24    9.07
   1  -7   3  308.54    9.30
  -1   7  -3  308.11    9.19
  -1   7  -3  327.14    9.38
   1   7   3  305.69    9.33
   1   7   3  318.39    9.23
   1   7   3  327.89    9.22
  -1   7  -3  328.51    9.18
   1   7   3  312.41    8.97
  -1   7  -3  332.63    9.06
  -1   7  -3  330.15    9.18
  -2  -7  -3   56.40    2.01
   2  -7   3   56.17    1.81
   2  -7   3   55.60    2.10
   2  -7   3   57.48    2.22
  -2  -7  -3   55.37    2.05
   2  -7   3   59.27    2.04
   2   7   3   57.55    2.11
  -2   7  -3   57.24    2.10
  -2   7  -3   52.53    2.03
  -2   7  -3   57.17    1.97
   2   7   3   58.15    2.19
   2   7   3   57.27    2.20
   2   7   3   55.13    1.77
   3  -7   3  160.44    5.01
  -3  -7  -3  152.75    4.72
   3  -7   3  158.89    5.02
   3  -7   3  152.94    4.78
  -3  -7  -3  147.17    4.84
  -3   7  -3  155.60    4.99
   3   7   3  155.62    4.89
  -3   7  -3  157.73    4.83
   3   7   3  155.91    5.04
   3   7   3  156.63    4.90
  -2  -8   3  225.56    6.64
  -2  -8   3  224.22    6.71
  -2  -8   3  222.68    6.66
   2  -8  -3  228.09    6.68
   2  -8  -3  224.97    6.88
  -2   8   3  226.90    6.70
   2   8  -3  220.36    6.86
   2   8  -3  226.94    6.76
   2   8  -3  221.15    6.58
  -2   8   3  226.09    6.74
  -2   8   3  222.91    6.74
   1  -8  -3   62.85    2.08
   1  -8  -3   58.65    2.35
  -1  -8   3   63.74    2.25
  -1  -8   3   62.34    2.21
   1  -8  -3   64.14    2.16
  -1  -8   3   65.57    2.16
   1  -8  -3   60.67    2.31
  -1   8   3   59.09    2.25
   1   8  -3   64.18    2.24
  -1   8   3   61.66    2.17
   1   8  -3   65.40    2.17
   1   8  -3   61.07    2.42
  -1   8   3   64.15    2.24
  -1   8   3   61.12    2.47
   0  -8   3  270.39    7.93
   0  -8  -3  275.74    7.84
   0  -8   3  271.92    7.80
   0  -8   3  265.59    7.79
   0   8   3  261.67    7.85
   0   8  -3  277.90    7.83
   0   8   3  263.82    7.75
   0   8  -3  274.64    8.14
   0   8  -3  265.81    7.83
   0   8   3  272.45    7.91
  -1  -8  -3   73.59    2.66
   1  -8   3   78.84    2.58
  -1  -8  -3   79.92    2.63
   1  -8   3   75.52    2.52
   1  -8   3   76.44    2.58
   1  -8   3   76.21    2.84
   1   8   3   78.34    2.89
  -1   8  -3   80.21    2.67
   1   8   3   78.48    2.45
  -1   8  -3   83.94    2.52
  -1   8  -3   73.73    2.67
   1   8   3   74.89    2.70
   1   8   3   77.18    2.67
  -2  -8  -3  158.82    4.95
   2  -8   3  163.99    5.20
   2  -8   3  164.97    4.94
   2  -8   3  158.48    4.98
  -2  -8  -3  159.40    5.00
  -2   8  -3  155.54    5.00
  -2   8  -3  162.37    5.06
   2   8   3  157.91    5.02
   2   8   3  165.89    5.15
   2   8   3  163.43    5.18
   5   0  -4   78.53    2.59
  -5   0   4   82.42    2.41
   5   0  -4   78.32    2.72
   5   0  -4   78.28    2.49
  -5   0   4   83.33    2.66
  -5   0   4   77.84    2.30
   5   0  -4   81.23    2.86
   5   0  -4   78.86    2.31
   4   0  -4  521.77   14.65
   4   0  -4  513.81   14.64
   4   0  -4  519.50   14.65
  -4   0   4  529.40   14.68
   4   0  -4  526.17   14.92
   4   0  -4  528.82   14.61
   4   0  -4  539.85   14.89
  -4   0   4  533.00   14.80
  -3   0   4  209.98    5.83
   3   0  -4  208.93    5.84
  -3   0   4  210.98    5.95
   3   0  -4  206.58    5.98
   3   0  -4  211.04    5.95
  -3   0   4  210.26    5.81
   3   0  -4  204.82    5.80
   3   0  -4  211.46    6.03
   3   0  -4  211.94    5.89
   3   0  -4  209.97    5.92
   3   0  -4  206.72    5.78
  -3   0   4  200.68    6.06
   3   0  -4  206.25    5.76
  -3   0   4  203.05    5.81
   3   0  -4  199.63    5.76
   3   0  -4  204.00    5.83
  -3   0   4  208.71    5.86
  -3   0   4  200.36    5.80
   1   0  -4  319.12    8.81
  -1   0   4  309.66    8.80
   1   0   4  187.21    5.19
   1   0   4  187.46    5.13
  -1   0  -4  183.36    5.18
   1   0   4  184.96    5.18
  -1   0  -4  183.54    5.14
   1   0   4  183.57    5.15
  -1   0  -4  187.02    5.18
  -1   0  -4  179.91    5.18
  -1   0  -4  164.85    5.11
   1   0   4  182.60    5.15
   1   0   4  179.89    5.13
   3   0   4  117.48    3.48
   3   0   4  117.10    3.31
   3   0   4  112.09    3.32
   3   0   4  116.96    3.54
   3   0   4  112.81    3.34
   3   0   4  116.72    3.37
   3   0   4  111.24    3.45
   3   0   4  114.29    3.32
  -3   0  -4  116.41    3.35
  -3   0  -4  115.89    3.29
  -3   0  -4  113.36    3.31
  -3   0  -4  117.42    3.57
   4   0   4  335.39    9.49
  -4   0  -4  351.38    9.87
   4   0   4  328.71    9.53
  -4   0  -4  326.05    9.44
   4   0   4  351.91    9.80
   4   0   4  348.75    9.50
   4   0   4  327.60    9.52
  -4   0  -4  344.81    9.42
   4   0   4  333.24    9.44
   5   0   4   66.27    2.26
   5   0   4   65.95    2.47
   5   0   4   64.15    2.33
   5  -1  -4  139.14    4.25
   5  -1  -4  132.83    3.90
   5  -1  -4  136.30    4.38
  -5  -1   4  133.36    3.75
   5  -1  -4  130.17    3.96
   5  -1  -4  129.99    3.83
  -5   1   4  131.26    3.81
   5   1  -4  134.49    4.17
   5   1  -4  130.68    3.94
  -5   1   4  132.92    4.10
  -5   1   4  133.57    3.84
   5   1  -4  134.87    4.24
  -4  -1   4  383.39   10.98
   4  -1  -4  400.89   11.11
   4  -1  -4  393.45   11.06
  -4  -1   4  364.08   11.59
   4  -1  -4  414.39   11.31
   4  -1  -4  396.04   11.07
  -4  -1   4  403.99   11.15
   4  -1  -4  396.34   11.05
   4  -1  -4  389.67   11.00
  -4  -1   4  392.65   10.99
   4  -1  -4  402.64   11.06
   4   1  -4  394.74   11.05
   4   1  -4  397.10   11.27
   4   1  -4  394.42   11.04
   4   1  -4  390.53   11.01
  -4   1   4  390.03   11.02
  -4   1   4  392.54   11.03
   4   1  -4  422.61   11.30
  -4   1   4  398.26   11.19
   4   1  -4  395.33   10.99
   4   1  -4  391.87   11.11
   3  -1  -4  225.97    6.34
   3  -1  -4  224.27    6.27
   3  -1  -4  220.02    6.24
  -3  -1   4  226.26    6.35
  -3  -1   4  225.87    6.22
   3  -1  -4  224.38    6.50
  -3  -1   4  229.05    6.26
   3  -1  -4  231.79    6.31
  -3  -1   4  218.71    6.21
  -3  -1   4  221.24    6.46
  -3  -1   4  227.42    6.39
   3  -1  -4  230.89    6.24
   3  -1  -4  228.18    6.39
  -3  -1   4  218.21    6.24
   3  -1  -4  220.34    6.22
   3   1  -4  225.68    6.24
   3   1  -4  225.45    6.38
   3   1  -4  221.93    6.40
  -3   1   4  225.57    6.24
  -3   1   4  218.76    6.55
  -3   1   4  232.03    6.30
   3   1  -4  224.06    6.31
  -3   1   4  190.06    6.44
   3   1  -4  223.41    6.41
  -3   1   4  225.28    6.38
  -3   1   4  214.39    6.28
   3   1  -4  219.85    6.18
   3   1  -4  211.74    6.17
   3   1  -4  221.73    6.27
   3   1  -4  225.35    6.39
   3   1  -4  220.19    6.19
   3   1  -4  229.41    6.32
  -3   1   4  225.56    6.27
   1  -1  -4  254.83    7.26
  -1  -1   4  261.91    7.23
   1  -1  -4  256.46    7.26
  -1  -1   4  243.57    7.26
   1  -1  -4  261.47    7.27
  -1  -1   4  254.66    7.24
   1  -1  -4  258.65    7.24
   1   1  -4  265.63    7.27
  -1   1   4  255.14    7.16
  -1   1   4  258.12    7.29
  -1   1   4  264.74    7.27
   1  -1   4  358.91    9.61
  -1  -1  -4  322.70    9.56
  -1  -1  -4  346.89    9.60
  -1   1  -4  346.44    9.59
  -1   1  -4  336.14    9.56
  -1   1  -4  341.94    9.54
  -2  -1  -4  613.34   16.68
  -2   1  -4  586.00   16.72
   2   1   4  601.07   16.75
   3  -1   4  206.76    5.95
   3  -1   4  219.07    6.23
   3  -1   4  210.29    5.94
   3  -1   4  207.34    6.05
  -3  -1  -4  214.07    5.99
   3  -1   4  214.93    6.10
  -3  -1  -4  205.80    6.00
   3  -1   4  215.27    6.14
   3  -1   4  227.10    6.00
   3  -1   4  211.05    6.05
  -3  -1  -4  214.01    6.25
   3   1   4  205.26    6.09
   3   1   4  219.24    6.23
   3   1   4  243.45    6.49
   3   1   4  213.19    6.06
   3   1   4  212.94    6.02
   3   1   4  207.85    5.99
   3   1   4  209.05    6.05
  -3   1  -4  213.02    6.01
  -3   1  -4  215.31    6.01
  -3   1  -4  216.15    6.29
  -3   1  -4  206.18    6.20
   3   1   4  208.17    6.12
  -3   1  -4  215.34    6.08
  -3   1  -4  209.11    6.03
   3   1   4  210.76    6.03
  -4  -1  -4  286.79    8.32
   4  -1   4  283.67    8.04
   4  -1   4  287.82    7.98
   4  -1   4  301.96    8.29
  -4  -1  -4  272.79    7.91
   4  -1   4  288.47    8.14
  -4  -1  -4  283.46    7.90
   4  -1   4  270.31    7.95
   4   1   4  283.26    8.10
   4   1   4  272.02    7.94
   4   1   4  300.30    8.31
  -4   1  -4  270.43    7.97
  -4   1  -4  287.37    7.95
   4   1   4  275.82    7.99
   4   1   4  288.32    8.04
  -4   1  -4  282.56    8.36
   4   1   4  278.27    8.03
   4   1   4  293.99    8.25
  -4   1  -4  290.51    8.09
   4   1   4  274.27    7.91
   5  -1   4   64.14    1.95
   5  -1   4   68.81    2.30
   5  -1   4   62.72    1.99
   5  -1   4   60.91    2.74
   5  -1   4   68.78    2.49
   5   1   4   67.21    2.43
   5   1   4   66.32    2.49
  -5   1  -4   65.38    1.99
  -5   1  -4   66.76    1.94
   5  -2  -4  263.91    7.75
  -5  -2   4  257.15    7.23
   5  -2  -4  257.71    7.46
   5  -2  -4  260.30    7.50
   5  -2  -4  252.99    7.38
  -5  -2   4  245.57    7.22
   5  -2  -4  264.30    7.90
   5   2  -4  261.53    7.75
   5   2  -4  272.65    7.64
  -5   2   4  270.04    7.59
  -5   2   4  257.80    7.35
   5   2  -4  256.98    7.61
   4  -2  -4  149.16    4.37
   4  -2  -4  138.95    4.12
   4  -2  -4  147.78    4.29
   4  -2  -4  146.72    4.60
  -4  -2   4  152.06    4.41
  -4  -2   4  146.01    4.19
   4  -2  -4  151.90    4.31
   4  -2  -4  142.17    4.14
   4  -2  -4  143.66    4.11
  -4   2   4  146.40    4.37
   4   2  -4  150.54    4.42
   4   2  -4  148.69    4.25
  -4   2   4  149.10    4.26
   4   2  -4  147.33    4.38
  -4   2   4  148.53    4.20
   4   2  -4  147.00    4.17
   4   2  -4  145.43    4.24
   4   2  -4  142.77    4.37
   4   2  -4  146.58    4.21
  -4   2   4  150.17    4.27
   3  -2  -4  654.11   17.89
   3  -2  -4  619.96   17.85
   3  -2  -4  648.24   17.95
   3  -2  -4  643.27   17.94
   3  -2  -4  654.46   18.10
   3   2  -4  660.17   17.80
  -3   2   4  672.67   17.91
  -3   2   4  664.43   17.89
  -3   2   4  624.03   17.92
   3   2  -4  623.42   17.92
   3   2  -4  620.38   17.95
   3   2  -4  636.44   17.89
  -2  -2   4  130.95    3.84
   2  -2  -4  134.34    3.89
   2  -2  -4  133.53    3.77
   2  -2  -4  131.11    3.86
  -2  -2   4  131.62    3.79
  -2  -2   4  135.57    3.83
   2  -2  -4  136.89    3.84
   2  -2  -4  130.86    3.68
   2  -2  -4  133.09    3.82
   2  -2  -4  135.25    3.95
  -2  -2   4  131.26    3.80
   2  -2  -4  138.24    3.82
  -2  -2   4  128.90    3.77
  -2  -2   4  132.91    3.70
  -2  -2   4  134.16    3.85
   2  -2  -4  133.41    3.82
  -2  -2   4  133.25    3.88
   2   2  -4  128.58    3.70
   2   2  -4  129.90    3.82
  -2   2   4  131.82    3.80
   2   2  -4  130.48    3.76
  -2   2   4  129.28    3.81
   2   2  -4  128.67    3.84
   2   2  -4  132.48    3.78
   2   2  -4  134.06    3.79
  -2   2   4  132.19    3.85
  -2   2   4  130.80    3.86
  -2   2   4  137.33    3.89
  -2   2   4  130.88    3.68
  -2   2   4  130.55    3.83
  -2   2   4  131.09    3.99
   2   2  -4  132.80    3.85
   2   2  -4  132.01    3.82
   2   2  -4  135.07    3.87
   0  -2  -4   63.68    1.92
   0  -2  -4   65.71    1.94
   0  -2   4   64.09    1.89
   0  -2   4   62.87    1.91
   0  -2   4   65.29    1.92
   0  -2  -4   64.48    1.92
   0  -2   4   64.21    1.87
   0  -2  -4   64.31    1.97
   0  -2  -4   62.49    1.81
   0  -2  -4   56.20    1.94
   0  -2   4   60.39    1.93
   0  -2  -4   66.32    1.91
   0  -2  -4   64.82    1.92
   0  -2   4   64.95    1.89
   0  -2  -4   63.76    1.87
   0  -2   4   60.16    1.98
   0   2  -4   61.96    1.83
   0   2   4   64.78    1.87
   0   2  -4   56.02    1.96
   0   2  -4   66.17    1.99
   0   2   4   62.65    1.90
   0   2   4   66.07    1.91
   0   2  -4   66.93    1.91
   0   2  -4   63.67    1.88
   0   2  -4   64.72    1.89
   0   2   4   67.00    1.99
   0   2  -4   64.58    1.92
   0   2   4   61.44    1.81
   0   2   4   65.92    1.91
   0   2  -4   61.63    1.90
   0   2   4   65.74    1.92
   0   2   4   65.36    1.95
   0   2   4   67.49    1.92
  -2  -2  -4  181.57    5.27
   2  -2   4  180.49    5.31
   2  -2   4  177.66    5.20
   2  -2   4  182.85    5.23
   2  -2   4  179.76    5.26
   2  -2   4  186.93    5.31
   2  -2   4  191.03    5.22
  -2  -2  -4  179.35    5.29
   2  -2   4  186.13    5.23
   2  -2   4  187.64    5.32
  -2  -2  -4  184.73    5.18
  -2  -2  -4  186.04    5.19
  -2  -2  -4  180.36    5.21
  -2  -2  -4  184.24    5.33
  -2  -2  -4  182.03    5.20
  -2   2  -4  185.28    5.29
  -2   2  -4  181.12    5.35
   2   2   4  177.92    5.14
  -2   2  -4  190.63    5.29
  -2   2  -4  176.47    5.23
  -2   2  -4  182.86    5.21
   2   2   4  180.52    5.21
  -2   2  -4  183.41    5.27
  -2   2  -4  183.42    5.25
   2   2   4  187.52    5.27
   2   2   4  180.16    5.15
   2   2   4  182.79    5.27
   2   2   4  184.46    5.35
   2   2   4  188.18    5.29
   2   2   4  187.99    5.22
  -3  -2  -4  427.89   11.99
   3  -2   4  412.33   11.78
  -3  -2  -4  426.97   11.94
   3  -2   4  425.64   11.86
   3  -2   4  431.04   12.00
   3  -2   4  422.29   11.92
   3  -2   4  426.10   11.87
   3  -2   4  419.41   11.86
  -3   2  -4  416.14   11.85
  -3   2  -4  433.17   11.85
  -3   2  -4  406.42   11.84
  -3   2  -4  417.83   12.07
  -3   2  -4  432.36   11.90
  -3   2  -4  433.58   11.97
   3   2   4  422.02   11.84
   3   2   4  431.35   12.03
   3   2   4  428.01   11.81
   3   2   4  416.36   11.86
   3   2   4  416.15   11.92
  -4  -2  -4   84.06    3.07
   4  -2   4   90.15    2.73
   4  -2   4   89.06    2.80
   4  -2   4   90.64    2.96
  -4  -2  -4   92.60    2.61
  -4  -2  -4   88.51    2.60
   4  -2   4   90.94    2.78
   4   2   4   93.12    3.01
   4   2   4   89.65    2.85
   4   2   4   91.73    2.68
   4   2   4   86.64    2.64
   4   2   4   88.97    2.63
  -4   2  -4   90.37    2.72
  -4   2  -4   91.79    2.68
   5  -2   4  175.29    5.41
   5  -2   4  190.01    5.76
   5  -2   4  194.78    5.60
   5  -2   4  185.77    6.11
   5   2   4  187.04    5.78
   5   2   4  190.16    5.78
   5   2   4  178.30    5.90
  -5   2  -4  189.26    5.57
  -5   2  -4  184.92    5.38
   5   2   4  188.91    5.60
   5  -3  -4  347.14   10.05
   5  -3  -4  335.60    9.58
  -5  -3   4  344.36    9.75
   5  -3  -4  330.30    9.56
  -5  -3   4  332.15    9.36
  -5  -3   4  320.06    9.35
  -5   3   4  339.12    9.68
   5   3  -4  354.24    9.92
   5   3  -4  352.09    9.71
   5   3  -4  324.49    9.37
  -5   3   4  337.21    9.51
   5   3  -4  318.94    9.37
   4  -3  -4   22.11    0.93
   4  -3  -4   21.95    1.07
   4  -3  -4   23.57    0.97
  -4  -3   4   23.02    0.82
  -4  -3   4   22.54    1.07
   4  -3  -4   21.89    0.83
  -4  -3   4   22.59    0.80
   4  -3  -4   23.53    1.28
   4   3  -4   21.89    0.95
   4   3  -4   21.94    0.99
  -4   3   4   22.63    1.00
  -4   3   4   22.62    0.92
   4   3  -4   23.51    1.16
  -4   3   4   22.76    0.91
   4   3  -4   21.67    0.90
  -4   3   4   21.83    1.03
   4   3  -4   22.93    0.88
   4   3  -4   25.40    0.82
  -4   3   4   21.82    0.89
   4   3  -4   22.32    0.90
   4   3  -4   21.67    0.92
   3  -3  -4  786.32   22.18
   3  -3  -4  783.41   22.06
  -3  -3   4  786.71   22.05
   3  -3  -4  785.51   21.95
  -3   3   4  825.97   22.04
  -3   3   4  785.70   22.04
  -3   3   4  802.37   22.00
  -3   3   4  784.99   21.97
   3   3  -4  778.80   22.10
  -2  -3   4   94.19    2.75
  -2  -3   4   89.33    2.70
   2  -3  -4   91.73    2.77
  -2  -3   4   89.36    2.71
   2  -3  -4   95.89    2.84
  -2  -3   4   90.03    2.79
   2  -3  -4   90.49    2.77
   2  -3  -4   95.14    2.87
   2  -3  -4   91.91    2.73
   2  -3  -4   96.43    2.76
   2  -3  -4   93.35    2.75
  -2  -3   4   94.15    2.75
  -2  -3   4   92.95    2.79
   2  -3  -4   96.50    2.90
  -2  -3   4   94.50    2.83
  -2  -3   4   93.26    2.65
   2   3  -4   94.30    2.78
   2   3  -4   89.78    2.65
   2   3  -4   87.74    2.64
  -2   3   4   90.17    2.83
   2   3  -4   91.38    2.78
  -2   3   4   94.39    2.78
  -2   3   4   91.68    2.78
  -2   3   4   90.13    2.93
   2   3  -4   92.53    2.79
  -2   3   4   92.05    2.77
  -2   3   4   93.86    2.78
   2   3  -4   92.87    2.84
   2   3  -4   97.75    2.79
   2   3  -4   91.99    2.72
   2   3  -4   91.31    2.82
   2   3  -4   93.30    2.70
  -2   3   4   93.21    2.79
   0  -3   4  173.27    4.90
   0  -3   4  164.17    4.86
   0  -3   4  168.10    4.95
   0  -3   4  167.75    4.98
   0  -3   4  169.47    4.87
   0  -3  -4  176.35    4.95
   0  -3  -4  173.23    4.87
   0  -3  -4  170.24    4.93
   0  -3   4  168.90    4.92
   0  -3  -4  169.01    4.79
   0  -3   4  173.68    4.92
   0  -3  -4  171.73    4.90
   0  -3  -4  174.27    4.92
   0  -3  -4  174.30    4.91
   0  -3  -4  169.81    4.97
   0   3  -4  176.15    4.91
   0   3   4  172.31    4.90
   0   3   4  171.28    4.95
   0   3  -4  167.68    4.91
   0   3  -4  173.36    4.92
   0   3   4  168.84    4.90
   0   3  -4  174.71    4.97
   0   3  -4  172.79    4.85
   0   3   4  169.94    4.86
   0   3  -4  170.29    4.89
   0   3  -4  171.49    4.86
   0   3   4  168.40    4.90
   0   3   4  174.15    4.85
   0   3   4  178.61    4.91
   0   3  -4  171.61    5.00
   0   3  -4  167.89    4.82
   0   3   4  174.35    5.00
   0   3  -4  171.95    4.89
   0   3   4  169.94    4.91
  -2  -3  -4   52.54    1.50
   2  -3   4   47.87    1.62
   2  -3   4   48.21    1.47
  -2  -3  -4   46.89    1.46
   2  -3   4   46.26    1.57
   2  -3   4   46.07    1.56
  -2  -3  -4   43.14    1.64
   2  -3   4   45.02    1.49
  -2  -3  -4   43.63    1.49
  -2  -3  -4   48.40    1.55
   2  -3   4   45.91    1.56
   2  -3   4   47.53    1.51
   2  -3   4   48.58    1.53
  -2  -3  -4   46.34    1.46
  -2  -3  -4   47.38    1.53
  -2   3  -4   44.82    1.58
   2   3   4   44.31    1.32
  -2   3  -4   45.90    1.62
  -2   3  -4   48.07    1.55
   2   3   4   48.46    1.65
   2   3   4   45.85    1.32
   2   3   4   46.04    1.57
   2   3   4   46.05    1.57
   2   3   4   46.45    1.49
   2   3   4   46.31    1.55
   2   3   4   44.40    1.41
  -2   3  -4   45.36    1.56
  -2   3  -4   43.72    1.60
  -2   3  -4   46.59    1.52
   2   3   4   46.54    1.45
   2   3   4   46.04    1.44
   2   3   4   47.46    1.52
  -2   3  -4   47.70    1.58
   3  -3   4  565.39   16.44
  -3  -3  -4  603.77   16.35
   3  -3   4  593.99   16.22
  -3  -3  -4  595.72   16.09
  -3  -3  -4  508.03   16.42
   3  -3   4  579.84   16.22
   3  -3   4  585.41   16.32
  -3   3  -4  598.93   16.25
  -3   3  -4  581.37   16.54
   3   3   4  564.49   16.47
   3   3   4  577.91   17.02
  -3   3  -4  608.96   16.36
   3   3   4  591.70   16.22
   3   3   4  594.92   16.37
   3   3   4  593.71   16.25
  -3   3  -4  581.85   16.34
  -4  -3  -4   24.56    0.87
   4  -3   4   25.54    1.09
   4  -3   4   24.68    1.12
   4  -3   4   27.31    1.24
  -4  -3  -4   23.14    1.12
   4  -3   4   24.60    0.99
  -4  -3  -4   25.00    1.15
  -4  -3  -4   24.44    0.87
  -4   3  -4   24.74    1.13
   4   3   4   23.91    0.93
   4   3   4   24.98    1.32
  -4   3  -4   24.52    1.01
   4   3   4   24.94    1.15
   4   3   4   25.83    0.89
   4   3   4   23.84    0.93
  -5  -4   4   52.91    1.76
   5  -4  -4   61.28    2.31
  -5  -4   4   53.27    2.18
   5  -4  -4   55.48    2.02
   5  -4  -4   61.12    3.31
  -5   4   4   61.42    2.21
  -5   4   4   63.33    2.96
   5   4  -4   55.64    1.87
   5   4  -4   57.04    2.09
  -5   4   4   57.19    2.06
   5   4  -4   52.96    1.81
  -4  -4   4  289.33    8.20
   4  -4  -4  295.37    8.39
   4  -4  -4  271.32    8.42
  -4  -4   4  278.85    8.17
   4  -4  -4  300.76    8.64
  -4  -4   4  289.35    8.44
   4   4  -4  298.08    8.53
   4   4  -4  303.64    8.35
   4   4  -4  279.09    8.28
   4   4  -4  278.91    8.12
   4   4  -4  284.65    8.26
  -4   4   4  299.23    8.36
  -4   4   4  296.87    8.31
  -4   4   4  292.12    8.44
   3  -4  -4  103.12    3.08
  -3  -4   4   98.42    3.19
   3  -4  -4  100.54    3.23
   3  -4  -4  113.39    3.23
   3  -4  -4  101.78    3.09
  -3  -4   4  104.34    2.99
  -3  -4   4  102.61    3.04
  -3  -4   4  100.82    3.05
   3   4  -4  103.70    3.27
   3   4  -4  105.26    3.12
   3   4  -4  100.27    2.97
  -3   4   4  102.22    3.20
   3   4  -4  101.78    2.92
   3   4  -4   99.29    3.00
   3   4  -4  102.26    2.98
  -3   4   4  100.17    3.12
   3   4  -4   96.89    3.15
  -3   4   4  105.60    3.13
   3   4  -4  104.38    3.15
  -3   4   4   93.21    3.15
   2  -4  -4  480.84   13.47
  -2  -4   4  485.98   13.55
  -2  -4   4  470.32   13.50
   2  -4  -4  493.08   13.64
   2  -4  -4  483.63   13.49
  -2  -4   4  495.05   13.55
   2  -4  -4  487.35   13.63
   2  -4  -4  493.71   13.61
  -2  -4   4  447.16   13.57
  -2  -4   4  504.87   13.41
   2  -4  -4  501.78   13.55
   2  -4  -4  497.08   13.48
   2  -4  -4  500.71   13.54
  -2  -4   4  479.90   13.59
  -2   4   4  464.14   13.55
  -2   4   4  479.93   13.61
   2   4  -4  481.59   13.55
   2   4  -4  468.88   13.40
   2   4  -4  482.20   13.60
  -2   4   4  473.41   13.68
   2   4  -4  472.10   13.46
  -2   4   4  484.38   13.53
   2   4  -4  487.41   13.50
   2   4  -4  471.04   13.44
  -2   4   4  479.60   13.52
  -2   4   4  498.15   13.66
  -2   4   4  481.05   13.52
   2   4  -4  455.72   13.50
   2   4  -4  482.63   13.59
  -2   4   4  499.56   13.53
   2   4  -4  472.24   13.53
  -1  -4   4  194.73    5.75
   1  -4  -4  198.09    5.98
  -1  -4   4  201.35    5.70
   1  -4  -4  198.26    5.73
  -1  -4   4  206.74    5.79
  -1  -4   4  180.30    5.57
   1  -4  -4  204.69    5.74
  -1  -4   4  196.07    5.62
  -1  -4   4  197.05    5.70
   1  -4  -4  196.93    5.61
  -1  -4   4  200.29    5.68
   1  -4  -4  195.22    5.65
   1  -4  -4  195.50    5.70
   1  -4  -4  202.01    5.72
  -1  -4   4  195.53    5.74
   1   4  -4  201.02    5.81
  -1   4   4  201.93    5.72
   1   4  -4  198.94    5.67
   1   4  -4  200.96    5.71
   1   4  -4  197.26    5.69
  -1   4   4  199.54    5.71
   1   4  -4  191.80    5.63
  -1   4   4  204.12    5.80
  -1   4   4  209.77    5.85
   1   4  -4  202.72    5.77
   1   4  -4  202.14    5.68
  -1   4   4  194.56    5.65
  -1   4   4  202.80    5.72
  -1   4   4  195.83    5.77
  -1   4   4  196.75    5.58
  -1   4   4  196.41    5.55
   1   4  -4  198.45    5.68
   1   4  -4  192.21    5.67
   0  -4  -4  544.28   15.36
   0  -4  -4  544.52   15.44
   0  -4   4  540.99   15.42
   0  -4  -4  572.66   15.47
   0  -4   4  569.73   15.42
   0  -4  -4  557.09   15.49
   0  -4   4  562.25   15.50
   0  -4   4  548.70   15.46
   0  -4  -4  558.48   15.40
   0   4   4  527.91   15.46
   0   4   4  545.59   15.36
   0   4   4  550.14   15.38
   0   4  -4  562.08   15.49
   0   4  -4  544.72   15.37
   0   4  -4  529.23   15.37
   0   4   4  558.62   15.43
   0   4   4  574.66   15.53
   0   4  -4  544.60   15.52
  -1  -4  -4  158.47    4.54
   1  -4   4  160.22    4.53
   1  -4   4  156.33    4.55
   1  -4   4  160.76    4.55
   1  -4   4  158.38    4.48
   1  -4   4  163.56    4.68
  -1  -4  -4  151.62    4.39
  -1  -4  -4  159.68    4.56
   1  -4   4  165.16    4.59
   1  -4   4  155.44    4.62
  -1  -4  -4  138.43    4.49
  -1  -4  -4  157.90    4.54
   1  -4   4  155.95    4.56
  -1  -4  -4  156.69    4.67
  -1  -4  -4  158.65    4.62
  -1   4  -4  161.72    4.56
  -1   4  -4  159.72    4.65
   1   4   4  160.08    4.61
  -1   4  -4  132.79    4.42
   1   4   4  157.85    4.61
  -1   4  -4  155.23    4.57
  -1   4  -4  153.19    4.59
   1   4   4  160.20    4.53
   1   4   4  159.32    4.54
   1   4   4  156.57    4.50
  -1   4  -4  161.47    4.69
  -1   4  -4  157.56    4.54
   1   4   4  151.52    4.47
  -1   4  -4  155.38    4.56
   1   4   4  163.13    4.66
   1   4   4  157.44    4.53
  -1   4  -4  154.41    4.59
  -1   4  -4  150.19    4.38
   1   4   4  160.35    4.63
   1   4   4  152.94    4.37
   2  -4   4  419.75   11.81
  -2  -4  -4  414.59   11.64
   2  -4   4  410.84   11.71
  -2  -4  -4  415.89   11.64
   2  -4   4  450.26   11.83
  -2  -4  -4  420.35   11.64
   2  -4   4  412.54   11.59
  -2  -4  -4  409.60   11.65
   2  -4   4  418.81   11.76
   2  -4   4  392.37   11.66
  -2  -4  -4  420.04   11.70
   2   4   4  413.46   11.81
   2   4   4  421.78   11.76
   2   4   4  409.68   11.57
   2   4   4  408.91   11.70
   2   4   4  428.42   11.76
  -2   4  -4  398.75   11.75
  -2   4  -4  428.80   11.68
  -2   4  -4  410.68   11.70
  -2   4  -4  422.10   11.70
  -2   4  -4  409.66   11.77
   2   4   4  397.48   11.58
   3  -4   4   77.83    2.47
  -3  -4  -4   79.50    2.48
  -3  -4  -4   81.62    2.34
   3  -4   4   76.90    2.56
   3  -4   4   83.26    2.64
  -3  -4  -4   79.91    2.43
  -3  -4  -4   81.10    2.43
   3  -4   4   80.73    2.40
   3  -4   4   80.99    2.59
  -3  -4  -4   79.16    2.56
  -3   4  -4   80.07    2.62
  -3   4  -4   81.44    2.53
   3   4   4   74.96    2.28
   3   4   4   76.22    2.68
   3   4   4   81.21    2.53
   3   4   4   78.66    2.29
   3   4   4   80.86    2.29
   3   4   4   71.64    2.70
   3   4   4   79.37    2.39
  -3   4  -4   76.99    2.54
  -3   4  -4   79.47    2.47
  -3   4  -4   81.86    2.61
   3   4   4   79.94    2.51
   4  -4   4  180.86    5.76
   4  -4   4  177.59    5.42
   4  -4   4  178.26    5.18
  -4  -4  -4  180.58    5.18
  -4  -4  -4  176.90    5.16
  -4  -4  -4  184.66    5.43
  -4   4  -4  185.13    5.49
   4   4   4  170.87    5.23
   4   4   4  184.24    5.62
  -4   4  -4  185.85    5.33
   4   4   4  178.79    5.45
   4   4   4  174.46    5.23
  -4  -5   4  285.49    8.15
   4  -5  -4  283.94    8.40
   4  -5  -4  286.98    8.26
   4  -5  -4  291.45    8.60
  -4  -5   4  276.86    8.15
  -4  -5   4  282.86    8.43
   4   5  -4  290.37    8.50
   4   5  -4  285.95    8.27
  -4   5   4  286.48    8.43
   4   5  -4  283.31    8.27
  -4   5   4  300.06    8.34
  -4   5   4  290.45    8.31
  -3  -5   4   30.01    1.30
  -3  -5   4   30.03    1.15
   3  -5  -4   28.08    1.35
  -3  -5   4   29.85    1.14
  -3  -5   4   32.94    1.15
   3  -5  -4   30.43    1.31
   3  -5  -4   29.97    1.22
  -3  -5   4   31.75    1.10
   3  -5  -4   31.65    1.41
   3   5  -4   31.67    1.35
   3   5  -4   32.52    1.26
   3   5  -4   30.02    1.09
  -3   5   4   30.51    1.23
   3   5  -4   29.60    1.18
   3   5  -4   29.51    1.09
   3   5  -4   30.03    1.32
  -3   5   4   32.33    1.24
  -3   5   4   30.36    1.32
  -3   5   4   31.69    1.29
  -3   5   4   30.66    1.20
  -2  -5   4  452.20   12.87
   2  -5  -4  449.29   12.83
   2  -5  -4  466.53   13.01
  -2  -5   4  486.16   12.94
   2  -5  -4  455.14   13.02
   2  -5  -4  468.21   12.92
  -2  -5   4  459.61   12.92
   2  -5  -4  462.89   12.98
  -2  -5   4  449.31   12.79
  -2  -5   4  454.98   12.84
   2   5  -4  452.36   12.95
  -2   5   4  431.01   12.89
   2   5  -4  459.00   12.85
  -2   5   4  464.20   12.90
   2   5  -4  440.90   12.99
   2   5  -4  461.19   12.78
  -2   5   4  469.56   12.92
  -2   5   4  455.76   12.89
   2   5  -4  463.58   12.96
   2   5  -4  449.55   12.84
  -2   5   4  456.14   13.05
   1  -5  -4   66.73    2.26
  -1  -5   4   69.78    2.09
  -1  -5   4   68.75    2.18
  -1  -5   4   70.19    2.25
  -1  -5   4   66.11    2.22
   1  -5  -4   68.81    2.31
   1  -5  -4   70.13    2.22
   1  -5  -4   63.67    2.10
   1  -5  -4   65.38    2.16
   1  -5  -4   63.35    2.17
  -1  -5   4   66.42    1.96
   1  -5  -4   69.84    2.20
  -1  -5   4   70.30    2.16
   1  -5  -4   68.39    2.07
  -1  -5   4   70.67    2.17
  -1   5   4   67.76    2.04
  -1   5   4   68.74    2.19
  -1   5   4   66.84    2.23
   1   5  -4   67.16    2.14
   1   5  -4   69.30    2.32
  -1   5   4   61.88    2.16
  -1   5   4   69.78    2.18
  -1   5   4   69.94    2.33
  -1   5   4   67.94    2.11
   1   5  -4   66.98    2.25
   1   5  -4   66.99    2.15
   1   5  -4   71.21    2.24
  -1   5   4   72.21    2.21
   1   5  -4   65.48    2.13
   1   5  -4   65.23    2.11
   1   5  -4   67.31    2.17
   1   5  -4   66.98    2.16
  -1   5   4   67.93    2.29
   0  -5  -4  478.37   13.70
   0  -5   4  488.09   13.69
   0  -5  -4  477.85   13.85
   0  -5   4  498.99   13.87
   0  -5   4  516.11   14.02
   0  -5  -4  504.04   13.78
   0  -5   4  480.38   13.73
   0  -5  -4  494.18   13.68
   0  -5   4  496.54   13.78
   0  -5   4  497.59   13.62
   0  -5  -4  505.70   13.94
   0  -5  -4  496.18   13.82
   0  -5   4  483.46   13.82
   0  -5  -4  504.78   13.64
   0  -5   4  481.53   13.68
   0  -5  -4  496.27   13.76
   0   5  -4  473.00   13.63
   0   5   4  472.82   13.72
   0   5  -4  478.74   13.64
   0   5   4  489.02   13.71
   0   5  -4  483.48   13.73
   0   5  -4  503.01   13.75
   0   5   4  495.80   13.78
   0   5   4  503.82   13.76
   0   5  -4  470.18   13.69
   0   5   4  474.10   13.72
   0   5   4  481.97   13.89
   0   5  -4  501.82   13.75
   0   5  -4  491.95   13.90
   0   5   4  490.43   13.74
   0   5   4  492.97   13.86
   0   5  -4  491.36   13.69
   0   5  -4  488.68   13.86
   0   5  -4  484.41   13.76
   0   5   4  476.70   13.64
   1  -5   4   62.74    1.88
   1  -5   4   61.81    2.10
  -1  -5  -4   59.59    1.94
  -1  -5  -4   55.46    1.86
   1  -5   4   62.13    1.99
   1  -5   4   61.83    1.92
  -1  -5  -4   53.36    1.92
  -1  -5  -4   62.37    1.99
  -1  -5  -4   61.01    1.96
   1  -5   4   61.55    1.95
  -1  -5  -4   58.56    1.98
   1  -5   4   59.20    1.99
   1   5   4   61.22    1.87
  -1   5  -4   58.52    1.93
   1   5   4   62.48    2.03
  -1   5  -4   61.60    2.09
   1   5   4   60.10    2.05
   1   5   4   59.28    2.08
  -1   5  -4   58.06    1.98
   1   5   4   59.16    1.78
  -1   5  -4   61.63    2.00
  -1   5  -4   64.85    2.16
   1   5   4   61.21    1.94
   1   5   4   59.95    2.03
  -1   5  -4   59.93    1.84
  -1   5  -4   59.28    1.95
  -1   5  -4   61.29    1.97
   1   5   4   58.02    1.92
   2  -5   4  369.72   10.77
  -2  -5  -4  391.64   10.81
  -2  -5  -4  340.91   10.94
  -2  -5  -4  397.43   10.76
  -2  -5  -4  389.51   10.67
   2  -5   4  394.01   10.82
   2  -5   4  377.89   10.65
  -2  -5  -4  399.02   10.77
   2  -5   4  397.32   10.95
  -2   5  -4  379.80   10.79
  -2   5  -4  398.24   10.93
   2   5   4  389.91   10.85
   2   5   4  367.35   10.54
   2   5   4  347.02   10.98
  -2   5  -4  394.76   10.79
   2   5   4  375.24   10.62
  -2   5  -4  381.91   10.82
   2   5   4  381.07   11.21
   2   5   4  377.05   10.69
  -2   5  -4  361.87   10.90
   3  -5   4   19.99    0.79
  -3  -5  -4   19.24    1.00
  -3  -5  -4   19.32    0.80
   3  -5   4   20.08    1.02
   3  -5   4   19.16    1.07
  -3  -5  -4   19.47    0.88
  -3  -5  -4   19.70    0.84
  -3   5  -4   19.95    0.96
   3   5   4   19.20    0.98
   3   5   4   19.55    0.72
   3   5   4   20.26    1.17
   3   5   4   19.63    1.06
   3   5   4   18.74    0.97
  -3   5  -4   18.60    1.09
  -4  -5  -4  196.12    5.77
   4  -5   4  201.83    6.36
   4  -5   4  204.48    6.04
   4  -5   4  200.34    6.06
  -4  -5  -4  201.35    6.03
  -4   5  -4  204.35    6.15
   4   5   4  199.82    6.23
  -4   5  -4  194.40    5.92
   4   5   4  193.19    5.86
   4   5   4  197.35    6.05
  -4  -6   4   78.85    2.58
   4  -6  -4   80.43    2.67
  -4  -6   4   79.25    2.87
   4  -6  -4   81.40    2.85
  -4   6   4   79.96    2.74
   4   6  -4   77.95    2.71
   4   6  -4   82.37    2.93
   4   6  -4   80.68    2.67
  -4   6   4   80.40    2.87
  -4   6   4   86.07    2.79
  -3  -6   4   77.14    2.52
   3  -6  -4   76.76    2.74
  -3  -6   4   77.28    2.68
   3  -6  -4   77.08    2.76
  -3  -6   4   80.90    2.51
   3  -6  -4   75.40    2.53
  -3   6   4   78.26    2.66
   3   6  -4   81.29    2.56
  -3   6   4   79.62    2.64
   3   6  -4   79.01    2.72
  -3   6   4   82.43    2.66
   3   6  -4   78.53    2.66
   2  -6  -4  223.72    6.39
  -2  -6   4  215.88    6.34
  -2  -6   4  222.54    6.33
   2  -6  -4  216.85    6.47
  -2  -6   4  208.77    6.23
  -2  -6   4  210.01    6.20
  -2  -6   4  223.40    6.30
   2  -6  -4  217.78    6.35
   2  -6  -4  210.71    6.42
   2  -6  -4  216.29    6.23
  -2   6   4  219.77    6.50
  -2   6   4  209.36    6.29
  -2   6   4  218.51    6.32
   2   6  -4  209.54    6.44
   2   6  -4  217.82    6.36
   2   6  -4  213.26    6.24
  -2   6   4  211.39    6.28
   2   6  -4  214.92    6.39
   2   6  -4  204.16    6.23
   2   6  -4  211.05    6.19
   1  -6  -4   47.48    1.69
   1  -6  -4   47.49    1.62
  -1  -6   4   45.85    1.64
  -1  -6   4   44.65    1.73
   1  -6  -4   45.74    1.83
  -1  -6   4   45.77    1.72
   1  -6  -4   42.29    1.52
   1  -6  -4   47.89    1.72
   1  -6  -4   47.82    1.77
  -1  -6   4   48.01    1.57
  -1   6   4   49.52    1.67
  -1   6   4   46.81    1.51
  -1   6   4   49.09    1.69
  -1   6   4   48.34    1.60
  -1   6   4   45.60    1.66
   1   6  -4   45.59    1.65
   1   6  -4   47.35    1.85
  -1   6   4   47.76    1.45
   1   6  -4   46.22    1.63
  -1   6   4   48.75    1.85
   1   6  -4   47.59    1.77
   1   6  -4   46.98    1.65
  -1   6   4   42.97    1.70
  -1   6   4   45.42    1.80
   0  -6  -4  325.52    9.01
   0  -6   4  319.08    9.05
   0  -6   4  313.59    9.21
   0  -6  -4  309.61    9.24
   0  -6  -4  330.45    9.22
   0  -6   4  315.32    9.04
   0  -6  -4  337.15    9.01
   0  -6   4  312.48    9.12
   0  -6  -4  333.30    9.15
   0  -6   4  326.88    9.26
   0  -6   4  338.45    9.18
   0  -6   4  327.20    8.94
   0  -6  -4  318.57    9.15
   0   6   4  314.41    9.10
   0   6  -4  309.36    9.00
   0   6  -4  318.02    9.11
   0   6   4  310.58    8.98
   0   6   4  311.80    9.24
   0   6   4  327.16    9.31
   0   6  -4  320.86    9.06
   0   6  -4  314.13    9.13
   0   6  -4  313.48    9.30
   0   6   4  311.80    9.08
   0   6   4  278.96    9.55
   0   6   4  313.21    9.06
   0   6   4  327.95    9.14
   0   6  -4  335.59    9.29
   0   6   4  315.75    8.99
  -1  -6  -4   56.16    1.93
   1  -6   4   53.83    2.03
  -1  -6  -4   53.58    1.87
  -1  -6  -4   52.15    1.74
  -1  -6  -4   55.56    1.87
   1  -6   4   56.25    1.80
  -1  -6  -4   55.33    1.92
   1  -6   4   56.98    1.78
  -1  -6  -4   59.99    1.74
   1  -6   4   52.06    1.94
   1  -6   4   54.10    1.90
   1   6   4   57.92    2.06
   1   6   4   54.05    1.85
  -1   6  -4   60.10    1.95
   1   6   4   54.27    1.75
  -1   6  -4   50.91    1.83
  -1   6  -4   50.30    2.11
   1   6   4   56.92    1.95
   1   6   4   55.27    2.02
   1   6   4   54.48    1.95
  -1   6  -4   56.89    1.76
  -1   6  -4   56.65    2.04
  -1   6  -4   53.24    1.90
   1   6   4   54.04    1.69
  -2  -6  -4  145.29    4.41
   2  -6   4  145.81    4.70
   2  -6   4  147.98    4.26
  -2  -6  -4  149.24    4.46
  -2  -6  -4  148.62    4.19
   2  -6   4  153.99    4.44
   2  -6   4  149.37    4.44
   2   6   4  144.50    4.15
  -2   6  -4  146.01    4.52
  -2   6  -4  151.94    4.61
   2   6   4  147.60    4.55
   2   6   4  152.94    4.59
  -2   6  -4  127.49    4.37
  -2   6  -4  139.90    4.47
  -2   6  -4  141.07    4.14
   2   6   4  148.86    4.51
  -3  -6  -4   70.17    2.33
   3  -6   4   71.15    2.17
   3  -6   4   74.81    2.46
   3  -6   4   69.47    2.57
   3  -6   4   70.06    2.67
  -3  -6  -4   67.55    2.45
   3   6   4   70.83    2.50
   3   6   4   71.27    2.47
  -3   6  -4   67.48    2.41
  -3   6  -4   65.54    2.55
   3   6   4   69.85    2.63
   3  -7  -4  116.76    3.80
   3  -7  -4  116.67    3.85
  -3  -7   4  113.60    3.73
  -3  -7   4  111.03    3.58
   3  -7  -4  117.30    3.58
  -3  -7   4  114.09    3.57
  -3   7   4  114.02    3.69
   3   7  -4  117.53    3.75
   3   7  -4  111.01    3.75
  -3   7   4  103.36    3.67
   3   7  -4  117.12    3.59
  -3   7   4  115.71    3.72
   2  -7  -4   15.42    0.93
  -2  -7   4   14.02    0.92
  -2  -7   4   15.04    0.97
  -2  -7   4   17.39    0.91
   2  -7  -4   14.53    1.07
   2  -7  -4   15.30    0.85
  -2   7   4   15.09    0.96
   2   7  -4   15.56    1.04
  -2   7   4   14.87    1.04
  -2   7   4   15.08    0.91
   2   7  -4   14.94    0.96
   2   7  -4   14.63    0.86
   1  -7  -4  228.58    6.71
   1  -7  -4  222.43    6.62
   1  -7  -4  225.92    6.47
   1  -7  -4  230.79    6.49
  -1  -7   4  214.45    7.06
  -1  -7   4  216.82    6.51
   1  -7  -4  207.96    6.73
  -1  -7   4  229.25    6.47
  -1   7   4  234.55    6.82
  -1   7   4  220.44    6.37
  -1   7   4  227.73    6.59
  -1   7   4  229.87    6.57
  -1   7   4  205.89    6.61
   1   7  -4  222.92    6.54
   1   7  -4  221.74    6.49
  -1   7   4  223.05    6.58
   0  -7  -4   12.37    0.82
   0  -7   4   11.84    0.89
   0  -7  -4    9.98    0.88
   0  -7  -4   10.79    0.63
   0  -7   4   11.01    0.57
   0  -7   4   11.30    0.79
   0  -7  -4   10.21    0.71
   0  -7   4   11.23    0.71
   0  -7  -4   11.86    0.58
   0  -7  -4   11.30    0.83
   0  -7   4   10.66    0.78
   0  -7   4   10.22    0.66
   0   7  -4   11.76    0.75
   0   7   4   11.08    0.63
   0   7   4   10.65    1.06
   0   7  -4   11.88    1.11
   0   7   4   10.73    0.71
   0   7  -4   11.51    0.89
   0   7   4   11.14    0.91
   0   7   4   10.56    0.76
   0   7   4   11.58    0.79
   0   7  -4   11.35    0.67
  -1  -7  -4  169.40    5.27
   1  -7   4  170.13    5.11
  -1  -7  -4  169.77    5.22
   1  -7   4  184.18    5.33
   1  -7   4  176.98    5.29
   1  -7   4  175.78    5.43
  -1  -7  -4  185.81    5.00
   1  -7   4  178.00    5.21
   1  -7   4  167.56    5.20
   1   7   4  170.35    5.03
  -1   7  -4  192.14    5.31
  -1   7  -4  173.38    5.43
   1   7   4  171.32    5.44
   1   7   4  169.95    5.30
  -1   7  -4  186.26    5.12
  -1   7  -4  166.60    5.28
   1   7   4  172.36    5.29
  -2  -7  -4   23.68    1.24
   2  -7   4   24.32    1.00
   2  -7   4   24.23    1.28
   2  -7   4   25.66    1.19
   2  -7   4   26.57    1.41
  -2  -7  -4   22.70    1.18
  -2   7  -4   24.51    1.30
   2   7   4   24.14    1.25
  -2   7  -4   25.80    1.24
   2   7   4   23.83    1.32
   2   7   4   25.33    1.36
   3  -7   4   74.47    2.87
  -3  -7  -4   75.06    2.57
  -3  -7  -4   71.49    2.69
   3  -7   4   75.73    2.72
   3  -7   4   79.06    2.86
  -3   7  -4   73.25    2.65
  -3   7  -4   72.25    2.83
   3   7   4   75.00    2.89
   3   7   4   78.97    2.76
   3   7   4   75.95    2.74
  -2  -8   4    0.57    0.40
  -2  -8   4    0.14    0.54
   2  -8  -4   -0.26    0.42
   2  -8  -4   -0.40    0.48
  -2  -8   4    0.74    0.45
   2  -8  -4    0.73    0.41
  -2   8   4    0.56    0.49
  -2   8   4    0.32    0.51
   2   8  -4    0.14    0.48
   1  -8  -4  169.36    5.27
  -1  -8   4  168.04    5.11
  -1  -8   4  172.85    5.04
   1  -8  -4  167.78    4.99
   1  -8  -4  162.68    5.04
   1  -8  -4  166.48    5.31
  -1  -8   4  167.81    5.14
   1   8  -4  172.87    5.14
  -1   8   4  163.78    5.18
  -1   8   4  172.70    5.18
   1   8  -4  178.27    5.09
   1   8  -4  168.05    5.35
  -1   8   4  160.91    5.04
  -1   8   4  169.18    5.50
   0  -8  -4    0.36    0.46
   0  -8   4    0.71    0.33
   0  -8   4    1.34    0.40
   0  -8   4    1.52    0.45
   0   8  -4    1.49    0.40
   0   8   4    1.16    0.50
   0   8   4    0.85    0.44
   0   8  -4    1.14    0.50
   0   8  -4    1.80    0.47
   0   8   4    0.67    0.54
  -1  -8  -4  180.88    5.46
   1  -8   4  176.54    5.32
   1  -8   4  180.08    5.41
   1  -8   4  189.69    5.98
  -1  -8  -4  174.15    5.52
   1  -8   4  200.06    6.28
   1   8   4  175.35    5.50
   1   8   4  183.70    5.75
   1   8   4  175.11    5.53
  -1   8  -4  184.48    5.50
  -1   8  -4  171.16    5.68
  -2  -8  -4    1.03    0.44
   2  -8   4    0.99    0.55
   2  -8   4    0.87    0.50
   2  -8   4    0.61    0.52
   2   8   4    1.18    0.65
  -2   8  -4    0.23    0.69
  -2   8  -4    1.20    0.51
   2   8   4    0.24    0.45
   5   0  -5   -0.45    0.43
   5   0  -5    0.07    0.42
  -5   0   5    0.24    0.13
  -5   0   5    0.15    0.14
   5   0  -5    0.20    0.16
   5   0  -5    0.05    0.23
   5   0  -5    0.02    0.51
  -5   0   5    0.42    0.42
  -4   0   5    0.47    0.13
   4   0  -5    0.91    0.40
   4   0  -5    0.98    0.36
  -4   0   5    0.64    0.21
   4   0  -5    0.76    0.20
   4   0  -5    0.35    0.15
   4   0  -5    0.52    0.21
  -4   0   5    0.46    0.12
   4   0  -5    0.36    0.23
  -3   0   5    0.33    0.28
   3   0  -5    0.78    0.17
  -3   0   5    0.48    0.14
   3   0  -5    0.25    0.21
  -3   0   5    0.06    0.18
   3   0  -5    0.60    0.22
   3   0  -5    0.35    0.11
  -3   0   5    0.10    0.13
   3   0  -5   -0.11    0.19
   3   0  -5    0.40    0.12
  -3   0   5    0.10    0.13
   3   0  -5    0.16    0.23
   3   0  -5    0.14    0.11
   2   0  -5    0.32    0.15
   2   0  -5    0.83    0.18
  -2   0   5    0.24    0.10
  -2   0   5    0.38    0.10
  -2   0   5    0.63    0.14
  -2   0   5    0.90    0.19
   2   0  -5    0.23    0.15
  -2   0   5    0.53    0.21
   2   0  -5    0.23    0.16
  -2   0   5    0.55    0.13
   2   0  -5    0.22    0.09
  -2   0   5    0.24    0.11
  -1   0   5    0.27    0.10
  -1   0   5    0.51    0.16
  -1   0   5    0.54    0.13
  -1   0   5    0.39    0.13
   1   0  -5    0.54    0.11
   1   0  -5    0.20    0.14
   0   0  -5    0.21    0.09
   0   0  -5    0.19    0.09
   0   0   5    0.18    0.11
   0   0  -5    0.45    0.10
   0   0   5    0.27    0.08
   0   0   5    0.19    0.10
   0   0   5    0.42    0.10
   0   0  -5    0.19    0.12
   0   0  -5    0.19    0.11
   0   0  -5    0.38    0.09
   0   0  -5    0.23    0.11
   0   0   5    0.47    0.12
   0   0   5    0.38    0.12
   0   0  -5    0.61    0.14
   0   0   5    0.25    0.09
  -1   0  -5    0.29    0.08
   1   0   5    0.32    0.15
  -1   0  -5    0.18    0.13
   1   0   5    0.07    0.10
   1   0   5    0.02    0.11
   1   0   5    0.00    0.09
   1   0   5    0.18    0.10
   1   0   5    0.01    0.11
   1   0   5    0.15    0.08
  -1   0  -5    0.03    0.12
   1   0   5    0.24    0.08
  -1   0  -5    0.08    0.09
  -1   0  -5    0.17    0.11
  -1   0  -5    0.33    0.17
  -2   0  -5    0.18    0.09
  -2   0  -5    0.34    0.15
   2   0   5    0.27    0.12
  -2   0  -5    0.22    0.11
   2   0   5    0.60    0.21
  -2   0  -5    0.66    0.22
   2   0   5    0.30    0.16
   2   0   5    0.45    0.12
   2   0   5    0.08    0.16
   2   0   5    0.56    0.23
  -2   0  -5    0.19    0.12
  -2   0  -5    0.75    0.25
  -3   0  -5    0.13    0.10
  -3   0  -5    0.26    0.13
  -3   0  -5    0.03    0.12
  -3   0  -5    0.28    0.28
   3   0   5    0.30    0.15
   3   0   5    0.02    0.13
   3   0   5    0.27    0.10
   3   0   5    0.13    0.24
  -3   0  -5    0.23    0.15
   3   0   5    0.10    0.16
   3   0   5   -0.08    0.28
   3   0   5    0.17    0.16
   3   0   5    0.06    0.15
   4   0   5    0.36    0.18
   4   0   5    0.68    0.41
  -4   0  -5    0.29    0.14
   4   0   5    0.56    0.22
  -4   0  -5    0.84    0.41
  -4   0  -5    0.35    0.16
   5   0   5    0.10    0.52
   5   0   5    0.01    0.16
  -5   0  -5    0.20    0.13
   5   0   5    0.34    0.64
  -5   0  -5    0.07    0.17
   5  -1  -5   63.68    2.43
   5  -1  -5   57.93    2.15
   5  -1  -5   60.44    1.93
   5  -1  -5   60.73    2.03
  -5  -1   5   63.15    1.87
   5  -1  -5   62.94    2.31
  -5   1   5   61.20    1.92
  -5   1   5   62.90    2.18
   5   1  -5   62.20    2.27
  -5   1   5   62.06    1.89
   5   1  -5   62.82    2.25
  -4  -1   5   30.16    1.14
   4  -1  -5   30.53    1.00
   4  -1  -5   29.92    1.04
  -4  -1   5   29.53    0.98
   4  -1  -5   30.52    1.02
   4  -1  -5   30.05    1.07
   4  -1  -5   29.77    1.27
   4  -1  -5   30.83    1.37
  -4  -1   5   31.66    1.23
   4  -1  -5   29.59    1.14
  -4  -1   5   30.81    1.01
  -4   1   5   30.10    1.03
   4   1  -5   30.50    1.09
  -4   1   5   32.16    1.05
  -4   1   5   29.61    0.96
   4   1  -5   30.81    1.25
   4   1  -5   28.66    1.11
   4   1  -5   29.36    0.99
  -4   1   5   28.51    1.26
   4   1  -5   29.03    1.24
   4   1  -5   29.87    1.03
   4   1  -5   29.20    1.00
   3  -1  -5  140.70    4.13
   3  -1  -5  145.92    4.12
  -3  -1   5  141.59    4.10
  -3  -1   5  144.53    4.05
   3  -1  -5  133.28    4.04
  -3  -1   5  143.48    4.14
  -3  -1   5  139.81    4.27
   3  -1  -5  140.76    4.17
  -3  -1   5  144.72    4.18
  -3  -1   5  146.71    4.07
   3  -1  -5  145.45    4.24
   3  -1  -5  146.49    4.29
   3  -1  -5  141.32    4.07
  -3  -1   5  135.18    4.03
   3  -1  -5  144.48    4.17
   3  -1  -5  143.32    4.01
   3   1  -5  139.76    4.01
   3   1  -5  144.92    4.20
   3   1  -5  143.78    4.15
   3   1  -5  140.12    4.00
   3   1  -5  137.52    3.95
   3   1  -5  140.69    4.17
  -3   1   5  132.12    4.09
  -3   1   5  134.49    4.34
  -3   1   5  142.96    4.03
   3   1  -5  142.07    4.09
   3   1  -5  144.67    4.10
   3   1  -5  144.45    4.19
  -3   1   5  143.60    4.09
  -3   1   5  142.09    4.07
   3   1  -5  137.51    4.16
  -3   1   5  148.62    4.12
   3   1  -5  138.07    3.93
  -3   1   5  141.47    4.17
   2  -1  -5   50.20    1.58
   2  -1  -5   49.90    1.56
   2  -1  -5   51.11    1.54
   2  -1  -5   51.96    1.59
  -2  -1   5   50.87    1.59
   2  -1  -5   49.19    1.45
   2  -1  -5   50.21    1.61
  -2  -1   5   52.07    1.55
   2  -1  -5   50.64    1.63
  -2  -1   5   47.90    1.61
   2  -1  -5   51.21    1.55
  -2  -1   5   49.46    1.56
   2  -1  -5   50.06    1.66
   2  -1  -5   49.78    1.48
  -2  -1   5   49.72    1.59
  -2  -1   5   48.93    1.54
  -2  -1   5   48.41    1.65
  -2  -1   5   50.25    1.52
   2   1  -5   50.61    1.53
  -2   1   5   49.90    1.49
   2   1  -5   50.22    1.51
   2   1  -5   49.59    1.59
  -2   1   5   45.92    1.68
   2   1  -5   49.83    1.61
   2   1  -5   50.58    1.55
  -2   1   5   50.58    1.61
  -2   1   5   51.40    1.59
  -2   1   5   50.03    1.59
   2   1  -5   49.04    1.57
  -2   1   5   50.94    1.55
   2   1  -5   49.95    1.56
  -2   1   5   49.16    1.47
   2   1  -5   51.18    1.59
   1  -1  -5  222.63    6.38
   1  -1  -5  225.73    6.37
   1  -1  -5  230.23    6.32
  -1  -1   5  225.09    6.33
  -1  -1   5  222.38    6.35
  -1  -1   5  229.01    6.35
   1  -1  -5  219.66    6.32
   1  -1  -5  228.24    6.30
  -1  -1   5  209.11    6.31
  -1  -1   5  217.55    6.38
   1  -1  -5  224.31    6.30
   1  -1  -5  233.99    6.34
  -1  -1   5  222.89    6.40
   1  -1  -5  226.44    6.41
  -1  -1   5  215.93    6.35
   1  -1  -5  231.83    6.35
  -1   1   5  223.62    6.42
   1   1  -5  224.71    6.31
   1   1  -5  225.89    6.36
   1   1  -5  226.47    6.41
   1   1  -5  222.08    6.32
  -1   1   5  220.80    6.34
   1   1  -5  229.56    6.33
   1   1  -5  231.79    6.34
  -1   1   5  223.04    6.37
   1   1  -5  224.29    6.32
  -1   1   5  228.93    6.42
   1   1  -5  230.24    6.32
  -1   1   5  225.76    6.29
   0  -1   5  123.40    3.71
   0  -1  -5  133.88    3.78
   0  -1   5  128.48    3.74
   0  -1   5  131.17    3.78
   0  -1  -5  129.78    3.65
   0  -1  -5  126.53    3.66
   0  -1   5  129.32    3.68
   0  -1  -5  131.17    3.74
   0  -1  -5  134.72    3.76
   0  -1   5  129.67    3.74
   0  -1   5  132.15    3.76
   0  -1   5  128.64    3.76
   0  -1  -5  131.90    3.76
   0  -1  -5  129.98    3.70
   0  -1   5  135.81    3.83
   0  -1  -5  133.47    3.77
   0  -1  -5  134.66    3.82
   0  -1  -5  123.62    3.72
   0  -1   5  131.16    3.71
   0   1   5  130.67    3.69
   0   1   5  133.97    3.75
   0   1   5  128.82    3.77
   0   1  -5  132.31    3.73
   0   1   5  132.45    3.83
   0   1   5  135.67    3.74
   0   1  -5  124.65    3.75
   0   1   5  131.32    3.72
   0   1  -5  127.04    3.67
   0   1   5  131.57    3.78
   0   1  -5  128.47    3.76
   0   1  -5  129.48    3.78
   0   1  -5  134.76    3.83
   0   1  -5  131.66    3.74
   0   1  -5  132.71    3.74
   0   1   5  130.08    3.75
  -1  -1  -5  297.83    9.00
   1  -1   5  334.75    8.97
   1  -1   5  336.28    9.06
   1  -1   5  331.05    9.01
  -1  -1  -5  323.30    8.97
  -1  -1  -5  340.48    9.03
  -1  -1  -5  311.12    9.03
   1  -1   5  326.10    9.00
   1   1   5  319.08    9.04
   1   1   5  320.58    9.03
  -1   1  -5  317.61    9.02
  -1   1  -5  328.93    9.05
  -1   1  -5  315.39    9.01
   1   1   5  327.19    8.98
   1   1   5  315.77    8.98
  -1   1  -5  285.46    8.94
   2  -1   5   86.86    2.50
  -2  -1  -5   89.40    2.62
   2  -1   5   89.30    2.63
   2  -1   5   89.21    2.72
  -2  -1  -5   91.73    2.70
   2  -1   5   89.24    2.73
   2  -1   5   91.40    2.68
  -2  -1  -5   91.41    2.78
   2  -1   5   92.60    2.64
   2  -1   5   88.32    2.50
   2  -1   5   88.09    2.62
  -2  -1  -5   88.87    2.79
   2  -1   5   94.05    2.72
   2  -1   5   91.06    2.77
  -2  -1  -5   88.76    2.64
  -2  -1  -5   90.16    2.63
  -2  -1  -5   89.45    2.66
   2  -1   5   91.66    2.71
  -2  -1  -5   91.73    2.72
  -2   1  -5   91.31    2.64
   2   1   5   90.05    2.76
  -2   1  -5   92.33    2.64
   2   1   5   90.55    2.65
   2   1   5   85.32    2.58
  -2   1  -5   85.23    2.74
   2   1   5   88.55    2.69
  -2   1  -5   92.52    2.68
  -2   1  -5   89.48    2.80
   2   1   5   90.09    2.61
  -2   1  -5   90.24    2.66
  -2   1  -5   91.98    2.71
   2   1   5   88.15    2.67
   2   1   5   86.00    2.53
   2   1   5   90.34    2.72
   2   1   5   90.41    2.66
  -3  -1  -5  121.69    3.72
   3  -1   5  113.26    3.35
   3  -1   5  122.33    3.52
   3  -1   5  116.33    3.34
   3  -1   5  117.04    3.41
   3  -1   5  117.93    3.49
   3  -1   5  121.43    3.57
   3  -1   5  119.23    3.59
   3  -1   5  121.57    3.68
  -3  -1  -5  118.89    3.46
  -3  -1  -5  121.62    3.44
  -3  -1  -5  118.75    3.39
  -3   1  -5  119.80    3.50
   3   1   5  126.70    3.53
   3   1   5  115.49    3.40
   3   1   5  118.08    3.48
  -3   1  -5  114.08    3.67
   3   1   5  122.59    3.67
   3   1   5  120.41    3.53
  -3   1  -5  119.35    3.46
  -3   1  -5  120.56    3.74
  -3   1  -5  119.08    3.48
   3   1   5  121.30    3.48
  -3   1  -5  119.73    3.50
  -4  -1  -5   16.16    0.66
   4  -1   5   17.71    0.81
   4  -1   5   18.03    0.92
   4  -1   5   17.13    0.74
  -4  -1  -5   16.63    0.63
  -4  -1  -5   16.40    1.06
   4  -1   5   17.92    1.07
   4   1   5   16.12    0.68
  -4   1  -5   16.77    0.71
   4   1   5   17.26    0.81
  -4   1  -5   17.52    0.79
   4   1   5   17.88    1.01
  -4   1  -5   16.99    0.66
  -4   1  -5   17.48    1.11
   4   1   5   15.77    1.04
   4   1   5   16.62    0.73
   4   1   5   16.74    0.76
   5  -2  -5   51.81    1.77
   5  -2  -5   51.47    1.74
   5  -2  -5   52.16    2.22
   5  -2  -5   53.97    2.12
  -5  -2   5   53.06    1.59
  -5  -2   5   53.32    1.93
   5   2  -5   51.77    1.96
   5   2  -5   53.45    1.98
   5   2  -5   51.75    1.67
  -5   2   5   53.47    1.94
   5   2  -5   51.91    1.63
  -5   2   5   51.53    1.68
   5   2  -5   52.43    2.11
   4  -2  -5    0.55    0.16
   4  -2  -5    0.43    0.16
   4  -2  -5    0.72    0.22
   4  -2  -5    0.57    0.13
   4  -2  -5    0.37    0.28
  -4  -2   5    0.43    0.29
   4  -2  -5    0.56    0.41
  -4  -2   5    0.49    0.14
   4   2  -5    0.59    0.28
   4   2  -5    0.57    0.23
   4   2  -5    1.05    0.20
  -4   2   5    0.72    0.32
   4   2  -5    0.93    0.21
   4   2  -5    0.59    0.34
  -4   2   5    0.22    0.20
  -4   2   5    0.33    0.16
  -4   2   5    0.74    0.19
   3  -2  -5  145.09    4.09
   3  -2  -5  144.14    4.27
   3  -2  -5  147.73    4.20
   3  -2  -5  146.33    4.35
   3  -2  -5  144.59    4.45
  -3  -2   5  144.69    4.19
   3  -2  -5  147.60    4.23
  -3  -2   5  145.99    4.33
  -3  -2   5  144.67    4.36
  -3  -2   5  153.59    4.23
  -3  -2   5  146.68    4.33
  -3  -2   5  150.75    4.29
   3  -2  -5  146.52    4.31
  -3   2   5  147.24    4.24
  -3   2   5  145.55    4.25
  -3   2   5  148.93    4.31
   3   2  -5  145.76    4.25
  -3   2   5  146.41    4.32
   3   2  -5  147.87    4.17
   3   2  -5  146.41    4.12
  -3   2   5  149.72    4.26
   3   2  -5  138.81    4.09
   3   2  -5  148.34    4.31
   3   2  -5  147.09    4.33
   3   2  -5  147.39    4.28
   3   2  -5  147.54    4.27
  -2  -2   5    7.17    0.38
   2  -2  -5    6.63    0.39
   2  -2  -5    7.47    0.41
  -2  -2   5    7.12    0.36
  -2  -2   5    7.06    0.41
   2  -2  -5    6.66    0.42
   2  -2  -5    7.19    0.34
  -2  -2   5    6.88    0.41
   2  -2  -5    6.82    0.38
  -2  -2   5    6.84    0.40
   2  -2  -5    7.66    0.49
   2  -2  -5    7.52    0.48
  -2  -2   5    7.59    0.24
   2  -2  -5    7.32    0.30
   2  -2  -5    7.43    0.41
  -2  -2   5    6.80    0.45
  -2  -2   5    7.19    0.37
  -2  -2   5    7.69    0.45
  -2   2   5    7.13    0.39
   2   2  -5    7.35    0.25
   2   2  -5    7.37    0.42
  -2   2   5    7.33    0.41
  -2   2   5    7.11    0.28
   2   2  -5    7.79    0.38
  -2   2   5    8.09    0.57
   2   2  -5    7.31    0.37
   2   2  -5    7.18    0.45
   2   2  -5    7.32    0.35
  -2   2   5    7.43    0.40
   2   2  -5    6.69    0.42
  -2   2   5    6.63    0.43
   2   2  -5    6.93    0.39
   2   2  -5    7.32    0.41
  -2   2   5    7.48    0.41
  -2   2   5    7.44    0.37
  -1  -2   5  237.99    6.83
  -1  -2   5  214.79    6.85
   1  -2  -5  247.64    6.85
   1  -2  -5  242.76    6.87
   1  -2  -5  246.64    6.79
   1  -2  -5  243.62    6.90
  -1  -2   5  244.09    6.87
  -1  -2   5  241.91    6.82
   1  -2  -5  240.82    6.83
  -1  -2   5  245.76    6.85
  -1  -2   5  248.92    6.86
   1  -2  -5  245.82    6.93
   1  -2  -5  244.69    6.80
  -1  -2   5  246.19    6.92
  -1  -2   5  236.46    6.87
   1  -2  -5  254.62    6.91
   1   2  -5  247.39    6.85
   1   2  -5  237.66    6.74
   1   2  -5  240.86    6.93
  -1   2   5  239.91    6.85
   1   2  -5  242.53    6.79
  -1   2   5  246.74    6.90
  -1   2   5  242.23    6.81
   1   2  -5  250.98    6.83
   1   2  -5  244.35    6.82
   1   2  -5  250.86    6.89
  -1   2   5  243.63    6.94
  -1   2   5  241.91    6.84
   1   2  -5  247.01    6.85
  -1   2   5  226.88    6.86
  -1   2   5  241.81    6.86
  -1   2   5  240.99    6.94
   1   2  -5  242.48    6.85
   0  -2  -5    3.07    0.28
   0  -2   5    3.46    0.23
   0  -2   5    3.51    0.26
   0  -2  -5    3.14    0.26
   0  -2   5    3.14    0.27
   0  -2  -5    3.37    0.33
   0  -2  -5    4.00    0.18
   0  -2  -5    3.49    0.16
   0  -2   5    3.26    0.20
   0  -2  -5    3.81    0.30
   0  -2   5    3.26    0.26
   0  -2   5    3.14    0.26
   0  -2  -5    3.69    0.28
   0  -2  -5    3.69    0.24
   0  -2   5    3.53    0.31
   0  -2  -5    3.36    0.26
   0  -2   5    3.32    0.25
   0  -2  -5    3.22    0.25
   0   2   5    3.31    0.26
   0   2  -5    3.75    0.29
   0   2   5    3.27    0.29
   0   2   5    3.11    0.25
   0   2  -5    3.30    0.28
   0   2   5    3.20    0.26
   0   2   5    3.27    0.27
   0   2   5    3.16    0.25
   0   2  -5    3.19    0.34
   0   2   5    3.52    0.22
   0   2  -5    3.62    0.19
   0   2  -5    3.32    0.27
   0   2  -5    3.38    0.26
   0   2  -5    3.28    0.25
   0   2  -5    2.97    0.33
   0   2   5    3.36    0.34
   1  -2   5  179.92    5.06
   1  -2   5  174.46    5.05
  -1  -2  -5  180.47    5.09
  -1  -2  -5  171.15    5.11
   1  -2   5  171.60    5.02
  -1  -2  -5  179.39    5.02
   1  -2   5  178.68    5.02
  -1  -2  -5  181.25    5.04
  -1  -2  -5  178.89    5.11
  -1  -2  -5  165.89    5.17
   1  -2   5  185.00    5.06
   1  -2   5  175.87    5.03
  -1  -2  -5  176.42    5.04
   1  -2   5  177.95    5.13
   1  -2   5  174.64    5.08
  -1  -2  -5  179.68    5.08
  -1   2  -5  180.36    5.13
   1   2   5  181.54    5.02
  -1   2  -5  174.25    5.08
  -1   2  -5  174.71    5.08
   1   2   5  180.68    5.01
   1   2   5  177.21    5.10
  -1   2  -5  157.56    5.04
  -1   2  -5  174.33    5.05
  -1   2  -5  177.07    5.07
  -1   2  -5  176.63    5.08
   1   2   5  179.71    5.01
   1   2   5  169.25    5.02
   1   2   5  177.14    5.04
  -1   2  -5  177.21    5.03
   1   2   5  181.26    5.12
   1   2   5  175.35    5.06
  -2  -2  -5    0.27    0.12
   2  -2   5    0.51    0.14
   2  -2   5    0.61    0.19
   2  -2   5    0.37    0.12
  -2  -2  -5    0.41    0.21
  -2  -2  -5    0.98    0.28
  -2  -2  -5    0.16    0.09
   2  -2   5    0.57    0.24
   2  -2   5    0.45    0.17
  -2  -2  -5    0.20    0.18
  -2  -2  -5    0.37    0.15
   2  -2   5    0.32    0.19
   2  -2   5    0.55    0.16
  -2  -2  -5    0.31    0.13
   2  -2   5    0.21    0.20
   2   2   5    0.35    0.11
   2   2   5    0.52    0.23
  -2   2  -5    0.23    0.09
  -2   2  -5    0.41    0.18
  -2   2  -5    0.44    0.16
   2   2   5    0.46    0.15
  -2   2  -5    0.83    0.20
   2   2   5    0.24    0.16
   2   2   5    0.43    0.17
  -3  -2  -5   78.75    2.23
  -3  -2  -5   77.24    2.47
   3  -2   5   71.14    2.87
   3  -2   5   71.68    2.29
   3  -2   5   77.18    2.33
   3  -2   5   74.18    2.23
   3   2   5   76.90    2.27
   3   2   5   77.04    2.35
  -3   2  -5   76.08    2.33
   3   2   5   72.30    2.12
   3   2   5   74.19    2.32
  -3   2  -5   76.38    2.33
  -3   2  -5   69.74    3.06
  -3   2  -5   72.19    2.43
   3   2   5   64.89    2.58
  -3   2  -5   76.70    2.31
  -4  -2  -5    0.13    0.13
  -4  -2  -5    0.15    0.15
  -4  -2  -5   -0.22    0.35
   4  -2   5    0.20    0.22
   4  -2   5    0.27    0.26
   4  -2   5   -0.17    0.38
   4   2   5    0.64    0.35
   4   2   5    0.21    0.22
  -4   2  -5    0.11    0.35
  -4   2  -5    0.16    0.17
   4   2   5    0.29    0.43
   4   2   5    0.13    0.20
   4   2   5    0.11    0.45
   4   2   5    0.62    0.20
  -4   2  -5   -0.15    0.41
  -5  -3   5    0.72    0.22
   5  -3  -5    0.42    0.29
   5  -3  -5    1.28    0.63
   5  -3  -5    1.07    0.42
  -5  -3   5    0.67    0.19
  -5  -3   5    0.97    0.54
   5   3  -5    1.10    0.61
  -5   3   5    1.65    0.49
   5   3  -5    0.88    0.25
   5   3  -5    1.39    0.51
   5   3  -5    0.74    0.28
  -5   3   5    0.99    0.27
   4  -3  -5  111.89    3.40
  -4  -3   5  115.56    3.36
   4  -3  -5  116.81    3.76
   4  -3  -5  117.01    3.59
  -4  -3   5  115.25    3.33
   4  -3  -5  113.69    3.50
  -4  -3   5  115.60    3.58
   4   3  -5  119.01    3.42
   4   3  -5  114.39    3.52
  -4   3   5  109.22    3.47
   4   3  -5  113.06    3.33
   4   3  -5  117.78    3.69
   4   3  -5  113.62    3.41
  -4   3   5  116.81    3.59
  -4   3   5  111.49    3.44
  -4   3   5  114.32    3.53
  -4   3   5  116.76    3.44
   4   3  -5  107.24    3.45
   4   3  -5  109.01    3.44
   3  -3  -5   10.44    0.57
  -3  -3   5   11.43    0.56
  -3  -3   5   11.68    0.67
   3  -3  -5   10.84    0.70
   3  -3  -5   10.11    0.63
  -3  -3   5   10.50    0.72
   3  -3  -5   11.03    0.74
  -3  -3   5   11.44    0.43
   3  -3  -5   11.07    0.55
  -3  -3   5   11.01    0.50
   3   3  -5   11.33    0.50
  -3   3   5    9.80    0.60
  -3   3   5   11.49    0.62
  -3   3   5   11.40    0.55
  -3   3   5   10.38    0.64
   3   3  -5   11.87    0.58
  -3   3   5   11.26    0.59
   3   3  -5   10.96    0.69
  -3   3   5   11.94    0.67
   3   3  -5   11.94    0.52
   3   3  -5   10.94    0.44
   3   3  -5   12.46    0.65
  -2  -3   5  164.85    4.69
   2  -3  -5  164.45    4.67
   2  -3  -5  160.09    4.71
   2  -3  -5  157.94    4.63
  -2  -3   5  156.16    4.67
   2  -3  -5  158.70    4.58
   2  -3  -5  164.27    4.63
  -2  -3   5  159.67    4.64
   2  -3  -5  159.72    4.75
  -2  -3   5  163.33    4.72
   2  -3  -5  168.41    4.78
   2  -3  -5  167.51    4.66
  -2   3   5  157.94    4.66
  -2   3   5  162.53    4.72
  -2   3   5  165.66    4.76
   2   3  -5  154.23    4.60
  -2   3   5  159.03    4.65
   2   3  -5  158.59    4.50
  -2   3   5  161.11    4.66
   2   3  -5  159.11    4.65
   2   3  -5  161.24    4.67
   2   3  -5  158.04    4.53
   2   3  -5  157.48    4.58
  -2   3   5  149.74    4.80
  -2   3   5  157.35    4.65
   2   3  -5  161.73    4.66
  -2   3   5  161.73    4.65
   2   3  -5  163.34    4.73
   2   3  -5  159.53    4.67
   1  -3  -5   16.60    0.67
   1  -3  -5   15.14    0.68
  -1  -3   5   14.97    0.67
  -1  -3   5   15.56    0.64
   1  -3  -5   14.63    0.58
   1  -3  -5   16.10    0.58
   1  -3  -5   16.55    0.70
  -1  -3   5   15.50    0.64
   1  -3  -5   15.17    0.64
  -1  -3   5   15.47    0.68
  -1  -3   5   15.40    0.56
  -1  -3   5   14.65    0.66
   1  -3  -5   14.82    0.73
   1   3  -5   16.07    0.56
  -1   3   5   14.97    0.59
   1   3  -5   15.83    0.57
  -1   3   5   14.93    0.72
  -1   3   5   16.20    0.56
  -1   3   5   15.17    0.64
  -1   3   5   14.92    0.63
   1   3  -5   15.64    0.73
   1   3  -5   15.52    0.63
   1   3  -5   15.28    0.67
  -1   3   5   15.50    0.65
   1   3  -5   15.10    0.63
   1   3  -5   16.32    0.63
  -1   3   5   14.65    0.69
   1   3  -5   15.44    0.61
   1   3  -5   15.11    0.64
   0  -3   5  269.82    7.66
   0  -3   5  272.82    7.62
   0  -3  -5  264.88    7.63
   0  -3   5  270.28    7.55
   0  -3  -5  264.06    7.68
   0  -3  -5  271.18    7.65
   0  -3  -5  267.36    7.61
   0  -3   5  273.65    7.60
   0  -3   5  268.63    7.58
   0  -3  -5  273.76    7.56
   0  -3   5  277.37    7.57
   0  -3  -5  275.85    7.63
   0  -3  -5  274.21    7.61
   0  -3   5  264.52    7.61
   0  -3   5  271.61    7.70
   0  -3  -5  252.45    7.46
   0   3  -5  270.48    7.72
   0   3   5  267.45    7.61
   0   3   5  263.77    7.71
   0   3  -5  266.05    7.60
   0   3   5  263.80    7.60
   0   3   5  261.09    7.65
   0   3  -5  272.99    7.60
   0   3   5  273.36    7.60
   0   3  -5  266.94    7.50
   0   3   5  273.58    7.61
   0   3   5  278.63    7.61
   0   3  -5  269.61    7.54
   0   3  -5  271.49    7.62
   0   3  -5  262.77    7.57
   0   3  -5  268.55    7.67
   0   3   5  262.68    7.55
   0   3  -5  273.04    7.62
   1  -3   5    0.54    0.19
   1  -3   5    0.38    0.16
   1  -3   5    0.51    0.17
  -1  -3  -5    0.55    0.18
  -1  -3  -5    0.61    0.26
   1  -3   5    0.42    0.12
   1  -3   5    0.84    0.21
  -1  -3  -5    0.66    0.17
  -1   3  -5    0.66    0.14
  -1   3  -5    0.59    0.16
  -1   3  -5    0.73    0.20
   1   3   5    0.52    0.15
   1   3   5    0.71    0.16
  -1   3  -5    0.57    0.22
  -1   3  -5    0.48    0.16
   1   3   5    0.67    0.21
  -1   3  -5    0.48    0.21
   1   3   5    0.85    0.20
   1   3   5    0.31    0.12
   1   3   5    0.50    0.22
  -1   3  -5    0.76    0.23
   1   3   5    1.02    0.23
   2  -3   5  219.03    6.33
  -2  -3  -5  208.65    6.35
  -2  -3  -5  216.60    6.19
  -2  -3  -5  219.88    6.24
  -2  -3  -5  219.94    6.17
   2  -3   5  210.45    6.25
   2  -3   5  214.08    6.21
   2  -3   5  218.04    6.17
   2  -3   5  217.01    6.19
   2  -3   5  216.13    6.26
   2  -3   5  217.32    6.27
   2  -3   5  224.19    6.28
  -2  -3  -5  218.01    6.17
  -2  -3  -5  213.60    6.26
   2   3   5  219.65    6.28
   2   3   5  210.07    6.11
  -2   3  -5  221.12    6.28
  -2   3  -5  214.80    6.19
  -2   3  -5  211.13    6.22
   2   3   5  218.12    6.22
  -2   3  -5  211.21    6.26
  -2   3  -5  220.20    6.34
   2   3   5  217.97    6.33
   2   3   5  219.70    6.16
  -2   3  -5  216.09    6.32
  -2   3  -5  217.15    6.26
   2   3   5  223.76    6.27
  -3  -3  -5    2.28    0.39
   3  -3   5    2.16    0.38
  -3  -3  -5    1.31    0.25
   3  -3   5    1.68    0.39
   3  -3   5    1.28    0.26
  -3  -3  -5    2.80    0.47
  -3  -3  -5    1.88    0.27
   3  -3   5    2.66    0.48
  -3   3  -5    1.74    0.34
  -3   3  -5    1.74    0.41
   3   3   5    1.53    0.28
   3   3   5    2.37    0.41
   3   3   5    1.52    0.21
  -3   3  -5    2.15    0.37
  -3   3  -5    2.20    0.44
   3   3   5    2.45    0.46
   3   3   5    1.50    0.14
   3   3   5    2.53    0.46
  -3   3  -5    2.68    0.44
   3   3   5    1.59    0.27
  -3   3  -5    2.07    0.28
  -4  -3  -5   56.04    2.04
   4  -3   5   53.01    1.94
  -4  -3  -5   55.18    1.71
   4  -3   5   52.57    1.91
   4  -3   5   56.93    2.07
  -4  -3  -5   52.19    1.70
  -4   3  -5   57.84    1.96
   4   3   5   54.14    1.78
   4   3   5   51.32    1.76
  -4   3  -5   54.99    1.84
   4   3   5   55.56    2.15
   4   3   5   53.03    1.95
  -4  -4   5  191.15    5.43
  -4  -4   5  185.98    5.46
   4  -4  -5  193.89    5.87
   4  -4  -5  190.56    5.64
   4  -4  -5  182.11    5.62
  -4  -4   5  188.03    5.69
   4   4  -5  188.30    5.77
  -4   4   5  186.91    5.55
   4   4  -5  200.99    5.62
   4   4  -5  194.85    5.54
  -4   4   5  190.15    5.62
   4   4  -5  183.71    5.38
   4   4  -5  179.05    5.55
   3  -4  -5    3.83    0.60
  -3  -4   5    4.04    0.55
   3  -4  -5    3.82    0.46
  -3  -4   5    3.97    0.37
   3  -4  -5    4.07    0.57
  -3  -4   5    4.63    0.37
   3  -4  -5    4.54    0.41
  -3  -4   5    4.06    0.28
  -3  -4   5    4.86    0.43
   3   4  -5    3.93    0.50
   3   4  -5    4.79    0.28
   3   4  -5    4.09    0.38
   3   4  -5    3.90    0.33
   3   4  -5    3.71    0.54
  -3   4   5    3.57    0.49
  -3   4   5    3.52    0.37
  -3   4   5    4.42    0.54
   3   4  -5    4.09    0.51
  -3   4   5    3.54    0.50
   3   4  -5    3.94    0.43
   2  -4  -5  559.49   15.42
   2  -4  -5  548.74   15.38
   2  -4  -5  548.63   15.22
   2  -4  -5  548.52   15.23
   2  -4  -5  562.53   15.31
   2  -4  -5  537.88   15.28
   2  -4  -5  544.65   15.40
  -2  -4   5  551.20   15.32
  -2  -4   5  561.26   15.34
   2  -4  -5  551.86   15.31
   2   4  -5  556.60   15.40
  -2   4   5  535.40   15.59
   2   4  -5  541.89   15.33
   2   4  -5  558.68   15.36
   2   4  -5  535.92   15.31
   2   4  -5  546.26   15.28
  -2   4   5  549.37   15.43
  -2   4   5  526.28   15.37
   2   4  -5  558.87   15.26
  -2   4   5  548.14   15.31
  -2   4   5  534.70   15.28
  -2   4   5  537.39   15.29
  -2   4   5  525.52   15.31
  -1  -4   5   12.79    0.63
   1  -4  -5   11.79    0.61
  -1  -4   5   10.79    0.50
  -1  -4   5   11.20    0.55
   1  -4  -5   10.67    0.62
   1  -4  -5   10.68    0.59
   1  -4  -5   11.54    0.59
  -1  -4   5   11.63    0.58
  -1  -4   5   11.53    0.61
   1  -4  -5   11.16    0.53
   1  -4  -5   11.68    0.62
   1  -4  -5   11.17    0.69
   1  -4  -5   12.40    0.50
  -1  -4   5   11.30    0.57
  -1  -4   5   11.54    0.50
  -1  -4   5   10.76    0.63
  -1   4   5   11.36    0.67
   1   4  -5   12.59    0.59
  -1   4   5   11.37    0.59
   1   4  -5   12.65    0.64
   1   4  -5   11.86    0.56
   1   4  -5   11.85    0.53
  -1   4   5   10.94    0.47
  -1   4   5   10.75    0.66
  -1   4   5   10.34    0.66
  -1   4   5   11.33    0.59
   1   4  -5   11.51    0.54
   1   4  -5   12.39    0.59
  -1   4   5   11.16    0.57
   1   4  -5   10.83    0.68
   1   4  -5   11.12    0.56
  -1   4   5   11.80    0.59
  -1   4   5   11.23    0.52
   1   4  -5   11.26    0.45
  -1   4   5   11.23    0.45
   1   4  -5   12.31    0.58
   0  -4  -5  449.84   12.31
   0  -4  -5  434.90   12.35
   0  -4  -5  441.10   12.26
   0  -4  -5  451.92   12.34
   0  -4   5  441.83   12.30
   0  -4   5  434.92   12.24
   0  -4   5  430.68   12.33
   0  -4  -5  439.20   12.29
   0  -4   5  435.40   12.37
   0  -4  -5  439.56   12.41
   0  -4   5  447.16   12.42
   0  -4   5  457.53   12.34
   0   4  -5  431.33   12.28
   0   4   5  443.01   12.30
   0   4  -5  429.56   12.39
   0   4  -5  443.69   12.45
   0   4   5  441.12   12.31
   0   4  -5  425.77   12.28
   0   4   5  428.49   12.25
   0   4   5  447.02   12.23
   0   4  -5  437.42   12.32
   0   4   5  437.04   12.32
   0   4   5  414.35   12.36
   0   4   5  439.39   12.44
   0   4  -5  446.70   12.33
   0   4  -5  438.95   12.30
   0   4   5  437.53   12.29
   1  -4   5   12.66    0.65
   1  -4   5   12.77    0.60
  -1  -4  -5   12.71    0.64
  -1  -4  -5   11.31    0.59
   1  -4   5   13.67    0.63
  -1  -4  -5   14.08    0.91
   1  -4   5   13.01    0.71
   1  -4   5   12.67    0.71
  -1  -4  -5   13.38    0.63
  -1  -4  -5   12.36    0.69
   1  -4   5   12.64    0.64
  -1  -4  -5   13.02    0.60
   1  -4   5   13.64    0.58
  -1  -4  -5   12.70    0.41
   1  -4   5   13.22    0.64
  -1  -4  -5   13.34    0.75
   1   4   5   13.29    0.67
  -1   4  -5   12.18    0.63
   1   4   5   12.36    0.67
   1   4   5   12.03    0.67
  -1   4  -5   12.57    0.64
   1   4   5   13.01    0.59
  -1   4  -5   12.28    0.65
  -1   4  -5   12.16    0.76
   1   4   5   12.95    0.41
  -1   4  -5   11.32    0.67
  -1   4  -5   11.55    0.66
   1   4   5   13.52    0.59
   1   4   5   13.37    0.63
   1   4   5   12.29    0.70
   1   4   5   12.89    0.60
  -1   4  -5   11.48    0.46
  -1   4  -5   13.16    0.65
   1   4   5   12.46    0.58
  -1   4  -5   13.53    0.63
  -1   4  -5   13.97    0.44
   2  -4   5  184.67    5.37
  -2  -4  -5  184.83    5.31
  -2  -4  -5  186.21    5.36
  -2  -4  -5  185.02    5.28
  -2  -4  -5  185.54    5.29
   2  -4   5  187.75    5.47
   2  -4   5  183.80    5.25
  -2  -4  -5  177.54    5.32
   2  -4   5  181.56    5.31
   2  -4   5  177.11    5.40
   2   4   5  182.28    5.24
  -2   4  -5  182.41    5.43
   2   4   5  185.62    5.42
   2   4   5  176.51    5.22
   2   4   5  188.09    5.47
  -2   4  -5  170.02    5.39
  -2   4  -5  184.68    5.37
  -2   4  -5  192.51    5.33
  -2   4  -5  177.01    5.34
   2   4   5  188.87    5.40
   2   4   5  181.07    5.36
  -3  -4  -5    4.61    0.45
   3  -4   5    4.76    0.56
   3  -4   5    5.15    0.45
  -3  -4  -5    4.79    0.50
   3  -4   5    5.38    0.62
  -3  -4  -5    4.77    0.40
  -3  -4  -5    4.53    0.37
   3  -4   5    5.17    0.62
  -3  -4  -5    5.21    0.58
   3   4   5    4.90    0.62
  -3   4  -5    5.55    0.43
  -3   4  -5    5.01    0.62
   3   4   5    5.54    0.73
   3   4   5    4.07    0.52
   3   4   5    4.68    0.51
   3   4   5    4.62    0.49
  -3   4  -5    5.94    0.70
   3   4   5    4.75    0.34
  -3   4  -5    5.29    0.64
  -3   4  -5    4.68    0.50
  -4  -4  -5  132.23    3.92
   4  -4   5  133.60    3.95
  -4  -4  -5  135.82    4.19
   4  -4   5  129.43    4.20
   4  -4   5  135.84    4.20
  -4  -4  -5  129.16    4.10
   4   4   5  135.02    4.17
  -4   4  -5  131.22    4.06
   4   4   5  128.97    3.99
  -4   4  -5  134.93    4.22
   4   4   5  138.30    4.37
   4  -5  -5   82.81    2.85
  -4  -5   5   82.41    2.89
   4  -5  -5   83.75    3.03
   4  -5  -5   84.43    2.68
  -4  -5   5   82.21    2.60
   4   5  -5   84.72    2.73
   4   5  -5   83.39    2.73
  -4   5   5   83.66    2.75
   4   5  -5   86.27    2.95
  -4   5   5   81.24    2.84
  -4   5   5   86.07    2.82
   3  -5  -5  135.13    4.22
   3  -5  -5  138.94    4.17
  -3  -5   5  129.96    3.99
  -3  -5   5  130.41    4.10
  -3  -5   5  133.69    3.96
  -3  -5   5  135.90    3.87
   3   5  -5  132.73    4.01
  -3   5   5  140.33    4.10
   3   5  -5  132.95    4.15
  -3   5   5  135.06    4.06
   3   5  -5  125.21    4.12
  -3   5   5  130.78    4.08
   3   5  -5  126.29    3.86
   3   5  -5  135.10    4.08
  -2  -5   5   67.08    2.14
  -2  -5   5   66.76    2.19
  -2  -5   5   64.19    2.03
   2  -5  -5   66.68    2.24
   2  -5  -5   65.69    2.19
   2  -5  -5   64.50    2.07
  -2  -5   5   60.25    2.28
   2  -5  -5   67.39    2.26
  -2  -5   5   65.58    2.10
   2  -5  -5   65.02    2.34
   2   5  -5   65.60    2.23
   2   5  -5   63.37    2.09
   2   5  -5   67.77    2.21
   2   5  -5   63.18    2.27
   2   5  -5   65.25    2.03
  -2   5   5   65.71    2.13
  -2   5   5   68.12    2.32
   2   5  -5   66.05    2.22
  -2   5   5   68.06    2.19
  -2   5   5   63.87    2.16
  -1  -5   5  204.94    5.77
  -1  -5   5  196.81    5.68
   1  -5  -5  198.32    5.67
   1  -5  -5  188.96    5.52
  -1  -5   5  195.80    5.72
   1  -5  -5  195.27    5.59
  -1  -5   5  191.53    5.64
  -1  -5   5  186.04    5.49
   1  -5  -5  196.24    5.70
   1  -5  -5  208.86    5.70
   1  -5  -5  204.22    5.77
  -1  -5   5  202.49    5.57
  -1  -5   5  190.90    5.63
  -1   5   5  202.14    5.67
  -1   5   5  194.98    5.47
   1   5  -5  192.87    5.60
   1   5  -5  194.37    5.65
  -1   5   5  178.32    5.64
   1   5  -5  189.28    5.65
  -1   5   5  186.53    5.57
   1   5  -5  199.72    5.64
  -1   5   5  195.76    5.68
   1   5  -5  198.09    5.76
   1   5  -5  185.84    5.62
  -1   5   5  196.95    5.78
  -1   5   5  202.73    5.85
   1   5  -5  187.43    5.45
  -1   5   5  196.23    5.52
  -1   5   5  183.57    5.71
   1   5  -5  182.19    5.78
   1   5  -5  192.70    5.58
   0  -5   5  167.12    4.84
   0  -5   5  160.04    4.79
   0  -5   5  165.15    4.68
   0  -5   5  179.02    4.75
   0  -5  -5  162.85    4.87
   0  -5  -5  164.64    4.65
   0  -5  -5  169.17    4.82
   0  -5  -5  163.44    4.92
   0  -5  -5  161.99    4.75
   0  -5   5  159.47    4.74
   0  -5  -5  166.04    4.75
   0  -5   5  161.21    4.88
   0   5   5  160.56    4.78
   0   5   5  162.79    4.77
   0   5   5  158.11    4.64
   0   5  -5  157.29    4.69
   0   5   5  164.51    4.70
   0   5  -5  158.96    4.71
   0   5  -5  163.41    4.79
   0   5   5  159.83    4.79
   0   5   5  162.03    4.80
   0   5  -5  168.51    4.81
   0   5  -5  159.12    4.67
   0   5   5  161.32    4.82
   0   5   5  165.32    4.91
   0   5  -5  161.42    4.90
   0   5  -5  169.79    4.80
   0   5  -5  151.73    4.75
   0   5   5  164.88    4.96
  -1  -5  -5   57.28    1.77
   1  -5   5   61.37    1.99
   1  -5   5   60.77    1.93
  -1  -5  -5   61.89    1.97
  -1  -5  -5   55.45    1.90
   1  -5   5   61.00    1.90
  -1  -5  -5   59.23    1.96
  -1  -5  -5   60.89    2.00
  -1  -5  -5   59.88    2.00
   1  -5   5   59.27    2.08
   1  -5   5   59.93    1.95
   1  -5   5   61.49    2.12
   1  -5   5   60.36    2.02
  -1   5  -5   58.35    2.15
  -1   5  -5   59.04    2.00
  -1   5  -5   59.46    1.82
  -1   5  -5   62.40    2.02
  -1   5  -5   62.78    2.11
  -1   5  -5   57.25    1.96
   1   5   5   63.64    2.04
   1   5   5   60.42    1.91
  -1   5  -5   59.19    1.96
   1   5   5   57.81    2.09
   1   5   5   58.75    1.94
  -1   5  -5   64.99    2.01
   1   5   5   59.82    2.04
  -1   5  -5   60.56    1.77
   1   5   5   58.98    1.75
   1   5   5   58.21    2.06
  -2  -5  -5  175.69    5.06
   2  -5   5  171.38    4.97
   2  -5   5  173.61    5.25
  -2  -5  -5  175.79    5.12
  -2  -5  -5  174.59    5.08
   2  -5   5  174.76    5.12
  -2  -5  -5  173.83    5.01
   2  -5   5  171.98    5.08
  -2  -5  -5  172.28    5.06
   2  -5   5  173.03    5.20
   2   5   5  173.46    5.16
   2   5   5  177.83    5.17
  -2   5  -5  160.38    5.10
  -2   5  -5  176.04    5.22
  -2   5  -5  174.54    5.13
  -2   5  -5  166.63    5.19
   2   5   5  172.28    5.21
   2   5   5  168.08    4.95
  -2   5  -5  176.39    5.09
  -2   5  -5  165.08    5.20
   2   5   5  171.74    4.99
   2   5   5  170.41    5.22
   3  -5   5   48.45    1.58
   3  -5   5   50.44    1.90
  -3  -5  -5   46.74    1.79
  -3  -5  -5   47.71    1.63
   3  -5   5   49.33    1.81
  -3  -5  -5   47.88    1.66
   3   5   5   47.88    1.84
  -3   5  -5   44.13    1.86
  -3   5  -5   48.49    1.76
   3   5   5   45.77    1.94
   3   5   5   46.63    1.77
   4  -5   5   39.90    2.11
  -4  -5  -5   38.10    1.71
   4  -5   5   38.40    1.74
  -4  -5  -5   36.14    1.46
   4  -5   5   38.15    1.90
  -4   5  -5   39.02    1.82
   4   5   5   41.88    1.70
  -4   5  -5   38.52    1.61
   4   5   5   41.33    1.76
   4   5   5   43.75    2.70
  -4  -6   5   10.70    1.15
   4  -6  -5   11.20    0.86
   4  -6  -5   12.36    1.25
  -4  -6   5   14.32    0.90
   4  -6  -5   11.01    1.05
   4   6  -5   12.35    1.00
  -4   6   5   13.97    1.05
   4   6  -5   12.91    0.90
  -4   6   5   11.58    1.06
  -4   6   5   12.10    0.97
  -3  -6   5  257.69    7.48
  -3  -6   5  266.07    7.43
   3  -6  -5  263.53    7.72
   3  -6  -5  260.68    7.71
  -3  -6   5  266.12    7.65
   3  -6  -5  236.58    7.45
   3   6  -5  259.39    7.68
  -3   6   5  261.61    7.64
   3   6  -5  260.09    7.52
  -3   6   5  259.02    7.61
   3   6  -5  261.34    7.64
  -3   6   5  258.85    7.59
   2  -6  -5   29.44    1.51
   2  -6  -5   28.32    1.33
  -2  -6   5   30.98    1.19
   2  -6  -5   30.36    1.16
   2  -6  -5   27.81    1.29
  -2  -6   5   29.93    1.28
   2  -6  -5   31.74    1.29
  -2  -6   5   27.44    1.11
   2   6  -5   30.21    1.31
  -2   6   5   29.57    1.21
   2   6  -5   29.53    1.19
  -2   6   5   29.45    1.27
  -2   6   5   28.97    1.25
  -2   6   5   28.13    1.28
   2   6  -5   30.53    1.28
   2   6  -5   26.25    1.12
   2   6  -5   28.86    1.42
  -2   6   5   28.84    1.40
   1  -6  -5  358.37   10.18
   1  -6  -5  343.23    9.97
   1  -6  -5  355.16   10.28
  -1  -6   5  361.11   10.02
   1  -6  -5  355.64   10.05
   1  -6  -5  364.14   10.10
  -1  -6   5  359.42   10.10
   1  -6  -5  371.09   10.17
  -1  -6   5  330.49   10.41
   1  -6  -5  343.00   10.22
  -1  -6   5  349.09   10.09
  -1  -6   5  353.68    9.85
  -1  -6   5  353.43   10.15
  -1   6   5  344.77   10.26
  -1   6   5  355.53    9.96
  -1   6   5  364.11   10.17
   1   6  -5  362.08   10.25
   1   6  -5  348.68   10.31
   1   6  -5  362.07   10.18
  -1   6   5  349.84   10.03
   1   6  -5  338.45   10.06
  -1   6   5  349.11   10.14
  -1   6   5  351.66    9.90
   1   6  -5  350.73   10.10
  -1   6   5  376.30   10.15
  -1   6   5  362.43   10.34
  -1   6   5  363.12   10.31
   0  -6  -5   15.70    0.87
   0  -6  -5   16.64    0.69
   0  -6   5   16.02    0.93
   0  -6  -5   15.16    0.87
   0  -6   5   15.57    0.98
   0  -6   5   15.92    0.77
   0  -6   5   15.31    0.74
   0  -6   5   16.24    0.88
   0  -6  -5   16.60    0.80
   0  -6  -5   17.48    0.74
   0  -6   5   16.25    0.67
   0  -6   5   15.51    0.82
   0  -6  -5   17.64    0.87
   0   6  -5   16.23    0.85
   0   6   5   16.07    0.69
   0   6   5   15.37    0.68
   0   6  -5   15.18    0.69
   0   6  -5   16.55    0.83
   0   6   5   14.61    0.96
   0   6   5   15.27    0.95
   0   6   5   15.67    0.84
   0   6   5   15.21    0.82
   0   6  -5   15.19    0.72
   0   6  -5   15.88    0.93
   0   6  -5   15.59    0.69
   0   6   5   15.92    0.83
   0   6  -5   14.82    1.02
   0   6   5   16.08    0.80
   0   6  -5   16.46    0.82
  -1  -6  -5  395.85   10.97
   1  -6   5  390.91   11.04
  -1  -6  -5  384.28   10.96
   1  -6   5  383.18   10.92
  -1  -6  -5  382.64   10.89
   1  -6   5  371.60   10.79
   1  -6   5  379.94   10.85
  -1  -6  -5  354.36   10.69
  -1  -6  -5  403.55   10.92
  -1  -6  -5  404.89   10.79
   1  -6   5  393.80   11.08
   1  -6   5  376.67   10.80
   1   6   5  392.20   10.96
   1   6   5  381.30   11.02
   1   6   5  373.96   10.87
  -1   6  -5  396.43   11.09
   1   6   5  367.52   10.77
   1   6   5  361.41   10.65
  -1   6  -5  402.74   10.94
  -1   6  -5  371.26   10.68
  -1   6  -5  399.26   10.94
   1   6   5  383.74   10.96
   1   6   5  352.33   11.06
  -1   6  -5  389.49   10.74
   2  -6   5    9.90    0.76
   2  -6   5    9.20    0.86
  -2  -6  -5    9.47    0.72
  -2  -6  -5    8.51    0.76
  -2  -6  -5    9.46    0.53
   2  -6   5    9.67    0.58
   2   6   5    8.82    0.78
   2   6   5    8.91    0.77
  -2   6  -5    9.43    0.85
   2   6   5    8.47    0.85
  -2   6  -5    9.70    0.73
  -3  -6  -5  190.45    5.52
   3  -6   5  191.03    5.63
   3  -6   5  190.19    5.78
   3  -6   5  183.79    5.36
  -3  -6  -5  178.76    5.63
   3  -6   5  184.31    5.85
  -3   6  -5  173.74    5.76
   3   6   5  183.96    5.80
   3   6   5  195.00    5.69
   3   6   5  183.88    5.67
  -3   6  -5  188.21    5.62
  -3  -7   5  181.66    5.45
  -3  -7   5  187.76    5.62
   3  -7  -5  189.29    5.44
   3  -7  -5  188.49    5.67
  -3  -7   5  156.57    5.79
   3  -7  -5  184.08    5.71
  -3   7   5  180.97    5.56
   3   7  -5  188.59    5.48
   3   7  -5  185.07    5.64
   3   7  -5  184.47    5.64
  -3   7   5  178.68    5.56
  -3   7   5  181.30    5.63
   2  -7  -5   57.14    1.97
   2  -7  -5   58.41    2.08
   2  -7  -5   55.45    2.18
  -2  -7   5   56.57    2.09
  -2  -7   5   57.80    2.03
  -2   7   5   57.66    2.10
   2   7  -5   56.05    2.10
  -2   7   5   56.56    2.13
  -2   7   5   55.94    2.03
   2   7  -5   58.54    2.21
   2   7  -5   55.31    1.99
  -1  -7   5  277.06    7.75
   1  -7  -5  282.94    7.78
  -1  -7   5  269.43    7.81
   1  -7  -5  268.06    7.91
   1  -7  -5  274.09    7.77
   1  -7  -5  262.03    7.96
  -1  -7   5  269.05    7.85
  -1   7   5  269.86    7.88
  -1   7   5  280.08    7.90
   1   7  -5  265.02    7.79
  -1   7   5  262.85    7.74
  -1   7   5  267.89    7.66
   1   7  -5  267.72    7.82
   1   7  -5  266.34    8.06
  -1   7   5  255.99    8.06
   0  -7  -5   53.70    2.04
   0  -7  -5   54.12    2.03
   0  -7   5   52.56    1.78
   0  -7   5   55.68    1.86
   0  -7   5   63.24    2.63
   0  -7   5   56.39    2.12
   0  -7   5   56.81    1.90
   0  -7  -5   56.94    1.81
   0  -7  -5   54.36    1.91
   0  -7   5   54.66    1.97
   0   7  -5   56.55    2.14
   0   7   5   53.68    1.96
   0   7   5   50.45    1.95
   0   7   5   53.91    1.79
   0   7   5   54.64    1.91
   0   7  -5   56.29    1.93
   0   7  -5   49.36    1.95
   0   7  -5   54.88    1.85
   1  -7   5  250.85    7.26
   1  -7   5  241.76    7.36
  -1  -7  -5  258.45    7.39
   1  -7   5  240.92    7.39
   1  -7   5  253.94    7.34
   1  -7   5  255.08    7.59
  -1  -7  -5  269.85    7.19
  -1  -7  -5  251.60    7.43
  -1   7  -5  260.93    7.21
  -1   7  -5  267.39    7.44
   1   7   5  243.74    7.13
   1   7   5  257.45    7.45
   1   7   5  245.52    7.59
  -1   7  -5  247.66    7.43
   1   7   5  245.73    7.44
   2  -7   5   35.84    1.72
   2  -7   5   29.17    1.68
  -2  -7  -5   34.31    1.53
   2  -7   5   33.74    1.60
  -2  -7  -5   35.76    1.51
   2  -7   5   38.04    1.51
   2   7   5   37.36    1.68
   2   7   5   34.86    1.52
  -2   7  -5   32.98    1.50
   2   7   5   34.28    1.62
  -2   7  -5   35.33    1.59
   2  -8  -5  195.02    5.73
   2  -8  -5  186.04    5.92
  -2  -8   5  198.77    5.67
  -2  -8   5  188.10    5.77
  -2  -8   5  179.22    5.69
   2  -8  -5  190.90    5.65
  -2   8   5  187.50    5.81
  -2   8   5  188.93    5.83
  -2   8   5  186.21    5.71
   2   8  -5  189.46    5.92
   2   8  -5  186.37    5.67
   2   8  -5  192.26    5.80
   1  -8  -5   69.49    2.37
  -1  -8   5   68.70    2.46
   1  -8  -5   67.72    2.31
  -1  -8   5   72.26    2.32
  -1  -8   5   67.70    2.42
   1   8  -5   68.78    2.42
  -1   8   5   68.39    2.34
  -1   8   5   70.89    2.50
   1   8  -5   70.06    2.66
   1   8  -5   70.02    2.39
   0  -8   5  197.86    6.15
   0  -8  -5  207.87    6.23
   0  -8   5  213.90    6.21
   0  -8   5  209.34    6.41
   0   8  -5  210.70    6.24
   0   8  -5  219.96    6.18
   0   8   5  213.01    6.58
   0   8   5  210.58    6.25
   0   8   5  206.13    6.10
   0   8   5  215.09    6.32
   1  -8   5   59.19    2.39
  -1  -8  -5   53.60    2.19
   1  -8   5   60.33    2.07
   1  -8   5   57.37    2.00
  -1  -8  -5   59.20    2.16
  -1   8  -5   54.96    2.19
   1   8   5   60.34    2.41
   1   8   5   55.74    2.15
   1   8   5   56.73    2.21
  -1   8  -5   58.91    2.16
   5   0  -6   29.24    1.45
   5   0  -6   28.07    1.40
  -5   0   6   30.28    1.33
   5   0  -6   27.78    1.14
   5   0  -6   27.97    1.03
  -5   0   6   28.31    0.99
  -5   0   6   28.79    1.14
  -4   0   6  623.58   17.35
   4   0  -6  636.08   17.47
   4   0  -6  622.97   17.25
   4   0  -6  625.43   17.36
   4   0  -6  550.85   17.30
  -4   0   6  661.15   17.56
  -4   0   6  640.48   17.38
  -4   0   6  635.15   17.41
  -4   0   6  628.61   17.29
   3   0  -6   61.75    1.74
   3   0  -6   61.80    2.01
   3   0  -6   64.94    2.07
  -3   0   6   63.69    1.96
  -3   0   6   62.88    1.90
   3   0  -6   63.19    2.04
   3   0  -6   60.85    1.94
  -3   0   6   62.93    1.92
   3   0  -6   63.53    1.89
  -3   0   6   63.15    2.01
  -3   0   6   56.83    2.14
   3   0  -6   62.16    1.89
   3   0  -6   60.54    1.74
  -3   0   6   62.16    1.92
   1   0  -6   78.58    2.30
   1   0  -6   76.76    2.32
  -1   0   6   76.22    2.17
  -1   0   6   74.40    2.30
  -1   0   6   77.45    2.39
   1   0  -6   77.91    2.39
  -1   0   6   78.44    2.32
  -1   0   6   77.52    2.28
   1   0  -6   79.50    2.28
   1   0  -6   75.80    2.28
   1   0  -6   76.90    2.33
   1   0  -6   79.29    2.35
  -1   0   6   75.72    2.33
  -1   0   6   75.46    2.29
   1   0  -6   79.14    2.29
  -1   0   6   77.77    2.39
   1   0   6   28.94    0.95
  -1   0  -6   28.32    1.04
   1   0   6   27.59    0.95
  -1   0  -6   29.70    1.04
   1   0   6   29.60    0.89
  -1   0  -6   28.81    1.05
   1   0   6   28.44    1.05
  -1   0  -6   28.50    0.98
   1   0   6   28.08    0.88
  -1   0  -6   27.61    0.95
   1   0   6   29.08    1.01
   1   0   6   28.38    0.97
  -1   0  -6   26.34    0.94
   1   0   6   28.42    1.00
   1   0   6   29.09    1.00
  -2   0  -6  943.43   26.23
   3   0   6   29.12    1.05
   3   0   6   27.24    0.93
   3   0   6   27.93    0.97
  -3   0  -6   28.70    1.00
   3   0   6   28.96    1.17
   3   0   6   29.11    0.95
   3   0   6   29.46    0.94
   3   0   6   28.41    1.24
  -3   0  -6   30.25    1.03
  -3   0  -6   28.47    1.37
   3   0   6   29.24    1.11
  -3   0  -6   29.76    0.97
  -3   0  -6   28.37    0.98
  -4   0  -6  358.78   10.03
  -4   0  -6  350.39   10.06
  -4   0  -6  362.06   10.50
   4   0   6  348.89   10.13
   4   0   6  360.02   10.29
   4   0   6  356.31   10.07
   4   0   6  370.96   10.41
   5  -1  -6  160.48    4.89
   5  -1  -6  159.81    4.96
  -5  -1   6  154.70    4.47
  -5  -1   6  153.30    4.63
   5  -1  -6  154.37    4.53
  -5  -1   6  152.66    4.44
  -5   1   6  155.50    4.76
   5   1  -6  149.13    4.54
   5   1  -6  153.28    4.48
   5   1  -6  161.26    4.82
  -5   1   6  156.32    4.49
   5   1  -6  152.07    4.80
  -4  -1   6  320.70    8.89
   4  -1  -6  305.67    8.81
  -4  -1   6  325.11    9.08
   4  -1  -6  328.10    9.15
  -4  -1   6  317.35    8.99
   4  -1  -6  317.89    9.01
   4  -1  -6  322.09    9.19
   4  -1  -6  308.70    8.81
   4  -1  -6  298.29    8.78
  -4  -1   6  312.47    8.85
   4  -1  -6  308.92    8.80
   4  -1  -6  318.78    8.95
  -4   1   6  310.39    8.88
   4   1  -6  320.61    8.91
   4   1  -6  320.01    8.99
   4   1  -6  299.76    8.71
   4   1  -6  308.07    8.73
  -4   1   6  315.55    8.84
   4   1  -6  315.45    8.97
  -4   1   6  316.44    9.05
   4   1  -6  315.54    9.07
   4   1  -6  328.73    9.10
  -4   1   6  314.59    8.91
  -4   1   6  326.52    8.87
   3  -1  -6  245.10    6.96
   3  -1  -6  249.81    7.01
   3  -1  -6  254.19    7.07
  -3  -1   6  252.99    7.09
   3  -1  -6  252.71    7.23
   3  -1  -6  248.32    7.19
   3  -1  -6  247.72    7.26
  -3  -1   6  246.53    7.29
   3  -1  -6  256.46    7.14
  -3  -1   6  254.39    7.19
  -3  -1   6  251.78    7.14
  -3  -1   6  246.79    7.06
   3   1  -6  246.97    7.07
  -3   1   6  256.99    7.15
  -3   1   6  252.26    7.18
   3   1  -6  253.70    7.18
   3   1  -6  248.16    7.11
   3   1  -6  253.14    7.20
   3   1  -6  251.50    7.18
   3   1  -6  247.51    7.09
  -3   1   6  249.67    7.03
  -3   1   6  238.49    7.07
  -3   1   6  252.98    7.10
   2  -1  -6  584.11   15.85
  -2  -1   6  584.31   15.87
  -2  -1   6  592.60   15.81
  -2  -1   6  539.30   15.91
   2  -1  -6  602.37   15.91
  -2   1   6  495.49   16.20
   2   1  -6  585.63   15.97
  -2   1   6  560.99   15.97
   1  -1  -6  453.00   12.61
  -1  -1   6  451.09   12.58
   1  -1  -6  454.68   12.51
   1  -1  -6  455.66   12.53
  -1  -1   6  454.68   12.60
   1   1  -6  450.17   12.61
  -1   1   6  442.68   12.52
  -1   1   6  443.32   12.60
  -1   1   6  434.78   12.60
   0   1   6  520.69   14.58
  -1  -1  -6  446.61   12.73
  -1  -1  -6  432.03   12.68
  -1  -1  -6  468.03   12.73
   1  -1   6  452.44   12.69
   1  -1   6  467.25   12.76
   1   1   6  457.31   12.65
   1   1   6  443.56   12.62
   1   1   6  467.38   12.76
  -1   1  -6  441.04   12.70
  -1   1  -6  463.22   12.75
  -2  -1  -6  344.38    9.68
   2  -1   6  338.30    9.72
  -2  -1  -6  342.94    9.83
  -2  -1  -6  349.53    9.74
   2  -1   6  345.13    9.65
  -2  -1  -6  337.42    9.71
   2  -1   6  333.46    9.63
   2  -1   6  343.57    9.66
  -2  -1  -6  346.82    9.73
   2  -1   6  349.19    9.73
   2  -1   6  347.10    9.74
   2  -1   6  331.32    9.74
  -2  -1  -6  345.06    9.67
  -2  -1  -6  344.43    9.66
  -2  -1  -6  353.66    9.84
   2  -1   6  348.06    9.79
   2  -1   6  346.90    9.80
   2   1   6  341.75    9.64
   2   1   6  348.22    9.72
  -2   1  -6  350.39    9.72
  -2   1  -6  345.34    9.67
  -2   1  -6  350.70    9.71
  -2   1  -6  347.37    9.75
  -2   1  -6  347.55    9.64
   2   1   6  353.07    9.78
   2   1   6  349.49    9.70
  -2   1  -6  336.02    9.79
  -2   1  -6  350.03    9.84
   2   1   6  343.75    9.70
   2   1   6  345.06    9.64
   2   1   6  340.56    9.62
   2   1   6  342.94    9.79
   3  -1   6  189.47    5.50
   3  -1   6  199.36    5.73
  -3  -1  -6  196.16    5.78
   3  -1   6  195.50    5.56
   3  -1   6  202.65    5.64
  -3  -1  -6  192.79    5.45
   3  -1   6  186.05    5.45
  -3  -1  -6  190.91    5.50
   3  -1   6  195.87    5.62
  -3  -1  -6  195.01    5.48
   3   1   6  176.74    5.42
   3   1   6  189.34    5.48
  -3   1  -6  194.36    5.79
  -3   1  -6  193.74    5.53
  -3   1  -6  194.85    5.51
   3   1   6  192.04    5.53
  -3   1  -6  195.64    5.54
   3   1   6  190.09    5.58
   3   1   6  193.47    5.50
   3   1   6  186.06    5.41
   3   1   6  184.61    5.39
  -3   1  -6  197.49    5.50
   4  -1   6  180.56    5.27
   4  -1   6  187.68    5.57
   4  -1   6  188.11    5.42
   4  -1   6  178.16    5.33
  -4  -1  -6  172.61    5.61
  -4  -1  -6  175.94    5.20
  -4  -1  -6  181.91    5.19
  -4   1  -6  180.30    5.66
   4   1   6  180.15    5.26
  -4   1  -6  184.62    5.22
   4   1   6  191.55    5.53
   4   1   6  180.91    5.23
   4   1   6  176.86    5.27
   4   1   6  187.60    5.59
  -4   1  -6  176.94    5.25
  -4   1  -6  183.38    5.28
  -5  -2   6  288.38    8.22
   5  -2  -6  296.10    8.68
   5  -2  -6  287.48    8.35
   5  -2  -6  302.00    8.78
  -5  -2   6  294.24    8.50
   5   2  -6  288.88    8.48
   5   2  -6  286.96    8.27
  -5   2   6  292.49    8.54
   5   2  -6  288.97    8.45
   5   2  -6  304.86    8.57
  -5   2   6  289.96    8.30
   4  -2  -6   52.98    1.67
   4  -2  -6   53.20    2.03
   4  -2  -6   51.29    1.65
  -4  -2   6   52.87    1.87
  -4  -2   6   53.64    1.70
   4  -2  -6   52.16    1.66
   4  -2  -6   53.67    1.80
   4  -2  -6   54.87    1.98
  -4  -2   6   52.94    1.67
  -4  -2   6   54.42    1.88
   4  -2  -6   50.22    1.87
  -4   2   6   54.07    1.75
   4   2  -6   53.05    1.73
  -4   2   6   53.97    1.87
   4   2  -6   51.85    1.53
  -4   2   6   55.12    1.74
   4   2  -6   56.62    1.91
   4   2  -6   53.59    1.82
   4   2  -6   53.15    1.80
  -4   2   6   53.57    1.75
  -3  -2   6  761.80   20.90
  -3  -2   6  736.03   20.99
  -3  -2   6  756.92   20.94
  -3  -2   6  769.54   20.87
   3  -2  -6  753.35   21.07
   3  -2  -6  736.33   20.99
  -3   2   6  778.18   20.97
  -3   2   6  760.15   20.82
   3   2  -6  764.13   20.96
  -3   2   6  734.93   20.94
   3   2  -6  747.04   20.95
   3   2  -6  721.21   20.88
  -2  -2   6  102.94    3.03
  -2  -2   6  101.44    3.04
   2  -2  -6   97.70    3.11
   2  -2  -6  102.59    3.13
   2  -2  -6  104.32    3.03
  -2  -2   6  102.32    3.07
   2  -2  -6  105.28    3.03
  -2  -2   6  102.27    3.00
  -2  -2   6   99.62    3.09
   2  -2  -6  105.51    3.09
   2  -2  -6  101.92    2.92
  -2  -2   6   93.88    3.08
   2  -2  -6  100.76    2.91
   2  -2  -6  102.84    3.02
  -2  -2   6  102.06    3.04
   2  -2  -6  103.83    3.04
   2   2  -6  103.00    3.12
   2   2  -6  103.41    3.06
  -2   2   6  103.90    3.13
  -2   2   6   99.42    3.04
  -2   2   6  100.75    2.91
   2   2  -6  101.67    2.98
  -2   2   6  100.59    3.03
   2   2  -6  105.09    3.01
   2   2  -6  101.98    2.99
   2   2  -6  104.01    3.05
   2   2  -6  102.41    3.03
  -2   2   6  100.89    3.08
   2   2  -6  102.56    3.04
  -2   2   6  103.74    2.97
  -2   2   6   95.74    3.18
  -2   2   6  102.95    3.03
   0  -2  -6  256.88    7.32
   0  -2  -6  259.08    7.25
   0  -2   6  250.16    7.28
   0  -2   6  261.00    7.40
   0  -2   6  261.65    7.25
   0  -2   6  265.68    7.33
   0  -2  -6  256.99    7.31
   0  -2   6  264.27    7.35
   0  -2  -6  255.63    7.30
   0  -2   6  253.82    7.29
   0  -2  -6  264.07    7.30
   0  -2   6  259.06    7.30
   0  -2  -6  260.77    7.32
   0  -2  -6  260.29    7.34
   0  -2  -6  263.49    7.39
   0  -2   6  267.95    7.30
   0   2   6  260.13    7.30
   0   2   6  261.36    7.23
   0   2   6  260.51    7.28
   0   2  -6  255.19    7.28
   0   2  -6  265.26    7.36
   0   2  -6  254.64    7.30
   0   2   6  253.93    7.41
   0   2   6  264.46    7.31
   0   2  -6  263.00    7.32
   0   2  -6  255.05    7.40
   0   2   6  231.73    7.30
   0   2   6  264.16    7.30
   0   2  -6  254.34    7.31
   0   2   6  245.14    7.33
   0   2  -6  256.72    7.29
  -1  -2  -6  643.74   17.82
  -1  -2  -6  621.14   17.80
  -1  -2  -6  647.83   17.82
   1   2   6  651.13   17.73
  -1   2  -6  647.48   17.85
  -1   2  -6  619.38   17.78
   2  -2   6  103.46    3.15
  -2  -2  -6  103.48    3.09
  -2  -2  -6   94.16    3.13
   2  -2   6   99.63    3.00
  -2  -2  -6  103.48    3.00
   2  -2   6  100.71    3.08
   2  -2   6   98.81    3.02
   2  -2   6  104.44    3.06
  -2  -2  -6   99.57    3.15
  -2  -2  -6  103.43    3.01
  -2  -2  -6  101.12    3.03
   2  -2   6  103.47    3.12
   2  -2   6  102.38    3.13
   2   2   6   99.02    2.96
   2   2   6  101.00    3.04
  -2   2  -6  103.95    3.18
   2   2   6  102.96    3.16
  -2   2  -6  105.26    3.05
   2   2   6  100.83    3.05
   2   2   6  101.38    3.03
  -2   2  -6  102.83    3.09
  -2   2  -6   98.84    3.13
  -2   2  -6  104.26    3.06
   2   2   6  103.99    3.12
  -3  -2  -6  461.86   12.56
   3  -2   6  466.65   12.74
   3  -2   6  441.16   12.64
   3  -2   6  460.49   12.78
   3  -2   6  427.81   12.59
  -3  -2  -6  436.62   12.81
  -3  -2  -6  457.82   12.72
  -3  -2  -6  457.56   12.50
   3  -2   6  453.31   12.66
  -3  -2  -6  442.71   12.57
   3  -2   6  424.60   12.54
   3   2   6  442.52   12.59
   3   2   6  464.40   12.81
  -3   2  -6  455.88   12.59
   3   2   6  454.21   12.67
  -3   2  -6  444.70   12.62
   3   2   6  444.47   12.63
  -3   2  -6  444.01   12.85
  -3   2  -6  456.62   12.65
  -3   2  -6  453.06   12.63
  -4  -2  -6   29.69    1.07
   4  -2   6   30.88    1.46
   4  -2   6   30.47    1.25
   4  -2   6   31.41    1.28
  -4  -2  -6   30.26    1.47
  -4  -2  -6   30.68    1.05
  -4   2  -6   29.51    1.15
  -4   2  -6   31.73    1.22
   4   2   6   30.05    1.44
  -4   2  -6   32.17    1.58
   4   2   6   29.95    1.12
   4   2   6   31.41    1.25
   4   2   6   28.44    1.46
   4   2   6   29.53    1.15
   5  -3  -6  206.96    6.20
  -5  -3   6  208.93    6.36
  -5  -3   6  210.09    6.02
   5  -3  -6  212.24    6.52
   5  -3  -6  217.08    6.63
  -5   3   6  208.20    6.14
   5   3  -6  208.56    6.09
   5   3  -6  215.48    6.53
  -5   3   6  213.81    6.34
   5   3  -6  215.55    6.33
   4  -3  -6  122.44    3.64
  -4  -3   6  121.89    3.86
   4  -3  -6  125.66    3.80
  -4  -3   6  123.60    3.66
  -4  -3   6  126.68    3.63
   4  -3  -6  123.98    4.01
   4   3  -6  125.60    3.96
   4   3  -6  126.38    3.82
   4   3  -6  124.19    3.68
  -4   3   6  125.74    3.73
  -4   3   6  124.75    3.83
   4   3  -6  115.99    3.75
   4   3  -6  123.12    3.71
  -3  -3   6  382.17   10.82
   3  -3  -6  387.27   10.92
  -3  -3   6  390.78   10.85
  -3  -3   6  393.32   10.88
  -3  -3   6  388.22   10.92
   3  -3  -6  388.25   10.83
   3  -3  -6  372.03   10.74
   3  -3  -6  376.92   10.97
  -3   3   6  380.87   10.90
  -3   3   6  386.18   10.90
   3   3  -6  382.76   10.76
  -3   3   6  378.75   10.85
   3   3  -6  367.73   10.61
  -3   3   6  405.19   10.84
   3   3  -6  383.02   10.93
   3   3  -6  383.51   10.75
  -3   3   6  390.63   10.95
  -2  -3   6  136.53    4.15
  -2  -3   6  145.95    4.16
   2  -3  -6  137.48    4.13
  -2  -3   6  142.65    3.95
   2  -3  -6  145.46    4.23
   2  -3  -6  143.97    4.17
  -2  -3   6  139.22    4.10
   2  -3  -6  138.80    4.26
  -2  -3   6  142.83    4.18
  -2  -3   6  134.63    4.21
   2  -3  -6  147.21    4.13
  -2  -3   6  141.78    4.20
   2  -3  -6  145.86    4.06
   2  -3  -6  145.92    4.16
  -2  -3   6  141.15    4.15
   2  -3  -6  142.22    4.26
  -2   3   6  143.63    4.23
   2   3  -6  143.50    4.16
   2   3  -6  139.24    4.04
   2   3  -6  144.18    4.16
  -2   3   6  145.78    4.17
  -2   3   6  138.96    3.97
  -2   3   6  137.41    4.14
  -2   3   6  136.74    4.13
   2   3  -6  147.33    4.27
  -2   3   6  135.90    4.15
  -2   3   6  143.01    4.17
  -2   3   6  145.76    4.28
  -2   3   6  136.74    4.33
   2   3  -6  139.42    3.97
   2   3  -6  138.46    4.15
   2   3  -6  140.72    4.10
   2   3  -6  144.48    4.13
  -1  -3   6  800.59   22.31
   0  -3   6   63.09    1.99
   0  -3   6   65.41    1.99
   0  -3  -6   66.97    1.97
   0  -3   6   63.67    1.94
   0  -3   6   62.29    2.02
   0  -3  -6   64.83    2.01
   0  -3  -6   68.56    2.11
   0  -3   6   64.52    2.07
   0  -3  -6   65.21    2.04
   0  -3  -6   62.49    2.03
   0  -3  -6   64.78    2.02
   0  -3  -6   65.46    2.03
   0  -3   6   64.13    1.98
   0  -3  -6   60.40    1.84
   0  -3   6   66.70    2.04
   0  -3  -6   61.37    2.09
   0   3  -6   61.90    1.97
   0   3   6   64.99    2.07
   0   3   6   65.35    2.01
   0   3   6   63.04    1.94
   0   3   6   60.25    2.01
   0   3  -6   63.29    1.97
   0   3  -6   59.63    1.95
   0   3  -6   66.64    1.93
   0   3   6   65.04    2.01
   0   3   6   68.45    2.03
   0   3  -6   62.47    2.01
   0   3  -6   72.99    2.05
   0   3  -6   63.47    2.13
   0   3   6   64.05    2.12
   0   3   6   63.24    2.08
   0   3  -6   64.06    2.03
   0   3  -6   64.28    2.07
  -1  -3  -6  727.93   20.09
   1  -3   6  707.48   20.08
   1  -3   6  716.43   20.02
   1  -3   6  733.46   20.05
  -1  -3  -6  734.20   20.13
  -1   3  -6  736.69   20.11
   1   3   6  710.52   20.08
  -1   3  -6  694.94   20.04
  -1   3  -6  717.29   20.06
  -1   3  -6  723.13   20.14
  -2  -3  -6   89.65    3.24
  -2  -3  -6  105.57    3.11
   2  -3   6  105.33    3.10
  -2  -3  -6   96.16    3.18
   2  -3   6   98.14    3.10
   2  -3   6  105.44    3.25
   2  -3   6  106.00    3.19
  -2  -3  -6  104.11    3.09
   2  -3   6  105.62    3.09
  -2  -3  -6  107.66    3.08
  -2  -3  -6  100.50    3.14
   2  -3   6  109.35    3.19
   2   3   6  103.09    3.03
  -2   3  -6  104.03    3.10
  -2   3  -6  100.98    3.17
  -2   3  -6  107.48    3.20
  -2   3  -6  102.19    3.23
  -2   3  -6  105.47    3.14
   2   3   6  101.85    3.08
   2   3   6  102.96    3.14
   2   3   6  104.05    3.21
   2   3   6  105.67    3.14
   2   3   6  104.31    3.25
  -2   3  -6  101.66    3.19
  -3  -3  -6  248.97    7.09
  -3  -3  -6  237.04    7.13
   3  -3   6  230.09    6.93
   3  -3   6  251.88    7.14
  -3  -3  -6  239.54    6.94
   3  -3   6  243.54    6.97
   3  -3   6  244.63    7.05
   3  -3   6  251.35    7.13
  -3  -3  -6  246.43    6.86
  -3  -3  -6  245.90    6.93
   3   3   6  243.62    7.04
   3   3   6  227.17    6.79
   3   3   6  249.97    7.21
  -3   3  -6  251.42    7.07
  -3   3  -6  231.76    7.57
   3   3   6  244.33    7.04
  -3   3  -6  248.62    7.23
  -3   3  -6  241.46    6.96
   3   3   6  242.05    6.99
  -3   3  -6  243.29    7.01
  -4  -3  -6   77.12    2.42
   4  -3   6   78.02    2.53
   4  -3   6   80.43    2.74
   4  -3   6   77.11    2.65
  -4  -3  -6   78.29    2.74
   4   3   6   76.70    2.50
   4   3   6   80.75    2.83
  -4   3  -6   80.87    2.63
   4   3   6   78.91    2.62
  -4   3  -6   78.45    2.53
  -4   3  -6   80.86    2.90
   4  -4  -6  149.77    4.76
  -4  -4   6  147.99    4.35
  -4  -4   6  145.91    4.60
   4  -4  -6  142.51    4.36
   4  -4  -6  150.34    4.56
   4   4  -6  148.47    4.45
  -4   4   6  148.33    4.56
   4   4  -6  155.88    4.54
  -4   4   6  146.71    4.57
  -4   4   6  147.68    4.47
   4   4  -6  150.80    4.69
  -3  -4   6  206.07    6.06
   3  -4  -6  216.84    6.34
   3  -4  -6  208.78    6.14
  -3  -4   6  215.20    6.23
   3  -4  -6  213.61    6.30
  -3  -4   6  212.00    6.12
   3  -4  -6  212.05    6.05
   3  -4  -6  213.31    6.25
  -3  -4   6  207.89    5.92
  -3  -4   6  209.23    6.14
   3   4  -6  210.36    6.05
   3   4  -6  215.66    6.29
  -3   4   6  208.94    6.15
  -3   4   6  209.06    6.19
   3   4  -6  213.38    6.18
  -3   4   6  211.65    6.14
   3   4  -6  202.06    5.94
   3   4  -6  216.40    6.16
  -3   4   6  215.70    6.28
  -3   4   6  208.48    6.18
  -3   4   6  217.14    6.20
   3   4  -6  208.17    6.24
  -2  -4   6  261.15    7.33
  -2  -4   6  249.61    7.21
   2  -4  -6  257.31    7.41
  -2  -4   6  262.22    7.09
   2  -4  -6  267.38    7.38
  -2  -4   6  249.56    7.28
   2  -4  -6  250.66    7.29
  -2  -4   6  254.76    7.26
  -2  -4   6  247.88    7.16
   2  -4  -6  255.48    7.19
   2  -4  -6  256.48    7.29
   2  -4  -6  245.25    7.16
  -2   4   6  243.81    7.27
   2   4  -6  257.14    7.23
  -2   4   6  260.81    7.28
  -2   4   6  245.41    7.00
  -2   4   6  257.43    7.29
   2   4  -6  253.94    7.32
   2   4  -6  256.97    7.32
   2   4  -6  243.87    7.09
  -2   4   6  248.03    7.24
  -2   4   6  267.64    7.44
  -2   4   6  245.45    6.99
   2   4  -6  255.85    7.39
  -2   4   6  238.55    7.28
  -2   4   6  253.14    7.37
   2   4  -6  257.62    7.26
   2   4  -6  246.59    7.07
   1  -4  -6  248.00    7.17
   1  -4  -6  244.96    6.96
  -1  -4   6  241.81    7.08
   1  -4  -6  244.58    7.07
  -1  -4   6  239.49    7.21
   1  -4  -6  247.35    7.12
   1  -4  -6  253.17    6.92
  -1  -4   6  240.45    7.05
  -1  -4   6  249.20    6.93
  -1  -4   6  238.26    7.01
   1  -4  -6  253.49    7.13
  -1  -4   6  252.76    7.14
   1  -4  -6  244.31    7.07
  -1  -4   6  245.97    7.03
   1  -4  -6  258.34    7.06
   1   4  -6  238.80    6.97
   1   4  -6  243.79    7.04
  -1   4   6  244.54    7.05
   1   4  -6  245.61    7.03
  -1   4   6  249.26    6.93
  -1   4   6  246.79    7.13
  -1   4   6  249.91    7.05
  -1   4   6  247.75    6.89
   1   4  -6  237.90    7.02
  -1   4   6  245.56    7.02
  -1   4   6  243.38    7.05
  -1   4   6  238.03    7.12
   1   4  -6  245.18    6.94
   1   4  -6  258.72    7.13
  -1   4   6  251.73    7.20
   1   4  -6  248.08    7.02
  -1   4   6  237.59    6.95
   1   4  -6  243.92    6.91
   1   4  -6  241.78    7.17
   1   4  -6  242.47    7.11
   0  -4   6  328.17    9.52
   0  -4  -6  326.38    9.49
   0  -4  -6  335.89    9.45
   0  -4  -6  334.79    9.48
   0  -4   6  329.97    9.47
   0  -4  -6  293.91    9.71
   0  -4   6  345.69    9.40
   0  -4   6  332.26    9.41
   0  -4   6  329.68    9.37
   0  -4  -6  335.11    9.40
   0  -4   6  323.25    9.43
   0  -4  -6  333.98    9.27
   0  -4   6  348.00    9.49
   0  -4  -6  338.41    9.52
   0  -4   6  339.01    9.58
   0  -4  -6  340.22    9.57
   0   4  -6  333.31    9.36
   0   4  -6  329.48    9.44
   0   4   6  338.31    9.44
   0   4   6  336.37    9.47
   0   4   6  341.93    9.61
   0   4   6  341.00    9.46
   0   4  -6  326.44    9.53
   0   4  -6  345.24    9.45
   0   4  -6  325.71    9.42
   0   4  -6  340.15    9.48
   0   4  -6  335.91    9.61
   0   4   6  335.40    9.37
   0   4   6  337.17    9.45
   0   4  -6  336.87    9.32
   0   4   6  329.18    9.39
   0   4  -6  341.86    9.47
   0   4  -6  330.58    9.39
   0   4   6  329.20    9.46
   1  -4   6  200.85    5.84
  -1  -4  -6  210.90    5.93
  -1  -4  -6  204.57    5.90
   1  -4   6  206.99    6.03
  -1  -4  -6  211.64    5.89
   1  -4   6  209.84    5.99
  -1  -4  -6  191.39    6.06
   1  -4   6  212.82    5.89
   1  -4   6  217.03    6.06
   1  -4   6  206.69    5.87
  -1  -4  -6  193.03    5.89
  -1  -4  -6  201.49    5.87
   1  -4   6  215.33    5.94
  -1   4  -6  202.86    6.04
  -1   4  -6  213.26    5.95
  -1   4  -6  188.38    5.67
  -1   4  -6  188.28    5.89
  -1   4  -6  187.15    5.96
   1   4   6  209.08    5.96
   1   4   6  212.56    5.93
  -1   4  -6  194.09    5.64
  -1   4  -6  203.50    5.91
   1   4   6  199.97    5.84
  -1   4  -6  217.53    6.29
   1   4   6  210.41    6.04
   1   4   6  210.57    5.88
   1   4   6  205.11    5.96
  -1   4  -6  192.60    5.92
   1   4   6  196.59    5.85
  -1   4  -6  197.06    5.91
  -2  -4  -6  191.37    5.43
   2  -4   6  185.43    5.44
  -2  -4  -6  182.38    5.56
   2  -4   6  191.38    5.40
  -2  -4  -6  187.83    5.43
  -2  -4  -6  191.69    5.50
   2  -4   6  194.79    5.63
  -2  -4  -6  176.33    5.49
   2  -4   6  193.65    5.56
   2   4   6  180.35    5.36
   2   4   6  193.58    5.51
   2   4   6  184.44    5.89
  -2   4  -6  188.09    5.57
   2   4   6  187.82    5.50
  -2   4  -6  191.92    5.50
   2   4   6  177.38    5.38
   2   4   6  187.03    5.70
  -2   4  -6  195.81    5.47
  -2   4  -6  173.29    5.53
  -3  -4  -6  147.51    4.45
   3  -4   6  150.91    4.56
   3  -4   6  147.70    4.31
   3  -4   6  150.77    4.49
  -3  -4  -6  141.37    4.45
  -3  -4  -6  141.87    4.35
  -3  -4  -6  148.72    4.33
  -3   4  -6  145.70    4.40
   3   4   6  149.93    4.46
   3   4   6  146.17    4.59
   3   4   6  141.01    4.39
  -3   4  -6  145.70    4.59
  -3   4  -6  146.44    4.51
   3   4   6  142.91    4.44
  -4  -4  -6   73.65    2.65
  -4  -4  -6   72.85    2.37
   4  -4   6   76.95    2.44
  -4  -4  -6   74.64    2.60
   4  -4   6   75.76    2.65
   4   4   6   72.70    2.48
  -4   4  -6   78.02    2.68
   4   4   6   76.33    2.83
   4   4   6   77.44    2.63
  -4   4  -6   75.60    2.52
  -4  -5   6  247.73    7.12
   4  -5  -6  242.09    7.35
   4  -5  -6  245.72    7.49
  -4  -5   6  243.97    7.37
   4  -5  -6  244.58    7.13
   4   5  -6  247.23    7.25
  -4   5   6  262.51    7.37
   4   5  -6  247.91    7.44
  -4   5   6  243.99    7.24
  -4   5   6  247.79    7.35
   4   5  -6  247.90    7.24
  -3  -5   6   18.69    1.04
   3  -5  -6   18.78    1.04
  -3  -5   6   19.11    0.87
  -3  -5   6   19.95    0.73
   3  -5  -6   18.80    1.09
   3   5  -6   19.26    0.97
   3   5  -6   19.40    0.94
  -3   5   6   18.43    0.98
  -3   5   6   19.33    0.97
   3   5  -6   19.53    1.07
  -3   5   6   18.27    0.98
  -2  -5   6  509.68   14.41
  -2  -5   6  493.33   14.10
   2  -5  -6  531.15   14.51
  -2  -5   6  464.32   14.30
   2  -5  -6  524.97   14.45
   2  -5  -6  510.63   14.23
   2  -5  -6  493.06   14.57
  -2  -5   6  512.42   14.35
  -2  -5   6  521.69   14.34
  -2  -5   6  497.37   14.18
  -2   5   6  512.01   14.35
   2   5  -6  522.46   14.39
   2   5  -6  506.04   14.17
  -2   5   6  504.98   14.29
   2   5  -6  498.53   14.29
  -2   5   6  533.69   14.35
   2   5  -6  515.65   14.31
   2   5  -6  492.06   14.47
  -2   5   6  526.87   14.38
   2   5  -6  503.25   14.48
   1  -5  -6    2.92    0.49
  -1  -5   6    3.00    0.47
   1  -5  -6    3.64    0.32
  -1  -5   6    3.46    0.42
  -1  -5   6    4.14    0.37
  -1  -5   6    4.63    0.71
   1  -5  -6    4.12    0.40
   1  -5  -6    3.60    0.49
   1  -5  -6    3.05    0.48
   1  -5  -6    3.63    0.45
  -1  -5   6    3.07    0.33
   1   5  -6    3.12    0.43
   1   5  -6    3.18    0.30
   1   5  -6    3.50    0.42
   1   5  -6    2.73    0.42
  -1   5   6    2.86    0.53
   1   5  -6    2.20    0.57
   1   5  -6    3.58    0.48
  -1   5   6    3.41    0.32
  -1   5   6    3.19    0.61
  -1   5   6    3.88    0.30
  -1   5   6    2.85    0.44
  -1   5   6    3.56    0.45
  -1   5   6    2.87    0.36
   1   5  -6    3.48    0.46
  -1   5   6    3.38    0.57
  -1   5   6    3.83    0.45
   0  -5  -6  648.20   17.87
   0  -5  -6  637.24   17.95
   0  -5   6  637.85   17.82
   0  -5   6  650.48   17.91
   0  -5   6  641.12   18.00
   0  -5  -6  637.13   17.99
   0  -5   6  638.07   17.86
   0  -5   6  664.65   17.82
   0  -5   6  667.08   17.96
   0  -5  -6  644.27   17.91
   0  -5  -6  639.56   17.85
   0  -5   6  629.93   18.04
   0  -5  -6  635.98   18.03
   0   5  -6  610.64   18.07
   0   5  -6  621.55   17.81
   0   5  -6  649.41   17.77
   0   5   6  641.88   17.90
   0   5   6  594.89   17.88
   0   5  -6  626.89   17.79
   0   5  -6  662.54   18.04
   0   5   6  641.12   17.91
   0   5   6  618.26   18.00
   0   5   6  644.45   17.93
   0   5  -6  624.03   17.88
   0   5  -6  634.07   17.92
   0   5  -6  675.86   17.93
   0   5   6  646.55   17.89
   0   5  -6  659.56   17.92
   0   5   6  651.84   18.10
   0   5   6  626.46   17.80
   1  -5   6    4.12    0.42
  -1  -5  -6    3.75    0.52
   1  -5   6    4.87    0.47
  -1  -5  -6    4.47    0.44
   1  -5   6    4.05    0.64
  -1  -5  -6    4.50    0.50
   1  -5   6    5.33    0.79
   1  -5   6    3.99    0.52
   1  -5   6    4.33    0.58
  -1  -5  -6    3.96    0.42
  -1  -5  -6    3.82    0.43
  -1  -5  -6    3.74    0.19
   1   5   6    4.68    0.48
  -1   5  -6    4.33    0.72
  -1   5  -6    4.13    0.48
   1   5   6    3.93    0.20
  -1   5  -6    3.87    0.47
  -1   5  -6    4.32    0.52
   1   5   6    3.80    0.55
  -1   5  -6    4.05    0.24
   1   5   6    3.57    0.73
  -1   5  -6    4.33    0.36
   1   5   6    4.05    0.52
   1   5   6    3.67    0.53
  -1   5  -6    4.55    0.51
   1   5   6    3.73    0.41
   2  -5   6  373.45   10.73
   2  -5   6  373.24   10.64
  -2  -5  -6  375.59   10.72
  -2  -5  -6  362.89   10.90
  -2  -5  -6  397.81   10.76
   2  -5   6  395.99   10.79
  -2  -5  -6  380.61   10.78
   2  -5   6  380.29   10.97
  -2   5  -6  380.21   10.83
  -2   5  -6  364.19   10.77
  -2   5  -6  364.81   10.86
   2   5   6  362.99   10.80
   2   5   6  372.28   10.88
   2   5   6  385.91   10.89
  -2   5  -6  395.47   10.90
   2   5   6  387.07   10.80
   2   5   6  366.95   10.63
  -3  -5  -6   12.41    0.77
  -3  -5  -6   13.85    0.92
  -3  -5  -6   12.80    0.77
   3  -5   6   13.18    0.93
   3  -5   6   13.46    0.99
  -3   5  -6   13.46    0.86
   3   5   6   12.64    0.87
   3   5   6   13.19    0.93
  -3   5  -6   11.86    0.98
   3   5   6   12.68    1.03
  -3   5  -6   13.64    1.02
  -3  -6   6   29.35    1.24
   3  -6  -6   30.51    1.47
  -3  -6   6   31.50    1.31
   3  -6  -6   30.97    1.49
  -3  -6   6   28.87    1.41
   3  -6  -6   30.35    1.25
  -3   6   6   30.83    1.38
   3   6  -6   30.58    1.43
  -3   6   6   31.52    1.39
  -3   6   6   32.56    1.44
   3   6  -6   29.81    1.29
   3   6  -6   30.13    1.40
   2  -6  -6  181.02    5.44
   2  -6  -6  176.44    5.26
   2  -6  -6  187.80    5.44
  -2  -6   6  177.53    5.32
   2  -6  -6  187.71    5.53
  -2  -6   6  171.26    5.22
   2   6  -6  171.56    5.22
  -2   6   6  182.10    5.60
  -2   6   6  182.55    5.43
  -2   6   6  178.42    5.32
   2   6  -6  178.80    5.33
   2   6  -6  182.95    5.42
   2   6  -6  179.03    5.47
  -2   6   6  181.28    5.40
  -1  -6   6   99.98    3.04
   1  -6  -6   97.27    2.92
   1  -6  -6   88.32    2.81
   1  -6  -6   93.58    3.10
  -1  -6   6   91.27    3.10
   1  -6  -6   94.08    3.06
   1  -6  -6   94.45    3.03
  -1  -6   6   98.33    2.87
  -1  -6   6   96.84    2.99
  -1  -6   6   93.89    2.97
   1  -6  -6   85.53    3.13
   1  -6  -6   97.90    2.97
   1   6  -6   89.21    3.20
  -1   6   6   89.13    3.14
  -1   6   6   96.59    3.02
  -1   6   6   96.52    3.03
  -1   6   6   95.78    2.83
   1   6  -6   96.84    2.98
   1   6  -6   89.05    2.93
  -1   6   6   94.55    2.76
   1   6  -6   95.76    2.96
   1   6  -6   92.17    2.74
  -1   6   6   94.10    2.88
   1   6  -6   93.75    3.00
   1   6  -6   98.41    3.13
  -1   6   6   92.20    3.19
   0  -6  -6  134.53    3.98
   0  -6  -6  127.82    4.07
   0  -6   6  133.40    4.03
   0  -6   6  138.41    3.89
   0  -6  -6  136.17    4.05
   0  -6   6  131.22    3.96
   0  -6  -6  139.55    3.85
   0  -6   6  125.48    3.92
   0  -6   6  133.44    4.08
   0  -6   6  125.78    4.15
   0  -6   6  130.34    4.16
   0  -6  -6  127.21    4.10
   0  -6  -6  140.67    3.96
   0   6   6  130.27    4.03
   0   6  -6  133.02    3.91
   0   6   6  135.53    4.06
   0   6   6  130.86    3.89
   0   6   6  137.48    4.00
   0   6  -6  132.97    4.06
   0   6  -6  134.37    3.87
   0   6   6  131.37    4.18
   0   6  -6  130.47    4.26
   0   6   6  128.14    4.21
   0   6   6  118.50    3.99
   0   6   6  129.13    3.83
   0   6  -6  128.97    3.89
   0   6  -6  133.41    4.17
   0   6  -6  139.32    4.04
  -1  -6  -6   91.79    2.67
  -1  -6  -6   86.74    2.76
  -1  -6  -6   85.29    2.86
   1  -6   6   84.87    2.76
   1  -6   6   81.75    2.90
  -1  -6  -6   85.87    2.80
   1  -6   6   85.69    2.70
   1   6   6   80.81    2.91
   1   6   6   81.81    2.45
  -1   6  -6   87.06    2.53
  -1   6  -6   83.08    2.71
  -1   6  -6   87.11    2.92
   1   6   6   83.44    2.67
   1   6   6   84.42    2.82
  -1   6  -6   88.64    2.78
  -1   6  -6   85.77    2.77
  -1   6  -6   84.56    2.79
   1   6   6   88.44    2.81
   1   6   6   78.06    2.71
   2  -6   6  125.71    4.17
  -2  -6  -6  129.60    4.04
   2  -6   6  130.44    4.04
  -2  -6  -6  130.29    4.08
  -2  -6  -6  133.80    3.91
   2  -6   6  135.18    4.25
  -2   6  -6  129.22    4.09
  -2   6  -6  135.88    4.20
  -2   6  -6  122.39    4.05
   2   6   6  132.57    4.19
   2   6   6  129.04    4.19
   2   6   6  136.49    4.11
  -3  -6  -6   21.56    1.24
   3  -6   6   21.56    1.37
  -3  -6  -6   21.08    1.09
   3  -6   6   21.96    0.98
   3  -6   6   23.86    1.25
  -3   6  -6   19.43    1.37
   3   6   6   21.31    1.22
   3   6   6   21.84    1.23
   3   6   6   21.69    1.42
   3  -7  -6  183.21    5.59
   3  -7  -6  178.95    5.34
   3  -7  -6  187.16    5.68
  -3  -7   6  177.45    5.55
  -3  -7   6  173.79    5.38
   3   7  -6  175.36    5.56
  -3   7   6  185.18    5.54
   3   7  -6  180.94    5.60
  -3   7   6  173.94    5.58
  -3   7   6  177.47    5.49
   2  -7  -6    0.83    0.34
  -2  -7   6    2.61    0.57
  -2  -7   6    2.13    0.42
  -2  -7   6    1.32    0.37
   2  -7  -6    1.32    0.41
   2  -7  -6    2.37    0.51
   2   7  -6    1.21    0.43
  -2   7   6    1.21    0.44
   2   7  -6    1.73    0.48
  -2   7   6    1.54    0.46
   2   7  -6    1.09    0.46
  -2   7   6    1.38    0.53
   1  -7  -6  207.76    6.03
  -1  -7   6  204.76    6.08
  -1  -7   6  203.44    6.09
   1  -7  -6  198.67    6.18
  -1  -7   6  215.50    5.99
   1  -7  -6  205.72    6.25
  -1   7   6  196.64    6.34
   1   7  -6  206.51    6.07
  -1   7   6  205.38    6.14
   1   7  -6  206.48    6.07
  -1   7   6  211.52    6.17
   1   7  -6  208.01    6.28
  -1   7   6  199.26    5.98
  -1   7   6  205.43    5.91
   0  -7  -6    8.45    0.86
   0  -7   6    8.67    0.89
   0  -7  -6    8.53    0.59
   0  -7  -6    8.42    0.71
   0  -7   6    7.81    0.62
   0  -7   6    7.51    0.69
   0  -7   6    7.87    0.75
   0   7  -6    8.26    0.78
   0   7  -6    8.12    0.67
   0   7   6    8.23    0.56
   0   7   6    7.71    0.70
   0   7  -6    8.65    0.86
   0   7   6    7.21    0.83
   0   7   6    8.00    0.68
   0   7  -6    9.54    0.61
  -1  -7  -6  161.06    4.99
   1  -7   6  167.44    5.23
  -1  -7  -6  175.65    4.86
   1  -7   6  162.72    4.88
   1  -7   6  159.40    4.93
  -1  -7  -6  156.81    5.03
   1   7   6  161.79    5.05
  -1   7  -6  159.79    5.03
   1   7   6  168.65    5.05
   1   7   6  166.13    5.25
  -1   7  -6  172.06    5.04
   2  -7   6    3.03    0.56
  -2  -7  -6    3.10    0.54
   2  -7   6    4.23    0.89
  -2  -7  -6    2.86    0.55
   2  -7   6    3.93    0.65
   2  -7   6    3.39    0.61
   2   7   6    3.90    0.73
  -2   7  -6    4.21    0.70
   2   7   6    3.54    0.64
   2   7   6    3.67    0.65
   1  -8  -6   77.66    2.56
  -1  -8   6   77.41    2.69
  -1  -8   6   79.58    2.54
   1  -8  -6   79.72    2.63
  -1  -8   6   75.98    2.70
   1   8  -6   79.42    2.94
  -1   8   6   74.74    2.56
   1   8  -6   76.23    2.64
   1   8  -6   77.18    2.64
  -1   8   6   79.89    2.76
   0  -8  -6    6.62    1.02
   0  -8  -6    6.32    0.80
   0  -8   6    4.42    0.77
   0  -8   6    6.12    0.68
   0   8   6    4.99    0.75
   0   8   6    7.88    1.54
   0   8   6    5.36    0.78
   0   8  -6    4.33    0.98
   0   8  -6    6.58    0.75
   0   8  -6    7.34    0.78
   1  -8   6   80.68    2.66
  -1  -8  -6   77.51    2.83
   1  -8   6   81.87    2.71
  -1  -8  -6   76.25    2.86
   1   8   6   83.49    3.08
   1   8   6   82.88    2.86
  -1   8  -6   83.72    2.85
   5   0  -7    0.02    0.20
  -5   0   7    0.47    0.49
   5   0  -7   -0.26    0.51
   5   0  -7    0.12    0.49
  -5   0   7    0.39    0.19
   4   0  -7    0.33    0.27
   4   0  -7    0.62    0.18
   4   0  -7    1.21    0.40
  -4   0   7    0.37    0.16
  -4   0   7    0.56    0.33
  -4   0   7    0.75    0.21
   4   0  -7    0.26    0.19
   4   0  -7    0.64    0.37
   4   0  -7    1.09    0.29
  -4   0   7    0.54    0.24
  -3   0   7    0.09    0.17
  -3   0   7   -0.02    0.11
  -3   0   7   -0.01    0.10
   3   0  -7   -0.22    0.19
   3   0  -7    0.18    0.26
   3   0  -7    0.64    0.22
  -3   0   7    0.21    0.17
   3   0  -7   -0.05    0.14
   3   0  -7    0.20    0.25
   3   0  -7    0.02    0.16
  -2   0   7   -0.18    0.26
   2   0  -7    0.27    0.18
  -2   0   7    0.29    0.16
  -2   0   7    0.28    0.19
   2   0  -7    0.24    0.14
   2   0  -7    0.04    0.12
   2   0  -7    0.59    0.18
   2   0  -7    0.16    0.20
   2   0  -7    0.14    0.17
   2   0  -7    0.26    0.13
   2   0  -7    0.76    0.23
  -2   0   7    0.07    0.10
  -2   0   7    0.15    0.10
   1   0  -7    0.09    0.15
   1   0  -7    0.07    0.14
  -1   0   7    0.12    0.13
  -1   0   7    0.08    0.11
   1   0  -7    0.26    0.20
  -1   0   7    0.28    0.16
   1   0  -7    0.08    0.15
  -1   0   7    0.54    0.17
  -1   0   7    0.12    0.17
  -1   0   7    0.05    0.10
  -1   0   7    0.28    0.07
   1   0  -7    0.08    0.13
   0   0  -7    0.50    0.17
   0   0  -7    0.74    0.20
   0   0   7    1.05    0.17
   0   0   7    0.95    0.19
   0   0   7    0.76    0.15
  -1   0  -7    1.00    0.23
  -1   0  -7    0.60    0.15
  -1   0  -7    0.98    0.25
  -1   0  -7    0.31    0.20
   1   0   7    0.85    0.14
   1   0   7    0.57    0.16
   2   0   7    0.30    0.16
  -2   0  -7    0.24    0.16
  -2   0  -7    1.08    0.25
   2   0   7    0.49    0.22
   2   0   7    0.11    0.27
   2   0   7    0.67    0.19
   2   0   7    0.91    0.28
  -2   0  -7    1.04    0.30
  -3   0  -7    0.03    0.16
   3   0   7   -0.02    0.15
   3   0   7   -0.04    0.20
  -3   0  -7    1.07    0.41
  -3   0  -7   -0.06    0.13
   3   0   7    0.46    0.20
   3   0   7    0.17    0.17
   3   0   7    0.38    0.15
   3   0   7   -0.42    0.30
  -3   0  -7    0.06    0.14
  -3   0  -7    0.38    0.19
   3   0   7    0.32    0.23
   3   0   7    0.41    0.30
  -4   0  -7    0.14    0.21
   4   0   7    0.86    0.55
   4   0   7    0.67    0.47
   4   0   7    0.47    0.28
  -4   0  -7    0.91    0.50
   5  -1  -7   59.91    2.29
  -5  -1   7   60.40    2.22
   5  -1  -7   59.78    1.99
  -5  -1   7   61.00    2.09
   5  -1  -7   62.06    2.38
  -5  -1   7   60.15    1.89
  -5   1   7   61.22    2.22
   5   1  -7   60.31    1.96
   5   1  -7   59.99    2.25
  -5   1   7   59.81    1.93
   5   1  -7   62.57    2.25
  -4  -1   7   50.95    1.63
  -4  -1   7   50.25    1.73
   4  -1  -7   48.62    1.47
  -4  -1   7   49.73    1.78
   4  -1  -7   50.85    1.70
  -4  -1   7   49.21    1.57
   4  -1  -7   48.06    1.56
   4  -1  -7   51.63    1.87
   4  -1  -7   47.94    1.77
  -4  -1   7   50.01    1.60
   4  -1  -7   50.57    1.90
  -4   1   7   51.16    1.68
   4   1  -7   46.40    1.92
   4   1  -7   45.93    1.50
  -4   1   7   51.04    1.80
  -4   1   7   49.53    1.63
   4   1  -7   50.59    1.82
  -4   1   7   49.66    1.64
  -4   1   7   50.78    1.57
   4   1  -7   50.30    1.66
   4   1  -7   48.13    1.74
  -3  -1   7  206.45    6.49
  -3  -1   7  222.73    6.34
   3  -1  -7  223.35    6.45
  -3  -1   7  218.05    6.26
   3  -1  -7  217.29    6.28
   3  -1  -7  224.97    6.35
   3  -1  -7  222.95    6.42
  -3  -1   7  225.61    6.38
  -3  -1   7  217.76    6.29
  -3  -1   7  222.02    6.34
   3  -1  -7  220.81    6.20
   3  -1  -7  221.81    6.41
   3  -1  -7  209.59    6.10
   3   1  -7  213.96    6.27
  -3   1   7  218.72    6.37
   3   1  -7  226.57    6.41
  -3   1   7  221.23    6.31
  -3   1   7  225.01    6.38
   3   1  -7  225.77    6.39
   3   1  -7  224.87    6.37
   3   1  -7  214.53    6.32
  -3   1   7  215.07    6.23
   3   1  -7  219.73    6.25
  -3   1   7  223.43    6.29
  -2  -1   7  161.34    4.55
   2  -1  -7  163.03    4.53
  -2  -1   7  144.24    4.65
   2  -1  -7  156.73    4.46
   2  -1  -7  161.01    4.55
  -2  -1   7  155.32    4.55
  -2  -1   7  155.39    4.55
   2  -1  -7  159.09    4.53
   2  -1  -7  159.42    4.57
   2  -1  -7  159.97    4.62
  -2  -1   7  159.24    4.54
  -2  -1   7  153.77    4.59
  -2  -1   7  150.99    4.50
  -2  -1   7  139.28    4.81
   2  -1  -7  157.36    4.58
   2  -1  -7  160.63    4.65
   2  -1  -7  152.80    4.36
   2  -1  -7  158.85    4.53
   2   1  -7  156.63    4.55
   2   1  -7  157.02    4.50
  -2   1   7  156.77    4.54
   2   1  -7  152.36    4.56
   2   1  -7  156.69    4.53
  -2   1   7  155.18    4.52
  -2   1   7  155.44    4.38
   2   1  -7  154.85    4.51
  -2   1   7  153.06    4.57
   2   1  -7  163.98    4.66
  -2   1   7  158.56    4.48
  -2   1   7  154.32    4.56
   2   1  -7  157.80    4.55
  -2   1   7  161.34    4.64
   2   1  -7  161.88    4.53
  -2   1   7  154.18    4.71
  -1  -1   7  341.73    9.74
   1  -1  -7  359.93    9.77
   1  -1  -7  359.09    9.82
  -1  -1   7  346.75    9.77
   1  -1  -7  351.54    9.71
  -1  -1   7  336.51    9.85
   1  -1  -7  344.43    9.74
   1  -1  -7  350.05    9.74
   1  -1  -7  350.65    9.82
   1  -1  -7  348.94    9.88
  -1  -1   7  348.89    9.75
  -1  -1   7  345.83    9.87
  -1  -1   7  348.09    9.79
  -1  -1   7  352.71    9.81
   1  -1  -7  347.40    9.81
  -1   1   7  338.10    9.86
   1   1  -7  338.47    9.76
  -1   1   7  352.00    9.77
   1   1  -7  343.43    9.78
  -1   1   7  339.23    9.81
  -1   1   7  345.20    9.90
   1   1  -7  341.78    9.81
  -1   1   7  351.31    9.79
   1   1  -7  348.96    9.73
   1   1  -7  350.38    9.75
   1   1  -7  349.71    9.88
   1   1  -7  360.23    9.76
   0  -1   7  113.02    3.29
   0  -1   7  114.24    3.32
   0  -1  -7  111.24    3.33
   0  -1  -7  119.68    3.38
   0  -1   7  116.97    3.49
   0  -1   7  112.34    3.32
   0  -1   7  117.04    3.40
   0  -1   7  111.15    3.40
   0  -1  -7  117.04    3.41
   0  -1  -7  117.25    3.48
   0  -1   7  120.76    3.44
   0  -1  -7  100.00    3.48
   0  -1  -7  117.04    3.40
   0  -1  -7  111.81    3.25
   0  -1   7  114.11    3.29
   0  -1  -7  110.99    3.30
   0  -1  -7  114.24    3.26
   0  -1   7  115.72    3.37
   0  -1  -7  116.87    3.41
   0   1   7  110.48    3.40
   0   1   7  113.72    3.29
   0   1   7  117.10    3.39
   0   1  -7  114.55    3.40
   0   1   7  115.88    3.42
   0   1  -7  122.15    3.39
   0   1  -7  116.84    3.40
   0   1   7  125.54    3.55
   0   1  -7  115.99    3.34
   0   1   7  112.60    3.32
   0   1  -7  115.27    3.43
   0   1  -7  116.24    3.49
   0   1  -7  115.39    3.38
   0   1  -7  110.34    3.28
   0   1   7  114.02    3.37
   1  -1   7  176.14    4.98
  -1  -1  -7  175.10    4.95
  -1  -1  -7  173.07    4.92
   1  -1   7  166.35    4.95
   1  -1   7  162.61    4.85
   1  -1   7  165.57    4.90
   1  -1   7  180.07    4.95
  -1  -1  -7  171.26    5.01
   1  -1   7  174.61    5.05
   1  -1   7  168.75    4.90
  -1  -1  -7  171.41    4.96
  -1  -1  -7  173.16    5.01
  -1  -1  -7  169.78    4.96
  -1  -1  -7  174.61    5.02
   1  -1   7  170.87    4.96
  -1  -1  -7  177.14    4.93
  -1  -1  -7  170.12    4.74
   1  -1   7  167.72    4.95
   1   1   7  177.11    4.93
   1   1   7  166.17    4.94
  -1   1  -7  169.76    4.99
   1   1   7  172.18    4.97
  -1   1  -7  171.37    4.99
   1   1   7  164.54    4.90
   1   1   7  176.94    4.99
   1   1   7  171.99    4.86
  -1   1  -7  177.25    5.04
   1   1   7  179.86    5.06
  -1   1  -7  169.09    4.95
  -1   1  -7  156.24    4.83
  -1   1  -7  176.61    4.93
  -1   1  -7  177.40    4.98
  -1   1  -7  150.15    4.88
   1   1   7  175.14    4.89
  -2  -1  -7   45.62    1.47
   2  -1   7   47.07    1.44
   2  -1   7   46.10    1.62
  -2  -1  -7   43.44    1.54
  -2  -1  -7   45.97    1.55
  -2  -1  -7   45.94    1.50
   2  -1   7   46.38    1.55
   2  -1   7   44.73    1.29
   2  -1   7   44.47    1.60
  -2  -1  -7   44.97    1.51
  -2  -1  -7   45.85    1.66
   2  -1   7   48.64    1.58
   2   1   7   45.31    1.43
  -2   1  -7   42.20    1.56
   2   1   7   47.33    1.61
   2   1   7   45.45    1.44
   2   1   7   46.79    1.62
   2   1   7   45.93    1.53
   2   1   7   44.21    1.30
  -2   1  -7   46.04    1.65
  -2   1  -7   46.21    1.53
  -2   1  -7   46.81    1.44
   3  -1   7   97.35    3.09
   3  -1   7   91.42    2.81
   3  -1   7   91.49    2.83
   3  -1   7   97.91    3.01
  -3  -1  -7   96.81    2.84
  -3  -1  -7   94.60    2.87
   3  -1   7   89.90    3.01
   3  -1   7   97.93    3.00
  -3  -1  -7   91.84    3.14
  -3   1  -7   96.88    3.03
  -3   1  -7   96.08    2.83
  -3   1  -7   93.91    2.89
   3   1   7   96.64    2.97
  -3   1  -7   95.79    3.16
   3   1   7   95.90    3.11
  -3   1  -7   94.19    2.89
   3   1   7   99.10    3.07
   3   1   7   95.24    2.81
   3   1   7   89.56    2.69
   3   1   7   94.39    2.90
  -4  -1  -7   23.70    1.42
   4  -1   7   25.65    1.22
   4  -1   7   26.55    1.37
  -4  -1  -7   23.78    0.96
   4  -1   7   24.51    1.13
  -4   1  -7   26.11    1.01
   4   1   7   24.17    1.34
   4   1   7   25.40    1.28
   4   1   7   23.51    1.06
  -4   1  -7   24.53    1.43
  -4   1  -7   24.71    0.99
   5  -2  -7   28.02    1.20
   5  -2  -7   29.71    1.62
  -5  -2   7   30.13    1.39
   5  -2  -7   28.07    1.49
   5   2  -7   29.10    1.13
   5   2  -7   30.73    1.43
  -5   2   7   26.59    1.11
   5   2  -7   30.01    1.39
  -5   2   7   30.29    1.40
  -4  -2   7    5.90    0.60
   4  -2  -7    5.62    0.57
   4  -2  -7    6.72    0.41
   4  -2  -7    8.06    0.82
  -4  -2   7    6.28    0.43
   4  -2  -7    5.56    0.73
  -4  -2   7    7.83    0.67
  -4  -2   7    6.29    0.46
  -4  -2   7    6.60    0.45
   4  -2  -7    4.92    0.97
  -4   2   7    6.11    0.50
   4   2  -7    6.61    0.66
   4   2  -7    6.80    0.63
   4   2  -7    6.04    0.49
   4   2  -7    7.46    0.61
  -4   2   7    6.56    0.63
  -3  -2   7   41.68    1.44
  -3  -2   7   37.00    1.78
   3  -2  -7   41.30    1.53
   3  -2  -7   40.21    1.73
   3  -2  -7   43.36    1.49
  -3  -2   7   42.14    1.40
  -3  -2   7   41.72    1.44
   3  -2  -7   41.59    1.55
  -3  -2   7   40.04    1.56
   3  -2  -7   41.17    1.27
   3  -2  -7   40.93    1.27
  -3  -2   7   40.90    1.48
   3  -2  -7   41.99    1.42
   3   2  -7   41.44    1.52
  -3   2   7   41.36    1.32
   3   2  -7   41.33    1.37
  -3   2   7   41.99    1.49
   3   2  -7   40.72    1.48
  -3   2   7   41.91    1.50
   3   2  -7   42.81    1.42
  -3   2   7   42.41    1.27
  -3   2   7   41.30    1.42
   2  -2  -7    9.28    0.37
   2  -2  -7    8.31    0.41
   2  -2  -7    8.54    0.48
   2  -2  -7    9.55    0.53
   2  -2  -7    9.94    0.60
  -2  -2   7    7.95    0.56
  -2  -2   7    8.12    0.51
   2  -2  -7    8.42    0.50
  -2  -2   7    7.81    0.59
   2  -2  -7    8.51    0.50
  -2  -2   7    9.97    0.53
  -2  -2   7    8.83    0.46
  -2  -2   7    8.53    0.47
   2  -2  -7    8.55    0.50
  -2  -2   7    8.59    0.49
  -2  -2   7    8.81    0.51
   2  -2  -7    7.96    0.53
   2  -2  -7    8.59    0.60
  -2   2   7    7.95    0.53
  -2   2   7    8.73    0.40
   2   2  -7    8.96    0.47
  -2   2   7    8.07    0.47
   2   2  -7    8.12    0.59
  -2   2   7    8.75    0.44
   2   2  -7    8.49    0.48
  -2   2   7    8.32    0.55
   2   2  -7    8.61    0.45
   2   2  -7    8.37    0.51
  -2   2   7    8.81    0.50
   2   2  -7    8.26    0.50
  -2   2   7    7.57    0.66
  -2   2   7    8.47    0.50
   2   2  -7    8.28    0.49
   2   2  -7    9.48    0.50
   1  -2  -7   97.69    2.82
  -1  -2   7   92.51    2.98
  -1  -2   7   98.53    2.92
   1  -2  -7   96.45    2.79
  -1  -2   7   93.87    2.88
   1  -2  -7   95.02    2.87
  -1  -2   7   96.90    2.94
  -1  -2   7   94.54    2.85
   1  -2  -7   96.31    2.95
  -1  -2   7   92.58    2.73
   1  -2  -7   96.26    2.86
   1  -2  -7   95.24    2.84
   1  -2  -7   97.90    2.95
   1  -2  -7  101.28    2.94
   1  -2  -7  100.04    3.05
   1  -2  -7  102.43    2.92
  -1  -2   7   96.59    2.96
  -1  -2   7   93.08    2.74
  -1  -2   7   92.89    2.90
  -1  -2   7  100.11    2.89
   1   2  -7   94.13    2.85
  -1   2   7   93.27    2.98
   1   2  -7   94.75    2.94
  -1   2   7  101.17    2.83
   1   2  -7   99.92    2.92
   1   2  -7   93.72    2.87
  -1   2   7   99.11    3.03
  -1   2   7   98.90    2.84
  -1   2   7   96.14    2.89
  -1   2   7   99.25    3.03
   1   2  -7   94.21    3.01
   1   2  -7  100.24    2.89
  -1   2   7   97.73    2.90
   1   2  -7   95.74    2.84
   1   2  -7   96.04    2.90
   0  -2   7    0.09    0.16
   0  -2  -7    0.09    0.12
   0  -2   7    0.24    0.17
   0  -2   7    0.51    0.20
   0  -2  -7    0.27    0.14
   0  -2  -7    0.28    0.22
   0  -2   7    0.12    0.12
   0  -2   7    0.26    0.13
   0  -2  -7    0.13    0.16
   0  -2   7    0.21    0.12
   0  -2  -7    0.16    0.16
   0  -2  -7    0.18    0.20
   0  -2  -7    0.29    0.16
   0   2   7    0.21    0.16
   0   2  -7    0.01    0.12
   0   2   7   -0.01    0.13
   0   2  -7    0.34    0.23
   0   2  -7    0.26    0.16
   0   2   7    0.38    0.16
   0   2  -7    0.01    0.12
   0   2  -7   -0.02    0.16
   0   2  -7    0.13    0.15
   0   2  -7    0.44    0.11
   0   2  -7    0.36    0.17
   0   2   7    0.08    0.12
   0   2   7    0.61    0.14
  -1  -2  -7  113.58    3.44
  -1  -2  -7  113.43    3.33
   1  -2   7  117.94    3.42
   1  -2   7  113.81    3.32
   1  -2   7  113.41    3.36
   1  -2   7  117.41    3.37
  -1  -2  -7  116.66    3.43
  -1  -2  -7  114.57    3.37
   1  -2   7  111.06    3.46
   1  -2   7  112.12    3.31
  -1  -2  -7  115.07    3.39
  -1  -2  -7  112.96    3.34
  -1  -2  -7  114.24    3.43
   1  -2   7  111.95    3.37
   1  -2   7  114.83    3.35
  -1  -2  -7  115.97    3.43
   1   2   7  112.08    3.35
   1   2   7  113.97    3.41
   1   2   7  110.26    3.45
  -1   2  -7  112.04    3.47
  -1   2  -7  109.88    3.40
   1   2   7  110.14    3.38
  -1   2  -7  114.37    3.38
  -1   2  -7  113.24    3.34
  -1   2  -7  112.88    3.40
   1   2   7  113.67    3.31
  -1   2  -7   99.00    3.34
   1   2   7  114.18    3.32
   1   2   7  113.38    3.30
   1   2   7  121.69    3.35
  -1   2  -7   96.35    3.17
  -2  -2  -7    0.44    0.28
   2  -2   7    0.58    0.29
   2  -2   7    0.72    0.24
   2  -2   7    0.41    0.18
  -2  -2  -7    0.43    0.17
  -2  -2  -7    0.70    0.27
  -2  -2  -7    0.29    0.12
   2  -2   7    0.27    0.15
   2   2   7    0.37    0.21
  -2   2  -7    0.47    0.18
  -2   2  -7    0.45    0.28
   2   2   7    0.69    0.32
   2   2   7    0.64    0.28
   2   2   7    0.28    0.14
   2   2   7    0.19    0.16
  -2   2  -7    0.45    0.13
  -2   2  -7    0.45    0.19
   3  -2   7   32.96    1.33
   3  -2   7   30.55    1.16
   3  -2   7   32.26    1.38
  -3  -2  -7   33.19    1.12
  -3  -2  -7   32.17    1.30
  -3  -2  -7   32.38    1.13
  -3  -2  -7   32.85    1.17
  -3  -2  -7   31.39    1.58
   3  -2   7   30.79    1.24
   3  -2   7   33.29    1.26
   3  -2   7   29.89    1.21
  -3   2  -7   33.19    1.19
   3   2   7   30.86    1.05
  -3   2  -7   32.00    1.15
   3   2   7   31.97    1.21
  -3   2  -7   32.75    1.46
  -3   2  -7   31.81    1.21
   3   2   7   33.10    1.29
   3   2   7   33.11    1.39
   3   2   7   33.32    1.19
  -3   2  -7   31.00    1.43
  -4  -2  -7    4.00    0.45
   4  -2   7    4.51    0.71
  -4  -2  -7    3.34    0.64
   4  -2   7    4.94    0.66
   4  -2   7    3.49    0.65
   4   2   7    4.75    0.61
   4   2   7    4.85    0.84
  -4   2  -7    4.70    0.56
   4   2   7    3.75    0.54
  -4   2  -7    4.46    0.94
  -4   2  -7    4.09    0.49
   4   2   7    3.71    0.69
  -4  -3   7   48.90    1.88
   4  -3  -7   50.71    1.96
   4  -3  -7   49.38    1.60
   4  -3  -7   47.57    1.96
   4  -3  -7   50.10    1.81
  -4   3   7   50.59    1.73
   4   3  -7   50.58    1.68
   4   3  -7   48.83    1.81
   4   3  -7   50.39    1.73
  -4   3   7   51.33    1.85
   3  -3  -7   15.11    0.76
   3  -3  -7   17.99    0.96
  -3  -3   7   15.43    0.83
  -3  -3   7   15.00    0.68
  -3  -3   7   15.60    0.75
  -3  -3   7   16.56    0.70
   3  -3  -7   12.53    1.10
   3  -3  -7   14.92    0.63
   3  -3  -7   14.90    0.89
  -3   3   7   12.64    1.05
  -3   3   7   14.25    0.81
  -3   3   7   15.43    0.73
  -3   3   7   15.85    0.73
   3   3  -7   16.30    0.90
   3   3  -7   14.84    0.85
   3   3  -7   16.72    0.81
   3   3  -7   16.04    0.67
  -3   3   7   15.98    0.81
   2  -3  -7  165.03    4.70
   2  -3  -7  155.58    4.78
  -2  -3   7  159.96    4.65
  -2  -3   7  158.96    4.68
  -2  -3   7  159.65    4.41
  -2  -3   7  154.91    4.70
   2  -3  -7  154.54    4.51
  -2  -3   7  155.98    4.62
   2  -3  -7  164.05    4.75
   2  -3  -7  161.56    4.62
   2  -3  -7  161.65    4.67
  -2  -3   7  161.51    4.67
   2  -3  -7  161.15    4.77
   2  -3  -7  159.64    4.54
  -2   3   7  162.44    4.68
   2   3  -7  164.09    4.67
  -2   3   7  156.79    4.74
   2   3  -7  161.36    4.80
   2   3  -7  157.61    4.67
  -2   3   7  160.29    4.69
   2   3  -7  159.99    4.65
   2   3  -7  157.24    4.55
  -2   3   7  150.33    4.63
  -2   3   7  153.06    4.51
  -2   3   7  157.96    4.67
  -2   3   7  163.96    4.81
   2   3  -7  160.89    4.71
  -1  -3   7    2.33    0.36
   1  -3  -7    2.28    0.37
  -1  -3   7    1.83    0.29
  -1  -3   7    2.47    0.40
   1  -3  -7    2.99    0.36
   1  -3  -7    2.59    0.25
   1  -3  -7    2.48    0.38
   1  -3  -7    2.75    0.38
  -1  -3   7    2.52    0.38
  -1  -3   7    2.51    0.36
   1  -3  -7    2.56    0.28
   1  -3  -7    2.45    0.35
   1  -3  -7    2.80    0.33
  -1  -3   7    3.17    0.35
  -1  -3   7    2.53    0.22
   1  -3  -7    2.20    0.37
  -1  -3   7    2.49    0.34
  -1   3   7    2.41    0.26
   1   3  -7    2.85    0.33
  -1   3   7    3.54    0.49
   1   3  -7    2.28    0.46
   1   3  -7    2.36    0.25
  -1   3   7    2.58    0.40
  -1   3   7    2.75    0.36
  -1   3   7    2.41    0.41
   1   3  -7    2.30    0.30
   1   3  -7    2.50    0.37
   1   3  -7    2.45    0.32
  -1   3   7    3.14    0.34
  -1   3   7    2.87    0.32
   1   3  -7    2.60    0.28
   1   3  -7    2.30    0.34
   1   3  -7    2.97    0.37
   0  -3   7  176.03    5.14
   0  -3  -7  179.30    5.25
   0  -3   7  173.09    5.11
   0  -3   7  178.90    5.20
   0  -3   7  180.64    5.26
   0  -3  -7  183.32    5.09
   0  -3  -7  168.84    4.93
   0  -3  -7  165.50    4.98
   0  -3  -7  174.87    5.16
   0  -3   7  187.03    5.18
   0  -3  -7  175.42    5.16
   0  -3   7  178.66    5.06
   0  -3  -7  180.14    5.20
   0  -3  -7  177.61    5.16
   0  -3   7  181.50    5.14
   0  -3  -7  176.17    5.15
   0   3  -7  174.37    5.15
   0   3   7  182.88    5.29
   0   3   7  186.48    5.15
   0   3  -7  171.77    5.00
   0   3   7  177.17    5.13
   0   3  -7  184.45    5.14
   0   3   7  169.18    5.15
   0   3   7  181.10    5.26
   0   3  -7  175.86    5.09
   0   3  -7  174.64    5.10
   0   3   7  181.70    5.14
   0   3   7  174.41    5.12
   0   3   7  171.61    5.05
   0   3  -7  179.10    5.14
   0   3  -7  174.22    5.27
   0   3  -7  173.36    5.15
  -1  -3  -7   13.24    0.68
   1  -3   7   11.17    0.70
  -1  -3  -7   12.20    0.59
  -1  -3  -7   12.35    0.64
   1  -3   7   11.81    0.63
  -1  -3  -7   13.45    0.63
  -1  -3  -7   12.03    0.62
   1  -3   7   13.02    0.62
   1  -3   7   12.78    0.71
  -1  -3  -7   12.38    0.73
   1  -3   7   12.62    0.61
   1  -3   7   13.29    0.67
   1  -3   7   12.11    0.62
  -1  -3  -7   11.18    0.71
   1   3   7   12.52    0.61
   1   3   7   11.99    0.60
   1   3   7   12.85    0.68
  -1   3  -7   11.48    0.67
   1   3   7   11.68    0.56
  -1   3  -7   11.39    0.64
  -1   3  -7   12.48    0.61
  -1   3  -7   12.49    0.66
   1   3   7   12.71    0.58
   1   3   7   10.98    0.64
   1   3   7   12.48    0.73
  -1   3  -7   12.30    0.65
  -1   3  -7   12.21    0.79
   1   3   7   12.66    0.62
  -1   3  -7   13.24    0.67
   2  -3   7   68.53    2.19
   2  -3   7   66.98    2.29
   2  -3   7   65.29    2.08
   2  -3   7   67.22    2.10
   2  -3   7   72.61    2.30
  -2  -3  -7   65.37    2.06
   2  -3   7   65.10    2.18
  -2  -3  -7   60.11    2.21
  -2  -3  -7   65.81    2.08
  -2  -3  -7   58.63    2.36
  -2  -3  -7   58.26    2.31
   2   3   7   69.25    2.13
  -2   3  -7   65.86    2.18
   2   3   7   66.28    2.15
  -2   3  -7   65.65    2.09
   2   3   7   69.10    2.17
   2   3   7   61.10    2.61
  -2   3  -7   64.37    2.16
  -2   3  -7   68.57    2.15
   2   3   7   66.70    2.03
  -3  -3  -7   17.72    0.82
   3  -3   7   16.48    0.98
   3  -3   7   16.51    0.98
  -3  -3  -7   17.52    0.76
   3  -3   7   18.24    0.85
  -3  -3  -7   17.75    0.96
   3   3   7   17.13    0.87
   3   3   7   17.35    0.92
   3   3   7   18.05    1.06
  -3   3  -7   17.70    1.18
   3   3   7   18.74    0.89
  -3   3  -7   17.13    0.86
  -3   3  -7   17.68    1.09
  -4  -3  -7   26.12    1.40
   4  -3   7   25.99    1.30
  -4  -3  -7   25.01    1.03
   4  -3   7   27.25    1.19
   4  -3   7   25.89    1.41
   4   3   7   26.37    1.44
  -4   3  -7   24.51    1.54
  -4   3  -7   26.42    1.15
   4   3   7   26.31    1.17
   4   3   7   26.97    1.23
  -4   3  -7   27.10    1.23
  -4  -4   7  215.08    6.28
   4  -4  -7  218.16    6.65
   4  -4  -7  217.23    6.25
   4  -4  -7  220.53    6.49
  -4  -4   7  211.29    6.51
   4   4  -7  217.82    6.61
   4   4  -7  217.13    6.40
  -4   4   7  216.30    6.39
   4   4  -7  223.63    6.45
  -4   4   7  222.41    6.51
  -3  -4   7    0.67    0.20
   3  -4  -7    1.09    0.37
  -3  -4   7    1.29    0.24
   3  -4  -7    1.97    0.44
  -3  -4   7    1.05    0.38
  -3  -4   7    0.60    0.26
   3  -4  -7    0.79    0.33
  -3   4   7    1.87    0.39
   3   4  -7    1.06    0.35
  -3   4   7    1.01    0.35
   3   4  -7    1.21    0.38
  -3   4   7    0.70    0.41
   3   4  -7    0.75    0.41
   3   4  -7    1.07    0.21
   3   4  -7    1.07    0.29
  -3   4   7    0.80    0.30
  -3   4   7    0.91    0.32
   2  -4  -7  231.58    6.50
  -2  -4   7  239.69    6.60
  -2  -4   7  227.22    6.53
   2  -4  -7  238.61    6.69
   2  -4  -7  233.98    6.62
  -2  -4   7  237.53    6.37
   2  -4  -7  228.69    6.46
   2  -4  -7  237.18    6.76
   2  -4  -7  234.08    6.68
  -2  -4   7  224.32    6.52
  -2   4   7  231.73    6.60
   2   4  -7  226.81    6.72
   2   4  -7  219.28    6.39
  -2   4   7  220.39    6.32
  -2   4   7  241.49    6.77
  -2   4   7  222.13    6.53
  -2   4   7  190.78    6.78
   2   4  -7  231.49    6.63
   2   4  -7  224.35    6.40
   2   4  -7  226.54    6.63
   2   4  -7  228.54    6.55
  -2   4   7  218.13    6.72
  -2   4   7  212.34    6.58
  -1  -4   7    9.06    0.66
  -1  -4   7    9.34    0.44
   1  -4  -7    8.42    0.60
   1  -4  -7    8.90    0.73
  -1  -4   7    9.05    0.54
  -1  -4   7    9.32    0.56
   1  -4  -7    8.72    0.58
   1  -4  -7    8.70    0.50
   1  -4  -7    8.34    0.61
   1  -4  -7    8.54    0.59
   1  -4  -7    9.68    0.45
  -1   4   7    8.43    0.64
   1   4  -7    8.51    0.48
  -1   4   7    9.04    0.56
  -1   4   7    9.24    0.47
  -1   4   7    8.31    0.73
  -1   4   7    9.37    0.47
   1   4  -7    9.08    0.46
   1   4  -7    9.10    0.60
  -1   4   7    8.83    0.56
  -1   4   7    9.47    0.59
   1   4  -7    9.22    0.71
  -1   4   7    8.43    0.42
  -1   4   7    9.14    0.58
   1   4  -7    8.00    0.49
   1   4  -7   10.78    1.02
   1   4  -7    9.31    0.55
   1   4  -7    8.00    0.53
   1   4  -7    8.85    0.53
   0  -4   7  298.96    8.53
   0  -4  -7  282.06    8.23
   0  -4  -7  290.98    8.56
   0  -4   7  299.39    8.36
   0  -4  -7  309.22    8.46
   0  -4  -7  302.11    8.52
   0  -4   7  301.18    8.41
   0  -4   7  288.68    8.40
   0  -4  -7  295.05    8.39
   0  -4   7  294.92    8.44
   0  -4   7  309.10    8.50
   0  -4  -7  297.32    8.46
   0  -4   7  302.25    8.59
   0   4   7  299.55    8.46
   0   4  -7  293.27    8.47
   0   4  -7  306.38    8.56
   0   4   7  287.71    8.46
   0   4  -7  292.66    8.33
   0   4   7  292.54    8.44
   0   4   7  293.97    8.37
   0   4  -7  298.86    8.46
   0   4   7  283.23    8.52
   0   4   7  296.13    8.43
   0   4  -7  313.81    8.46
   0   4  -7  292.29    8.39
   0   4   7  297.49    8.45
   0   4  -7  294.33    8.62
   0   4  -7  282.76    8.40
   0   4   7  304.12    8.62
   0   4  -7  291.03    8.29
  -1  -4  -7    2.24    0.42
  -1  -4  -7    2.16    0.35
   1  -4   7    1.58    0.29
  -1  -4  -7    0.83    0.21
  -1  -4  -7    0.90    0.23
   1  -4   7    1.79    0.30
   1  -4   7    1.51    0.36
   1  -4   7    1.13    0.27
  -1  -4  -7    1.80    0.33
  -1   4  -7    1.84    0.42
   1   4   7    1.44    0.33
   1   4   7    1.24    0.23
   1   4   7    1.68    0.36
   1   4   7    1.38    0.32
   1   4   7    1.71    0.31
  -1   4  -7    1.63    0.35
  -1   4  -7    0.90    0.22
   1   4   7    1.46    0.31
  -1   4  -7    1.65    0.27
  -1   4  -7    1.94    0.40
  -1   4  -7    1.24    0.10
  -2  -4  -7  288.29    8.27
   2  -4   7  285.74    8.92
  -2  -4  -7  285.53    8.31
   2  -4   7  293.72    8.41
   2  -4   7  286.96    8.26
  -2  -4  -7  297.78    8.36
   2  -4   7  304.37    8.37
  -2  -4  -7  263.15    8.36
  -2  -4  -7  300.77    8.31
   2  -4   7  292.76    8.30
  -2   4  -7  304.76    8.47
   2   4   7  304.43    8.48
  -2   4  -7  267.49    8.61
  -2   4  -7  284.13    8.42
   2   4   7  289.03    8.45
   2   4   7  285.97    8.22
  -2   4  -7  296.21    8.31
   2   4   7  282.28    8.36
   2   4   7  297.22    8.36
   3  -4   7    2.44    0.49
  -3  -4  -7    1.51    0.31
  -3  -4  -7    2.21    0.48
   3  -4   7    1.95    0.47
  -3  -4  -7    2.03    0.48
   3  -4   7    2.71    0.42
  -3   4  -7    1.39    0.48
  -3   4  -7    3.32    0.55
  -3   4  -7    2.12    0.57
   3   4   7    1.92    0.55
   3   4   7    1.75    0.39
   3   4   7    2.63    0.50
   4  -5  -7   61.26    2.26
   4  -5  -7   60.58    2.41
  -4  -5   7   59.14    2.02
   4  -5  -7   62.00    2.02
  -4  -5   7   58.65    2.29
  -4   5   7   58.85    2.15
  -4   5   7   61.16    2.28
   4   5  -7   59.83    2.14
   4   5  -7   60.02    2.36
   4   5  -7   56.82    2.13
  -4   5   7   59.66    2.23
   3  -5  -7   56.28    2.13
  -3  -5   7   55.12    2.08
   3  -5  -7   59.30    2.18
  -3  -5   7   58.24    1.95
   3   5  -7   56.95    2.06
  -3   5   7   56.10    2.03
   3   5  -7   59.18    2.15
  -3   5   7   60.77    2.11
  -3   5   7   58.30    2.04
   3   5  -7   57.43    2.00
   2  -5  -7  190.73    5.62
  -2  -5   7  185.51    5.31
   2  -5  -7  191.85    5.57
   2  -5  -7  189.82    5.37
  -2  -5   7  185.11    5.49
  -2  -5   7  177.03    5.29
   2  -5  -7  184.67    5.66
  -2  -5   7  183.84    5.43
   2  -5  -7  189.56    5.55
  -2  -5   7  191.41    5.51
   2   5  -7  186.97    5.46
  -2   5   7  186.14    5.52
  -2   5   7  181.21    5.15
   2   5  -7  175.44    5.63
  -2   5   7  188.68    5.51
   2   5  -7  180.52    5.30
   2   5  -7  189.93    5.47
  -2   5   7  195.28    5.50
   2   5  -7  192.98    5.58
   2   5  -7  184.63    5.67
  -2   5   7  184.56    5.43
   2   5  -7  183.00    5.24
  -2   5   7  171.40    5.17
  -2   5   7  183.88    5.68
  -1  -5   7   33.47    1.42
   1  -5  -7   34.70    1.32
  -1  -5   7   36.49    1.19
   1  -5  -7   34.69    1.24
   1  -5  -7   34.53    1.38
   1  -5  -7   34.94    1.33
  -1  -5   7   35.17    1.30
  -1  -5   7   33.29    1.24
   1  -5  -7   33.54    1.47
  -1  -5   7   35.33    1.34
   1  -5  -7   31.47    1.36
   1  -5  -7   33.13    1.14
  -1  -5   7   35.98    1.31
  -1   5   7   34.64    1.33
   1   5  -7   32.66    1.23
   1   5  -7   34.55    1.35
  -1   5   7   34.43    1.19
   1   5  -7   33.59    1.38
  -1   5   7   33.33    1.31
   1   5  -7   33.24    1.52
  -1   5   7   35.05    1.20
   1   5  -7   34.99    1.16
   1   5  -7   34.36    1.30
   1   5  -7   35.59    1.28
  -1   5   7   34.70    1.33
   1   5  -7   33.50    1.23
  -1   5   7   33.43    1.48
  -1   5   7   35.09    1.14
   0  -5   7  179.28    5.61
   0  -5   7  182.88    5.41
   0  -5  -7  200.83    6.02
   0  -5   7  177.26    5.62
   0  -5   7  192.78    5.53
   0  -5  -7  188.80    5.49
   0  -5  -7  195.73    5.51
   0  -5   7  185.21    5.67
   0  -5  -7  192.21    5.31
   0  -5   7  189.63    5.57
   0  -5   7  195.71    5.46
   0  -5  -7  181.39    5.59
   0  -5  -7  195.82    5.55
   0  -5  -7  191.91    5.58
   0   5   7  187.48    5.64
   0   5   7  186.05    5.52
   0   5   7  192.83    5.51
   0   5  -7  184.74    5.44
   0   5  -7  190.78    5.65
   0   5  -7  191.20    5.56
   0   5  -7  184.40    5.39
   0   5   7  176.23    5.30
   0   5   7  188.26    5.42
   0   5   7  177.36    5.53
   0   5  -7  179.68    5.49
   0   5  -7  191.71    5.75
   0   5  -7  190.59    5.54
   0   5  -7  196.57    5.54
   0   5   7  189.04    5.55
   0   5  -7  188.42    5.36
   0   5   7  183.33    5.70
  -1  -5  -7   70.63    2.39
  -1  -5  -7   73.10    2.37
   1  -5   7   75.75    2.36
   1  -5   7   75.72    2.41
  -1  -5  -7   73.63    2.37
   1  -5   7   74.60    2.39
  -1  -5  -7   72.65    2.41
  -1  -5  -7   74.65    2.36
   1  -5   7   75.27    2.56
   1  -5   7   68.42    2.47
   1   5   7   70.66    2.44
  -1   5  -7   71.26    2.49
  -1   5  -7   73.23    2.42
  -1   5  -7   78.59    2.44
   1   5   7   71.08    2.46
   1   5   7   74.10    2.40
   1   5   7   67.42    2.32
  -1   5  -7   71.72    2.11
   1   5   7   71.89    2.34
  -1   5  -7   72.22    2.38
  -1   5  -7   70.33    2.06
   1   5   7   67.90    2.50
  -2  -5  -7   62.48    2.16
   2  -5   7   64.28    2.19
  -2  -5  -7   61.05    2.16
   2  -5   7   64.57    2.07
  -2  -5  -7   65.43    2.21
   2  -5   7   65.17    2.36
  -2   5  -7   59.20    2.27
  -2   5  -7   64.19    2.20
   2   5   7   61.76    2.29
   2   5   7   64.27    2.31
  -2   5  -7   65.73    2.28
   2   5   7   65.32    2.21
  -3  -5  -7   52.81    1.88
   3  -5   7   54.10    1.82
  -3  -5  -7   53.69    1.96
   3  -5   7   55.11    2.03
   3  -5   7   53.94    2.13
  -3  -5  -7   51.42    2.02
   3   5   7   52.10    2.16
  -3   5  -7   53.53    2.13
   3   5   7   53.12    2.02
  -3   5  -7   54.74    1.97
   3   5   7   54.36    1.99
  -3   5  -7   48.04    2.09
   3  -6  -7  253.76    7.40
  -3  -6   7  244.06    7.31
   3  -6  -7  245.09    7.40
  -3  -6   7  242.11    7.17
   3  -6  -7  250.74    7.12
  -3   6   7  252.55    7.37
   3   6  -7  243.32    7.22
   3   6  -7  242.68    7.34
  -3   6   7  243.11    7.27
  -3   6   7  242.74    7.25
   3   6  -7  248.69    7.34
  -2  -6   7    3.51    0.45
   2  -6  -7    3.89    0.52
  -2  -6   7    3.83    0.55
  -2  -6   7    4.22    0.65
   2  -6  -7    4.19    0.69
  -2   6   7    4.23    0.70
   2   6  -7    5.09    0.71
   2   6  -7    4.24    0.60
  -2   6   7    3.35    0.55
  -2   6   7    3.39    0.64
   2   6  -7    3.91    0.63
  -1  -6   7  442.28   12.18
   1  -6  -7  407.51   11.98
  -1  -6   7  445.60   12.35
  -1  -6   7  425.05   12.17
   1  -6  -7  431.13   12.32
   1  -6  -7  438.76   12.11
   1  -6  -7  438.85   12.26
  -1  -6   7  446.46   12.05
   1  -6  -7  384.66   12.32
   1   6  -7  450.29   12.25
  -1   6   7  431.06   12.21
  -1   6   7  436.29   12.56
  -1   6   7  428.66   12.19
   1   6  -7  404.85   12.18
  -1   6   7  428.69   12.43
   1   6  -7  423.21   12.16
   1   6  -7  408.46   11.95
   1   6  -7  420.68   12.13
  -1   6   7  415.67   12.04
  -1   6   7  447.49   12.25
  -1   6   7  429.41   12.02
   1   6  -7  442.60   12.35
   0  -6  -7    0.14    0.31
   0  -6  -7    0.12    0.32
   0  -6   7    0.20    0.30
   0  -6  -7    0.06    0.26
   0  -6  -7    0.39    0.32
   0  -6   7    0.07    0.25
   0  -6  -7    0.13    0.33
   0  -6   7    0.15    0.25
   0  -6   7    0.22    0.32
   0  -6   7    0.18    0.23
   0  -6   7    0.32    0.32
   0   6  -7   -0.03    0.21
   0   6   7   -0.09    0.34
   0   6   7    0.01    0.63
   0   6   7   -0.01    0.32
   0   6  -7    0.45    0.24
   0   6  -7    0.59    0.45
   0   6   7    0.11    0.27
   0   6  -7    0.13    0.26
   0   6   7    0.31    0.30
   0   6  -7    0.23    0.29
   0   6  -7    0.59    0.45
   0   6   7    0.08    0.20
  -1  -6  -7  348.89   10.15
  -1  -6  -7  363.79   10.12
   1  -6   7  353.18   10.05
   1  -6   7  347.10   10.01
   1  -6   7  346.82   10.30
  -1  -6  -7  371.74   10.06
   1  -6   7  341.14   10.10
  -1   6  -7  370.47   10.16
   1   6   7  353.60   10.14
   1   6   7  353.48   10.18
   1   6   7  345.95   10.32
  -1   6  -7  361.15   10.29
  -1   6  -7  328.25   10.13
  -1   6  -7  351.18   10.09
   2  -6   7    4.85    0.57
   2  -6   7    4.02    0.78
   2  -6   7    4.27    0.70
  -2  -6  -7    4.29    0.71
  -2  -6  -7    4.58    0.57
  -2  -6  -7    3.79    0.68
  -2   6  -7    4.88    0.74
   2   6   7    4.44    0.75
  -2   6  -7    4.87    0.77
   2   6   7    4.25    0.70
   2   6   7    4.78    0.73
  -2   6  -7    4.25    0.68
  -2  -7   7   42.97    1.64
   2  -7  -7   40.88    1.69
   2  -7  -7   41.01    1.82
   2  -7  -7   39.17    1.55
  -2  -7   7   39.81    1.69
  -2  -7   7   40.78    1.51
   2   7  -7   38.94    1.60
   2   7  -7   41.71    1.83
  -2   7   7   39.15    1.60
  -2   7   7   39.79    1.73
   2   7  -7   40.99    1.68
  -2   7   7   40.50    1.73
  -1  -7   7  181.80    5.57
  -1  -7   7  179.47    5.55
   1  -7  -7  190.26    5.54
   1  -7  -7  187.50    5.52
   1  -7  -7  184.29    5.70
   1  -7  -7  182.53    5.73
  -1  -7   7  191.71    5.44
   1   7  -7  182.68    5.55
  -1   7   7  190.20    5.89
  -1   7   7  178.40    5.43
  -1   7   7  191.16    5.66
   1   7  -7  187.01    5.77
   1   7  -7  187.24    5.54
  -1   7   7  188.04    5.64
   0  -7   7   83.28    2.96
   0  -7   7   82.33    2.63
   0  -7  -7   81.62    2.86
   0  -7   7   83.71    2.79
   0  -7   7   84.43    2.71
   0  -7  -7   81.29    2.71
   0  -7  -7   87.79    2.65
   0   7  -7   80.61    2.59
   0   7   7   76.58    2.97
   0   7  -7   84.16    2.96
   0   7  -7   87.88    2.77
   0   7   7   78.52    2.82
   0   7   7   79.86    2.77
   0   7  -7   81.15    2.80
   1  -7   7  122.36    4.14
   1  -7   7  126.53    3.87
  -1  -7  -7  121.82    3.99
   1  -7   7  126.60    3.83
  -1  -7  -7  120.69    3.92
  -1   7  -7  125.41    4.00
   1   7   7  124.60    3.95
  -1   7  -7  131.66    3.97
   1   7   7  120.95    4.16
   1   7   7  125.07    3.99
  -2  -7  -7   48.79    1.99
  -2  -7  -7   52.08    2.20
   2  -7   7   51.63    1.82
   2  -7   7   50.86    2.23
   2  -7   7   51.58    1.96
  -2   7  -7   50.92    2.04
   2   7   7   49.27    2.13
  -2   7  -7   50.71    2.13
   2   7   7   50.25    2.16
   2   7   7   52.97    2.05
   1  -8  -7   57.31    2.03
  -1  -8   7   55.22    2.15
  -1  -8   7   55.32    2.19
  -1  -8   7   58.53    1.99
   1  -8  -7   56.20    2.10
  -1   8   7   59.78    2.26
   1   8  -7   56.10    2.09
   1   8  -7   55.23    2.38
   1   8  -7   62.83    2.44
   0  -8   7  142.60    4.64
   0  -8   7  153.82    4.59
   0  -8  -7  151.39    4.88
   0  -8  -7  148.75    4.69
   0   8   7  150.35    5.06
   0   8  -7  166.02    5.12
   5   0  -8   63.46    2.36
  -5   0   8   62.43    2.28
   5   0  -8   60.90    2.06
   5   0  -8   62.51    2.37
  -5   0   8   61.60    1.99
   4   0  -8  417.49   12.03
   4   0  -8  430.21   12.16
   4   0  -8  436.56   12.20
  -4   0   8  433.69   12.14
  -4   0   8  414.20   11.96
   4   0  -8  428.27   12.17
  -4   0   8  420.28   11.99
   3   0  -8   57.88    2.02
  -3   0   8   52.04    2.12
   3   0  -8   57.40    1.86
  -3   0   8   59.21    1.89
   3   0  -8   57.71    2.01
  -3   0   8   58.15    1.88
  -3   0   8   59.03    1.95
  -3   0   8   59.86    1.89
   3   0  -8   60.91    1.96
   3   0  -8   57.62    1.83
   3   0  -8   59.67    1.99
  -2   0   8  984.73   27.06
   2   0  -8  977.42   27.00
  -2   0   8 1000.00   27.13
  -2   0   8  937.18   27.20
   1   0  -8   11.94    0.71
  -1   0   8   12.22    0.56
   1   0  -8   13.37    0.61
  -1   0   8   12.37    0.63
  -1   0   8   12.02    0.56
  -1   0   8   11.97    0.67
   1   0  -8   11.75    0.62
   1   0  -8   11.70    0.53
  -1   0   8   12.16    0.57
   1   0  -8   11.92    0.53
   1   0  -8   12.24    0.57
  -1   0   8   11.80    0.59
   1   0  -8   13.07    0.64
  -1   0   8   11.12    0.66
   1   0  -8   11.33    0.58
  -1   0   8   12.65    0.43
  -1   0   8   12.83    0.58
  -1   0  -8   58.31    1.96
  -1   0  -8   56.79    1.86
   1   0   8   56.06    1.87
  -1   0  -8   57.91    1.88
   1   0   8   56.52    1.88
  -1   0  -8   56.01    1.82
  -1   0  -8   58.29    1.83
  -1   0  -8   58.62    1.73
   1   0   8   58.64    1.90
   1   0   8   58.53    1.80
   1   0   8   59.32    1.73
   1   0   8   57.12    1.82
  -1   0  -8   61.02    1.94
   1   0   8   54.63    1.75
   1   0   8   58.20    1.88
   1   0   8   57.71    1.85
  -1   0  -8   55.54    1.93
   1   0   8   59.32    1.97
  -2   0  -8  471.87   13.10
   2   0   8  460.71   13.12
   2   0   8  475.12   13.20
   2   0   8  457.91   13.16
  -2   0  -8  461.27   13.09
   2   0   8  454.26   13.02
  -2   0  -8  477.02   13.26
  -2   0  -8  467.68   13.00
   2   0   8  470.92   13.22
  -3   0  -8   70.54    2.10
  -3   0  -8   69.80    2.25
   3   0   8   72.18    2.38
   3   0   8   68.16    2.29
   3   0   8   71.41    2.47
  -3   0  -8   69.41    2.55
   3   0   8   69.06    2.05
   3   0   8   74.22    2.41
   4   0   8  213.38    6.28
   4   0   8  200.06    6.01
  -4   0  -8  196.40    6.37
  -4   0  -8  199.19    5.91
   4   0   8  209.31    6.14
   5  -1  -8   89.43    3.05
   5  -1  -8   84.25    2.71
   5  -1  -8   86.66    3.02
  -5  -1   8   82.14    2.60
  -5  -1   8   85.82    2.92
  -5  -1   8   80.87    2.82
   5   1  -8   83.36    2.68
   5   1  -8   88.32    2.92
   5   1  -8   84.56    2.94
  -5   1   8   83.73    2.64
  -5   1   8   85.06    2.90
   4  -1  -8  309.11    9.01
   4  -1  -8  316.94    8.99
  -4  -1   8  307.71    8.85
   4  -1  -8  303.51    8.84
  -4  -1   8  315.60    8.94
  -4  -1   8  302.73    8.74
  -4   1   8  303.74    8.69
   4   1  -8  312.21    8.91
   4   1  -8  318.97    9.04
  -4   1   8  298.07    8.76
  -4   1   8  304.37    8.92
   4   1  -8  306.46    8.82
   4   1  -8  315.55    8.94
  -3  -1   8  232.78    6.69
   3  -1  -8  228.08    6.74
   3  -1  -8  226.26    6.50
   3  -1  -8  213.66    6.73
  -3  -1   8  229.04    6.63
   3  -1  -8  226.54    6.72
  -3  -1   8  239.09    6.67
   3  -1  -8  241.56    6.60
  -3  -1   8  235.77    6.61
   3  -1  -8  234.57    6.92
   3   1  -8  234.57    6.74
  -3   1   8  239.71    6.71
   3   1  -8  222.27    6.57
  -3   1   8  226.35    6.53
   3   1  -8  233.47    6.65
  -3   1   8  230.67    6.68
  -3   1   8  222.27    6.64
   3   1  -8  223.85    6.77
   3   1  -8  227.46    6.56
   2  -1  -8  352.63   10.02
  -2  -1   8  344.68    9.98
  -2  -1   8  354.14    9.94
  -2  -1   8  326.24   10.11
   2  -1  -8  358.56    9.90
   2  -1  -8  355.13   10.09
  -2  -1   8  357.57    9.98
   2  -1  -8  357.90    9.95
   2  -1  -8  353.79   10.04
   2  -1  -8  355.68    9.98
   2  -1  -8  365.47    9.99
  -2  -1   8  366.18   10.07
  -2  -1   8  339.60   10.00
  -2  -1   8  363.61    9.98
   2  -1  -8  354.50    9.95
  -2  -1   8  361.34    9.96
  -2   1   8  355.64    9.99
  -2   1   8  371.11   10.10
  -2   1   8  346.58    9.95
   2   1  -8  356.90   10.10
  -2   1   8  357.16    9.91
   2   1  -8  355.28    9.97
   2   1  -8  350.97    9.96
  -2   1   8  347.46    9.97
   2   1  -8  349.62    9.97
   2   1  -8  346.32   10.00
   2   1  -8  347.93    9.95
   2   1  -8  350.57    9.94
  -2   1   8  346.03   10.01
   2   1  -8  347.95    9.93
  -2   1   8  349.34    9.78
   1  -1  -8  364.17   10.46
   1  -1  -8  374.36   10.33
   1  -1  -8  371.62   10.45
  -1  -1   8  364.84   10.40
  -1  -1   8  378.79   10.47
   1  -1  -8  372.74   10.35
  -1  -1   8  362.96   10.39
   1  -1  -8  383.26   10.45
  -1  -1   8  383.85   10.44
  -1  -1   8  360.03   10.39
   1  -1  -8  348.90   10.60
  -1  -1   8  367.27   10.51
   1  -1  -8  364.26   10.37
   1  -1  -8  369.06   10.39
  -1   1   8  373.43   10.37
  -1   1   8  350.43   10.40
   1   1  -8  372.31   10.40
  -1   1   8  374.02   10.39
   1   1  -8  365.48   10.39
  -1   1   8  357.09   10.51
   1   1  -8  371.75   10.47
  -1   1   8  375.20   10.44
   1   1  -8  375.36   10.35
  -1   1   8  378.12   10.47
  -1   1   8  376.48   10.55
   1   1  -8  371.08   10.54
  -1   1   8  375.63   10.41
   1   1  -8  358.64   10.40
   1   1  -8  385.08   10.38
   0  -1  -8  431.39   12.16
   0  -1   8  432.39   12.18
   0  -1   8  434.23   12.12
   0  -1  -8  426.77   12.16
   0  -1   8  412.93   12.17
   0  -1  -8  412.61   12.08
   0  -1   8  437.25   12.07
   0  -1   8  444.52   12.16
   0  -1  -8  444.02   12.26
   0  -1  -8  430.43   12.17
   0  -1  -8  453.69   12.20
   0  -1   8  421.90   12.07
   0  -1   8  432.98   12.12
   0  -1   8  441.60   12.27
   0   1   8  423.15   12.12
   0   1  -8  449.33   12.20
   0   1  -8  426.11   12.13
   0   1   8  433.86   12.12
   0   1  -8  462.75   12.14
   0   1   8  433.50   12.02
   0   1  -8  419.03   12.16
   0   1  -8  423.75   12.02
   0   1   8  408.24   12.16
   0   1   8  440.34   12.28
   0   1  -8  424.92   12.15
   0   1  -8  437.50   12.26
   0   1   8  444.28   12.15
  -1  -1  -8  202.26    5.63
  -1  -1  -8  204.39    5.83
   1  -1   8  192.77    5.75
   1  -1   8  201.92    5.80
   1  -1   8  207.52    5.95
   1  -1   8  205.16    5.87
   1  -1   8  204.75    5.98
   1  -1   8  202.14    5.87
  -1  -1  -8  208.44    5.96
   1  -1   8  209.49    5.86
   1  -1   8  200.26    5.82
  -1  -1  -8  198.54    5.86
  -1  -1  -8  204.08    5.83
  -1  -1  -8  208.47    5.94
  -1  -1  -8  212.82    5.90
   1  -1   8  202.80    5.69
  -1  -1  -8  196.91    5.94
  -1  -1  -8  205.24    5.88
   1  -1   8  207.40    5.91
  -1   1  -8  203.11    5.92
   1   1   8  211.60    6.00
  -1   1  -8  184.75    5.74
   1   1   8  203.58    5.82
  -1   1  -8  206.36    5.84
   1   1   8  206.99    5.90
   1   1   8  209.11    5.85
  -1   1  -8  211.69    5.91
  -1   1  -8  198.04    5.86
  -1   1  -8  192.94    6.00
  -1   1  -8  182.59    5.79
   1   1   8  211.15    5.80
  -1   1  -8  208.04    5.98
   1   1   8  206.31    5.90
   1   1   8  200.60    5.76
  -2  -1  -8  369.33   10.24
   2  -1   8  368.57   10.36
  -2  -1  -8  375.69   10.45
   2  -1   8  368.59   10.32
   2  -1   8  371.48   10.41
  -2  -1  -8  368.64   10.27
  -2  -1  -8  352.48   10.29
   2  -1   8  357.98   10.15
   2  -1   8  355.07   10.31
  -2  -1  -8  364.88   10.27
  -2   1  -8  362.15   10.16
   2   1   8  350.88   10.14
   2   1   8  364.33   10.30
  -2   1  -8  363.92   10.28
   2   1   8  352.93   10.18
   2   1   8  364.98   10.39
   3  -1   8   92.04    3.01
  -3  -1  -8   92.91    2.83
   3  -1   8   96.18    3.09
   3  -1   8   94.03    2.97
  -3  -1  -8   91.06    2.87
  -3  -1  -8   90.79    3.17
   3  -1   8   94.81    2.98
   3   1   8   94.48    2.99
   3   1   8   95.40    3.06
  -3   1  -8   90.73    2.78
   3   1   8   97.41    3.13
  -3   1  -8   94.28    3.17
   3   1   8   90.51    2.76
   3   1   8   90.63    2.90
  -3   1  -8   93.49    2.89
   4  -1   8  133.63    4.09
   4  -1   8  128.20    4.05
   4  -1   8  131.96    4.24
  -4  -1  -8  124.00    4.36
  -4  -1  -8  128.23    3.90
   4   1   8  128.18    4.00
  -4   1  -8  129.14    4.39
   4   1   8  130.17    4.27
  -4   1  -8  129.47    3.93
   4   1   8  142.68    4.22
  -4  -2   8   74.12    2.33
   4  -2  -8   75.90    2.48
   4  -2  -8   76.41    2.66
  -4  -2   8   76.91    2.53
  -4  -2   8   74.68    2.52
   4  -2  -8   77.14    2.62
  -4   2   8   74.64    2.39
   4   2  -8   70.59    2.56
   4   2  -8   75.42    2.52
   4   2  -8   74.47    2.42
  -4   2   8   73.87    2.53
   3  -2  -8  425.03   12.09
   3  -2  -8  414.17   12.44
  -3  -2   8  447.71   12.30
   3  -2  -8  439.28   12.40
  -3  -2   8  434.29   12.31
  -3  -2   8  440.86   12.26
   3  -2  -8  426.51   12.04
  -3  -2   8  420.54   12.42
   3  -2  -8  448.58   12.42
  -3  -2   8  422.11   12.20
  -3  -2   8  439.79   12.31
   3  -2  -8  435.29   12.24
   3   2  -8  431.30   12.29
   3   2  -8  442.65   12.31
   3   2  -8  443.66   12.23
   3   2  -8  436.26   12.38
   3   2  -8  443.16   12.20
  -3   2   8  452.78   12.38
  -3   2   8  447.75   12.27
  -3   2   8  433.89   12.32
  -3   2   8  413.32   12.33
  -3   2   8  429.69   12.10
  -3   2   8  435.98   12.11
   2  -2  -8  137.32    4.01
  -2  -2   8  136.19    4.05
   2  -2  -8  136.47    4.07
  -2  -2   8  118.21    4.14
  -2  -2   8  131.91    4.01
   2  -2  -8  137.23    4.12
   2  -2  -8  133.00    4.17
   2  -2  -8  137.80    4.06
  -2  -2   8  136.82    4.20
   2  -2  -8  136.27    3.95
   2  -2  -8  135.01    4.04
   2  -2  -8  135.46    3.88
   2  -2  -8  141.07    4.15
  -2  -2   8  139.37    4.06
  -2  -2   8  138.38    4.06
  -2   2   8  141.40    4.07
  -2   2   8  132.93    3.95
   2   2  -8  139.91    4.20
   2   2  -8  142.54    4.07
  -2   2   8  134.15    4.11
  -2   2   8  138.11    3.96
   2   2  -8  142.05    4.14
  -2   2   8  142.10    4.05
  -2   2   8  143.49    4.20
   2   2  -8  132.06    4.08
   2   2  -8  140.93    4.05
   2   2  -8  136.27    4.00
  -2   2   8  135.67    4.06
   1  -2  -8  672.87   19.06
  -1  -2   8  650.50   19.01
  -1  -2   8  687.49   18.98
   1  -2  -8  649.58   18.90
   1  -2  -8  701.01   19.02
   1  -2  -8  701.88   18.91
  -1  -2   8  672.34   18.92
  -1  -2   8  676.15   18.94
   1  -2  -8  726.16   18.96
   1  -2  -8  673.21   18.97
  -1   2   8  682.73   19.00
  -1   2   8  699.88   18.96
  -1   2   8  714.96   18.84
  -1   2   8  658.31   19.04
   1   2  -8  698.54   18.93
   1   2  -8  635.94   19.15
   1   2  -8  678.60   19.08
   1   2  -8  659.54   18.93
   0  -2  -8   70.25    2.01
   0  -2  -8   67.01    2.21
   0  -2   8   68.65    2.06
   0  -2  -8   67.47    2.05
   0  -2   8   69.64    2.31
   0  -2  -8   70.40    2.31
   0  -2   8   72.45    2.22
   0  -2   8   69.55    2.08
   0  -2  -8   68.87    2.23
   0  -2   8   69.05    2.17
   0  -2   8   70.81    2.25
   0  -2  -8   70.99    2.23
   0  -2  -8   67.81    2.17
   0  -2  -8   72.41    2.23
   0  -2   8   64.83    2.19
   0  -2   8   68.65    2.17
   0  -2   8   72.78    2.12
   0  -2  -8   70.71    2.12
   0  -2   8   66.46    2.14
   0  -2  -8   66.16    2.18
   0   2  -8   72.26    2.19
   0   2   8   67.69    2.31
   0   2  -8   69.03    2.05
   0   2  -8   63.63    2.19
   0   2  -8   71.73    2.25
   0   2   8   70.30    2.08
   0   2   8   71.43    2.19
   0   2   8   69.56    2.19
   0   2   8   75.51    2.49
   0   2   8   71.90    2.19
   0   2  -8   69.87    2.17
   0   2  -8   71.59    2.22
   0   2   8   68.52    2.14
   0   2  -8   68.00    2.32
   0   2   8   68.44    2.22
   0   2  -8   70.10    2.18
  -1  -2  -8  644.18   17.78
   1  -2   8  650.98   17.87
  -1  -2  -8  638.69   17.87
   1  -2   8  607.19   17.73
   1  -2   8  630.90   17.93
  -1  -2  -8  633.92   17.89
  -1  -2  -8  668.33   17.79
   1  -2   8  650.57   17.82
   1  -2   8  647.55   17.75
  -1  -2  -8  622.83   17.81
   1  -2   8  643.20   17.81
  -1  -2  -8  632.90   17.83
  -1  -2  -8  657.84   17.89
   1   2   8  659.05   17.80
   1   2   8  660.43   17.87
  -1   2  -8  642.23   17.94
  -1   2  -8  580.44   17.78
   1   2   8  629.90   17.73
   1   2   8  603.71   17.80
   1   2   8  652.27   17.95
   1   2   8  629.03   17.84
  -1   2  -8  650.96   17.79
  -2  -2  -8   51.48    1.68
   2  -2   8   52.29    1.77
   2  -2   8   50.66    1.68
   2  -2   8   51.12    1.83
  -2  -2  -8   50.72    1.70
  -2  -2  -8   48.95    1.92
  -2  -2  -8   52.87    1.79
   2  -2   8   49.08    1.66
   2  -2   8   51.15    1.78
   2  -2   8   51.22    1.86
  -2  -2  -8   51.68    1.89
   2   2   8   51.37    1.65
   2   2   8   52.27    1.66
   2   2   8   51.11    1.75
   2   2   8   53.52    1.85
  -2   2  -8   52.45    1.77
  -2   2  -8   53.29    1.70
  -2   2  -8   51.67    1.86
   2   2   8   42.71    2.22
  -2   2  -8   54.36    1.71
  -2   2  -8   52.95    1.76
   3  -2   8  280.39    7.90
   3  -2   8  285.74    8.03
  -3  -2  -8  270.32    7.82
   3  -2   8  274.98    7.99
  -3  -2  -8  251.01    8.09
  -3   2  -8  275.59    7.81
   3   2   8  267.06    7.77
   3   2   8  282.36    8.04
  -3   2  -8  276.10    8.11
  -3   2  -8  267.49    7.86
   3   2   8  275.71    7.95
  -4  -2  -8   44.19    1.57
   4  -2   8   45.24    1.79
   4  -2   8   46.27    1.96
  -4  -2  -8   40.17    2.00
   4  -2   8   45.56    1.75
   4   2   8   43.75    1.68
  -4   2  -8   43.67    1.63
   4   2   8   47.69    1.95
  -4   2  -8   45.96    2.11
   4   2   8   46.23    2.04
   4  -3  -8   43.82    1.88
  -4  -3   8   44.20    1.80
   4  -3  -8   46.74    1.61
   4  -3  -8   43.69    1.84
   4  -3  -8   45.73    1.73
   4   3  -8   44.92    1.57
  -4   3   8   46.14    1.64
  -4   3   8   45.99    1.77
   4   3  -8   46.30    1.73
   3  -3  -8  467.77   13.54
  -3  -3   8  483.95   13.44
   3  -3  -8  479.41   13.39
  -3  -3   8  467.84   13.38
  -3  -3   8  464.39   13.46
   3  -3  -8  456.72   13.13
  -3  -3   8  474.19   13.42
   3  -3  -8  459.25   13.20
  -3  -3   8  476.16   13.45
  -3  -3   8  460.85   13.32
   3  -3  -8  478.53   13.48
   3  -3  -8  483.27   13.49
   3  -3  -8  483.35   13.56
   3   3  -8  472.00   13.28
  -3   3   8  496.33   13.15
  -3   3   8  502.06   13.55
  -3   3   8  476.73   13.39
   3   3  -8  492.84   13.44
   3   3  -8  467.54   13.32
  -3   3   8  472.19   13.40
   3   3  -8  463.89   13.51
  -3   3   8  492.83   13.31
   3   3  -8  459.84   13.41
  -3   3   8  471.07   13.45
  -2  -3   8   63.34    2.08
   2  -3  -8   67.04    2.12
  -2  -3   8   64.57    2.05
  -2  -3   8   67.26    2.19
   2  -3  -8   64.25    2.15
   2  -3  -8   62.75    1.94
   2  -3  -8   59.85    2.20
   2  -3  -8   62.44    2.07
  -2  -3   8   54.88    2.12
   2  -3  -8   62.94    2.00
  -2  -3   8   63.30    2.07
   2  -3  -8   65.27    1.93
  -2  -3   8   63.58    2.04
   2  -3  -8   66.23    2.18
   2   3  -8   65.76    2.07
   2   3  -8   67.13    2.08
  -2   3   8   63.25    2.11
  -2   3   8   65.21    2.08
  -2   3   8   66.07    2.09
   2   3  -8   63.65    2.23
  -2   3   8   63.78    1.94
  -2   3   8   58.21    2.02
   2   3  -8   65.61    1.97
   2   3  -8   61.95    2.11
  -2   3   8   64.40    2.21
   1  -3  -8  542.27   15.22
  -1  -3   8  535.22   15.23
   1  -3  -8  549.23   15.22
   1  -3  -8  557.88   15.05
   1  -3  -8  545.28   15.06
   1  -3  -8  544.36   15.09
  -1  -3   8  531.16   15.15
   1  -3  -8  563.08   15.27
  -1  -3   8  523.28   15.09
  -1  -3   8  548.19   15.21
   1  -3  -8  537.10   15.11
   1  -3  -8  563.22   15.19
  -1  -3   8  485.08   15.20
   1  -3  -8  541.99   15.31
  -1  -3   8  563.78   15.31
  -1  -3   8  528.58   15.15
  -1   3   8  558.43   15.11
  -1   3   8  557.52   15.10
   1   3  -8  533.25   15.09
   1   3  -8  537.29   15.19
  -1   3   8  535.00   15.16
  -1   3   8  559.22   15.19
   1   3  -8  480.76   15.47
   1   3  -8  550.43   15.16
   1   3  -8  542.00   15.24
  -1   3   8  530.67   15.33
  -1   3   8  540.36   15.26
   1   3  -8  530.98   15.09
  -1   3   8  573.51   15.20
   1   3  -8  563.15   15.17
   0  -3   8  121.88    3.57
   0  -3   8  116.14    3.53
   0  -3   8  121.37    3.64
   0  -3   8  122.95    3.60
   0  -3  -8  121.15    3.63
   0  -3   8  113.01    3.54
   0  -3  -8  117.06    3.49
   0  -3   8  122.30    3.70
   0  -3  -8  120.03    3.60
   0  -3  -8  118.20    3.69
   0  -3  -8  112.78    3.61
   0  -3  -8  122.28    3.56
   0  -3  -8  116.06    3.33
   0  -3  -8  115.19    3.58
   0  -3  -8  118.94    3.59
   0  -3   8  119.61    3.47
   0   3   8  120.79    3.54
   0   3  -8  117.06    3.53
   0   3   8  115.99    3.46
   0   3  -8  117.84    3.40
   0   3  -8  119.79    3.59
   0   3  -8  117.48    3.72
   0   3   8  111.59    3.61
   0   3   8  121.65    3.56
   0   3   8  115.88    3.70
   0   3   8  120.57    3.55
   0   3  -8  122.32    3.56
   0   3   8  112.16    3.59
   0   3  -8  125.29    3.57
  -1  -3  -8  397.22   11.09
   1  -3   8  395.36   11.15
  -1  -3  -8  443.19   11.54
   1  -3   8  395.36   11.22
   1  -3   8  384.31   11.04
  -1  -3  -8  393.22   11.05
   1  -3   8  369.30   11.02
  -1  -3  -8  390.89   11.04
   1  -3   8  394.83   11.05
   1  -3   8  373.67   11.00
  -1  -3  -8  407.12   11.11
   1  -3   8  413.55   11.16
  -1  -3  -8  376.27   11.13
   1  -3   8  388.54   11.05
  -1   3  -8  385.52   11.14
  -1   3  -8  383.24   11.09
   1   3   8  393.13   11.21
  -1   3  -8  399.71   11.11
  -1   3  -8  378.62   11.21
  -1   3  -8  395.09   11.11
   1   3   8  398.56   11.04
   1   3   8  378.17   11.10
  -1   3  -8  379.30   11.10
   1   3   8  387.53   11.12
   1   3   8  386.75   11.03
   2  -3   8   65.27    2.28
  -2  -3  -8   64.79    2.07
   2  -3   8   63.81    2.17
  -2  -3  -8   64.83    2.09
   2  -3   8   61.51    2.04
  -2  -3  -8   64.27    2.06
   2  -3   8   63.95    2.12
  -2  -3  -8   57.92    2.21
   2  -3   8   64.77    2.15
  -2  -3  -8   64.16    2.13
  -2   3  -8   62.66    2.13
  -2   3  -8   61.93    2.06
  -2   3  -8   63.35    2.21
  -2   3  -8   61.09    2.12
   2   3   8   63.18    2.12
   2   3   8   64.71    2.21
   2   3   8   62.55    2.20
   2   3   8   63.43    2.05
   2   3   8   63.09    2.00
  -3  -3  -8  258.24    7.55
   3  -3   8  268.95    7.72
  -3  -3  -8  264.40    7.67
   3  -3   8  263.98    7.75
  -3  -3  -8  243.50    7.79
   3  -3   8  258.94    7.56
  -3   3  -8  264.04    7.61
   3   3   8  247.17    7.65
  -3   3  -8  278.17    7.63
   3   3   8  274.05    7.79
  -3   3  -8  260.09    7.82
   3   3   8  265.07    7.69
   4  -4  -8  145.40    4.56
  -4  -4   8  143.70    4.35
   4  -4  -8  149.12    4.66
   4  -4  -8  139.25    4.66
   4  -4  -8  148.28    4.53
  -4  -4   8  143.72    4.60
   4   4  -8  141.38    4.48
  -4   4   8  149.43    4.59
   4   4  -8  150.99    4.70
  -4   4   8  151.87    4.48
   4   4  -8  146.38    4.48
  -3  -4   8  123.77    3.83
   3  -4  -8  127.35    3.88
   3  -4  -8  121.89    3.91
   3  -4  -8  122.75    3.59
  -3  -4   8  117.67    3.67
   3   4  -8  124.31    3.89
  -3   4   8  124.10    3.78
  -3   4   8  113.37    3.75
   3   4  -8  122.61    3.57
   3   4  -8  121.73    3.76
   3   4  -8  121.39    3.80
  -3   4   8  127.78    3.84
   2  -4  -8  251.81    7.13
  -2  -4   8  235.76    7.20
   2  -4  -8  265.28    7.43
  -2  -4   8  247.70    7.27
  -2  -4   8  256.25    7.29
  -2  -4   8  257.43    7.29
  -2  -4   8  259.23    7.38
   2  -4  -8  267.56    7.40
   2  -4  -8  257.38    7.37
   2   4  -8  246.35    7.10
  -2   4   8  256.56    7.29
   2   4  -8  247.62    7.33
  -2   4   8  260.81    7.29
   2   4  -8  245.46    7.02
  -2   4   8  259.54    7.52
  -2   4   8  220.96    7.24
  -2   4   8  256.45    7.31
   2   4  -8  246.15    7.44
   2   4  -8  249.85    7.31
   2   4  -8  256.09    7.26
   2   4  -8  252.15    7.26
  -2   4   8  238.14    7.06
   1  -4  -8  158.27    4.89
  -1  -4   8  159.44    4.71
   1  -4  -8  163.32    4.78
   1  -4  -8  168.77    4.77
  -1  -4   8  167.53    4.78
   1  -4  -8  160.61    4.63
   1  -4  -8  160.77    4.82
   1  -4  -8  164.44    4.57
  -1  -4   8  163.36    4.57
  -1  -4   8  168.32    4.88
  -1  -4   8  143.74    4.72
   1  -4  -8  161.42    4.78
  -1  -4   8  159.88    4.82
   1   4  -8  158.38    4.69
   1   4  -8  157.91    4.73
   1   4  -8  157.35    4.91
   1   4  -8  156.93    4.62
  -1   4   8  165.63    4.75
  -1   4   8  157.38    4.74
  -1   4   8  159.01    4.92
  -1   4   8  157.09    4.68
   1   4  -8  158.51    4.64
   1   4  -8  156.65    4.81
  -1   4   8  159.80    4.63
   1   4  -8  162.17    4.76
   1   4  -8  160.39    4.74
  -1   4   8  154.21    4.83
   1   4  -8  154.35    4.60
   0  -4  -8  235.63    6.80
   0  -4   8  243.02    7.03
   0  -4  -8  248.73    7.08
   0  -4  -8  246.46    7.10
   0  -4   8  234.86    7.19
   0  -4  -8  250.24    7.14
   0  -4  -8  242.02    6.87
   0  -4   8  258.64    7.12
   0  -4  -8  246.52    7.00
   0  -4  -8  240.48    7.19
   0  -4   8  249.55    7.15
   0  -4   8  238.66    6.95
   0  -4  -8  253.23    7.07
   0  -4   8  245.92    7.05
   0  -4   8  241.99    7.02
   0   4   8  245.48    7.15
   0   4   8  245.91    7.24
   0   4  -8  236.07    6.87
   0   4  -8  236.36    6.92
   0   4  -8  248.89    7.17
   0   4  -8  250.86    7.07
   0   4   8  245.31    7.05
   0   4   8  252.23    7.05
   0   4  -8  245.99    7.25
   0   4  -8  241.84    7.08
   0   4   8  239.27    7.05
   0   4  -8  251.58    7.06
   0   4   8  244.38    7.05
   0   4  -8  234.41    7.00
   0   4  -8  240.33    7.00
   1  -4   8  148.86    4.44
  -1  -4  -8  151.25    4.52
   1  -4   8  150.73    4.47
   1  -4   8  157.11    4.66
  -1  -4  -8  153.18    4.48
   1  -4   8  149.36    4.58
  -1  -4  -8  149.22    4.46
  -1  -4  -8  146.69    4.52
  -1  -4  -8  152.19    4.51
   1   4   8  145.62    4.63
  -1   4  -8  158.50    4.54
  -1   4  -8  153.75    4.48
  -1   4  -8  150.52    4.58
   1   4   8  147.46    4.43
   1   4   8  152.36    4.55
  -1   4  -8  145.13    4.50
   1   4   8  148.27    4.55
   1   4   8  142.57    4.55
  -1   4  -8  146.16    4.50
  -2  -4  -8  162.94    4.76
   2  -4   8  166.60    4.72
  -2  -4  -8  135.04    4.81
   2  -4   8  162.61    4.79
   2  -4   8  160.96    4.94
  -2  -4  -8  164.96    4.80
   2   4   8  164.41    4.89
   2   4   8  162.59    4.75
  -2   4  -8  167.27    4.81
   2   4   8  162.19    4.91
  -2   4  -8  136.38    4.79
  -2   4  -8  160.96    4.87
   3  -4   8   67.78    2.37
   3  -4   8   67.42    2.45
  -3  -4  -8   64.80    2.20
  -3  -4  -8   67.32    2.35
   3  -4   8   66.10    2.20
  -3  -4  -8   62.42    2.40
   3   4   8   68.43    2.27
  -3   4  -8   62.91    2.26
  -3   4  -8   65.23    2.48
  -3   4  -8   67.09    2.38
   3   4   8   63.43    2.34
   3   4   8   65.54    2.45
  -4  -5   8  321.04    8.58
   4  -5  -8  265.84    8.42
   4  -5  -8  324.62    9.34
  -4  -5   8  265.20    8.42
   4   5  -8  302.41    8.77
  -4   5   8  272.17    8.44
  -4   5   8  272.63    8.32
   4   5  -8  258.80    8.29
   3  -5  -8    6.15    0.57
   3  -5  -8    5.67    0.83
  -3  -5   8    6.28    0.61
   3  -5  -8    4.77    0.77
  -3  -5   8    6.56    0.77
  -3   5   8    5.65    0.67
   3   5  -8    5.35    0.69
  -3   5   8    5.86    0.71
   3   5  -8    5.12    0.60
  -3   5   8    5.98    0.74
   3   5  -8    5.74    0.77
  -2  -5   8  357.54   10.48
  -2  -5   8  368.14   10.66
   2  -5  -8  376.59   10.58
   2  -5  -8  390.05   10.81
  -2  -5   8  376.34   10.73
   2  -5  -8  383.00   10.79
   2  -5  -8  383.79   10.85
   2   5  -8  389.46   10.77
   2   5  -8  377.58   10.49
   2   5  -8  379.82   10.70
  -2   5   8  384.30   10.75
  -2   5   8  328.86   10.43
  -2   5   8  391.92   10.97
  -2   5   8  387.93   10.78
   2   5  -8  366.41   10.80
  -2   5   8  363.90   10.63
  -1  -5   8   21.88    0.82
   1  -5  -8   21.02    1.05
   1  -5  -8   18.26    1.16
   1  -5  -8   20.75    0.78
  -1  -5   8   19.45    1.05
  -1  -5   8   20.35    0.96
  -1  -5   8   20.11    0.93
   1  -5  -8   20.35    0.89
  -1  -5   8   21.29    0.96
  -1  -5   8   20.36    0.99
   1  -5  -8   21.14    1.06
   1  -5  -8   20.03    0.99
  -1   5   8   21.90    1.01
   1   5  -8   20.30    0.93
   1   5  -8   21.79    1.07
  -1   5   8   20.73    0.84
   1   5  -8   21.12    0.84
   1   5  -8   19.80    0.89
  -1   5   8   21.43    1.16
   1   5  -8   19.72    1.23
  -1   5   8   20.58    0.99
   1   5  -8   21.85    1.04
   1   5  -8   19.76    0.93
  -1   5   8   20.89    0.80
   1   5  -8   21.26    0.92
  -1   5   8   20.75    0.83
  -1   5   8   20.09    1.15
   0  -5   8  358.26   10.15
   0  -5  -8  358.00   10.04
   0  -5   8  349.94    9.97
   0  -5   8  342.34   10.19
   0  -5  -8  341.21    9.84
   0  -5  -8  364.78   10.19
   0  -5   8  363.88   10.27
   0  -5  -8  359.22   10.09
   0  -5   8  358.61   10.09
   0  -5  -8  359.90   10.10
   0  -5   8  348.34   10.03
   0  -5  -8  347.44   10.14
   0  -5   8  346.00   10.04
   0   5  -8  348.31    9.89
   0   5  -8  351.29   10.32
   0   5  -8  360.57   10.13
   0   5  -8  349.88   10.09
   0   5  -8  340.71    9.93
   0   5  -8  366.07   10.24
   0   5   8  359.00   10.11
   0   5   8  350.49   10.09
   0   5  -8  363.28   10.10
   0   5  -8  340.47   10.01
   0   5   8  357.34   10.07
   0   5   8  359.71   10.32
   0   5   8  343.12   10.20
  -1  -5  -8   16.29    0.91
  -1  -5  -8   18.29    0.91
  -1  -5  -8   16.70    1.23
  -1  -5  -8   16.61    0.89
   1  -5   8   16.78    0.85
   1  -5   8   17.27    0.85
   1  -5   8   16.50    1.06
   1  -5   8   16.30    0.90
   1  -5   8   15.30    1.45
  -1   5  -8   18.14    0.95
  -1   5  -8   17.07    0.98
   1   5   8   17.45    0.96
   1   5   8   16.28    0.89
  -1   5  -8   15.64    1.20
  -1   5  -8   15.85    0.92
   1   5   8   16.33    0.89
   1   5   8   15.73    1.03
   2  -5   8  265.57    7.73
   2  -5   8  267.88    7.53
   2  -5   8  257.88    7.41
  -2  -5  -8  252.78    7.50
  -2  -5  -8  258.55    7.54
  -2  -5  -8  255.03    7.56
  -2   5  -8  246.66    7.62
   2   5   8  257.93    7.51
   2   5   8  255.43    7.63
  -2   5  -8  248.28    7.53
   2   5   8  264.67    7.71
  -2   5  -8  256.10    7.60
  -3  -5  -8    5.55    0.90
   3  -5   8    6.23    0.94
   3  -5   8    6.59    0.88
   3  -5   8    7.01    0.70
  -3  -5  -8    5.42    0.70
  -3  -5  -8    6.36    0.82
  -3   5  -8    5.19    0.95
   3   5   8    5.57    0.82
   3   5   8    6.57    1.01
  -3   5  -8    6.47    1.00
   3   5   8    5.47    0.81
  -3   5  -8    6.77    0.79
   3  -6  -8   62.85    2.07
   3  -6  -8   64.03    2.36
   3  -6  -8   62.71    2.40
  -3  -6   8   60.18    2.13
  -3  -6   8   60.96    2.29
   3   6  -8   60.52    2.31
  -3   6   8   58.18    2.19
   3   6  -8   60.99    2.30
  -3   6   8   59.22    2.31
   3   6  -8   59.05    2.17
  -3   6   8   59.20    2.24
  -2  -6   8  126.20    3.91
   2  -6  -8  128.61    4.05
   2  -6  -8  128.23    3.95
  -2  -6   8  111.92    3.67
  -2  -6   8  125.18    3.85
   2  -6  -8  124.91    3.76
  -2   6   8  123.59    3.79
   2   6  -8  122.27    3.85
   2   6  -8  130.41    3.93
  -2   6   8  124.37    3.95
   2   6  -8  117.72    3.98
  -2   6   8  124.25    3.92
   1  -6  -8   42.03    1.57
   1  -6  -8   40.34    1.49
  -1  -6   8   39.35    1.54
   1  -6  -8   39.25    1.67
   1  -6  -8   39.55    1.67
  -1  -6   8   40.84    1.39
  -1   6   8   38.39    1.39
   1   6  -8   40.10    1.38
  -1   6   8   38.40    1.59
  -1   6   8   41.30    1.41
   1   6  -8   39.73    1.55
  -1   6   8   42.08    1.63
   1   6  -8   40.46    1.50
   0  -6  -8  183.60    5.35
   0  -6   8  181.71    5.34
   0  -6   8  175.17    5.56
   0  -6  -8  180.47    5.46
   0  -6   8  183.27    5.41
   0  -6  -8  181.23    5.59
   0   6  -8  173.85    5.27
   0   6   8  180.73    5.35
   0   6   8  177.66    5.41
   0   6  -8  185.78    5.39
   0   6   8  182.73    5.42
   0   6  -8  179.57    5.56
   0   6   8  180.17    5.63
   0   6  -8  175.41    5.21
   0   6  -8  176.93    5.42
   1  -6   8   27.23    1.75
  -1  -6  -8   29.54    1.38
   1  -6   8   31.81    1.29
  -1  -6  -8   30.71    1.34
  -1  -6  -8   32.66    1.30
   1  -6   8   30.67    1.26
   1   6   8   31.77    1.37
   1   6   8   30.24    1.54
  -1   6  -8   29.22    1.34
   1   6   8   31.45    1.41
  -1   6  -8   31.77    1.37
  -1   6  -8   33.63    1.72
   2  -6   8   94.61    2.98
  -2  -6  -8   93.15    3.14
   2  -6   8   95.75    3.33
  -2  -6  -8   96.54    3.13
   2  -6   8  102.08    3.14
  -2  -6  -8   89.68    3.10
   2   6   8   87.26    3.26
  -2   6  -8   95.03    3.19
   2   6   8   96.34    3.26
  -2   6  -8   97.83    3.28
  -2   6  -8   84.52    3.09
   2   6   8   96.84    3.13
  -2  -7   8    8.86    0.83
   2  -7  -8    9.59    1.01
  -2  -7   8    8.99    0.93
   2  -7  -8    7.93    0.78
   2  -7  -8    9.49    0.90
   2   7  -8    9.04    1.07
   2   7  -8   10.15    0.90
  -2   7   8    9.16    0.98
  -2   7   8    9.18    0.99
  -2   7   8   10.20    0.86
   1  -7  -8  131.60    4.93
  -1  -7   8  131.13    4.23
  -1  -7   8  136.10    4.23
   1  -7  -8  139.37    4.19
  -1  -7   8  138.75    4.06
   1  -7  -8  137.74    4.16
   1   7  -8  139.64    4.46
   1   7  -8  135.30    4.16
  -1   7   8  130.07    5.37
  -1   7   8  132.22    4.05
  -1   7   8  142.54    4.33
   1   7  -8  132.39    4.20
   0  -7   8    4.29    0.57
   0  -7   8    4.10    0.80
   0  -7  -8    5.19    0.63
   0  -7   8    4.37    0.71
   0  -7  -8    3.56    0.56
   0  -7  -8    4.14    0.62
   0   7  -8    5.06    0.72
   0   7   8    3.94    0.70
   0   7   8    4.77    0.75
   0   7  -8    4.37    0.66
  -1  -7  -8  133.77    4.36
   1  -7   8  137.69    4.22
   1  -7   8  135.82    4.53
   1  -7   8  140.78    4.21
  -1  -7  -8  135.23    4.30
  -1   7  -8  134.38    4.36
  -1   7  -8  133.44    4.24
   1   7   8  135.44    4.56
   1   7   8  140.50    4.33
  -1   7  -8  142.06    4.34
   1   7   8  137.56    4.35
   4   0  -9    0.53    0.42
  -4   0   9    0.67    0.31
   4   0  -9    0.15    0.23
   4   0  -9    1.59    0.47
  -4   0   9    0.56    0.37
  -4   0   9    0.24    0.21
  -3   0   9    0.35    0.30
   3   0  -9   -0.09    0.18
  -3   0   9   -0.03    0.16
  -3   0   9    0.68    0.22
   3   0  -9    0.00    0.18
  -3   0   9    0.38    0.24
   3   0  -9   -0.08    0.27
   3   0  -9    0.12    0.27
  -3   0   9    0.04    0.13
   3   0  -9   -0.03    0.29
   2   0  -9    0.18    0.18
   2   0  -9    0.43    0.24
  -2   0   9    0.21    0.19
  -2   0   9   -0.07    0.16
  -2   0   9    0.44    0.25
  -2   0   9    0.20    0.17
   2   0  -9    0.32    0.26
   2   0  -9    0.16    0.16
   2   0  -9    0.36    0.22
   2   0  -9   -0.12    0.27
   2   0  -9    0.24    0.23
  -2   0   9    0.01    0.13
   1   0  -9   -0.09    0.15
   1   0  -9   -0.14    0.15
  -1   0   9    0.17    0.28
  -1   0   9    0.12    0.12
  -1   0   9    0.22    0.13
   1   0  -9    0.20    0.17
  -1   0   9    0.18    0.17
   1   0  -9    0.11    0.15
  -1   0   9    0.05    0.15
   1   0  -9    0.24    0.27
   1   0  -9   -0.04    0.19
   1   0  -9    0.18    0.25
   1   0  -9    0.05    0.13
  -1   0   9    0.06    0.18
  -1   0   9    0.09    0.22
  -1   0   9   -0.04    0.18
   0   0  -9    0.45    0.21
   0   0   9    0.07    0.23
   0   0  -9    0.59    0.17
   0   0   9    0.09    0.19
   0   0   9    0.16    0.19
   0   0  -9    0.29    0.28
   0   0   9    0.12    0.17
   0   0  -9    0.33    0.19
   0   0  -9    0.07    0.17
   0   0   9    0.33    0.18
   0   0  -9    0.77    0.24
   0   0  -9    0.19    0.15
   0   0  -9    0.15    0.26
   0   0   9    0.32    0.14
   0   0   9   -0.03    0.23
   0   0   9    0.32    0.17
   1   0   9    0.14    0.22
   1   0   9    0.11    0.17
   1   0   9    0.12    0.24
  -1   0  -9   -0.06    0.14
   1   0   9    0.47    0.17
  -1   0  -9   -0.13    0.18
   1   0   9    0.45    0.14
   1   0   9   -0.13    0.22
   1   0   9    0.26    0.24
   1   0   9    0.26    0.16
  -1   0  -9    0.21    0.25
  -2   0  -9    0.33    0.20
   2   0   9    0.05    0.28
   2   0   9    0.11    0.17
   2   0   9    0.37    0.16
  -2   0  -9    0.13    0.15
   2   0   9    0.39    0.33
  -2   0  -9    0.09    0.21
   2   0   9    0.00    0.20
  -2   0  -9    0.44    0.23
  -2   0  -9    0.92    0.38
   2   0   9   -0.36    0.32
   3   0   9   -0.19    0.36
   3   0   9    0.10    0.30
  -3   0  -9   -0.04    0.23
  -3   0  -9    0.12    0.46
   4  -1  -9   15.34    0.86
   4  -1  -9   17.53    1.09
  -4  -1   9   16.32    0.97
  -4  -1   9   15.99    0.76
   4  -1  -9   16.05    1.01
  -4   1   9   15.74    0.78
  -4   1   9   16.19    0.73
   4   1  -9   15.94    0.84
  -4   1   9   16.23    0.95
   4   1  -9   16.76    0.95
   4   1  -9   16.00    0.97
   3  -1  -9   62.84    2.19
   3  -1  -9   64.48    2.16
  -3  -1   9   62.51    2.09
   3  -1  -9   60.32    1.93
   3  -1  -9   61.02    2.08
  -3  -1   9   61.16    2.05
  -3  -1   9   61.17    2.07
   3  -1  -9   60.69    2.02
  -3  -1   9   62.76    1.99
   3  -1  -9   61.87    2.09
  -3   1   9   61.31    2.02
  -3   1   9   59.36    1.95
   3   1  -9   61.34    2.05
  -3   1   9   62.33    2.01
   3   1  -9   58.91    2.17
  -3   1   9   60.77    2.08
   3   1  -9   62.94    2.07
   3   1  -9   59.83    1.99
  -3   1   9   61.33    2.11
   3   1  -9   61.21    2.07
  -2  -1   9   13.58    0.70
   2  -1  -9   12.56    0.65
   2  -1  -9   14.64    0.73
   2  -1  -9   13.50    0.67
   2  -1  -9   13.14    0.46
  -2  -1   9   13.94    0.68
   2  -1  -9   12.99    0.85
  -2  -1   9   13.08    0.72
  -2  -1   9   13.87    0.69
  -2  -1   9   13.99    0.67
   2  -1  -9   14.03    0.68
   2  -1  -9   12.99    0.72
  -2   1   9   13.07    0.73
   2   1  -9   13.64    0.87
  -2   1   9   14.15    0.64
   2   1  -9   14.62    0.73
   2   1  -9   14.15    0.70
  -2   1   9   13.15    0.68
   2   1  -9   14.22    0.70
  -2   1   9   12.90    0.66
  -2   1   9   13.94    0.49
   2   1  -9   14.30    0.69
  -2   1   9   13.14    0.68
   2   1  -9   13.86    0.74
  -1  -1   9  104.65    3.24
   1  -1  -9  101.60    3.14
  -1  -1   9   98.32    3.08
  -1  -1   9   89.31    3.17
   1  -1  -9  102.18    3.14
  -1  -1   9  101.56    2.93
  -1  -1   9  101.57    3.05
   1  -1  -9  100.09    3.09
   1  -1  -9  105.74    3.01
   1  -1  -9  101.81    3.06
  -1  -1   9  100.39    2.89
   1  -1  -9  102.27    3.02
  -1  -1   9  103.29    3.16
   1  -1  -9  106.94    3.18
   1  -1  -9   99.33    2.94
   1  -1  -9   98.96    3.09
  -1  -1   9  103.18    3.08
   1  -1  -9  103.66    3.25
   1   1  -9  101.95    3.26
  -1   1   9  103.03    3.08
   1   1  -9  105.99    3.14
  -1   1   9  101.54    3.24
  -1   1   9  107.51    2.95
   1   1  -9  103.97    3.05
   1   1  -9  106.26    3.10
   1   1  -9  105.55    3.17
  -1   1   9  104.87    3.07
   1   1  -9   99.29    3.02
  -1   1   9  103.61    3.17
  -1   1   9  105.50    3.13
  -1   1   9  106.08    3.11
   1   1  -9  101.63    3.09
   1   1  -9   93.82    3.09
   0  -1  -9   49.19    1.79
   0  -1   9   51.47    1.80
   0  -1  -9   53.04    1.78
   0  -1  -9   51.36    1.70
   0  -1  -9   52.88    1.59
   0  -1  -9   55.37    1.80
   0  -1   9   53.69    1.74
   0  -1  -9   54.56    1.75
   0  -1   9   51.95    1.64
   0  -1   9   54.34    1.78
   0  -1  -9   52.25    1.89
   0  -1  -9   53.15    1.61
   0  -1   9   51.17    1.67
   0  -1   9   54.04    1.68
   0  -1  -9   54.23    1.81
   0  -1  -9   50.55    1.65
   0  -1   9   53.78    1.74
   0  -1   9   52.91    1.62
   0  -1   9   53.68    1.89
   0   1   9   50.70    1.73
   0   1   9   53.71    1.89
   0   1   9   52.09    1.76
   0   1   9   54.04    1.69
   0   1  -9   52.96    1.74
   0   1  -9   51.23    1.80
   0   1  -9   54.47    1.77
   0   1  -9   54.11    1.70
   0   1  -9   53.21    1.78
   0   1   9   53.47    1.63
   0   1   9   54.55    1.82
   0   1  -9   53.76    1.63
   0   1   9   51.92    1.73
  -1  -1  -9  143.53    4.01
  -1  -1  -9  149.08    4.35
   1  -1   9  138.18    4.13
   1  -1   9  143.39    4.26
   1  -1   9  147.45    4.41
  -1  -1  -9  146.40    4.24
  -1  -1  -9  136.94    4.26
   1  -1   9  144.41    4.31
  -1  -1  -9  145.61    4.29
   1  -1   9  149.71    4.28
   1  -1   9  136.24    4.06
  -1  -1  -9  146.82    4.29
   1  -1   9  143.81    4.22
   1  -1   9  139.09    4.18
  -1  -1  -9  144.18    4.22
   1   1   9  148.24    4.41
   1   1   9  140.95    4.29
  -1   1  -9  148.70    4.32
  -1   1  -9  136.12    4.18
  -1   1  -9  147.13    4.33
   1   1   9  143.93    4.18
   1   1   9  146.88    4.31
   1   1   9  146.86    4.22
   1   1   9  143.74    4.14
  -1   1  -9  146.10    4.24
  -1   1  -9  133.84    4.14
  -1   1  -9  141.25    4.27
  -2  -1  -9   36.97    1.36
   2  -1   9   38.25    1.41
   2  -1   9   36.89    1.45
  -2  -1  -9   36.07    1.34
   2  -1   9   36.54    1.49
  -2  -1  -9   37.33    1.55
  -2  -1  -9   32.74    1.37
   2  -1   9   36.01    1.21
   2  -1   9   35.48    1.39
   2  -1   9   35.97    1.07
   2   1   9   37.09    1.49
   2   1   9   36.65    1.21
   2   1   9   36.34    1.38
  -2   1  -9   36.93    1.30
  -2   1  -9   38.61    1.39
   2   1   9   35.57    1.27
  -2   1  -9   38.78    1.52
  -2   1  -9   38.04    1.22
   2   1   9   36.63    1.43
   3  -1   9   43.95    1.80
   3  -1   9   43.64    1.74
  -3  -1  -9   43.12    1.58
  -3  -1  -9   44.54    1.92
   3  -1   9   45.16    1.70
  -3   1  -9   44.31    1.61
  -3   1  -9   43.42    1.87
   3   1   9   45.64    1.77
   3   1   9   44.01    1.43
   3   1   9   44.85    1.83
  -3   1  -9   44.11    1.45
   3   1   9   45.36    1.73
  -4  -2   9    3.07    0.43
  -4  -2   9    2.92    0.52
   4  -2  -9    3.04    0.45
  -4  -2   9    3.48    0.66
   4  -2  -9    2.55    0.55
   4  -2  -9    3.40    0.63
   4   2  -9    3.60    0.51
   4   2  -9    3.83    0.64
  -4   2   9    3.19    0.54
  -4   2   9    2.55    0.36
   4   2  -9    3.12    0.61
   3  -2  -9  156.12    4.56
  -3  -2   9  150.72    4.58
   3  -2  -9  145.81    4.38
  -3  -2   9  154.15    4.78
   3  -2  -9  152.23    4.60
   3  -2  -9  156.37    4.69
  -3  -2   9  157.48    4.51
   3  -2  -9  150.39    4.28
   3  -2  -9  145.37    4.70
   3  -2  -9  156.99    4.62
   3   2  -9  150.12    4.58
   3   2  -9  159.05    4.59
   3   2  -9  148.43    4.53
  -3   2   9  159.04    4.67
   3   2  -9  148.70    4.68
  -3   2   9  151.00    4.40
  -3   2   9  150.97    4.59
  -3   2   9  151.57    4.53
   3   2  -9  156.45    4.51
  -3   2   9  147.58    4.67
  -2  -2   9   24.27    1.06
   2  -2  -9   24.22    0.94
  -2  -2   9   24.27    0.98
  -2  -2   9   24.07    0.96
   2  -2  -9   24.65    0.81
   2  -2  -9   23.49    0.94
   2  -2  -9   22.90    1.14
   2  -2  -9   23.85    0.98
  -2  -2   9   24.25    1.00
   2  -2  -9   24.36    1.06
  -2  -2   9   25.77    1.01
   2  -2  -9   24.66    1.05
   2   2  -9   25.32    1.01
  -2   2   9   22.23    1.09
   2   2  -9   23.27    1.15
  -2   2   9   24.40    1.00
  -2   2   9   22.81    0.89
   2   2  -9   24.51    0.99
   2   2  -9   24.28    1.03
  -2   2   9   24.03    1.09
   2   2  -9   25.31    0.95
  -2   2   9   25.31    0.92
  -2   2   9   24.39    0.99
  -1  -2   9  165.43    5.10
   1  -2  -9  169.53    4.86
  -1  -2   9  164.95    4.97
  -1  -2   9  165.27    4.92
   1  -2  -9  170.23    4.97
   1  -2  -9  176.67    5.08
  -1  -2   9  164.25    4.97
   1  -2  -9  168.54    4.90
  -1  -2   9  163.79    4.78
  -1  -2   9  167.04    5.05
  -1  -2   9  163.67    4.79
  -1  -2   9  176.85    5.04
  -1  -2   9  164.42    4.99
   1  -2  -9  172.85    5.15
   1  -2  -9  172.87    4.88
   1  -2  -9  173.33    5.05
   1  -2  -9  178.93    5.02
  -1   2   9  169.96    5.16
   1   2  -9  169.38    4.95
  -1   2   9  178.02    5.03
   1   2  -9  173.78    5.03
  -1   2   9  181.18    4.89
   1   2  -9  171.98    4.96
  -1   2   9  170.85    4.94
   1   2  -9  172.82    5.07
  -1   2   9  169.45    5.07
  -1   2   9  172.09    4.98
  -1   2   9  168.41    4.99
   1   2  -9  174.38    5.18
   1   2  -9  166.76    4.91
   1   2  -9  175.12    4.99
   0  -2   9    2.89    0.44
   0  -2  -9    2.88    0.38
   0  -2   9    2.58    0.28
   0  -2  -9    2.12    0.38
   0  -2  -9    2.80    0.21
   0  -2   9    2.61    0.46
   0  -2   9    3.03    0.29
   0  -2  -9    2.53    0.42
   0  -2   9    3.34    0.33
   0  -2  -9    3.20    0.57
   0  -2   9    2.80    0.37
   0  -2  -9    3.56    0.35
   0  -2  -9    3.07    0.51
   0  -2  -9    2.62    0.22
   0  -2   9    2.93    0.47
   0  -2  -9    2.66    0.39
   0  -2  -9    2.84    0.38
   0   2   9    2.86    0.37
   0   2  -9    2.88    0.26
   0   2   9    2.79    0.39
   0   2  -9    2.65    0.41
   0   2   9    2.81    0.45
   0   2   9    2.19    0.40
   0   2  -9    2.84    0.37
   0   2  -9    3.03    0.36
   0   2  -9    2.78    0.38
   0   2  -9    2.10    0.40
   0   2  -9    2.42    0.44
   1  -2   9   77.19    2.47
  -1  -2  -9   75.72    2.37
   1  -2   9   75.87    2.40
  -1  -2  -9   78.45    2.49
   1  -2   9   75.99    2.38
  -1  -2  -9   77.12    2.42
  -1  -2  -9   74.03    2.40
   1  -2   9   71.37    2.30
   1  -2   9   72.31    2.31
   1  -2   9   75.36    2.36
   1  -2   9   74.62    2.54
  -1  -2  -9   75.62    2.47
  -1  -2  -9   77.10    2.37
  -1   2  -9   74.71    2.42
   1   2   9   78.77    2.46
   1   2   9   77.56    2.32
  -1   2  -9   76.84    2.45
   1   2   9   73.91    2.35
   1   2   9   74.28    2.44
   1   2   9   79.64    2.56
  -1   2  -9   74.60    2.45
  -1   2  -9   70.34    2.36
  -1   2  -9   75.37    2.38
  -1   2  -9   63.30    2.19
  -2  -2  -9    0.59    0.43
   2  -2   9    0.24    0.27
  -2  -2  -9    0.11    0.36
   2  -2   9   -0.17    0.27
   2  -2   9    0.26    0.20
  -2  -2  -9    0.03    0.20
   2  -2   9    0.30    0.29
   2  -2   9    0.09    0.29
   2  -2   9    0.35    0.32
  -2  -2  -9    0.66    0.33
   2   2   9    0.14    0.34
  -2   2  -9    0.74    0.22
   2   2   9    0.13    0.26
  -2   2  -9    0.85    0.36
   2   2   9    0.13    0.23
   2   2   9    0.18    0.30
   2   2   9   -0.03    0.18
  -2   2  -9    0.22    0.17
  -2   2  -9    0.34    0.23
  -2   2  -9   -0.01    0.24
  -3  -2  -9   49.30    2.15
   3  -2   9   53.19    1.90
   3  -2   9   52.09    2.00
   3  -2   9   55.84    2.05
  -3  -2  -9   50.34    1.81
   3   2   9   51.50    1.74
  -3   2  -9   52.30    1.76
  -3   2  -9   53.47    2.12
   3   2   9   54.17    2.04
  -3   2  -9   53.25    1.86
   3   2   9   52.47    1.97
  -4  -3   9   99.23    3.28
   4  -3  -9   99.48    3.22
   4  -3  -9   99.88    3.31
   4  -3  -9   95.10    3.34
  -4   3   9   98.45    3.25
   4   3  -9   97.85    3.20
  -4   3   9   96.80    3.10
   3  -3  -9    0.78    0.39
  -3  -3   9    1.01    0.26
   3  -3  -9    0.53    0.19
   3  -3  -9    0.56    0.39
   3  -3  -9    0.99    0.35
  -3  -3   9    0.50    0.38
  -3  -3   9    1.59    0.42
   3   3  -9    0.39    0.28
  -3   3   9    0.48    0.28
   3   3  -9    0.81    0.36
   3   3  -9    0.53    0.24
  -3   3   9    0.96    0.39
  -2  -3   9  169.48    4.93
  -2  -3   9  175.41    4.99
   2  -3  -9  168.56    4.78
  -2  -3   9  172.22    5.07
  -2  -3   9  142.72    5.03
  -2  -3   9  165.42    4.92
   2  -3  -9  174.20    5.06
   2  -3  -9  160.93    4.82
   2  -3  -9  171.48    5.15
   2  -3  -9  169.16    4.94
   2  -3  -9  176.51    5.02
  -2  -3   9  169.28    4.98
   2  -3  -9  169.69    5.05
   2   3  -9  166.46    5.02
   2   3  -9  172.63    4.96
  -2   3   9  165.26    4.97
   2   3  -9  170.10    5.16
  -2   3   9  171.21    4.84
  -2   3   9  175.05    4.98
   2   3  -9  168.36    4.86
   2   3  -9  172.42    4.96
  -2   3   9  166.15    4.96
  -2   3   9  144.63    4.87
   1  -3  -9    0.96    0.32
   1  -3  -9    0.83    0.20
  -1  -3   9    0.47    0.31
  -1  -3   9    1.40    0.36
  -1  -3   9    0.33    0.20
  -1  -3   9    0.70    0.15
  -1  -3   9    0.68    0.24
  -1  -3   9    0.98    0.17
   1  -3  -9    0.57    0.28
   1  -3  -9    1.01    0.22
   1  -3  -9    0.56    0.27
  -1  -3   9    0.46    0.22
   1  -3  -9    0.86    0.38
  -1  -3   9    0.84    0.31
  -1  -3   9    0.69    0.29
   1  -3  -9    1.12    0.23
   1   3  -9    0.71    0.35
  -1   3   9    1.03    0.26
   1   3  -9    0.83    0.27
  -1   3   9    1.35    0.28
  -1   3   9    0.95    0.26
   1   3  -9    0.54    0.22
  -1   3   9    1.09    0.33
  -1   3   9    1.15    0.32
   1   3  -9    0.65    0.25
  -1   3   9    1.42    0.26
   1   3  -9    0.56    0.22
   1   3  -9    0.89    0.24
  -1   3   9    1.43    0.36
   0  -3   9  137.10    3.93
   0  -3   9  136.04    4.07
   0  -3  -9  132.09    3.77
   0  -3   9  134.43    4.18
   0  -3  -9  130.21    4.17
   0  -3   9  131.68    4.12
   0  -3  -9  138.48    4.04
   0  -3  -9  136.00    4.08
   0  -3   9  134.99    4.13
   0  -3  -9  131.18    4.09
   0  -3  -9  133.67    3.96
   0  -3  -9  153.70    4.62
   0  -3  -9  133.49    4.07
   0  -3   9  133.33    3.90
   0   3  -9  127.47    4.20
   0   3   9  136.85    4.01
   0   3  -9  139.59    4.04
   0   3   9  136.78    4.04
   0   3   9  127.95    3.91
   0   3   9  133.24    4.02
   0   3  -9  131.49    4.06
   0   3   9  135.66    4.03
   0   3  -9  139.20    4.04
   0   3  -9  129.50    3.85
   0   3   9  129.67    4.10
   0   3   9  135.43    4.21
   0   3  -9  134.98    4.01
  -1  -3  -9    2.49    0.48
  -1  -3  -9    1.50    0.28
   1  -3   9    2.20    0.36
  -1  -3  -9    1.74    0.34
   1  -3   9    1.55    0.35
  -1  -3  -9    2.14    0.37
  -1  -3  -9    1.29    0.35
   1  -3   9    1.16    0.32
   1  -3   9    1.66    0.33
  -1   3  -9    1.93    0.39
   1   3   9    1.01    0.28
  -1   3  -9    1.84    0.14
   1   3   9    1.69    0.37
  -1   3  -9    1.38    0.17
   1   3   9    1.99    0.30
  -1   3  -9    2.41    0.47
  -1   3  -9    1.77    0.33
   1   3   9    2.17    0.40
   2  -3   9   92.81    3.05
   2  -3   9   91.54    2.91
  -2  -3  -9   92.64    2.90
   2  -3   9   91.83    2.85
  -2  -3  -9   88.97    2.86
  -2  -3  -9   81.70    3.01
  -2   3  -9   88.56    2.99
  -2   3  -9   86.71    2.88
   2   3   9   91.78    3.02
   2   3   9   88.39    2.80
   2   3   9   93.53    3.00
  -2   3  -9   90.34    2.89
   3  -3   9    0.16    0.46
   3  -3   9    0.96    0.43
  -3  -3  -9    0.79    0.29
   3  -3   9   -0.11    0.36
  -3  -3  -9    0.87    0.57
  -3  -3  -9    0.51    0.47
   3   3   9    0.99    0.50
   3   3   9    0.20    0.36
   3   3   9    0.45    0.37
  -3   3  -9    0.42    0.49
  -3   3  -9    0.58    0.29
  -3   3  -9    0.12    0.35
   4  -4  -9  127.97    4.04
   4  -4  -9  125.62    4.08
  -4  -4   9  125.25    4.06
   4  -4  -9  124.48    4.15
  -4  -4   9  122.62    3.80
   4   4  -9  126.79    3.95
  -4   4   9  127.19    4.05
  -4   4   9  126.49    3.92
   4   4  -9  120.49    4.11
   4   4  -9  121.69    3.93
   3  -4  -9    0.63    0.26
   3  -4  -9    1.18    0.47
   3  -4  -9    0.68    0.46
  -3  -4   9    1.08    0.45
  -3  -4   9    0.52    0.21
   3  -4  -9    0.36    0.36
   3   4  -9    0.98    0.26
  -3   4   9    0.77    0.42
  -3   4   9    0.49    0.33
   3   4  -9    0.98    0.47
   3   4  -9    0.62    0.31
   2  -4  -9  247.79    7.40
   2  -4  -9  254.42    7.24
   2  -4  -9  246.28    7.01
  -2  -4   9  252.89    7.19
   2  -4  -9  256.64    7.27
  -2  -4   9  242.52    7.27
  -2  -4   9  233.76    7.20
  -2  -4   9  254.45    6.85
   2  -4  -9  252.10    7.29
   2  -4  -9  247.22    7.14
   2   4  -9  244.86    7.01
  -2   4   9  217.68    7.13
   2   4  -9  253.93    7.27
  -2   4   9  246.86    7.21
  -2   4   9  251.68    7.38
  -2   4   9  238.52    6.99
  -2   4   9  249.59    7.19
  -2   4   9  252.40    7.22
   2   4  -9  246.35    7.16
  -1  -4   9    1.04    0.26
   1  -4  -9    2.06    0.37
   1  -4  -9    1.62    0.36
   1  -4  -9    1.74    0.27
  -1  -4   9    1.85    0.39
  -1  -4   9    1.90    0.38
  -1  -4   9    1.48    0.38
   1  -4  -9    1.69    0.30
   1  -4  -9    1.43    0.36
   1  -4  -9    1.62    0.47
   1  -4  -9    1.77    0.32
  -1  -4   9    1.68    0.28
   1  -4  -9    1.86    0.29
  -1   4   9    1.90    0.34
   1   4  -9    1.72    0.35
   1   4  -9    1.82    0.30
   1   4  -9    1.55    0.33
   1   4  -9    1.76    0.32
   1   4  -9    1.69    0.36
  -1   4   9    1.98    0.30
  -1   4   9    2.67    0.48
  -1   4   9    1.58    0.42
  -1   4   9    1.23    0.34
   1   4  -9    1.08    0.46
   1   4  -9    2.21    0.44
   0  -4   9  258.07    7.85
   0  -4   9  271.27    7.84
   0  -4  -9  267.48    7.58
   0  -4  -9  279.02    7.94
   0  -4  -9  277.86    7.82
   0  -4   9  271.22    7.98
   0  -4  -9  285.77    7.90
   0  -4   9  271.60    7.76
   0  -4  -9  281.19    7.97
   0  -4  -9  278.29    7.93
   0  -4   9  280.25    7.93
   0  -4   9  282.29    8.07
   0   4  -9  284.89    7.90
   0   4   9  277.14    8.09
   0   4  -9  268.64    8.01
   0   4   9  280.58    7.87
   0   4   9  258.90    7.96
   0   4  -9  265.76    7.72
   0   4   9  273.51    7.87
   0   4  -9  267.64    7.83
   0   4  -9  266.60    8.09
   0   4  -9  274.16    8.00
   0   4  -9  272.21    7.91
   0   4  -9  270.36    7.67
   0   4   9  268.80    7.87
  -1  -4  -9    0.50    0.33
   1  -4   9   -0.10    0.26
   1  -4   9   -0.02    0.24
   1  -4   9    0.19    0.28
  -1  -4  -9   -0.10    0.26
   1  -4   9    0.96    0.32
   1  -4   9    0.19    0.38
   1   4   9   -0.06    0.29
   1   4   9    0.13    0.31
   1   4   9    0.04    0.23
   1   4   9   -0.28    0.33
  -1   4  -9    0.17    0.34
  -1   4  -9   -0.05    0.23
  -1   4  -9    0.21    0.28
  -1   4  -9    0.12    0.30
   1   4   9   -0.22    0.22
  -1   4  -9    0.14    0.27
   2  -4   9  129.79    4.06
  -2  -4  -9  130.37    4.04
   2  -4   9  134.38    4.01
  -2  -4  -9  135.86    4.09
   2  -4   9  138.95    4.27
  -2   4  -9  135.39    4.18
  -2   4  -9  128.68    4.07
   2   4   9  137.16    4.02
   2   4   9  130.65    4.20
   2   4   9  133.87    4.17
  -2   4  -9  111.84    4.07
   3  -4   9    1.61    0.57
  -3  -4  -9    1.80    0.57
  -3  -4  -9    2.11    0.61
   3  -4   9    1.85    0.47
   3  -4   9    2.43    0.58
  -3  -4  -9    1.23    0.34
   3   4   9    1.56    0.49
  -3   4  -9    1.91    0.64
  -3   4  -9    2.62    0.61
   3   4   9    1.58    0.64
   3   4   9    2.39    0.53
  -3   4  -9    1.89    0.45
   3  -5  -9   54.58    1.84
  -3  -5   9   56.09    1.96
   3  -5  -9   56.63    2.18
  -3  -5   9   52.04    2.06
   3  -5  -9   54.56    2.16
  -3   5   9   58.66    2.14
   3   5  -9   53.81    1.99
  -3   5   9   55.90    2.07
   3   5  -9   56.87    2.15
   3   5  -9   54.27    2.09
   2  -5  -9   76.93    2.56
  -2  -5   9   70.91    2.46
   2  -5  -9   72.24    2.68
  -2  -5   9   73.57    2.42
   2  -5  -9   67.64    2.59
   2   5  -9   72.15    2.25
  -2   5   9   78.06    2.71
   2   5  -9   73.34    2.45
   2   5  -9   74.01    2.49
  -2   5   9   75.89    2.54
   2   5  -9   71.72    2.56
   1  -5  -9  101.67    3.33
   1  -5  -9   89.22    3.39
  -1  -5   9  100.85    3.20
   1  -5  -9  103.20    3.30
   1  -5  -9  101.56    3.07
  -1  -5   9  104.38    3.03
   1  -5  -9  104.16    3.24
  -1  -5   9   95.34    3.33
  -1  -5   9  104.54    3.21
   1  -5  -9  105.07    3.12
  -1  -5   9  105.47    3.22
  -1   5   9   99.22    3.05
   1   5  -9   99.06    3.33
  -1   5   9  104.52    3.48
   1   5  -9  102.81    3.16
   1   5  -9  102.21    3.09
   1   5  -9  100.98    3.25
  -1   5   9  105.28    3.26
   1   5  -9  103.11    3.21
  -1   5   9   96.93    3.23
  -1   5   9  102.62    3.09
  -1   5   9  103.50    3.25
   0  -5   9   50.18    1.70
   0  -5   9   51.97    1.81
   0  -5   9   47.66    2.01
   0  -5  -9   51.95    1.80
   0  -5  -9   50.07    1.92
   0  -5  -9   51.97    1.85
   0  -5   9   51.13    1.84
   0  -5   9   50.59    2.00
   0   5   9   52.02    1.86
   0   5   9   51.05    1.85
   0   5  -9   54.14    2.02
   0   5   9   50.31    2.05
   0   5  -9   52.51    1.85
   0   5  -9   51.21    1.78
   0   5   9   52.23    1.82
   0   5  -9   50.50    1.95
   0   5  -9   51.43    1.89
   0   5  -9   48.28    1.65
   0   5  -9   56.79    2.49
  -1  -5  -9   80.88    2.81
  -1  -5  -9   84.31    2.79
   1  -5   9   83.45    3.35
   1  -5   9   85.82    2.74
   1  -5   9   86.10    2.74
  -1  -5  -9   83.60    2.82
   1  -5   9   88.81    3.03
   1   5   9   83.22    2.78
  -1   5  -9   83.22    2.80
   1   5   9   85.05    3.02
   1   5   9   86.44    2.86
  -1   5  -9   87.27    2.89
  -1   5  -9   93.03    2.86
  -2  -5  -9   43.52    1.82
   2  -5   9   45.53    1.66
  -2  -5  -9   43.86    1.73
  -2  -5  -9   44.51    1.77
   2  -5   9   45.57    1.75
   2  -5   9   44.73    1.97
   2   5   9   46.86    1.88
   2   5   9   44.37    1.71
   2   5   9   44.24    1.89
  -2   5  -9   41.65    1.85
  -2   5  -9   45.72    1.80
  -2   5  -9   44.96    1.84
   3  -6  -9  219.11    6.68
   2  -6  -9    5.15    0.84
  -2  -6   9    5.50    0.77
   2  -6  -9    5.26    0.64
   2  -6  -9    5.89    0.82
  -2  -6   9    5.45    0.72
   2   6  -9    6.28    0.71
   2   6  -9    5.53    0.74
  -2   6   9    5.30    0.81
   2   6  -9    5.15    0.80
  -2   6   9    4.34    0.83
  -1  -6   9  217.56    6.50
  -1  -6   9  217.40    6.49
  -1  -6   9  232.61    6.33
   1  -6  -9  226.90    6.43
   1  -6  -9  220.87    6.66
   1  -6  -9  226.71    6.64
   1  -6  -9  223.45    6.51
  -1   6   9  222.19    6.57
   1   6  -9  222.78    6.68
   1   6  -9  213.02    6.60
  -1   6   9  220.01    6.80
   1   6  -9  207.40    6.47
  -1   6   9  214.73    6.35
  -1   6   9  220.12    6.56
   1   6  -9  212.05    6.32
   0  -6   9   28.01    1.14
   0  -6  -9   29.32    1.25
   0  -6   9   27.15    1.44
   0  -6   9   28.65    1.25
   0  -6  -9   28.66    1.28
   0  -6   9   28.93    1.32
   0   6  -9   30.21    1.30
   0   6   9   27.35    1.50
   0   6  -9   27.80    1.41
   0   6  -9   27.61    1.35
   0   6   9   29.14    1.26
   0   6   9   27.91    1.31
   0   6  -9   28.11    1.20
  -1  -6  -9  128.83    3.90
  -1  -6  -9  117.61    3.95
   1  -6   9  124.14    3.83
   1  -6   9  126.11    3.84
  -1  -6  -9  122.01    3.90
   1   6   9  120.59    4.15
   1   6   9  123.34    3.92
  -1   6  -9  131.66    3.96
   1   6   9  125.13    3.98
  -1   6  -9  123.46    3.97
  -1   6  -9  123.10    3.91
  -2  -6  -9   20.74    1.20
  -2  -6  -9   21.42    1.37
   2  -6   9   21.81    1.44
   2  -6   9   21.95    1.13
   2  -6   9   21.77    1.23
   2   6   9   22.15    1.23
  -2   6  -9   21.97    1.39
   2   6   9   22.17    1.36
   2   6   9   21.19    1.38
  -2   6  -9   22.11    1.32
  -2   6  -9   21.55    1.27
   1  -7  -9  160.51    4.85
  -1  -7   9  159.03    4.95
   1  -7  -9  167.45    4.91
  -1  -7   9  155.64    4.92
   1   7  -9  152.75    4.90
   1   7  -9  158.06    4.83
   1   7  -9  163.60    5.16
  -1   7   9  164.16    5.03
   0  -7  -9   14.71    0.91
   0  -7   9   13.63    0.97
   0  -7   9   13.16    0.83
   0  -7  -9   12.26    1.13
   0  -7  -9   12.11    1.01
   0   7   9   12.35    0.93
   0   7   9   14.10    1.06
   0   7  -9   13.28    1.00
   0   7   9   13.66    1.26
  -4   0  10  430.45   12.23
  -4   0  10  415.83   12.19
   4   0 -10  447.05   12.38
   4   0 -10  437.05   12.37
   4   0 -10  432.70   12.30
  -4   0  10  427.58   12.35
   3   0 -10   42.73    1.58
   3   0 -10   38.98    1.53
   3   0 -10   40.77    1.53
  -3   0  10   41.02    1.55
  -3   0  10   40.01    1.48
  -3   0  10   40.25    1.46
   2   0 -10  473.46   13.35
  -2   0  10  499.68   13.55
  -2   0  10  443.57   13.35
  -2   0  10  447.94   13.49
   2   0 -10  491.35   13.41
   2   0 -10  479.58   13.56
   2   0 -10  482.20   13.46
  -2   0  10  487.98   13.36
  -2   0  10  470.75   13.40
   1   0 -10  183.23    5.37
  -1   0  10  180.72    5.25
  -1   0  10  179.61    5.28
  -1   0  10  181.60    5.32
  -1   0  10  170.56    5.34
   1   0 -10  183.94    5.33
  -1   0  10  181.20    5.08
  -1   0  10  181.17    5.26
   1   0 -10  180.41    5.46
   1   0 -10  183.37    5.31
  -1   0  10  184.12    5.13
  -1   0  10  180.50    5.45
   1   0 -10  185.85    5.30
   1   0 -10  172.26    5.21
   1   0 -10  185.08    5.22
   0   0  10  333.08    9.60
   0   0 -10  354.07    9.55
   0   0  10  341.89    9.71
   0   0  10  342.71    9.56
   0   0  10  334.86    9.52
   0   0 -10  334.72    9.43
   0   0 -10  348.80    9.62
   0   0  10  339.63    9.52
   0   0  10  322.11    9.41
   0   0 -10  320.59    9.43
   0   0 -10  327.36    9.68
   0   0  10  333.67    9.43
   0   0 -10  329.93    9.56
   0   0  10  332.44    9.46
   0   0  10  333.49    9.38
   0   0 -10  337.48    9.57
  -1   0 -10  108.63    3.36
   1   0  10  111.34    3.54
   1   0  10  108.67    3.44
   1   0  10  109.24    3.39
   1   0  10  111.54    3.34
   1   0  10  109.63    3.20
  -1   0 -10  113.58    3.48
   1   0  10  112.39    3.41
  -1   0 -10  113.97    3.43
  -1   0 -10  105.98    3.33
   1   0  10  108.41    3.22
  -1   0 -10  110.72    3.20
  -1   0 -10  112.24    3.42
  -2   0 -10  346.49    9.91
  -2   0 -10  323.52    9.44
   2   0  10  322.44    9.47
  -2   0 -10  335.63    9.71
   2   0  10  345.44    9.77
   2   0  10  348.05    9.88
   2   0  10  358.17    9.83
   3   0  10   19.40    1.24
  -3   0 -10   18.47    1.32
  -3   0 -10   19.18    0.97
   3   0  10   19.68    1.12
   3   0  10   19.39    1.10
   4  -1 -10  193.95    5.77
  -4  -1  10  188.94    5.79
   4  -1 -10  192.03    5.82
  -4  -1  10  190.48    5.75
   4  -1 -10  194.94    5.87
  -4  -1  10  192.20    5.64
   4   1 -10  194.43    5.75
   4   1 -10  195.68    5.76
  -4   1  10  189.90    5.80
  -4   1  10  190.59    5.66
   4   1 -10  196.44    5.80
   3  -1 -10  158.99    4.70
   3  -1 -10  158.64    4.76
   3  -1 -10  143.83    4.54
  -3  -1  10  155.48    4.79
  -3  -1  10  154.53    4.61
   3  -1 -10  159.66    4.73
  -3  -1  10  157.63    4.71
   3   1 -10  156.12    4.69
   3   1 -10  159.49    4.72
  -3   1  10  152.10    4.59
  -3   1  10  157.32    4.64
  -3   1  10  154.48    4.71
   3   1 -10  158.28    4.67
   2  -1 -10  400.75   11.76
  -2  -1  10  417.83   11.73
   2  -1 -10  398.81   11.63
   2  -1 -10  420.77   11.76
  -2  -1  10  416.37   11.69
   2  -1 -10  416.67   11.73
  -2  -1  10  407.35   11.69
   2  -1 -10  413.19   11.67
  -2  -1  10  389.67   11.65
  -2  -1  10  421.77   11.85
   2  -1 -10  406.94   11.90
  -2   1  10  418.01   11.71
   2   1 -10  419.02   11.89
   2   1 -10  411.26   11.71
  -2   1  10  423.09   11.46
  -2   1  10  427.33   11.66
   2   1 -10  422.15   11.69
   2   1 -10  410.58   11.69
  -2   1  10  405.75   11.69
   2   1 -10  413.11   11.77
  -2   1  10  425.94   11.87
  -1  -1  10   83.78    2.63
   1  -1 -10   84.16    2.49
  -1  -1  10   83.02    2.54
   1  -1 -10   77.25    2.60
  -1  -1  10   81.35    2.57
   1  -1 -10   82.55    2.78
   1  -1 -10   85.18    2.61
   1  -1 -10   83.57    2.64
  -1  -1  10   84.39    2.59
   1  -1 -10   81.72    2.67
   1  -1 -10   79.07    2.42
  -1  -1  10   78.00    2.57
   1  -1 -10   83.82    2.65
  -1  -1  10   82.09    2.40
  -1  -1  10   82.91    2.37
  -1  -1  10   82.16    2.75
   1  -1 -10   82.35    2.50
  -1  -1  10   79.83    2.67
  -1   1  10   86.37    2.43
  -1   1  10   81.76    2.56
   1   1 -10   80.76    2.77
   1   1 -10   81.90    2.59
  -1   1  10   83.80    2.62
   1   1 -10   83.07    2.54
   1   1 -10   84.79    2.60
   1   1 -10   82.76    2.63
   1   1 -10   84.50    2.68
  -1   1  10   84.90    2.57
  -1   1  10   83.00    2.76
   1   1 -10   79.78    2.51
  -1   1  10   85.05    2.60
   0  -1  10  508.59   14.31
   0  -1 -10  502.39   14.29
   0  -1  10  505.48   14.05
   0  -1 -10  501.02   14.20
   0  -1 -10  494.97   13.98
   0  -1 -10  492.73   14.03
   0  -1 -10  508.81   14.18
   0  -1 -10  512.83   14.22
   0  -1  10  492.36   14.12
   0  -1  10  502.52   14.21
   0  -1  10  507.75   13.99
   0  -1  10  493.10   14.12
   0  -1 -10  523.70   14.15
   0  -1  10  486.12   14.05
   0  -1  10  511.41   14.17
   0  -1 -10  496.02   13.95
   0  -1 -10  485.18   14.08
   0   1  10  500.66   14.21
   0   1  10  501.51   14.12
   0   1  10  512.80   14.32
   0   1 -10  490.50   14.16
   0   1 -10  496.07   14.30
   0   1  10  518.19   14.16
   0   1 -10  519.70   14.23
   0   1 -10  528.29   14.14
   0   1 -10  503.58   14.15
   0   1  10  501.39   14.13
   0   1  10  504.75   14.06
   0   1  10  496.83   13.99
   0   1 -10  511.01   14.08
   0   1 -10  483.55   14.00
  -1  -1 -10   87.21    2.72
  -1  -1 -10   84.91    2.71
   1  -1  10   86.51    2.69
   1  -1  10   79.74    2.73
   1  -1  10   83.18    2.48
  -1  -1 -10   83.09    2.70
  -1  -1 -10   83.74    2.40
  -1  -1 -10   89.09    2.79
   1  -1  10   84.82    2.69
  -1  -1 -10   87.67    2.67
  -1  -1 -10   85.47    2.40
   1  -1  10   81.58    2.54
   1  -1  10   87.64    2.87
  -1   1 -10   82.07    2.70
   1   1  10   87.79    2.73
  -1   1 -10   87.10    2.60
   1   1  10   83.82    2.55
   1   1  10   88.06    2.86
  -1   1 -10   86.91    2.77
  -1   1 -10   86.46    2.67
   1   1  10   79.71    2.72
  -1   1 -10   76.48    2.56
  -1   1 -10   88.41    2.75
   2  -1  10  223.66    6.67
   2  -1  10  236.26    6.80
  -2  -1 -10  233.99    6.83
  -2  -1 -10  219.61    6.61
   2  -1  10  222.25    6.64
  -2   1 -10  227.65    6.63
   2   1  10  233.63    6.74
  -2   1 -10  222.33    6.43
  -2   1 -10  227.57    6.77
   2   1  10  231.29    6.70
   2   1  10  224.32    6.76
   2   1  10  217.48    6.42
  -3  -1 -10   78.52    2.66
   3  -1  10   83.63    2.86
   3  -1  10   84.58    2.78
  -3  -1 -10   81.60    3.06
   3  -1  10   86.09    2.90
  -3   1 -10   82.10    2.70
   3   1  10   82.99    2.93
   3   1  10   83.48    2.84
   3   1  10   80.47    2.82
  -3   1 -10   81.61    3.00
   4  -2 -10   53.76    2.14
   4  -2 -10   53.24    2.08
  -4  -2  10   55.50    1.86
   4  -2 -10   53.49    2.00
  -4  -2  10   55.82    2.04
  -4  -2  10   53.60    2.06
   4   2 -10   54.67    1.94
  -4   2  10   53.70    2.04
   4   2 -10   55.00    1.97
  -4   2  10   52.42    1.89
   4   2 -10   54.34    2.02
   3  -2 -10  380.20   10.76
   3  -2 -10  386.83   10.85
  -3  -2  10  383.53   10.77
  -3  -2  10  378.55   10.75
   3  -2 -10  380.07   10.82
  -3  -2  10  363.63   10.66
  -3   2  10  376.28   10.71
   3   2 -10  386.74   10.76
  -3   2  10  365.53   10.58
   3   2 -10  366.70   10.77
  -3   2  10  370.45   10.77
  -2  -2  10   64.36    2.06
  -2  -2  10   63.17    2.10
   2  -2 -10   60.53    2.26
   2  -2 -10   64.64    2.18
   2  -2 -10   61.10    1.86
  -2  -2  10   62.01    2.18
  -2  -2  10   63.58    2.09
   2  -2 -10   59.29    2.00
   2  -2 -10   64.01    2.16
   2  -2 -10   63.67    2.05
   2   2 -10   59.78    2.02
  -2   2  10   56.53    1.93
  -2   2  10   65.81    2.02
  -2   2  10   62.74    2.09
  -2   2  10   59.79    2.07
  -2   2  10   63.38    2.10
   2   2 -10   61.77    2.28
   2   2 -10   63.72    2.10
   2   2 -10   65.66    2.08
   2   2 -10   62.65    2.15
   1  -2 -10  495.11   13.92
  -1  -2  10  507.03   14.25
   1  -2 -10  506.82   14.18
   1  -2 -10  507.12   14.09
  -1  -2  10  484.16   13.99
  -1  -2  10  487.62   13.85
   1  -2 -10  510.01   14.26
  -1  -2  10  503.84   14.07
   1  -2 -10  509.52   14.14
   1  -2 -10  507.45   13.94
  -1  -2  10  499.82   14.12
  -1  -2  10  491.54   14.15
   1  -2 -10  498.07   13.96
   1  -2 -10  482.35   14.17
   1  -2 -10  485.11   14.05
   1   2 -10  507.35   14.18
   1   2 -10  503.60   14.11
  -1   2  10  525.95   14.12
   1   2 -10  498.60   14.03
   1   2 -10  477.53   13.97
  -1   2  10  509.63   14.03
   1   2 -10  497.62   14.04
  -1   2  10  516.06   13.95
   1   2 -10  504.36   14.07
   1   2 -10  509.23   14.28
  -1   2  10  516.89   14.30
  -1   2  10  485.75   14.07
  -1   2  10  484.68   14.05
   0  -2  10   58.30    2.05
   0  -2 -10   55.98    1.79
   0  -2  10   59.22    1.81
   0  -2 -10   58.97    1.74
   0  -2 -10   56.26    2.00
   0  -2 -10   58.01    2.13
   0  -2  10   60.30    1.86
   0  -2  10   58.90    1.99
   0  -2 -10   58.83    1.87
   0  -2  10   56.85    1.93
   0  -2 -10   58.68    2.00
   0  -2  10   57.79    1.80
   0  -2  10   54.81    1.90
   0  -2 -10   60.71    1.96
   0  -2  10   58.64    1.95
   0  -2  10   60.49    2.13
   0   2 -10   58.30    1.80
   0   2 -10   62.62    1.94
   0   2 -10   61.36    1.97
   0   2  10   60.98    1.96
   0   2 -10   59.44    2.00
   0   2  10   55.16    2.02
   0   2 -10   55.64    2.15
   0   2  10   58.55    1.97
   0   2 -10   58.21    1.96
   0   2  10   58.71    2.13
   0   2 -10   61.35    2.05
   0   2  10   56.62    1.89
   0   2  10   57.81    1.95
   0   2  10   57.62    1.82
   1  -2  10  359.56   10.26
  -1  -2 -10  392.00   10.59
   1  -2  10  381.09   10.62
   1  -2  10  382.35   10.71
  -1  -2 -10  360.29   10.50
  -1  -2 -10  372.38   10.55
   1  -2  10  342.50   10.40
   1  -2  10  381.83   10.51
   1  -2  10  378.62   10.52
   1  -2  10  362.70   10.48
  -1  -2 -10  370.55   10.50
   1   2  10  360.35   10.42
  -1   2 -10  386.76   10.52
  -1   2 -10  376.08   10.60
   1   2  10  382.71   10.72
  -1   2 -10  322.51   10.31
  -1   2 -10  370.74   10.59
   1   2  10  380.24   10.60
   1   2  10  378.40   10.58
  -1   2 -10  366.93   10.55
   1   2  10  367.92   10.48
  -1   2 -10  362.82   10.49
   2  -2  10   47.80    1.75
  -2  -2 -10   47.49    1.95
  -2  -2 -10   49.70    1.75
  -2  -2 -10   48.14    1.76
   2  -2  10   49.58    1.92
   2  -2  10   46.42    1.78
  -2   2 -10   47.79    1.76
   2   2  10   46.89    1.60
   2   2  10   48.01    1.83
  -2   2 -10   50.00    1.65
  -2   2 -10   46.00    1.86
   2   2  10   48.68    1.90
   3  -2  10  178.70    5.34
   3  -2  10  178.99    5.48
  -3  -2 -10  159.10    5.60
  -3  -2 -10  177.31    5.29
   3  -2  10  180.08    5.46
   3   2  10  176.05    5.44
  -3   2 -10  176.81    5.32
   3   2  10  186.66    5.50
  -3   2 -10  180.51    5.60
   4  -3 -10   31.52    1.46
   4  -3 -10   31.11    1.51
  -4  -3  10   30.50    1.52
  -4  -3  10   29.82    1.24
   4  -3 -10   31.04    1.60
   4   3 -10   31.02    1.27
  -4   3  10   31.18    1.35
   4   3 -10   31.36    1.44
  -4   3  10   32.03    1.50
  -3  -3  10  356.41   10.47
   3  -3 -10  369.35   10.57
   3  -3 -10  373.86   10.67
   3  -3 -10  356.33   10.27
   3  -3 -10  385.59   10.66
  -3  -3  10  363.79   10.54
  -3  -3  10  379.94   10.60
   3   3 -10  383.08   10.56
   3   3 -10  360.74   10.58
   3   3 -10  358.72   10.41
  -3   3  10  374.56   10.60
  -3   3  10  357.53   10.51
  -2  -3  10   23.38    1.43
   2  -3 -10   27.01    1.43
   2  -3 -10   29.58    1.28
   2  -3 -10   29.10    1.28
  -2  -3  10   29.35    1.21
  -2  -3  10   31.65    1.17
   2  -3 -10   27.92    1.11
   2  -3 -10   29.05    1.01
   2  -3 -10   29.25    1.15
  -2  -3  10   30.90    1.30
   2   3 -10   27.60    1.09
  -2   3  10   30.40    1.24
   2   3 -10   30.40    1.19
  -2   3  10   28.32    1.07
  -2   3  10   27.40    1.33
   2   3 -10   27.27    1.19
  -2   3  10   28.24    1.19
  -2   3  10   28.91    1.20
  -1  -3  10  494.94   13.71
   1  -3 -10  487.34   14.12
   1  -3 -10  506.17   14.02
  -1  -3  10  500.68   13.94
  -1  -3  10  506.14   14.00
  -1  -3  10  467.82   13.83
   1  -3 -10  490.15   13.81
   1  -3 -10  493.72   13.80
   1  -3 -10  514.08   14.06
   1  -3 -10  514.12   13.78
  -1  -3  10  484.00   13.92
  -1  -3  10  484.05   13.72
   1  -3 -10  508.38   13.97
   1  -3 -10  476.02   13.90
   1  -3 -10  505.23   14.01
  -1  -3  10  493.97   14.11
   1   3 -10  513.58   14.00
  -1   3  10  484.55   13.95
  -1   3  10  512.12   13.89
  -1   3  10  481.52   14.05
   1   3 -10  486.72   13.88
   1   3 -10  484.55   13.83
  -1   3  10  510.13   13.85
  -1   3  10  489.20   14.15
   1   3 -10  470.90   14.03
  -1   3  10  502.43   13.95
   0  -3 -10   20.29    0.94
   0  -3 -10   21.07    1.01
   0  -3 -10   20.20    1.00
   0  -3  10   20.74    1.09
   0  -3  10   21.30    0.84
   0  -3 -10   21.08    0.90
   0  -3 -10   21.57    1.01
   0  -3  10   21.15    0.82
   0  -3 -10   20.58    0.66
   0  -3  10   21.90    0.96
   0  -3  10   21.49    1.10
   0  -3  10   20.78    0.99
   0   3 -10   20.69    0.97
   0   3  10   20.11    1.05
   0   3 -10   20.42    1.01
   0   3 -10   18.14    1.20
   0   3  10   18.82    1.07
   0   3 -10   22.35    0.98
   0   3  10   21.23    0.95
   0   3  10   21.96    0.97
   0   3 -10   22.54    0.78
   0   3 -10   21.76    0.95
   1  -3  10  400.96   11.21
   1  -3  10  407.22   11.42
   1  -3  10  388.34   11.19
   1  -3  10  390.04   11.73
  -1  -3 -10  389.52   11.26
  -1  -3 -10  402.76   11.33
   1  -3  10  396.92   11.18
  -1  -3 -10  401.91   11.28
  -1  -3 -10  389.49   11.18
  -1   3 -10  391.67   11.31
  -1   3 -10  407.75   11.24
  -1   3 -10  367.34   10.89
  -1   3 -10  374.89   11.24
   1   3  10  406.80   11.29
  -1   3 -10  383.35   11.26
   1   3  10  411.19   11.46
   1   3  10  394.45   11.18
   2  -3  10   20.99    1.10
   2  -3  10   20.55    1.21
   2  -3  10   21.06    1.05
  -2  -3 -10   19.57    1.24
  -2  -3 -10   21.61    1.09
  -2  -3 -10   20.27    1.03
  -2   3 -10   20.02    1.15
   2   3  10   20.59    0.95
  -2   3 -10   22.08    1.07
   2   3  10   21.14    1.20
   2   3  10   20.33    1.14
   3  -3  10  173.59    5.47
   3  -3  10  177.97    5.28
   3  -3  10  181.33    5.40
  -3  -3 -10  170.03    5.24
   3   3  10  175.27    5.43
   3   3  10  171.98    5.15
  -3   3 -10  182.18    5.25
  -3   3 -10  171.63    5.52
   3   3  10  171.19    5.44
  -3   3 -10  172.51    5.29
   3  -4 -10   53.83    2.10
   3  -4 -10   52.80    2.07
  -3  -4  10   54.86    2.03
   3  -4 -10   54.61    2.01
   3  -4 -10   52.27    1.72
   3   4 -10   52.96    1.94
  -3   4  10   52.36    1.98
  -3   4  10   54.37    2.03
   3   4 -10   53.74    1.77
   3   4 -10   53.86    2.03
   2  -4 -10  258.67    7.32
   2  -4 -10  260.51    7.47
  -2  -4  10  253.32    7.38
   2  -4 -10  251.74    7.49
   2  -4 -10  248.16    7.19
   2  -4 -10  247.56    7.49
  -2   4  10  259.06    7.43
  -2   4  10  254.63    7.41
   2   4 -10  255.73    7.48
   2   4 -10  247.41    7.22
  -2   4  10  239.17    7.20
   2   4 -10  249.33    7.35
  -2   4  10  265.56    7.83
  -1  -4  10   65.60    1.94
   1  -4 -10   63.22    2.23
   1  -4 -10   65.84    2.00
   1  -4 -10   58.75    2.38
   1  -4 -10   63.41    2.26
   1  -4 -10   60.95    2.54
  -1  -4  10   63.03    2.13
   1  -4 -10   63.21    1.97
   1  -4 -10   61.90    2.04
  -1  -4  10   64.81    2.15
  -1  -4  10   58.04    2.27
   1  -4 -10   65.63    2.21
  -1  -4  10   66.76    2.35
   1   4 -10   62.63    2.61
  -1   4  10   65.75    2.18
   1   4 -10   62.86    2.09
   1   4 -10   63.16    2.14
  -1   4  10   63.16    2.17
  -1   4  10   59.86    2.33
  -1   4  10   65.11    2.07
   1   4 -10   63.75    2.20
   1   4 -10   63.74    2.26
  -1   4  10   66.18    2.19
   1   4 -10   64.57    2.07
  -1   4  10   63.02    2.36
   0  -4  10  240.91    7.00
   0  -4  10  232.04    7.13
   0  -4 -10  244.50    7.08
   0  -4 -10  250.86    6.87
   0  -4 -10  241.95    7.24
   0  -4  10  250.09    7.14
   0  -4  10  232.62    7.26
   0  -4 -10  240.96    7.21
   0  -4 -10  256.81    7.22
   0  -4  10  249.67    7.36
   0  -4 -10  266.71    7.64
   0  -4  10  244.18    7.02
   0   4 -10  257.59    7.17
   0   4  10  227.33    7.36
   0   4  10  250.94    7.16
   0   4  10  258.71    7.76
   0   4 -10  242.77    7.19
   0   4 -10  242.38    7.27
   0   4  10  240.27    7.37
   0   4 -10  245.70    6.99
   0   4  10  251.22    7.16
   0   4 -10  241.50    7.16
   1  -4  10   49.71    2.29
   1  -4  10   50.03    2.25
   1  -4  10   49.57    1.76
   1  -4  10   50.70    1.75
  -1  -4 -10   50.76    1.80
  -1  -4 -10   47.15    1.83
  -1  -4 -10   52.34    1.91
  -1   4 -10   42.20    2.15
  -1   4 -10   51.72    1.84
  -1   4 -10   48.66    1.84
   1   4  10   48.82    1.87
   1   4  10   48.86    1.99
   1   4  10   51.18    1.77
   2  -4  10  159.76    4.81
  -2  -4 -10  160.21    4.83
   2  -4  10  163.34    4.76
   2  -4  10  162.51    5.03
  -2  -4 -10  136.96    4.91
  -2  -4 -10  157.05    4.80
   2   4  10  159.83    4.73
   2   4  10  164.75    5.01
   2   4  10  161.69    4.93
  -2   4 -10  146.47    4.83
  -2   4 -10  154.02    4.90
  -2   4 -10  159.30    4.84
   3  -5 -10   26.24    1.16
   3  -5 -10   24.49    1.33
  -3  -5  10   26.31    1.38
   3  -5 -10   26.74    1.46
  -3  -5  10   27.10    1.24
   3  -5 -10   27.33    1.46
   3   5 -10   28.04    1.41
   3   5 -10   26.94    1.31
  -3   5  10   26.75    1.36
  -3   5  10   27.96    1.42
   3   5 -10   28.32    1.43
   2  -5 -10  235.04    6.72
  -2  -5  10  232.41    6.85
  -2  -5  10  230.37    6.89
   2  -5 -10  239.12    7.05
   2  -5 -10  220.29    6.99
   2  -5 -10  241.55    6.97
  -2   5  10  239.65    6.97
  -2   5  10  228.03    6.91
   2   5 -10  233.50    6.69
   2   5 -10  235.63    6.88
   2   5 -10  229.27    7.01
   2   5 -10  238.19    6.91
  -1  -5  10   13.43    0.63
   1  -5 -10   13.06    0.79
   1  -5 -10   13.45    0.99
   1  -5 -10   14.31    0.91
   1  -5 -10   13.11    0.66
  -1  -5  10   13.99    0.87
  -1  -5  10   13.13    0.84
   1  -5 -10   15.85    1.22
   1   5 -10   13.11    0.77
  -1   5  10   12.74    0.88
   1   5 -10   14.79    1.04
  -1   5  10   12.93    0.72
  -1   5  10   13.54    0.89
   1   5 -10   12.77    0.84
   1   5 -10   13.20    0.77
   0  -5  10  255.13    7.90
   0  -5  10  256.75    7.66
   0  -5  10  271.66    7.73
   0  -5 -10  276.76    7.76
   0  -5 -10  262.34    7.65
   0  -5  10  263.11    7.56
   0   5 -10  270.58    7.89
   0   5 -10  253.75    7.50
   0   5 -10  278.49    7.73
   0   5 -10  257.92    7.66
   0   5  10  266.91    7.73
   0   5 -10  262.77    7.76
   0   5  10  263.27    7.69
  -1  -5 -10   14.18    0.93
  -1  -5 -10   13.17    0.98
   1  -5  10   15.64    0.89
   1  -5  10   16.89    1.14
   1  -5  10   13.55    0.88
  -1  -5 -10   14.20    0.97
  -1   5 -10   14.08    0.95
  -1   5 -10   14.17    0.99
   1   5  10   12.17    1.04
   1   5  10   15.63    1.01
  -1   5 -10   15.08    0.97
   1   5  10   13.39    0.91
   2  -5  10  135.66    4.17
  -2  -5 -10  132.32    4.21
  -2  -5 -10  136.88    4.32
   2  -5  10  134.33    4.09
   2  -5  10  141.34    4.46
  -2  -5 -10  124.20    4.16
  -2   5 -10  133.10    4.22
   2   5  10  132.08    4.29
   2   5  10  133.47    4.13
  -2   5 -10  134.12    4.29
   2   5  10  122.33    4.33
  -2   5 -10  129.95    4.28
   2  -6 -10  103.29    3.38
  -2  -6  10   99.53    3.30
   2  -6 -10  101.80    3.18
   2  -6 -10  102.66    3.49
  -2  -6  10   96.87    3.33
   2  -6 -10  101.11    3.23
  -2   6  10  102.18    3.40
  -2   6  10  101.29    3.42
   2   6 -10  101.37    3.48
   2   6 -10  101.50    3.32
   2   6 -10   99.41    3.30
  -1  -6  10   42.66    1.74
   1  -6 -10   44.77    1.74
  -1  -6  10   44.00    1.72
   1  -6 -10   42.89    1.65
  -1   6  10   44.09    1.78
   1   6 -10   44.15    1.63
   1   6 -10   40.86    1.84
   1   6 -10   42.26    1.70
   0  -6 -10   85.08    2.83
   0  -6  10   84.86    2.71
   0  -6 -10   91.59    2.88
   0  -6 -10   84.22    2.98
   0  -6  10   85.89    2.85
   0   6  10   83.10    2.87
   0   6  10   78.45    3.11
   0   6 -10   85.79    2.80
   0   6 -10   90.27    2.89
   0   6  10   87.80    2.85
   1  -6  10   31.76    1.70
  -1  -6 -10   30.09    1.46
  -1  -6 -10   34.30    1.49
   1  -6  10   30.89    1.39
   1  -6  10   31.70    1.36
  -1  -6 -10   30.68    1.51
  -1   6 -10   30.91    1.49
   1   6  10   30.55    1.50
  -1   6 -10   32.18    1.56
   1   6  10   31.66    1.46
  -1   6 -10   32.65    1.48
  -4   0  11    0.68    0.28
   4   0 -11    0.10    0.33
   4   0 -11    0.96    0.50
   4   0 -11    0.83    0.47
  -4   0  11    1.58    0.47
  -4   0  11    1.19    0.53
  -3   0  11    0.19    0.38
   3   0 -11    0.15    0.31
   3   0 -11    0.01    0.36
   3   0 -11    0.66    0.39
  -3   0  11    0.58    0.36
  -3   0  11    0.01    0.25
  -2   0  11    0.17    0.22
  -2   0  11   -0.30    0.23
   2   0 -11    0.32    0.27
   2   0 -11    0.01    0.29
  -2   0  11   -0.06    0.24
   2   0 -11    0.02    0.38
  -2   0  11    0.79    0.34
   2   0 -11   -0.10    0.28
  -2   0  11    0.43    0.29
   2   0 -11    0.02    0.24
  -1   0  11    0.39    0.16
  -1   0  11   -0.23    0.28
  -1   0  11    0.50    0.23
  -1   0  11    0.12    0.13
  -1   0  11   -0.14    0.21
   1   0 -11    0.07    0.42
   1   0 -11    0.05    0.22
  -1   0  11    0.26    0.25
   1   0 -11   -0.13    0.27
   1   0 -11    0.05    0.27
   1   0 -11    0.04    0.20
  -1   0  11   -0.07    0.34
   1   0 -11    0.09    0.19
   0   0 -11    0.18    0.26
   0   0  11    0.10    0.33
   0   0  11    0.27    0.24
   0   0 -11    0.37    0.24
   0   0  11    0.30    0.18
   0   0 -11   -0.21    0.59
   0   0  11    0.20    0.28
   0   0 -11    0.13    0.22
   0   0  11    0.36    0.24
   0   0  11    0.42    0.33
   0   0 -11    0.48    0.30
   0   0  11    0.33    0.23
   0   0  11    0.20    0.24
   0   0 -11    0.14    0.21
   0   0 -11    0.28    0.26
  -1   0 -11    0.03    0.34
   1   0  11    0.10    0.21
  -1   0 -11    0.83    0.35
   1   0  11   -0.07    0.29
   1   0  11    0.23    0.23
  -1   0 -11    0.13    0.36
  -1   0 -11   -0.04    0.23
   1   0  11    0.24    0.33
   1   0  11   -0.01    0.36
  -2   0 -11    0.39    0.48
   2   0  11   -0.08    0.33
   2   0  11   -0.07    0.42
  -2   0 -11    0.35    0.29
   2   0  11    0.75    0.40
  -3   0 -11    0.14    0.34
  -3   0 -11   -0.02    0.62
   3   0  11   -0.50    0.39
   3   0  11   -0.18    0.50
   3   0  11    0.29    0.50
   4  -1 -11   10.23    0.84
  -4  -1  11    8.78    0.69
  -4  -1  11    8.72    0.89
  -4  -1  11    9.50    0.93
   4  -1 -11    9.78    0.93
   4  -1 -11   10.69    1.00
  -4   1  11    8.86    0.72
   4   1 -11    8.82    0.78
   4   1 -11    9.67    0.91
  -4   1  11    8.85    0.90
   3  -1 -11   84.12    2.79
  -3  -1  11   80.65    2.64
   3  -1 -11   82.85    2.71
  -3  -1  11   83.84    2.72
   3  -1 -11   81.85    2.77
  -3  -1  11   82.90    2.73
   3   1 -11   84.60    2.71
  -3   1  11   80.88    2.73
   3   1 -11   82.99    2.69
  -3   1  11   82.18    2.67
   3   1 -11   81.84    2.75
  -3   1  11   80.38    2.64
   2  -1 -11   53.14    1.79
   2  -1 -11   51.70    1.94
  -2  -1  11   50.95    1.96
  -2  -1  11   50.53    1.80
  -2  -1  11   56.83    2.25
  -2  -1  11   52.52    1.83
   2  -1 -11   50.61    1.91
  -2  -1  11   52.94    1.82
   2  -1 -11   50.68    2.09
   2  -1 -11   54.92    1.91
  -2   1  11   51.00    1.82
   2   1 -11   53.66    1.88
  -2   1  11   51.79    1.94
  -2   1  11   52.75    1.80
   2   1 -11   55.23    1.83
  -2   1  11   53.23    1.86
   2   1 -11   55.03    1.84
   2   1 -11   52.01    1.91
   2   1 -11   55.17    2.31
  -2   1  11   51.85    2.02
  -1  -1  11  113.78    3.75
   1  -1 -11  115.41    3.67
   1  -1 -11  121.04    3.48
   1  -1 -11  116.49    3.46
  -1  -1  11  114.05    3.36
  -1  -1  11  111.24    3.68
   1  -1 -11  114.76    3.79
   1  -1 -11  120.88    3.66
   1  -1 -11  115.70    3.62
  -1  -1  11  118.53    3.52
  -1  -1  11  113.51    3.55
  -1  -1  11  113.27    3.57
  -1  -1  11  125.16    3.36
  -1  -1  11  120.66    3.64
  -1   1  11  115.70    3.58
   1   1 -11  119.45    3.64
   1   1 -11  116.44    3.51
  -1   1  11  119.02    3.55
  -1   1  11  118.08    3.59
   1   1 -11  118.84    3.59
   1   1 -11  115.71    3.80
   1   1 -11  116.14    3.67
  -1   1  11  117.29    3.78
  -1   1  11  110.75    3.67
  -1   1  11  118.68    3.63
   1   1 -11  121.83    3.72
  -1   1  11  122.12    3.40
   0  -1  11   23.13    0.86
   0  -1 -11   21.00    0.96
   0  -1  11   21.07    0.93
   0  -1 -11   22.13    0.78
   0  -1  11   23.24    0.99
   0  -1 -11   22.40    1.04
   0  -1  11   21.53    1.11
   0  -1  11   21.77    0.98
   0  -1 -11   21.78    1.02
   0  -1  11   22.44    0.82
   0  -1  11   21.67    0.89
   0  -1  11   21.62    1.13
   0  -1 -11   22.14    1.05
   0  -1 -11   22.10    0.82
   0  -1  11   21.70    1.31
   0   1  11   22.19    0.99
   0   1 -11   22.44    1.03
   0   1 -11   20.19    1.27
   0   1  11   21.13    0.82
   0   1 -11   21.99    0.85
   0   1  11   22.45    1.16
   0   1 -11   22.88    1.02
   0   1  11   20.12    1.07
   0   1 -11   22.50    0.91
   0   1 -11   22.62    0.98
   0   1 -11   23.17    1.07
   0   1  11   22.04    0.97
   0   1  11   22.13    0.91
   1  -1  11   36.78    1.22
   1  -1  11   35.70    1.42
   1  -1  11   39.18    1.72
  -1  -1 -11   40.07    1.49
   1  -1  11   35.11    1.29
  -1  -1 -11   39.83    1.55
  -1  -1 -11   36.31    1.47
   1  -1  11   36.81    1.40
   1  -1  11   39.23    1.46
  -1  -1 -11   36.11    1.73
  -1   1 -11   37.45    1.49
   1   1  11   37.84    1.39
  -1   1 -11   39.45    1.56
  -1   1 -11   39.39    1.57
   1   1  11   37.92    1.48
   1   1  11   37.87    1.31
  -1   1 -11   37.47    1.32
  -2  -1 -11    3.60    0.60
  -2  -1 -11    3.28    0.65
   2  -1  11    4.39    0.61
   2  -1  11    4.95    0.69
   2  -1  11    3.88    0.78
   2   1  11    5.08    0.72
  -2   1 -11    3.78    0.65
  -2   1 -11    4.34    0.38
   2   1  11    4.23    0.44
   2   1  11    2.84    0.51
   2   1  11    3.78    0.61
  -2   1 -11    4.23    0.75
   3  -1  11   19.18    1.14
   3  -1  11   19.97    1.29
   3  -1  11   19.90    1.25
  -3  -1 -11   18.67    1.05
  -3  -1 -11   18.69    1.43
   3   1  11   19.28    1.25
  -3   1 -11   19.16    1.44
   3   1  11   18.89    1.25
   3   1  11   21.80    1.38
  -3   1 -11   18.85    1.07
   4  -2 -11    5.31    0.95
   4  -2 -11    4.79    0.73
   4  -2 -11    4.88    0.85
  -4  -2  11    4.89    0.92
  -4  -2  11    4.55    0.80
  -4  -2  11    4.77    0.61
   4   2 -11    5.07    0.75
  -4   2  11    4.55    0.65
   4   2 -11    5.02    0.71
  -4   2  11    6.17    0.87
   4   2 -11    4.79    0.78
  -3  -2  11   63.38    2.24
   3  -2 -11   62.96    2.29
  -3  -2  11   60.24    2.11
  -3  -2  11   63.91    2.20
   3  -2 -11   64.45    2.28
   3  -2 -11   61.48    2.19
   3   2 -11   65.12    2.21
  -3   2  11   58.99    2.04
   3   2 -11   63.10    2.12
  -3   2  11   63.14    2.22
  -3   2  11   62.57    2.15
   3   2 -11   63.45    2.23
  -2  -2  11    0.23    0.34
   2  -2 -11    0.11    0.44
   2  -2 -11   -0.16    0.33
   2  -2 -11    0.48    0.20
  -2  -2  11    0.19    0.25
  -2  -2  11    0.02    0.26
  -2  -2  11   -0.15    0.29
   2  -2 -11   -0.13    0.40
   2  -2 -11   -0.03    0.25
   2  -2 -11    0.15    0.34
   2   2 -11    0.13    0.29
   2   2 -11    0.09    0.27
   2   2 -11    0.49    0.30
  -2   2  11   -0.13    0.31
  -2   2  11   -0.07    0.29
  -2   2  11    0.09    0.26
   2   2 -11    0.13    0.28
   1  -2 -11   69.44    2.11
   1  -2 -11   65.37    2.48
  -1  -2  11   69.13    2.25
   1  -2 -11   67.05    2.28
  -1  -2  11   67.38    2.43
   1  -2 -11   67.34    2.10
  -1  -2  11   67.58    2.32
   1  -2 -11   67.88    2.12
  -1  -2  11   65.88    2.02
  -1  -2  11   68.33    2.18
   1  -2 -11   67.77    2.32
   1  -2 -11   65.43    2.32
  -1  -2  11   69.44    2.26
  -1  -2  11   69.81    2.01
  -1   2  11   72.94    2.13
  -1   2  11   70.93    2.26
  -1   2  11   69.64    2.22
   1   2 -11   72.61    2.26
   1   2 -11   69.71    2.32
   1   2 -11   65.61    2.51
  -1   2  11   68.59    2.30
  -1   2  11   68.44    2.27
  -1   2  11   66.81    2.46
   1   2 -11   70.74    2.37
   1   2 -11   70.23    2.24
   0  -2 -11    5.46    0.51
   0  -2 -11    5.29    0.54
   0  -2  11    5.03    0.67
   0  -2 -11    5.66    0.61
   0  -2  11    5.24    0.42
   0  -2 -11    5.57    0.33
   0  -2  11    5.34    0.53
   0  -2 -11    5.31    0.59
   0  -2 -11    4.94    0.61
   0  -2  11    5.70    0.56
   0  -2  11    6.03    0.46
   0  -2  11    5.23    0.39
   0  -2  11    5.23    0.74
   0   2  11    5.09    0.54
   0   2 -11    5.49    0.62
   0   2 -11    5.41    0.57
   0   2 -11    5.68    0.53
   0   2  11    4.86    0.50
   0   2  11    5.64    0.57
   0   2  11    5.19    0.68
   0   2  11    5.61    0.72
   0   2 -11    5.14    0.40
   0   2 -11    5.73    0.56
   0   2 -11    5.45    0.65
  -1  -2 -11  106.29    3.26
   1  -2  11  103.73    3.34
   1  -2  11  100.87    3.01
   1  -2  11  103.88    3.29
  -1  -2 -11   99.84    3.31
  -1  -2 -11  110.73    3.45
   1  -2  11  100.71    3.44
  -1   2 -11  104.61    3.37
   1   2  11  106.05    3.51
   1   2  11  104.05    3.18
  -1   2 -11  114.96    3.56
  -1   2 -11  103.79    3.23
   1   2  11  105.01    3.34
   2  -2  11   10.61    0.98
  -2  -2 -11    8.94    0.75
   2  -2  11    8.88    0.84
  -2  -2 -11   10.41    1.02
   2  -2  11   10.25    0.80
   2   2  11   10.17    0.97
   2   2  11   10.05    0.65
  -2   2 -11   10.13    0.82
  -2   2 -11   10.20    0.93
  -2   2 -11   10.68    0.65
   2   2  11   10.40    0.90
  -3  -3  11    0.31    0.28
   3  -3 -11    0.49    0.47
   3  -3 -11    0.10    0.41
  -3  -3  11    0.39    0.39
   3  -3 -11    0.61    0.44
  -3  -3  11    0.86    0.45
  -3   3  11    0.11    0.31
   3   3 -11    0.27    0.35
  -3   3  11    0.03    0.42
   3   3 -11    0.49    0.32
  -2  -3  11   87.92    2.90
  -2  -3  11   89.18    2.87
   2  -3 -11   91.78    2.87
   2  -3 -11   92.40    3.03
  -2  -3  11   92.40    2.96
   2  -3 -11   89.55    2.72
   2  -3 -11   82.22    3.16
  -2   3  11   91.34    2.96
   2   3 -11   94.30    2.93
   2   3 -11   92.16    2.86
  -2   3  11   94.41    2.85
  -2   3  11   96.13    3.31
   2   3 -11   94.36    3.05
  -1  -3  11    1.65    0.36
  -1  -3  11    1.90    0.33
   1  -3 -11    1.83    0.50
  -1  -3  11    1.29    0.37
  -1  -3  11    1.25    0.29
   1  -3 -11    1.86    0.32
   1  -3 -11    1.57    0.40
   1  -3 -11    1.38    0.41
  -1  -3  11    1.06    0.33
   1  -3 -11    1.77    0.58
  -1  -3  11    1.46    0.21
  -1   3  11    1.92    0.42
   1   3 -11    1.09    0.32
   1   3 -11    1.62    0.37
   1   3 -11    1.67    0.64
  -1   3  11    1.03    0.29
   1   3 -11    2.15    0.37
  -1   3  11    2.52    0.46
   1   3 -11    1.42    0.49
  -1   3  11    1.00    0.32
  -1   3  11    1.21    0.43
   0  -3 -11   96.81    3.12
   0  -3  11   96.07    2.88
   0  -3 -11   95.03    3.08
   0  -3 -11   89.29    2.99
   0  -3  11   89.85    2.83
   0  -3  11   88.95    3.14
   0  -3  11   98.10    3.23
   0  -3 -11  100.95    3.11
   0  -3  11   95.81    3.01
   0   3 -11   94.16    3.02
   0   3  11   94.70    3.25
   0   3  11   94.67    2.97
   0   3 -11   93.13    3.07
   0   3 -11   94.01    3.02
   0   3 -11  101.72    3.03
   0   3  11   96.99    3.03
   0   3  11   92.11    3.00
  -1  -3 -11   -0.17    0.37
   1  -3  11    0.98    0.39
   1  -3  11    0.43    0.34
  -1  -3 -11    0.00    0.30
   1  -3  11   -0.01    0.37
  -1   3 -11    0.58    0.37
  -1   3 -11    0.19    0.31
   1   3  11    0.44    0.32
   1   3  11    0.14    0.37
   1   3  11    0.48    0.41
  -1   3 -11    0.29    0.39
  -2  -3 -11   71.50    2.47
  -2  -3 -11   69.63    2.45
   2  -3  11   73.13    2.49
  -2  -3 -11   65.26    2.66
   2  -3  11   72.91    2.45
   2  -3  11   73.46    2.68
   2   3  11   71.64    2.56
  -2   3 -11   73.43    2.50
   2   3  11   72.21    2.34
   2   3  11   71.74    2.67
  -2   3 -11   71.74    2.43
  -2   3 -11   70.33    2.60
   3  -4 -11    0.66    0.51
   3  -4 -11    0.93    0.49
  -3  -4  11    1.15    0.52
   3  -4 -11    1.20    0.47
   3   4 -11    1.41    0.38
   3   4 -11    1.04    0.42
   3   4 -11    1.14    0.44
  -3   4  11    0.31    0.37
  -3   4  11    0.94    0.48
   2  -4 -11  166.57    4.84
  -2  -4  11  168.44    5.05
   2  -4 -11  156.92    5.06
   2  -4 -11  168.53    5.12
   2  -4 -11  171.40    5.19
   2   4 -11  167.44    5.02
  -2   4  11  169.74    5.09
  -2   4  11  161.93    4.89
  -1  -4  11    1.07    0.41
   1  -4 -11    0.83    0.44
   1  -4 -11    0.26    0.35
  -1  -4  11    1.22    0.24
  -1  -4  11    0.29    0.34
   1  -4 -11    1.19    0.42
   1  -4 -11    0.92    0.24
  -1   4  11    0.91    0.34
  -1   4  11    0.44    0.32
  -1   4  11    0.37    0.38
   1   4 -11    0.89    0.32
  -1   4  11    0.90    0.38
   1   4 -11    0.74    0.37
   1   4 -11    0.25    0.31
   1   4 -11    0.46    0.31
   1   4 -11    1.11    0.41
   0  -4  11  183.43    5.74
   0  -4 -11  172.20    5.61
   0  -4  11  186.38    5.54
   0  -4 -11  180.32    5.45
   0  -4  11  180.87    5.50
   0  -4 -11  194.70    5.62
   0  -4  11  181.54    5.37
   0   4 -11  178.69    5.33
   0   4  11  187.58    5.52
   0   4 -11  186.35    5.53
   0   4  11  187.89    5.52
   0   4  11  185.55    5.89
   0   4 -11  198.74    5.56
   0   4 -11  189.21    5.61
   0   4 -11  188.48    5.68
  -1  -4 -11    0.41    0.32
   1  -4  11    0.15    0.35
   1  -4  11    0.63    0.36
   1  -4  11    0.90    0.41
  -1  -4 -11    0.08    0.44
  -1  -4 -11    0.06    0.39
   1   4  11    0.01    0.37
   1   4  11    0.49    0.45
  -1   4 -11    0.35    0.39
  -1   4 -11    0.59    0.43
   1   4  11   -0.17    0.33
   2  -4  11   95.65    3.10
  -2  -4 -11   88.24    3.29
   2  -4  11   93.34    3.33
  -2  -4 -11   93.92    3.13
  -2  -4 -11   89.24    3.08
   2  -4  11   97.86    3.07
   2   4  11   95.57    3.33
   2   4  11   93.49    3.01
  -2   4 -11   90.59    3.12
  -2   4 -11   91.35    3.14
  -2   4 -11   94.40    3.23
   2   4  11   93.17    3.20
   2  -5 -11   42.37    1.82
   2  -5 -11   40.25    1.56
  -2  -5  11   42.33    1.66
   2  -5 -11   41.24    1.74
   2  -5 -11   40.67    1.52
  -2  -5  11   39.28    1.66
   2   5 -11   41.40    1.66
   2   5 -11   41.10    1.68
   2   5 -11   39.66    1.78
   2   5 -11   43.27    1.77
  -2   5  11   40.86    1.73
  -2   5  11   41.54    1.75
   1  -5 -11   77.82    2.64
   1  -5 -11   79.21    2.50
  -1  -5  11   74.11    2.57
   1  -5 -11   75.34    2.72
   1  -5 -11   79.49    2.96
  -1  -5  11   78.10    2.61
  -1   5  11   75.95    2.48
   1   5 -11   74.04    2.73
   1   5 -11   70.49    2.63
   1   5 -11   75.36    2.58
  -1   5  11   77.62    2.79
  -1   5  11   78.60    2.64
   1   5 -11   77.66    2.51
  -1   5  11   74.01    2.85
   0  -5  11   33.48    1.66
   0  -5 -11   35.50    1.44
   0  -5 -11   36.18    1.53
   0  -5  11   35.23    1.46
   0   5 -11   35.11    1.45
   0   5  11   36.19    1.47
   0   5 -11   36.32    1.50
   0   5  11   33.72    1.48
   0   5 -11   33.06    1.55
   0   5  11   34.58    1.71
  -1  -5 -11   46.56    1.87
  -1  -5 -11   48.73    1.97
   1  -5  11   50.71    1.85
  -1  -5 -11   45.58    1.93
   1  -5  11   46.63    2.09
   1  -5  11   48.51    1.79
  -1   5 -11   50.94    1.91
   1   5  11   47.63    2.12
  -1   5 -11   46.46    1.90
  -1   5 -11   46.30    1.93
   1   5  11   49.56    1.96
   1   5  11   49.40    1.85
  -1  -6  11  102.78    3.58
  -1  -6  11  106.31    3.51
   1  -6 -11  106.86    3.40
   1  -6 -11  110.84    3.50
  -1   6  11  106.87    3.69
   1   6 -11  105.58    3.48
   0  -6  11   13.48    0.96
   0  -6 -11   13.67    1.01
   0  -6 -11   11.74    1.17
   0  -6 -11   12.42    1.04
   0  -6  11   12.54    1.00
   0   6 -11   13.46    0.98
   0   6  11   12.65    1.21
   0   6 -11   13.77    1.03
   0   6  11   13.80    1.06
   0   6  11   15.01    1.00
   3   0 -12   66.87    2.35
   3   0 -12   64.14    2.25
  -3   0  12   63.61    2.26
  -3   0  12   66.52    2.31
   3   0 -12   65.91    2.30
  -3   0  12   62.19    2.20
   2   0 -12  379.89   10.64
   2   0 -12  356.67   10.69
   2   0 -12  381.86   10.81
  -2   0  12  376.81   10.68
  -2   0  12  372.93   10.71
  -2   0  12  376.29   10.67
   1   0 -12   14.14    1.18
   1   0 -12   13.56    0.87
   1   0 -12   14.15    0.93
  -1   0  12   14.37    0.62
  -1   0  12   16.51    0.80
  -1   0  12   13.70    1.01
  -1   0  12   15.40    0.82
  -1   0  12   12.50    0.79
   1   0 -12   14.70    0.86
   1   0 -12   15.42    0.72
  -1   0  12   13.87    0.86
   0   0 -12  532.07   14.84
   0   0  12  512.50   14.85
   0   0  12  503.21   14.77
   0   0  12  527.95   14.97
   0   0  12  513.92   14.88
   0   0  12  549.40   15.59
   0   0  12  543.03   15.21
   0   0 -12  572.94   15.46
   0   0  12  511.37   14.95
   0   0 -12  537.66   15.04
   0   0 -12  525.04   15.02
   0   0 -12  542.34   15.09
   1   0  12    4.38    0.45
  -1   0 -12    4.55    0.43
  -1   0 -12    4.31    0.74
   1   0  12    4.53    0.61
   1   0  12    3.39    0.57
   1   0  12    3.66    0.63
  -1   0 -12    3.68    0.66
  -2   0 -12  249.24    7.62
   2   0  12  262.80    7.67
   2   0  12  263.75    7.71
   2   0  12  258.21    7.83
  -2   0 -12  266.55    7.85
   3  -1 -12   65.89    2.32
   3  -1 -12   66.53    2.40
  -3  -1  12   68.11    2.30
  -3  -1  12   69.11    2.39
   3  -1 -12   68.35    2.42
  -3  -1  12   65.95    2.34
   3   1 -12   67.64    2.33
   3   1 -12   67.85    2.33
  -3   1  12   65.39    2.36
  -3   1  12   69.78    2.32
   3   1 -12   67.03    2.41
   2  -1 -12  273.76    7.84
  -2  -1  12  286.53    7.79
   2  -1 -12  271.96    7.71
  -2  -1  12  265.81    7.76
   2  -1 -12  245.74    8.01
  -2  -1  12  263.57    7.75
  -2   1  12  259.01    7.99
   2   1 -12  272.61    7.74
  -2   1  12  264.87    7.77
   2   1 -12  273.05    7.77
  -2   1  12  272.62    7.85
   2   1 -12  262.96    7.87
  -1  -1  12  125.93    3.64
   1  -1 -12  121.72    4.13
   1  -1 -12  123.49    3.98
  -1  -1  12  129.46    3.88
  -1  -1  12  126.54    3.88
  -1  -1  12  126.42    3.94
   1  -1 -12  130.33    3.75
  -1  -1  12  127.05    3.83
   1  -1 -12  129.95    3.95
   1  -1 -12  121.80    3.73
  -1  -1  12  131.47    4.12
   1  -1 -12  126.96    3.96
   1   1 -12  129.46    3.95
   1   1 -12  130.41    3.81
   1   1 -12  130.34    4.00
  -1   1  12  127.26    3.85
  -1   1  12  121.14    3.88
  -1   1  12  122.70    4.10
   1   1 -12  131.94    3.91
  -1   1  12  125.61    3.85
  -1   1  12  127.12    3.93
   1   1 -12  119.58    4.15
   0  -1  12  160.53    4.92
   0  -1 -12  151.38    4.74
   0  -1  12  154.29    4.53
   0  -1  12  155.51    4.68
   0  -1 -12  165.29    4.78
   0  -1 -12  159.72    4.50
   0  -1  12  158.98    4.58
   0  -1  12  144.50    4.59
   0  -1 -12  158.10    4.79
   0  -1  12  151.21    4.50
   0   1  12  157.49    4.60
   0   1 -12  144.28    4.53
   0   1  12  156.04    4.68
   0   1  12  153.02    4.91
   0   1 -12  152.47    4.73
   0   1 -12  155.34    4.72
   0   1 -12  157.99    4.80
   0   1 -12  161.60    4.60
   0   1  12  158.75    4.69
   1  -1  12  134.68    4.10
   1  -1  12  128.97    4.04
   1  -1  12  128.68    3.83
  -1  -1 -12  136.91    4.23
   1  -1  12  135.18    4.32
  -1  -1 -12  125.00    4.10
   1   1  12  130.53    4.11
   1   1  12  133.24    3.92
   1   1  12  134.68    4.32
  -1   1 -12  132.36    4.13
  -1   1 -12  134.51    3.92
   1   1  12  134.41    4.11
  -1   1 -12  133.52    4.19
  -2  -1 -12  110.06    3.71
   2  -1  12  104.57    3.46
  -2  -1 -12  106.27    3.46
   2  -1  12  105.89    3.50
   2  -1  12  108.48    3.67
  -2   1 -12  103.25    3.59
   2   1  12  108.79    3.52
   2   1  12  106.46    3.55
   2   1  12  110.19    3.69
  -2   1 -12  109.88    3.48
   3  -2 -12  295.25    8.64
  -3  -2  12  305.59    8.61
   3  -2 -12  291.17    8.66
  -3  -2  12  293.28    8.50
   3  -2 -12  291.89    8.53
  -3  -2  12  293.16    8.56
   3   2 -12  301.05    8.56
   3   2 -12  296.83    8.49
   3   2 -12  302.23    8.66
  -3   2  12  292.74    8.60
  -3   2  12  270.82    8.51
  -2  -2  12   25.51    1.15
   2  -2 -12   26.60    1.27
   2  -2 -12   25.82    1.24
  -2  -2  12   25.94    1.14
  -2  -2  12   29.22    1.23
   2   2 -12   25.96    1.14
  -2   2  12   25.45    1.19
  -2   2  12   23.55    1.15
   2   2 -12   26.65    1.16
   2   2 -12   26.03    1.26
  -2   2  12   25.14    1.11
  -1  -2  12  353.24   10.38
  -1  -2  12  375.06   10.72
   1  -2 -12  372.02   10.34
   1  -2 -12  350.34   10.30
   1  -2 -12  383.16   10.64
  -1  -2  12  366.50   10.50
   1  -2 -12  371.64   10.57
  -1  -2  12  363.18   10.48
  -1  -2  12  350.69   10.24
   1  -2 -12  363.12   10.57
   1   2 -12  367.46   10.44
   1   2 -12  360.75   10.55
  -1   2  12  368.65   10.46
  -1   2  12  411.83   11.07
  -1   2  12  361.98   10.47
   1   2 -12  376.09   10.63
   1   2 -12  358.53   10.47
  -1   2  12  370.88   10.51
  -1   2  12  354.62   10.73
   0  -2  12   35.49    1.63
   0  -2 -12   35.93    1.34
   0  -2 -12   36.22    1.52
   0  -2  12   36.63    1.44
   0  -2 -12   32.76    1.47
   0  -2  12   37.26    1.26
   0  -2  12   36.67    1.30
   0  -2  12   36.07    1.43
   0  -2 -12   35.87    1.52
   0   2  12   37.27    1.46
   0   2 -12   35.10    1.50
   0   2 -12   34.93    1.45
   0   2 -12   37.31    1.56
   0   2  12   37.58    1.38
   0   2 -12   38.36    1.40
   0   2  12   36.44    1.67
   1  -2  12  227.27    6.53
   1  -2  12  222.67    6.75
  -1  -2 -12  219.82    6.65
   1  -2  12  226.71    6.48
  -1  -2 -12  214.21    6.55
   1   2  12  214.71    6.74
   1   2  12  219.19    6.39
  -1   2 -12  216.21    6.56
  -1   2 -12  222.70    6.61
   1   2  12  224.59    6.56
  -1   2 -12  220.60    6.42
  -2  -2 -12   32.13    1.46
   2  -2  12   35.10    1.54
   2  -2  12   34.08    1.69
   2  -2  12   34.17    1.49
  -2  -2 -12   34.98    1.77
  -2   2 -12   33.92    1.50
  -2   2 -12   33.30    1.64
   2   2  12   36.83    1.76
   2   2  12   34.98    1.59
   2   2  12   35.47    1.32
   3  -3 -12  240.48    7.10
  -3  -3  12  244.88    7.05
   3  -3 -12  233.50    7.11
  -3  -3  12  232.51    6.96
   3  -3 -12  231.00    6.94
  -3  -3  12  225.57    6.91
   3   3 -12  238.94    6.86
  -3   3  12  236.81    6.98
   3   3 -12  235.23    7.07
   3   3 -12  237.52    6.97
  -2  -3  12   47.40    1.75
   2  -3 -12   49.41    1.91
   2  -3 -12   48.79    1.94
  -2  -3  12   47.76    1.84
  -2  -3  12   50.59    1.82
   2   3 -12   48.38    1.74
   2   3 -12   49.54    1.94
  -2   3  12   48.94    1.86
  -2   3  12   49.92    1.74
  -2   3  12   47.14    1.83
   2   3 -12   48.59    1.80
  -1  -3  12  219.11    6.49
   1  -3 -12  223.19    6.58
   1  -3 -12  214.66    6.34
   1  -3 -12  217.61    6.60
  -1  -3  12  215.47    6.37
  -1  -3  12  222.18    6.84
   1  -3 -12  218.92    6.64
  -1  -3  12  216.85    6.51
   1  -3 -12  220.69    6.30
   1   3 -12  213.21    6.60
  -1   3  12  242.00    6.55
  -1   3  12  225.74    6.46
  -1   3  12  219.28    6.78
   1   3 -12  226.05    6.66
   1   3 -12  222.48    6.48
  -1   3  12  217.89    6.53
   1   3 -12  223.89    6.48
   0  -3 -12   46.61    1.79
   0  -3 -12   43.54    1.60
   0  -3  12   43.22    1.52
   0  -3  12   45.36    1.91
   0  -3  12   45.27    1.69
   0   3  12   44.70    1.69
   0   3 -12   42.76    1.76
   0   3 -12   44.39    1.72
   0   3  12   43.91    1.65
   0   3 -12   47.28    1.68
   1  -3  12  206.92    6.30
   1  -3  12  205.11    5.99
  -1  -3 -12  203.64    6.21
   1  -3  12  207.38    6.06
  -1  -3 -12  202.73    6.01
  -1  -3 -12  201.99    6.11
   1   3  12  207.21    6.11
  -1   3 -12  203.65    6.14
  -1   3 -12  205.69    6.02
   1   3  12  197.64    5.95
   1   3  12  202.10    6.33
  -1   3 -12  193.86    6.09
   2  -3  12   16.05    1.06
  -2  -3 -12   16.84    1.12
   2  -3  12   16.49    1.27
  -2  -3 -12   16.17    1.34
  -2  -3 -12   15.89    1.02
   2  -3  12   15.36    1.07
  -2   3 -12   15.94    1.10
   2   3  12   14.02    1.17
  -2   3 -12   15.84    1.13
   2   3  12   16.47    0.92
   2   3  12   16.27    1.31
  -2   3 -12   15.40    1.19
   2  -4 -12  112.91    3.68
   2  -4 -12  115.66    3.77
   2  -4 -12  111.57    3.47
  -2  -4  12  114.32    3.63
  -2   4  12  110.78    3.63
   2   4 -12  116.04    3.60
  -2   4  12  108.17    3.63
   2   4 -12  112.18    3.48
   1  -4 -12   77.81    2.75
   1  -4 -12   78.42    2.51
  -1  -4  12   77.04    2.63
   1  -4 -12   78.33    2.69
   1  -4 -12   79.29    2.81
  -1   4  12   78.82    2.66
   1   4 -12   78.25    2.59
  -1   4  12   74.53    2.91
  -1   4  12   79.34    2.70
   1   4 -12   79.23    2.64
  -1   4  12   81.32    2.58
   0  -4  12  114.82    3.52
   0  -4  12  105.75    3.73
   0  -4 -12  109.48    3.45
   0  -4  12  112.57    3.35
   0  -4 -12  111.79    3.60
   0  -4 -12  104.97    3.59
   0   4 -12  109.64    3.53
   0   4  12  107.95    3.49
   0   4  12  109.97    3.81
   0   4 -12  117.81    3.54
   0   4  12  112.72    3.52
   0   4 -12  107.20    3.59
   1  -4  12   52.55    2.24
   1  -4  12   50.86    1.96
  -1  -4 -12   53.30    2.00
  -1  -4 -12   50.88    2.14
  -1  -4 -12   52.90    2.06
   1  -4  12   56.41    1.94
   1   4  12   53.03    1.95
  -1   4 -12   52.38    2.07
   1   4  12   55.27    2.09
  -1   4 -12   54.25    2.01
  -1   4 -12   54.98    2.10
   1   4  12   53.76    2.29
  -1  -5  12    9.76    0.93
   1  -5 -12    9.55    0.92
   1  -5 -12   10.27    0.85
  -1  -5  12   10.20    0.94
  -1   5  12    9.76    0.95
   1   5 -12    9.82    1.01
   1   5 -12    9.93    0.89
   1   5 -12   10.19    0.86
   0  -5 -12  155.04    5.02
   0  -5 -12  164.59    4.99
   0  -5  12  160.68    4.90
   0  -5 -12  155.25    4.84
   0   5  12  159.71    4.92
   0   5 -12  155.98    4.89
   0   5  12  153.79    4.87
   0   5  12  160.74    5.25
   0   5 -12  171.18    4.94
   3   0 -13    0.06    0.46
  -3   0  13    0.06    0.29
   3   0 -13    0.09    0.41
  -3   0  13    0.31    0.49
  -3   0  13   -0.22    0.43
  -2   0  13    0.36    0.28
  -2   0  13    0.08    0.40
  -2   0  13    0.74    0.43
   2   0 -13    1.27    0.44
   2   0 -13    0.25    0.38
  -1   0  13    0.32    0.34
   1   0 -13    0.14    0.27
  -1   0  13   -0.12    0.28
  -1   0  13    0.15    0.34
   1   0 -13   -0.04    0.37
   1   0 -13   -0.04    0.33
  -1   0  13   -0.68    0.40
   1   0 -13   -0.16    0.38
   0   0 -13   -0.01    0.37
   0   0 -13    1.01    0.42
   0   0  13    0.51    0.32
   0   0 -13    0.05    0.26
   0   0  13    0.56    0.41
   0   0  13   -0.28    0.45
   0   0  13    0.33    0.31
  -1   0 -13   -0.09    0.37
  -1   0 -13   -0.18    0.46
   1   0  13    0.18    0.42
   1   0  13    0.26    0.40
   1   0  13   -0.09    0.51
   3  -1 -13   59.37    2.25
  -3  -1  13   59.91    2.14
   3  -1 -13   57.50    2.28
   3  -1 -13   58.61    2.14
  -3  -1  13   60.30    2.22
  -3  -1  13   63.48    2.26
  -3   1  13   59.93    2.23
   3   1 -13   64.69    2.21
   3   1 -13   57.42    2.26
   3   1 -13   60.70    2.17
  -3   1  13   59.21    2.15
  -3   1  13   58.51    2.16
  -2  -1  13   22.71    1.12
   2  -1 -13   20.93    1.00
  -2  -1  13   20.12    1.07
   2  -1 -13   21.55    1.14
   2  -1 -13   20.57    1.19
  -2  -1  13   20.09    1.06
   2   1 -13   21.46    1.05
   2   1 -13   20.72    1.17
  -2   1  13   21.81    1.11
  -2   1  13   21.99    1.10
  -2   1  13   20.89    1.05
   2   1 -13   20.71    1.08
  -1  -1  13   62.43    2.23
  -1  -1  13   63.28    2.45
   1  -1 -13   64.30    2.07
   1  -1 -13   64.96    2.29
  -1  -1  13   65.43    2.23
  -1  -1  13   63.98    2.14
   1  -1 -13   62.23    2.33
   1  -1 -13   63.38    2.34
   1   1 -13   60.50    2.29
  -1   1  13   68.44    2.24
  -1   1  13   67.83    2.11
  -1   1  13   65.15    2.20
   1   1 -13   64.10    2.13
  -1   1  13   65.48    2.25
   1   1 -13   63.87    2.25
  -1   1  13   64.88    2.48
   1   1 -13   65.83    2.36
   0  -1 -13   32.76    1.76
   0  -1 -13   34.12    1.48
   0  -1  13   31.81    1.23
   0  -1  13   33.07    1.39
   0  -1  13   31.88    1.24
   0   1  13   32.87    1.70
   0   1 -13   32.48    1.47
   0   1 -13   33.71    1.28
   0   1 -13   33.40    1.45
   0   1  13   32.43    1.32
   0   1  13   32.81    1.39
   0   1  13   32.53    1.29
   1  -1  13   76.10    2.82
  -1  -1 -13   77.40    2.65
   1  -1  13   74.78    2.53
  -1  -1 -13   75.97    2.72
   1  -1  13   75.20    2.59
   1   1  13   75.95    2.83
   1   1  13   76.63    2.61
   1   1  13   77.17    2.61
  -1   1 -13   75.02    2.64
   1   1  13   67.77    2.53
  -1   1 -13   75.73    2.69
  -3  -2  13   25.14    1.36
   3  -2 -13   25.38    1.46
  -3  -2  13   26.40    1.30
   3  -2 -13   25.06    1.42
  -3  -2  13   24.37    1.21
   3  -2 -13   25.41    1.23
  -3   2  13   23.37    1.34
   3   2 -13   23.52    1.20
   3   2 -13   24.95    1.26
   3   2 -13   24.69    1.38
  -3   2  13   24.98    1.26
  -2  -2  13    0.15    0.34
  -2  -2  13    0.49    0.46
   2  -2 -13    0.03    0.32
   2  -2 -13   -0.24    0.38
  -2  -2  13    0.32    0.40
   2  -2 -13    0.17    0.38
   2   2 -13    0.32    0.35
   2   2 -13    0.10    0.35
  -2   2  13    0.54    0.37
  -2   2  13    0.15    0.42
  -2   2  13    0.06    0.37
  -1  -2  13   43.16    1.56
  -1  -2  13   44.24    1.69
   1  -2 -13   43.09    1.46
   1  -2 -13   43.75    1.74
  -1  -2  13   42.63    1.65
   1  -2 -13   41.91    1.79
   1  -2 -13   41.56    1.48
   1  -2 -13   43.63    1.81
  -1   2  13   41.08    1.87
   1   2 -13   44.19    1.62
  -1   2  13   42.85    1.65
  -1   2  13   43.59    1.66
  -1   2  13   44.03    1.71
   1   2 -13   45.05    1.69
   1   2 -13   43.35    1.81
   0  -2 -13    0.52    0.37
   0  -2  13    0.01    0.27
   0  -2  13    0.47    0.40
   0  -2  13    0.06    0.28
   0  -2  13   -0.07    0.44
   0   2  13   -0.05    0.39
   0   2  13    0.28    0.49
   0   2 -13    0.00    0.37
   0   2 -13    0.60    0.36
   0   2 -13    0.25    0.42
   0   2  13    0.28    0.43
   1  -2  13   15.10    0.96
  -1  -2 -13   15.97    1.19
   1  -2  13   14.76    0.99
   1  -2  13   14.97    1.24
  -1  -2 -13   14.67    1.04
  -1   2 -13   15.63    1.11
   1   2  13   15.00    1.03
   1   2  13   16.06    0.89
  -1   2 -13   13.47    1.06
   1   2  13   16.21    1.29
  -2  -3  13   35.57    1.53
   2  -3 -13   38.10    1.69
  -2  -3  13   37.60    1.57
   2  -3 -13   35.26    1.61
  -2  -3  13   36.68    1.48
   2  -3 -13   36.25    1.39
  -2   3  13   35.74    1.46
   2   3 -13   36.06    1.68
  -2   3  13   34.56    1.56
   2   3 -13   35.89    1.51
   2   3 -13   36.65    1.47
  -2   3  13   35.28    1.56
  -1  -3  13    1.66    0.41
   1  -3 -13    1.99    0.42
   1  -3 -13    1.29    0.47
  -1  -3  13    1.93    0.46
  -1   3  13    1.84    0.49
   1   3 -13    1.52    0.45
   1   3 -13    1.79    0.48
  -1   3  13    2.01    0.49
   0  -3 -13   55.22    2.16
   0  -3 -13   57.75    2.18
   0  -3  13   50.27    2.62
   0  -3 -13   55.05    1.97
   0  -3  13   52.95    2.03
   0   3  13   53.56    2.32
   0   3  13   56.03    2.08
   0   3 -13   60.95    2.06
   0   3 -13   60.34    2.51
   0   3 -13   57.05    2.10
   0   3  13   57.95    2.03
  -1  -3 -13    0.68    0.47
   1  -3  13    0.57    0.46
   1  -3  13    0.59    0.42
  -1  -3 -13    0.52    0.35
  -1  -3 -13    0.87    0.60
   1  -3  13    0.81    0.46
  -1   3 -13    0.87    0.50
  -1   3 -13    0.44    0.40
   1   3  13    1.17    0.48
   1   3  13    1.57    0.55
  -1   3 -13    1.41    0.48
   1   3  13    0.52    0.56
   1  -4 -13    0.72    0.44
  -1  -4  13    0.07    0.45
   1  -4 -13   -0.19    0.48
  -1   4  13   -0.06    0.47
  -1   4  13    0.92    0.45
   1   4 -13   -0.25    0.40
   1   4 -13    0.52    0.44
   1   4 -13    0.03    0.43
   0  -4  13   70.04    2.53
   0  -4 -13   64.04    2.59
   0  -4 -13   69.55    2.44
   0  -4 -13   73.39    2.62
   0   4 -13   72.22    2.55
   0   4  13   73.53    2.51
   0   4  13   74.20    2.53
   0   4 -13   76.45    2.52
   0   4  13   71.52    2.87
  -2   0  14  352.74   10.23
   2   0 -14  357.71   10.39
   2   0 -14  348.61   10.26
   2   0 -14  363.68   10.15
  -2   0  14  350.06   10.22
  -2   0  14  354.30   10.23
  -1   0  14    5.28    0.71
  -1   0  14    6.78    0.75
   1   0 -14    6.27    0.60
  -1   0  14    6.36    0.83
   1   0 -14    5.94    0.80
   1   0 -14    6.79    0.95
   0   0  14  264.74    7.97
   0   0 -14  253.79    7.73
   0   0 -14  253.88    7.74
   0   0  14  263.89    7.67
   0   0  14  254.95    7.51
   0   0  14  275.43    7.93
   1   0  14   14.25    1.29
   1   0  14   11.60    0.97
   1   0  14   11.03    1.22
  -1   0 -14   13.28    1.12
  -1   0 -14   14.73    1.69
  -2  -1  14   97.00    3.21
  -2  -1  14  101.81    3.26
   2  -1 -14   96.54    3.29
   2  -1 -14  101.39    3.42
   2  -1 -14  102.69    3.15
  -2   1  14  100.24    3.26
   2   1 -14   98.79    3.26
  -2   1  14   97.68    3.23
   2   1 -14  101.39    3.41
   2   1 -14   98.82    3.18
  -2   1  14   94.99    3.24
  -1  -1  14  106.00    3.28
  -1  -1  14   94.48    3.38
  -1  -1  14  107.11    3.38
   1  -1 -14  103.31    3.44
   1   1 -14  105.01    3.27
   1   1 -14  105.51    3.60
  -1   1  14  109.11    3.37
  -1   1  14  104.19    3.33
   1   1 -14  104.18    3.40
   0  -1  14  106.00    3.69
   0  -1 -14  102.32    3.46
   0  -1 -14  101.08    3.47
   0  -1  14  100.37    3.37
   0   1  14  109.67    3.41
   0   1  14  106.65    3.29
   0   1 -14  103.95    3.49
   0   1  14  105.78    3.31
   0   1  14  103.45    3.68
   0   1 -14  107.19    3.47
   2  -2 -14   37.21    1.76
  -2  -2  14   37.28    1.55
  -2  -2  14   37.32    1.64
   2  -2 -14   39.25    1.63
  -2  -2  14   35.82    1.60
  -2   2  14   38.49    1.67
   2   2 -14   38.11    1.78
   2   2 -14   35.79    1.57
  -2   2  14   35.81    1.61
   2   2 -14   38.44    1.57
  -2   2  14   38.37    1.57
  -1  -2  14  139.47    4.46
  -1  -2  14  140.15    4.34
   1  -2 -14  144.96    4.56
   1   2 -14  149.48    4.42
   1   2 -14  142.76    4.48
  -1   2  14  146.80    4.47
  -1   2  14  147.56    4.46
   0  -2 -14   36.44    1.70
   0  -2  14   39.06    2.24
   0  -2  14   34.81    1.55
   0  -2 -14   36.42    1.71
   0   2 -14   36.30    1.63
   0   2  14   39.04    1.62
   0   2  14   38.67    1.54
   0   2  14   37.70    1.92
   0   2 -14   39.60    1.51
   0   2 -14   34.68    1.80
   0   0   0    0.00    0.00
;
_shelx_hkl_checksum              84854
loop_
_space_group_symop_operation_xyz
'x, y, z'
'-x, y, -z+1/2'
'-x, -y, -z'
'x, -y, z-1/2'
loop_
_atom_site_label
_atom_site_type_symbol
_atom_site_fract_x
_atom_site_fract_y
_atom_site_fract_z
_atom_site_U_iso_or_equiv
_atom_site_adp_type
_atom_site_occupancy
_atom_site_site_symmetry_order
_atom_site_calc_flag
_atom_site_refinement_flags_posn
_atom_site_refinement_flags_adp
_atom_site_refinement_flags_occupancy
I1 I 1.0000 -0.02145(2) 0.2500 0.01173(9) Uani 1 2 d S T P
Cu1 Cu 0.5000 0.19855(3) 0.2500 0.01172(9) Uani 1 2 d S T P
N1 N 0.5060(3) 0.37538(17) 0.40000(10) 0.0120(2) Uani 1 1 d . . .
C1 C 0.6400(4) 0.5526(2) 0.40489(13) 0.0147(3) Uani 1 1 d . . .
H1 H 0.7433 0.5945 0.3387 0.018 Uiso 1 1 calc R U .
C2 C 0.3674(3) 0.3239(2) 0.49685(12) 0.0146(3) Uani 1 1 d . . .
H2 H 0.2718 0.1993 0.4981 0.017 Uiso 1 1 calc R U .
loop_
_atom_site_aniso_label
_atom_site_aniso_U_11
_atom_site_aniso_U_22
_atom_site_aniso_U_33
_atom_site_aniso_U_23
_atom_site_aniso_U_13
_atom_site_aniso_U_12
I1 0.01059(11) 0.00827(10) 0.01722(11) 0.000 0.00510(6) 0.000
Cu1 0.01558(15) 0.00989(14) 0.01086(14) 0.000 0.00599(9) 0.000
N1 0.0143(6) 0.0106(6) 0.0114(6) -0.0005(4) 0.0030(4) -0.0004(4)
C1 0.0184(8) 0.0142(7) 0.0131(7) 0.0006(6) 0.0072(6) -0.0036(6)
C2 0.0201(8) 0.0107(7) 0.0138(7) 0.0001(5) 0.0055(5) -0.0039(5)
loop_
_atom_type_symbol
_atom_type_description
_atom_type_scat_dispersion_real
_atom_type_scat_dispersion_imag
_atom_type_scat_source
C C 0.0033 0.0016 'International Tables Vol C Tables 4.2.6.8 and 6.1.1.4'
H H 0.0000 0.0000 'International Tables Vol C Tables 4.2.6.8 and 6.1.1.4'
N N 0.0061 0.0033 'International Tables Vol C Tables 4.2.6.8 and 6.1.1.4'
Cu Cu 0.3201 1.2651 'International Tables Vol C Tables 4.2.6.8 and 6.1.1.4'
I I -0.4742 1.8119 'International Tables Vol C Tables 4.2.6.8 and 6.1.1.4'
loop_
_geom_angle_atom_site_label_1
_geom_angle_atom_site_label_2
_geom_angle_atom_site_label_3
_geom_angle
_geom_angle_site_symmetry_1
_geom_angle_site_symmetry_3
Cu1 I1 Cu1 108.96(4) 1_655 .
N1 Cu1 N1 107.33(8) . 2_655
N1 Cu1 I1 105.17(4) . 1_455
N1 Cu1 I1 115.26(4) 2_655 1_455
N1 Cu1 I1 115.27(4) . .
N1 Cu1 I1 105.17(4) 2_655 .
I1 Cu1 I1 108.96(4) 1_455 .
C2 N1 C1 116.04(12) . .
C2 N1 Cu1 122.09(10) . .
C1 N1 Cu1 121.83(10) . .
N1 C1 C2 122.22(14) . 3_666
N1 C1 H1 118.9 . .
C2 C1 H1 118.9 3_666 .
N1 C2 C1 121.73(14) . 3_666
N1 C2 H2 119.1 . .
C1 C2 H2 119.1 3_666 .
loop_
_geom_bond_atom_site_label_1
_geom_bond_atom_site_label_2
_geom_bond_distance
_geom_bond_site_symmetry_2
I1 Cu1 2.6091(8) 1_655
I1 Cu1 2.6091(8) .
Cu1 N1 2.0562(13) .
Cu1 N1 2.0562(13) 2_655
Cu1 I1 2.6091(8) 1_455
N1 C2 1.3411(19) .
N1 C1 1.345(2) .
C1 C2 1.385(2) 3_666
C1 H1 0.9500 .
C2 C1 1.385(2) 3_666
C2 H2 0.9500 .
