#------------------------------------------------------------------------------
#$Date: 2017-03-04 15:11:25 +0200 (Sat, 04 Mar 2017) $
#$Revision: 193426 $
#$URL: file:///home/coder/svn-repositories/cod/cif/4/34/51/4345159.cif $
#------------------------------------------------------------------------------
#
# This file is available in the Crystallography Open Database (COD),
# http://www.crystallography.net/
#
# All data on this site have been placed in the public domain by the
# contributors.
#
data_4345159
loop_
_publ_author_name
'Marinho, Maria Vanda'
'Reis, Daniella O.'
'Oliveira, Willian X. C.'
'Marques, Lippy F.'
'Stumpf, Humberto O.'
'D\'eniz, Mariadel'
'Pas\'an, Jorge'
'Ruiz-P\'erez, Catalina'
'Cano, Joan'
'Lloret, Francesc'
'Julve, Miguel'
_publ_section_title
;
 Photoluminescent and Slow Magnetic Relaxation Studies on
 Lanthanide(III)-2,5-pyrazinedicarboxylate Frameworks.
;
_journal_issue                   4
_journal_name_full               'Inorganic chemistry'
_journal_page_first              2108
_journal_page_last               2123
_journal_paper_doi               10.1021/acs.inorgchem.6b02774
_journal_volume                  56
_journal_year                    2017
_chemical_formula_sum            'C9 H13 Ce N3 O11'
_chemical_formula_weight         479.26
_chemical_name_systematic
;
 ?
;
_space_group_crystal_system      triclinic
_space_group_IT_number           2
_space_group_name_Hall           '-P 1'
_space_group_name_H-M_alt        'P -1'
_symmetry_space_group_name_Hall  '-P 1'
_symmetry_space_group_name_H-M   'P -1'
_atom_sites_solution_hydrogens   geom
_audit_creation_method           SHELXL-2013
_cell_angle_alpha                72.607(5)
_cell_angle_beta                 88.789(5)
_cell_angle_gamma                88.980(5)
_cell_formula_units_Z            2
_cell_length_a                   6.099(5)
_cell_length_b                   10.501(5)
_cell_length_c                   13.688(5)
_cell_measurement_reflns_used    5004
_cell_measurement_temperature    293(2)
_cell_measurement_theta_max      73.461
_cell_measurement_theta_min      3.284
_cell_volume                     836.3(9)
_computing_cell_refinement
;
CrysAlisPro, Agilent Technologies,
Version 1.171.37.31f (release 05-03-2014 CrysAlis171 .NET)
(compiled Mar  5 2014,18:34:03)
;
_computing_data_collection
;
CrysAlisPro, Agilent Technologies,
Version 1.171.37.31f (release 05-03-2014 CrysAlis171 .NET)
(compiled Mar  5 2014,18:34:03)
;
_computing_data_reduction
;
CrysAlisPro, Agilent Technologies,
Version 1.171.37.31f (release 05-03-2014 CrysAlis171 .NET)
(compiled Mar  5 2014,18:34:03)
;
_computing_structure_refinement  'SHELXL-2013 (Sheldrick, 2013)'
_computing_structure_solution    'SHELXS-97 (Sheldrick, 1997)'
_diffrn_ambient_temperature      293(2)
_diffrn_detector                 'CCD plate'
_diffrn_detector_area_resol_mean 10.5953
_diffrn_detector_type            Atlas
_diffrn_measured_fraction_theta_full 0.986
_diffrn_measured_fraction_theta_max 0.951
_diffrn_measurement_device_type  'SuperNova, Dual, Cu at zero, Atlas'
_diffrn_measurement_method       'w scans'
_diffrn_radiation_monochromator  mirror
_diffrn_radiation_type           CuK\a
_diffrn_radiation_wavelength     1.5418
_diffrn_reflns_av_R_equivalents  0.0187
_diffrn_reflns_av_unetI/netI     0.0273
_diffrn_reflns_Laue_measured_fraction_full 0.986
_diffrn_reflns_Laue_measured_fraction_max 0.951
_diffrn_reflns_limit_h_max       6
_diffrn_reflns_limit_h_min       -7
_diffrn_reflns_limit_k_max       12
_diffrn_reflns_limit_k_min       -13
_diffrn_reflns_limit_l_max       16
_diffrn_reflns_limit_l_min       -16
_diffrn_reflns_number            5004
_diffrn_reflns_point_group_measured_fraction_full 0.986
_diffrn_reflns_point_group_measured_fraction_max 0.951
_diffrn_reflns_theta_full        67.680
_diffrn_reflns_theta_max         73.461
_diffrn_reflns_theta_min         3.384
_diffrn_source                   'sealed X-ray tube'
_exptl_absorpt_coefficient_mu    21.612
_exptl_absorpt_correction_T_max  0.734
_exptl_absorpt_correction_T_min  0.115
_exptl_absorpt_correction_type   gaussian
_exptl_absorpt_process_details
;
CrysAlisPro, Agilent Technologies,
Version 1.171.36.21 (release 14-08-2012 CrysAlis171 .NET)
(compiled Sep 14 2012,17:21:16)
Numerical absorption correction based on gaussian integration over
            a multifaceted crystal model
;
_exptl_crystal_colour            yellow
_exptl_crystal_density_diffrn    1.903
_exptl_crystal_description       needle
_exptl_crystal_F_000             448
_exptl_crystal_size_max          0.370
_exptl_crystal_size_mid          0.050
_exptl_crystal_size_min          0.030
_refine_diff_density_max         1.405
_refine_diff_density_min         -1.275
_refine_diff_density_rms         0.148
_refine_ls_extinction_method     none
_refine_ls_goodness_of_fit_ref   1.073
_refine_ls_hydrogen_treatment    constr
_refine_ls_matrix_type           full
_refine_ls_number_parameters     226
_refine_ls_number_reflns         3200
_refine_ls_number_restraints     0
_refine_ls_restrained_S_all      1.073
_refine_ls_R_factor_all          0.0305
_refine_ls_R_factor_gt           0.0298
_refine_ls_shift/su_max          0.001
_refine_ls_shift/su_mean         0.000
_refine_ls_structure_factor_coef Fsqd
_refine_ls_weighting_details
'w=1/[\s^2^(Fo^2^)+(0.0590P)^2^+0.7524P] where P=(Fo^2^+2Fc^2^)/3'
_refine_ls_weighting_scheme      calc
_refine_ls_wR_factor_gt          0.0819
_refine_ls_wR_factor_ref         0.0829
_reflns_Friedel_coverage         0.000
_reflns_number_gt                3118
_reflns_number_total             3200
_reflns_threshold_expression     'I > 2\s(I)'
_cod_data_source_file            ic6b02774_si_002.cif
_cod_data_source_block           compound_1
_cod_depositor_comments
'Adding full bibliography for 4345159--4345161.cif.'
_cod_original_cell_volume        836.3(8)
_cod_database_code               4345159
_shelx_space_group_comment
;
The symmetry employed for this shelxl refinement is uniquely defined
by the following loop, which should always be used as a source of
symmetry information in preference to the above space-group names.
They are only intended as comments.
;
_shelx_estimated_absorpt_t_min   0.046
_shelx_estimated_absorpt_t_max   0.563
_shelxl_version_number           2013-4
_shelx_res_file
;
TITL ull2397_olex in P -1
CELL  1.54180   6.0990  10.5010  13.6880   72.607   88.789   88.980
ZERR     2.00   0.0050   0.0050   0.0050    0.005    0.005    0.005
LATT   1
SFAC  C    H    N    O    CE
UNIT  18   6    6    22   2
MERG   2
FMAP   2
PLAN   25
SIZE     0.030   0.050   0.370
ACTA
L.S.  40
TEMP    20.00
WGHT    0.059000    0.752400
FVAR       7.57985
CE1   5    0.748599    0.338978    0.290691    11.00000    0.01713    0.02648 =
         0.01351   -0.00376    0.00138    0.00282
C1    1    0.600660    0.131331    0.526925    11.00000    0.02288    0.02831 =
         0.02394   -0.00415    0.00223   -0.00057
C3    1    1.108885    0.051747    0.411570    11.00000    0.02543    0.03536 =
         0.02287    0.00108    0.00677    0.00143
AFIX  43
H6    2    1.189424    0.085262    0.351109    11.00000   -1.20000
AFIX   0
O1    4    0.545771    0.228358    0.452851    11.00000    0.02574    0.03717 =
         0.02616    0.00288    0.00419    0.00617
O2    4    0.497407    0.089386    0.609683    11.00000    0.04347    0.04216 =
         0.03142    0.00464    0.01676    0.01090
O3    4    0.937580    0.302366    0.141626    11.00000    0.02948    0.05758 =
         0.02085   -0.01269   -0.00076    0.01013
O4    4    1.001454    0.321123   -0.022225    11.00000    0.05193    0.07285 =
         0.02324   -0.01018    0.00803    0.02411
N2    3    0.565573    0.443694    0.100479    11.00000    0.02790    0.03649 =
         0.01702   -0.00503    0.00332   -0.00071
N1    3    0.921363    0.111918    0.424878    11.00000    0.02191    0.03228 =
         0.02293   -0.00076    0.00078    0.00318
C2    1    0.813280    0.060334    0.513619    11.00000    0.02204    0.02938 =
         0.02230   -0.00439   -0.00045    0.00147
C5    1    0.682570    0.426191    0.022331    11.00000    0.02601    0.03169 =
         0.02065   -0.00620    0.00110   -0.00153
C4    1    0.890778    0.343035    0.048094    11.00000    0.02718    0.03724 =
         0.02095   -0.00677    0.00409    0.00173
C6    1    0.382607    0.517687    0.078294    11.00000    0.02952    0.04070 =
         0.01713   -0.00593    0.00204    0.00214
AFIX  43
H3    2    0.297130    0.531943    0.131210    11.00000   -1.20000
AFIX   0
O2W   4    0.847073    0.582936    0.218432    11.00000    0.04230    0.03521 =
         0.03022   -0.00713    0.00908   -0.00193
O1W   4    0.564755    0.150440    0.252078    11.00000    0.05684    0.03805 =
         0.03196   -0.00726    0.00169   -0.01485
O6    4    1.439002    0.477377    0.325080    11.00000    0.01895    0.03556 =
         0.02458   -0.00729    0.00798    0.00112
O5    4    1.155408    0.358948    0.301126    11.00000    0.02350    0.04091 =
         0.02477   -0.01482    0.00167    0.00420
C7    1    1.247515    0.432617    0.343308    11.00000    0.01879    0.03115 =
         0.01670   -0.00451    0.00174    0.00785
C8    1    1.116617    0.470954    0.425651    11.00000    0.01712    0.03356 =
         0.01761   -0.00573    0.00053    0.00437
N3    3    0.910225    0.427305    0.441333    11.00000    0.01750    0.03677 =
         0.02178   -0.00864    0.00245    0.00243
C9    1    0.794585    0.455848    0.515611    11.00000    0.01585    0.04029 =
         0.02190   -0.01104    0.00428    0.00046
AFIX  43
H9    2    0.651049    0.426207    0.528604    11.00000   -1.20000
AFIX   0
O3W   4    0.370852    0.159894    0.072707    11.00000    0.12551    0.09703 =
         0.13788   -0.05831   -0.07983    0.05029
O4W   4    0.380429   -0.178547    0.142149    10.50000    0.21744    0.28489 =
         0.64700   -0.35403   -0.00792   -0.02417
O5W   4    0.833394    0.771700    0.317025    11.00000    0.25613    0.10424 =
         0.25296   -0.10283    0.17450   -0.04341
O6W   4    0.997581    0.983393    0.168998    10.50000    0.17420    0.11686 =
         0.18224    0.00999    0.08024   -0.03215
HKLF    4

REM  ull2397_olex in P -1
REM R1 =  0.0298 for    3118 Fo > 4sig(Fo)  and  0.0305 for all    3200 data
REM    226 parameters refined using      0 restraints

END

WGHT      0.0590      0.7524

REM Highest difference peak  1.405,  deepest hole -1.275,  1-sigma level  0.148
Q1    1   0.6486  0.8026  0.2379  11.00000  0.05    1.41
Q2    1   0.3302 -0.2314  0.2419  11.00000  0.05    0.79
Q3    1   0.3002 -0.0802  0.0384  11.00000  0.05    0.73
Q4    1   1.0507  0.9218  0.1200  11.00000  0.05    0.67
Q5    1   1.0709  0.9064  0.1420  11.00000  0.05    0.67
Q6    1   0.9160  0.6179  0.1585  11.00000  0.05    0.64
Q7    1   0.7567  0.2436  0.3198  11.00000  0.05    0.61
Q8    1   0.6912  0.5291  0.2242  11.00000  0.05    0.60
Q9    1   0.7399  0.4401  0.2671  11.00000  0.05    0.60
Q10   1   0.5521  0.0683  0.2977  11.00000  0.05    0.60
Q11   1   0.5906 -0.0813  0.0679  11.00000  0.05    0.59
Q12   1   0.1989 -0.1371  0.2128  11.00000  0.05    0.56
Q13   1   0.2766  0.1387  0.1449  11.00000  0.05    0.54
Q14   1   0.5033  0.1491  0.1985  11.00000  0.05    0.53
Q15   1   0.8054  0.1562  0.3604  11.00000  0.05    0.53
Q16   1   1.0038  1.0218  0.1406  11.00000  0.05    0.53
Q17   1   0.9029  1.0034  0.1425  11.00000  0.05    0.52
Q18   1   0.8028  0.6418  0.2367  11.00000  0.05    0.50
Q19   1   0.4346 -0.2230  0.1401  11.00000  0.05    0.47
Q20   1   1.5981  0.5249  0.2943  11.00000  0.05    0.39
Q21   1   0.5649 -0.1769  0.1171  11.00000  0.05    0.37
Q22   1   0.7357  0.8139  0.3581  11.00000  0.05    0.33
Q23   1   0.6328  0.1524  0.2350  11.00000  0.05    0.33
Q24   1   0.2490  0.2208  0.0599  11.00000  0.05    0.30
Q25   1   0.9112  0.1643  0.2890  11.00000  0.05    0.30
;
_shelx_res_checksum              21115
_shelx_hkl_file
;
   0   0   1 129203. 2086.90   2
   0   0   2 115033. 2504.32   2
   0   0   3 285265. 5253.59   2
   0   0   4 207893. 4935.21   2
   0   0   5 543702. 9982.90   2
   0   0   6 9984.74 1345.30   2
   0   0   7 427486. 10421.7   2
   0   0   8 102846. 5239.86   2
   0   0   9 64982.0 4522.73   2
   0   0  10 126292. 3055.55  10
   0   0  10 135057. 7084.61   2
   0   0  10 136926. 3201.73   4
   0   0  11 3005.43 504.503   4
   0   0  11 1698.25 1056.24   2
   0   0  11 3512.83 517.053  10
   0   0  12 124105. 3228.61  10
   0   0  12 124132. 3338.95   4
   0   0  13 4497.16 607.417  10
   0   0  13 4429.75 610.049   4
   0   0  14 92068.0 2628.79   4
   0   0  14 96489.5 2612.02  10
   0   0  15 41303.8 1468.83   4
   0   0  15 45000.6 1530.80  10
   0   0  16 34572.6 1022.55  10
   0  -1  15 84466.7 2012.37  10
   0  -1  14 3516.41 500.294  10
   0  -1  14 3643.35 473.454   4
   0  -1  13 155126. 3556.91  10
   0  -1  13 141525. 3444.40   4
   0  -1  12 65999.5 2320.67   4
   0  -1  12 66700.5 2311.80  10
   0  -1  11 26497.4 1439.55   4
   0  -1  11 25165.8 1367.62  10
   0  -1  10 114890. 6737.43   2
   0  -1  10 124397. 3130.97   4
   0  -1  10 123655. 3094.28  10
   0  -1   9 80753.2 2262.58  10
   0  -1   9 80376.3 5203.43   2
   0  -1   8 464846. 12276.8   2
   0  -1   7 22288.0 2287.42   2
   0  -1   6 699698. 13498.7   2
   0  -1   5 546553. 10567.5   2
   0  -1   4 69716.0 2955.84   2
   0  -1   3 501766. 8248.44   2
   0  -1   2 1362.15 309.065   2
   0  -1   1 512686. 6960.48   2
   0   1   0 387355. 5245.23   1
   0   1   1 710673. 8831.84   1
   0   1   2 539208. 7247.61   2
   0   1   2 528870. 7370.10   1
   0   1   3 82676.1 2459.40   2
   0   1   4 663255. 10187.8   2
   0   1   5 53877.9 2625.53   2
   0   1   6 407125. 8982.08   2
   0   1   7 177642. 6192.46   2
   0   1   8 53629.5 3662.09   2
   0   1   9 120758. 6066.94   2
   0   1  10 769.435 242.849   4
   0   1  10 1150.46 665.095   2
   0   1  10 958.263 290.150  10
   0   1  11 96163.7 6231.37   2
   0   1  11 92462.0 2628.47  10
   0   1  11 91451.1 2713.86   4
   0   1  12 29630.9 1477.49  10
   0   1  12 30232.4 1552.79   4
   0   1  13 128226. 3433.27   4
   0   1  13 129815. 3291.53  10
   0   1  14 110258. 2877.98  10
   0   1  14 110863. 3052.03   4
   0   1  15 1066.88 333.575   4
   0   1  15 616.585 234.559  10
   0   1  16 91901.3 1963.42  10
   0   1  16 79849.2 1925.40   4
   0  -2  15 11200.3 576.475  10
   0  -2  14 48316.8 1613.23  10
   0  -2  13 55695.1 1963.36  10
   0  -2  13 52912.9 1800.06   4
   0  -2  12 63682.0 2170.00   4
   0  -2  12 67497.2 2318.40  10
   0  -2  11 231599. 4706.75   4
   0  -2  11 234140. 4758.98  10
   0  -2  10 40137.4 1705.96   4
   0  -2  10 40831.5 4101.02   2
   0  -2  10 38855.2 1722.78  10
   0  -2   9 185025. 3886.85  10
   0  -2   9 192529. 3852.17   4
   0  -2   8 112656. 6073.72   2
   0  -2   7 263643. 8822.19   2
   0  -2   6 348742. 9441.27   2
   0  -2   5 76152.5 3807.50   2
   0  -2   4 787051. 13294.2   2
   0  -2   3 3156.11 661.880   2
   0  -2   2 670063. 10373.2   2
   0   2  -1 734079. 10234.7   1
   0   2   0 3702.94 540.887   1
   0   2   1 417162. 6823.77   1
   0   2   2 572.642 311.092   1
   0   2   3 296562. 5877.87   1
   0   2   4 182844. 4664.37   2
   0   2   5 59036.3 2807.60   2
   0   2   6 663233. 12294.5   2
   0   2   7 19404.2 2011.30   2
   0   2   8 291323. 8897.77   2
   0   2   9 5870.05 1283.00   2
   0   2  10 99983.3 5938.67   2
   0   2  10 94290.4 2548.31   4
   0   2  10 95909.1 2501.36  10
   0   2  11 125503. 3242.44   4
   0   2  11 124853. 3116.37  10
   0   2  11 133541. 7290.80   2
   0   2  12 80130.0 2487.02  10
   0   2  12 77807.7 2577.28   4
   0   2  13 181832. 4209.13   4
   0   2  13 178410. 3980.03  10
   0   2  14 126.048 262.805  10
   0   2  14 851.938 343.385   4
   0   2  15 70299.7 2079.71  10
   0   2  15 69053.0 2220.03   4
   0  -2 -15 68663.1 2001.68  12
   0   2  16 25574.3 1125.85   4
   0   2  16 26391.8 1045.70  10
   0  -3  14 81432.1 1898.53  10
   0  -3  13 2869.36 457.927  10
   0  -3  12 77580.9 2429.86  10
   0  -3  11 1985.78 449.116  10
   0  -3  11 2097.73 386.513   4
   0  -3  10 212899. 4525.03  10
   0  -3  10 211604. 4241.85   4
   0  -3   9 254469. 4687.71   4
   0   3  -9 261799. 9580.43   1
   0  -3   9 259853. 4998.22  10
   0  -3   9 255535. 10435.3   2
   0  -3   8 4873.84 1353.81   2
   0  -3   8 3929.88 508.231  10
   0  -3   7 340686. 10873.4   2
   0  -3   6 4567.11 1137.44   2
   0  -3   5 182603. 6725.72   2
   0  -3   4 319406. 8447.45   2
   0   3  -3 224256. 5947.84   1
   0   3  -2 606249. 10435.4   1
   0   3  -1 64316.4 2710.35   1
   0   3   0 148799. 4297.93   1
   0   3   1 24963.5 1647.81   1
   0   3   2 138763. 4271.16   1
   0   3   3 287419. 6621.39   1
   0   3   4 2963.99 638.391   1
   0   3   5 234978. 6158.50   2
   0   3   6 100562. 4237.36   2
   0   3   7 487409. 11127.4   2
   0   3   8 128435. 5757.88   2
   0   3   9 107162. 5655.66   2
   0   3  10 82325.0 2317.54  10
   0   3  10 82956.7 5323.06   2
   0   3  10 81042.7 2372.60   4
   0   3  11 20192.3 1166.50  10
   0   3  11 19919.0 2754.12   2
   0   3  11 19366.8 1199.21   4
   0   3  12 469327. 7368.93  10
   0   3  12 463644. 7585.04   4
   0   3  13 5259.42 620.625  10
   0   3  13 5402.23 733.250   4
   0   3  14 89550.6 2607.46  10
   0   3  14 90729.5 2810.29   4
   0  -3 -15 59269.1 1990.22  12
   0   3  15 61860.9 2109.10   4
   0   3  15 59179.1 1905.55  10
   0  -3 -16 16036.4 775.862  12
   0  -4  13 89168.1 2106.30  10
   0  -4  12 22066.3 1163.41  10
   0  -4  11 38935.0 1716.00  10
   0  -4  10 139051. 3543.13  10
   0  -4   9 145.481 197.769  10
   0   4  -8 154627. 7374.49   1
   0  -4   8 157936. 3765.13  10
   0  -4   7 54607.5 1985.56  10
   0   4  -7 55841.5 4164.90   1
   0   4  -6 90389.0 5049.22   1
   0   4  -5 75700.0 4337.64   1
   0   4  -4 2572.63 821.393   1
   0   4  -3 603069. 12091.6   1
   0   4  -2 48028.2 2857.35   1
   0   4  -1 247626. 6661.59   1
   0   4   0 281829. 7106.35   1
   0   4   1 178850. 5437.07   1
   0   4   2 238137. 6514.06   1
   0   4   3 64389.7 3339.61   1
   0   4   4 449291. 9663.93   1
   0   4   5 69228.1 3617.29   1
   0   4   6 398371. 9442.62   2
   0   4   7 161247. 6112.03   2
   0   4   8 98119.3 5080.70   2
   0   4   9 386073. 11306.6   2
   0   4  10 546.249 230.389   2
   0   4  10 777.168 264.082   4
   0   4  10 842.096 284.576  10
   0   4  11 142952. 3439.35  10
   0   4  11 140570. 3511.53   4
   0   4  12 188419. 4112.18  10
   0   4  12 184663. 4285.83   4
   0   4  13 114557. 3254.05   4
   0   4  13 113370. 3053.54  10
   0   4  14 55172.0 2000.82  10
   0  -4 -14 58680.9 2186.86  12
   0   4  14 58828.8 2213.22   4
   0  -4 -15 4544.94 547.480  12
   0   4  15 4394.03 577.187   4
   0  -4 -16 95653.9 2199.67  12
   0  -5  12 12763.4 770.219  10
   0  -5  11 73689.1 2219.79  10
   0  -5  10 14010.8 1005.93  10
   0  -5   9 125202. 3377.48  10
   0  -5   8 85141.4 2731.63  10
   0  -5   7 43241.0 1873.57  10
   0   5  -7 45294.3 3930.40   1
   0  -5   6 126970. 3238.01  10
   0   5  -6 127917. 6538.45   1
   0   5  -5-534.998 446.492   1
   0  -5   5 385.666 254.108  10
   0   5  -4 186365. 7194.60   1
   0   5  -3 122615. 5535.03   1
   0   5  -2 34888.1 2790.55   1
   0   5  -1 257232. 7823.78   1
   0   5   0 76337.6 3933.66   1
   0   5   1 472622. 10587.8   1
   0   5   2 18265.1 1981.44   1
   0   5   3 572034. 12349.2   1
   0   5   4 389577. 9876.77   1
   0   5   5 152308. 5919.76   1
   0   5   6 192348. 6642.16   2
   0   5   6 194171. 7021.08   1
   0   5   7 31988.3 2751.35   2
   0   5   8 213774. 7835.00   2
   0   5   9 8280.40 689.137  10
   0   5   9 9508.44 766.143   4
   0   5   9 7428.83 1535.35   2
   0   5  10 227477. 4562.74   4
   0   5  10 228627. 4462.54  10
   0   5  10 227569. 9121.05   2
   0   5  11 157204. 3681.73  10
   0   5  11 164217. 7901.70   2
   0   5  11 155215. 3780.36   4
   0   5  12 4371.95 561.417  10
   0   5  12 5943.70 708.102   4
   0   5  13 145955. 3717.75   4
   0  -5 -13 148327. 3793.87  12
   0   5  13 146584. 3542.90  10
   0  -5 -14 395.678 249.258  12
   0   5  14 628.507 310.274   4
   0  -5 -15 58892.8 1972.10  12
   0  -5 -16 41286.8 1374.90  12
   0  -6  11 33923.3 1265.57  10
   0  -6  10 13806.6 917.600  10
   0  -6   9 101841. 2884.22  10
   0  -6   8 11546.0 986.448  10
   0  -6   7 166540. 4015.07  10
   0  -6   6 4774.89 612.469  10
   0   6  -5 143332. 7118.64   1
   0  -6   5 132049. 3447.23  10
   0  -6   4 100168. 2825.39  10
   0   6  -4 100759. 5795.41   1
   0  -6   4 95296.9 2423.53   5
   0   6  -3 90778.3 5293.62   1
   0   6  -2 278289. 9180.99   1
   0   6  -1 5304.68 1210.58   1
   0   6   0 195797. 7136.36   1
   0   6   1 16594.3 1964.99   1
   0   6   2 188533. 7097.94   1
   0   6   3 234412. 8154.58   1
   0   6   4 38738.2 3164.05   1
   0   6   5 492096. 12121.8   1
   0   6   6 4437.92 1124.52   1
   0   6   7 138093. 6111.58   2
   0   6   8 93578.0 5247.38   2
   0   6   9 114257. 2970.18   4
   0   6   9 109298. 6012.09   2
   0  -6  -9 114089. 3081.51  12
   0   6  10 198360. 4308.31   4
   0   6  10 197375. 8459.76   2
   0  -6 -10 190219. 4356.25  12
   0  -6 -11 10124.3 924.849  12
   0   6  11 11420.9 956.710   4
   0  -6 -12 74248.7 2588.71  12
   0  -6 -13 22659.1 1384.28  12
   0  -6 -14 50182.0 1955.51  12
   0  -6 -15 42697.4 1603.28  12
   0  -6 -16 3728.32 402.552  12
   0  -7  10 68577.7 1816.59  10
   0  -7   9 2077.30 405.431  10
   0  -7   8 116179. 3065.77  10
   0  -7   7 43993.7 1920.17  10
   0  -7   6 42674.3 1938.25  10
   0  -7   5 82921.8 2742.83  10
   0   7  -4 19973.6 2657.55   1
   0  -7   4 18154.8 1070.73   5
   0  -7   4 18332.5 1254.51  10
   0   7  -3 213094. 8736.29   1
   0  -7   3 203885. 4464.38  10
   0  -7   3 198499. 4001.23   5
   0  -7   2 4813.25 622.334  10
   0  -7   2 4234.27 502.414   5
   0  -7   1 298386. 4979.17   5
   0   7  -1 294228. 9910.05   1
   0   7   0 68100.7 4515.87   1
   0   7   1 63777.0 4337.69   1
   0   7   2 186406. 7681.76   1
   0   7   3 11053.1 1861.09   1
   0   7   4 201209. 8084.75   1
   0   7   5 109637. 5731.10   1
   0   7   6 74183.5 4781.58   1
   0  -7  -7 98644.7 2651.98  12
   0   7   7 92508.5 5198.66   2
   0  -7  -7 96301.3 2331.07   5
   0  -7  -8 1501.43 347.285  12
   0   7   8 983.804 580.548   2
   0  -7  -8 1397.60 262.311   5
   0  -7  -9 246016. 4923.30  12
   0   7   9 249526. 9222.59   2
   0  -7 -10 30158.8 1571.65  12
   0  -7 -11 55878.9 2199.05  12
   0  -7 -12 66310.1 2390.92  12
   0  -7 -13 24122.6 1367.90  12
   0  -7 -14 49301.0 1827.18  12
   0  -7 -15 227.640 162.233  12
   0  -7 -16 45798.8 1293.25  12
   0  -8   9 52992.1 1469.80  10
   0  -8   8 48703.9 1644.51  10
   0  -8   7 30150.4 1424.81  10
   0  -8   6 96970.0 2840.45  10
   0  -8   5 3808.93 591.799  10
   0  -8   4 91288.0 2921.41  10
   0  -8   3 38338.0 1652.21   5
   0  -8   3 38418.1 1841.63  10
   0  -8   2 51616.7 2121.99  10
   0  -8   2 48289.1 1863.30   5
   0   8  -1 136903. 6924.72   1
   0  -8   1 136765. 3259.36   5
   0  -8   0 25385.2 1285.64   5
   0   8   0 27332.2 3054.51   1
   0  -8  -1 124148. 3016.91   5
   0   8   1 127022. 6734.79   1
   0  -8  -2 47426.7 1741.86   5
   0   8   2 42817.8 3895.13   1
   0  -8  -3 115674. 2820.62   5
   0   8   3 108595. 6201.53   1
   0   8   4 64145.5 4618.31   1
   0  -8  -4 65973.4 2036.23   5
   0  -8  -5 24988.0 1200.12   5
   0   8   5 27026.0 2924.80   1
   0   8   6 187443. 8088.76   1
   0  -8  -6 178374. 3568.55   5
   0  -8  -6 177636. 3685.03  12
   0  -8  -7 8808.54 684.939   5
   0   8   7 8134.21 1461.48   2
   0  -8  -7 8252.93 741.221  12
   0   8   8 49907.9 3910.70   2
   0  -8  -8 52174.0 1973.33  12
   0  -8  -8 51750.0 1682.45   5
   0  -8  -9 64692.5 1840.46   5
   0  -8  -9 58198.7 2151.18  12
   0  -8 -10 37163.0 1712.08  12
   0  -8 -11 83234.8 2627.15  12
   0  -8 -12 8349.51 781.693  12
   0  -8 -13 77209.3 2344.59  12
   0  -8 -14 934.375 277.526  12
   0  -8 -15 47568.2 1429.31  12
   0  -9   8 1737.34 230.978  10
   0  -9   7 54038.4 1593.91  10
   0  -9   6 4170.86 506.320  10
   0  -9   5 39075.6 1653.71  10
   0  -9   4 48585.3 1975.89  10
   0  -9   3 10093.5 925.522  10
   0  -9   2 90117.6 2622.94   5
   0  -9   2 90769.7 2883.53  10
   0  -9   1 3879.44 538.291   5
   0  -9   1 3912.68 601.734  10
   0  -9   0 164282. 3697.05   5
   0  -9  -1 77048.3 2395.25   5
   0  -9  -2 13911.1 972.574   5
   0  -9  -3 132409. 3195.10   5
   0  -9  -4 3236.75 483.687   5
   0  -9  -5 126949. 3028.22   5
   0  -9  -6 6357.57 623.326   5
   0  -9  -7 105755. 2641.03   5
   0  -9  -7 107575. 2753.51  12
   0  -9  -8 77143.2 2370.09  12
   0  -9  -8 79076.4 2153.74   5
   0  -9  -9 2821.25 449.489  12
   0  -9  -9 2329.83 334.516   5
   0  -9 -10 49712.8 1884.75  12
   0  -9 -11 281.823 209.389  12
   0  -9 -12 72150.6 2164.22  12
   0  -9 -13 8748.29 681.836  12
   0  -9 -14 23168.9 976.094  12
   0  -9 -15 32688.7 966.189  12
   0 -10   6 19659.4 803.058  10
   0 -10   5 77654.1 1978.31  10
   0 -10   4 217.607 222.326  10
   0 -10   3 41739.7 1672.84  10
   0 -10   2 6079.17 703.307  10
   0 -10   1 61120.5 2049.74   5
   0 -10   1 59986.4 2219.61  10
   0 -10   0 83983.1 2480.59   5
   0 -10   0 80904.6 2669.27  10
   0 -10  -1 6366.98 671.826   5
   0 -10  -2 66864.7 2201.91   5
   0 -10  -3 12900.6 929.547   5
   0 -10  -4 93973.4 2576.02   5
   0 -10  -5 42852.0 1658.95   5
   0 -10  -6 39401.3 1537.58   5
   0 -10  -7 47495.6 1665.61   5
   0 -10  -8 3794.49 452.397   5
   0 -10  -8 3383.24 413.961  12
   0 -10  -9 59850.4 1697.81   5
   0 -10  -9 62864.3 1869.54  11
   0 -10  -9 61066.6 1870.75  12
   0 -10 -10 3816.32 456.067  11
   0 -10 -10 4055.70 465.484  12
   0 -10 -11 37091.8 1371.53  12
   0 -10 -11 37227.8 1331.41  11
   0 -10 -12 13145.3 708.663  11
   0 -10 -12 12652.4 734.222  12
   0 -10 -13 17436.0 715.783  11
   0 -10 -13 17995.9 786.690  12
   0 -10 -14 31527.4 881.330  12
   0 -11   4 68994.9 1555.57  10
   0 -11   3 21592.7 941.063  10
   0 -11   2 10352.1 722.509  10
   0 -11   1 50516.8 1747.36  10
   0 -11   0 3619.07 458.250   5
   0 -11   0 3565.03 503.814  10
   0 -11  -1 72544.4 2292.55  10
   0 -11  -1 72210.6 2117.05   5
   0 -11  -2 6796.77 701.794  10
   0 -11  -2 7094.26 658.490   5
   0 -11  -3 27115.5 1285.80   5
   0 -11  -4 41753.9 1577.95   5
   0 -11  -5 13594.0 866.315   5
   0 -11  -6 51153.2 1660.38   5
   0 -11  -7 440.281 173.049   5
   0 -11  -8 42175.4 1371.01   5
   0 -11  -9 20653.0 841.525   5
   0 -12   1 3996.28 353.129  10
   0 -12   0 36987.3 1201.31  10
   0 -12  -1 9217.44 630.084  10
   0 -12  -2 24334.2 1070.31  10
   0 -12  -2 23589.2 992.427   5
   0 -12  -3 42222.9 1377.84   5
   0 -12  -3 44049.5 1500.01  10
   0 -12  -4 108.441 163.280  10
   0 -12  -4 129.104 141.909   5
   0 -12  -5 34625.3 1206.41   5
   0 -12  -6 5803.47 469.873   5
   0 -12  -7 13073.6 668.374   5
   0 -12  -8 22182.5 804.913   5
   0 -12  -9 3295.39 255.652   5
   0 -13  -4 22256.6 756.108  10
   0 -13  -5 7477.93 436.200  10
   0 -13  -6 14913.8 609.737  10
   1 -12  -7 48471.0 1185.01   5
   1 -12  -6 52245.6 1362.47   5
   1 -12  -5 3112.46 338.239   5
   1 -12  -4 29213.4 1169.34  10
   1 -12  -3 4147.42 436.557  10
   1 -12  -2 39316.6 1308.98  10
   1 -12  -1 37349.0 1201.82  10
   1 -12   0 6741.11 452.529  10
  -1  12  -1 52157.1 1215.08   8
   1 -11 -12 46013.6 1114.16  12
   1 -11 -11 14561.7 676.363  12
   1 -11 -10 28767.8 1044.11  12
   1 -11  -9 41113.1 1326.77  12
   1 -11  -8 7924.90 572.874  12
   1 -11  -7 103450. 2261.76   5
   1 -11  -7 107566. 2313.62  12
   1 -11  -6 444.399 168.136   5
   1 -11  -5 73754.7 2044.39   5
   1 -11  -4 60887.7 1889.75   5
   1 -11  -3 9399.33 741.697   5
   1 -11  -2 59047.4 1911.50   5
   1 -11  -2 58245.9 1999.85  10
   1 -11  -1 2499.04 409.473  10
   1 -11   0 61835.1 1935.06  10
   1 -11   1 10828.2 739.318  10
   1 -11   2 16188.4 831.162  10
  -1  11  -3 30373.1 1023.06   8
   1 -11   3 31992.3 1045.73  10
   1 -10 -13 39206.6 1193.90  12
   1 -10 -12 51213.4 1544.33  12
   1 -10 -11 23214.5 1092.04  12
   1 -10 -10 64352.9 1974.04  12
   1 -10  -9 225.004 192.903  12
   1 -10  -8 114614. 2842.83  12
   1 -10  -7 46672.5 1556.43   5
   1 -10  -7 47778.2 1737.57  12
   1 -10  -6 23650.6 1153.02   5
   1 -10  -6 24602.8 1211.93  12
   1 -10  -5 56142.8 1825.91  12
   1 -10  -5 53257.2 1831.43   5
   1 -10  -4 15305.0 990.761   5
   1 -10  -3 120427. 3037.12   5
   1 -10  -2 1002.37 296.468   5
   1 -10  -1 86139.2 2613.89   5
   1 -10   0 37820.0 1712.82  10
   1 -10   0 37337.7 1671.31   5
   1 -10   1 14259.6 1013.18  10
   1 -10   2 29804.5 1409.56  10
   1 -10   3 609.875 245.554  10
   1 -10   4 66580.1 1867.00  10
  -1  10  -4 60063.6 1751.84   8
   1 -10   5 3271.48 351.621  10
  -1  10  -5 2620.96 292.797   8
   1  -9 -15 32928.3 923.737  12
   1  -9 -14 25997.9 1006.85  12
   1  -9 -13 43942.5 1515.86  12
   1  -9 -12 3871.36 518.405  12
   1  -9 -11 128792. 3162.98  12
   1  -9 -10 2719.56 459.259  12
   1  -9  -9 101818. 2876.77  12
   1  -9  -8 98673.9 2823.06  12
   1  -9  -7 12912.7 814.357   5
   1  -9  -7 12553.5 948.365  12
   1  -9  -6 94232.6 2688.02  12
   1  -9  -6 90579.3 2406.23   5
   1  -9  -5 6434.75 632.764   5
   1  -9  -5 6480.07 656.735  12
   1  -9  -4 117333. 2950.38   5
   1  -9  -4 118285. 2921.17  12
   1  -9  -3 32838.0 1516.58   5
   1  -9  -2 45020.3 1844.67   5
   1  -9  -1 58243.3 2154.42   5
   1  -9   0 8459.76 818.333   5
   1  -9   1 107289. 3117.59  10
   1  -9   1 112087. 3103.57   5
   1  -9   2 893.601 333.756  10
   1  -9   3 30520.8 1529.16  10
   1  -9   4 37969.5 1644.10  10
   1  -9   5 56733.5 1901.09  10
  -1   9  -5 58789.4 1883.57   8
  -1   9  -6 47058.5 1429.34   8
   1  -9   6 47056.8 1555.00  10
   1  -9   7 2615.80 314.736  10
   1  -8 -15 16087.5 768.970  12
   1  -8 -14 106690. 2514.37  12
   1  -8 -13 7414.75 715.501  12
   1  -8 -12 85181.0 2609.73  12
   1  -8 -11 38277.3 1761.08  12
   1  -8 -10 69287.2 2445.23  12
   1  -8  -9 139321. 3597.01  12
   1  -8  -8 1179.85 340.293  12
  -1   8   7 42953.1 3992.71   1
   1  -8  -7 44636.0 1860.83  12
  -1   8   7 43303.1 3798.51   2
   1  -8  -6 7558.08 631.048   5
   1  -8  -6 8367.07 768.008  12
  -1   8   6 8307.45 1722.19   1
   1  -8  -5 52153.6 1928.22  12
   1  -8  -5 52885.2 1792.04   5
   1  -8  -4 62834.1 2066.95  12
   1  -8  -4 61288.4 1996.83   5
  -1   8   4 64852.1 4866.27   1
   1  -8  -3 25633.6 1238.80  12
   1  -8  -3 28856.9 1368.42   5
  -1   8   3 30465.8 3413.50   1
  -1   8   2 87947.6 5858.70   1
   1  -8  -2 93485.4 2652.12   5
  -1   8   1 13378.3 2247.12   1
   1  -8  -1 12991.7 959.623   5
  -1   8   0 107225. 6387.51   1
   1  -8   0 104838. 2935.47   5
  -1   8  -1 35610.1 3655.48   1
   1  -8   1 28246.4 1483.45   5
   1  -8   2 108247. 3117.48  10
   1  -8   2 111542. 3107.77   5
   1  -8   3 86745.9 2761.98  10
   1  -8   4 2263.94 473.574  10
   1  -8   5 130316. 3357.03  10
  -1   8  -6 2147.41 378.149   8
   1  -8   6 1186.47 319.362  10
   1  -8   7 65759.7 2025.99  10
  -1   8  -7 67421.6 1833.47   8
   1  -8   8 44595.7 1443.05  10
   1  -8   9 14229.0 612.956  10
   1  -7 -16 715.555 148.301  12
   1  -7 -15 66387.7 1828.72  12
   1  -7 -14 11768.3 860.921  12
   1  -7 -13 27174.8 1429.70  12
   1  -7 -12 74776.4 2542.65  12
   1  -7 -11 26462.9 1499.35  12
   1  -7 -10 202009. 4551.02  12
   1  -7  -9 20389.1 1299.82  12
  -1   7   9 20113.0 2630.39   2
   1  -7  -8 64559.0 2327.88  12
  -1   7   8 63614.8 4639.92   2
   1  -7  -7 14895.8 1043.20  12
  -1   7   7 14353.2 2162.45   2
  -1   7   7 13844.6 2216.85   1
  -1   7   6 79682.4 5207.29   1
   1  -7  -6 78003.6 2401.35  12
  -1   7   5 227122. 8743.21   1
  -1   7   4 8724.18 1683.44   1
  -1   7   3 187792. 8155.47   1
  -1   7   2 6033.47 1433.68   1
  -1   7   1 64128.6 4584.91   1
  -1   7   0 87961.7 5370.30   1
   1  -7   0 88768.7 2479.17   5
  -1   7  -1 72072.5 4961.07   1
   1  -7   1 70740.0 2260.26   5
   1  -7   2 197546. 4190.90   5
   1  -7   2 198872. 4237.60  10
  -1   7  -2 203479. 8659.90   1
  -1   7  -3-91.5555 256.774   1
   1  -7   3 659.809 266.596  10
   1  -7   3 699.120 249.264   5
   1  -7   4 222319. 4689.50  10
   1  -7   5 80561.5 2624.57  10
   1  -7   6 40701.4 1807.89  10
   1  -7   7 50234.6 1960.70  10
  -1   7  -7 51420.1 1822.78   8
   1  -7   8 14416.2 966.089  10
   1  -7   9 83986.8 2168.89  10
   1  -7  10 2947.89 312.440  10
   1  -6 -16 60622.4 1479.62  12
   1  -6 -15 28062.3 1219.23  12
   1  -6 -14 24236.8 1299.70  12
   1  -6 -13 65166.3 2332.49  12
   1  -6 -12 1801.04 446.985  12
   1  -6 -11 152313. 3880.71  12
   1  -6 -10 54059.2 2170.07  12
  -1   6  10 52715.6 4411.03   2
   1  -6  -9 44004.5 1917.71  12
  -1   6   9 45144.8 3952.84   2
  -1   6   8 86440.7 5275.90   2
   1  -6  -8 87456.8 2660.32  12
  -1   6   7 4049.32 1085.97   2
  -1   6   6 162019. 7059.03   1
  -1   6   5 3749.24 1019.43   1
  -1   6   4 411632. 11578.3   1
  -1   6   3 201874. 7920.11   1
  -1   6   2 178176. 7261.82   1
  -1   6   1 120137. 5810.41   1
  -1   6   0 1201.37 685.377   1
  -1   6  -1 248589. 8672.99   1
  -1   6  -2 1629.39 810.975   1
  -1   6  -3 247631. 9364.39   1
   1  -6   3 230580. 4379.94   5
   1  -6   4 165910. 3739.06  10
  -1   6  -4 177043. 8099.43   1
   1  -6   5 19715.4 1210.59  10
  -1   6  -5 22643.7 2892.87   1
   1  -6   6 84375.0 2657.69  10
  -1   6  -7 947.738 312.299   8
   1  -6   7 1011.34 287.651  10
   1  -6   8 127510. 3301.04  10
  -1   6  -8 131211. 2982.43   8
   1  -6   9 27846.4 1371.01  10
   1  -6  10 32635.9 1327.67  10
   1  -6  11 55355.9 1460.03  10
   1  -5 -16 74270.7 1686.25  12
   1  -5 -15 4066.30 489.926  12
  -1   5  14 63756.0 1873.35   7
   1  -5 -14 67176.3 2256.36  12
   1  -5 -13 5734.88 732.031  12
  -1   5  13 4446.22 570.999  10
   1  -5 -12 121442. 3439.42  12
  -1   5  12 121768. 3256.73  10
   1  -5 -11 73956.0 2633.25  12
  -1   5  11 74703.6 2451.63  10
  -1   5  11 69895.2 2515.28   4
  -1   5  10 47274.9 1985.01   4
   1  -5 -10 45641.1 1998.73  12
  -1   5  10 51462.9 4329.10   2
  -1   5  10 46621.3 1861.15  10
  -1   5   9 160963. 7432.09   2
  -1   5   9 163593. 3748.35   4
   1  -5  -9 157488. 3770.14  12
  -1   5   9 163332. 3568.83  10
  -1   5   8 30763.6 2978.74   2
  -1   5   7 199272. 7465.37   2
  -1   5   6 123620. 5748.02   1
  -1   5   5 248374. 8046.71   1
  -1   5   4 161168. 6375.20   1
  -1   5   3 143918. 6054.74   1
  -1   5   2 664882. 14063.8   1
  -1   5   1 12911.6 1697.03   1
  -1   5   0 233377. 7556.31   1
  -1   5  -1 149312. 6073.42   1
  -1   5  -2 315814. 9432.87   1
  -1   5  -3 298230. 9309.48   1
  -1   5  -4 6943.09 1437.90   1
  -1   5  -5 80339.5 5087.67   1
   1  -5   5 78961.7 2307.55  10
  -1   5  -6 28003.1 3133.31   1
   1  -5   6 28441.6 1412.22  10
  -1   5  -7 32190.2 1443.51   8
   1  -5   7 31134.4 1528.88  10
   1  -5   8 67448.3 2328.62  10
  -1   5  -8 67410.8 2090.93   8
   1  -5   9 26067.4 1409.51  10
   1  -5  10 91452.2 2610.36  10
   1  -5  10 100557. 2443.21   4
   1  -5  11 2724.01 393.510  10
   1  -5  12 52517.2 1410.03  10
   1  -4 -15 117768. 2740.87  12
   1  -4 -14 37323.6 1676.16  12
  -1   4  14 37423.3 1637.90  10
   1  -4 -13 66559.4 2431.53  12
  -1   4  13 68619.6 2494.54   4
  -1   4  13 69071.2 2357.37  10
  -1   4  13 69474.0 2123.43   7
  -1   4  12 183122. 4131.58  10
  -1   4  12 178375. 4244.28   4
   1  -4 -12 180087. 4298.38  12
  -1   4  11 22177.7 1273.35  10
   1  -4 -11 21406.1 1371.09  12
  -1   4  11 21677.3 2863.52   2
  -1   4  11 21463.6 1326.06   4
  -1   4  10 131406. 6884.49   2
  -1   4  10 129584. 3331.36   4
  -1   4  10 130487. 3199.71  10
  -1   4   9 44.8451 252.596   2
  -1   4   8 421421. 11475.3   2
  -1   4   7 51241.5 3504.77   2
  -1   4   6 82766.9 4239.15   2
  -1   4   5 559204. 11986.7   1
  -1   4   4 5064.59 977.956   1
  -1   4   3 510117. 11136.3   1
  -1   4   2 116894. 4721.65   1
  -1   4   1 84147.8 3895.24   1
  -1   4   0 334811. 8365.12   1
  -1   4  -1 3394.56 829.831   1
  -1   4  -2 380226. 9267.20   1
  -1   4  -3 5527.80 1096.11   1
  -1   4  -4 157510. 6212.28   1
  -1   4  -5 44261.0 3411.93   1
  -1   4  -6 37224.6 3315.61   1
   1  -4   7 135684. 3190.71  10
  -1   4  -7 129617. 2964.31   8
  -1   4  -7 136217. 6769.94   1
  -1   4  -8 927.730 620.851   1
   1  -4   8 1402.17 335.890  10
   1  -4   9 98832.6 2827.76  10
   1  -4  10 7765.16 717.919   4
   1  -4  10 7574.53 740.999  10
   1  -4  11 42323.3 1594.44   4
   1  -4  11 39955.0 1634.46  10
   1  -4  12 30575.1 1264.97  10
   1  -4  12 32192.5 1209.10   4
   1  -4  13 19975.8 799.597  10
  -1   3  15 26031.7 1249.46  10
   1  -3 -14 31125.1 1484.97  12
  -1   3  14 31362.9 1514.02  10
  -1   3  14 30458.2 1555.59   4
  -1   3  13 200942. 4543.01   4
   1  -3 -13 206792. 4566.69  12
  -1   3  13 205558. 4389.37  10
  -1   3  12-42.3660 170.219   7
   1  -3 -12 304.477 205.902  12
  -1   3  12-219.683 334.095  10
  -1   3  11 168636. 4017.01   4
  -1   3  11 173830. 3854.34  10
  -1   3  10 39306.0 3710.77   2
  -1   3  10 36012.2 1622.73   4
  -1   3  10 39024.4 1599.98  10
  -1   3   9 201278. 7980.77   2
  -1   3   8 250521. 8416.66   2
  -1   3   7 98497.6 4740.09   2
  -1   3   6 375143. 9154.88   2
  -1   3   5 83034.6 3756.85   2
  -1   3   4 276599. 6970.38   1
  -1   3   3 8960.89 1158.85   1
  -1   3   2 138532. 4612.31   1
  -1   3   1 147607. 4577.77   1
  -1   3   0 233545. 6059.01   1
  -1   3  -1 797866. 12939.9   1
  -1   3  -2 473410. 9387.52   1
  -1   3  -3 14971.1 1565.86   1
  -1   3  -4 75159.8 3740.28   1
  -1   3  -5 93200.4 4479.61   1
  -1   3  -6 238055. 7867.99   1
  -1   3  -7 12724.8 1869.90   1
  -1   3  -8 169056. 7426.14   1
   1  -3   8 165108. 3517.11  10
   1  -3   9 50762.8 1902.18  10
  -1   3  -9 52309.2 4270.68   1
   1  -3  10 95172.6 2761.38  10
   1  -3  11 57097.5 2067.97  10
   1  -3  11 55871.3 2029.89   4
   1  -3  12 1796.94 362.242   4
   1  -3  12 1601.62 367.925  10
   1  -3  13 79426.6 2029.13  10
   1  -3  13 75870.2 1979.10   4
  -1   2  16 60275.9 1641.48  10
  -1   2  15 13376.4 873.010  10
  -1   2  14 85658.7 2572.51  10
  -1   2  14 83186.0 2634.18   4
  -1   2  13 37669.6 1810.41   4
   1  -2 -13 38050.4 1712.31  12
  -1   2  13 36929.4 1692.22  10
  -1   2  12 184245. 4283.53   4
  -1   2  12 187112. 4136.87  10
  -1   2  11 43775.2 1779.02  10
  -1   2  11 43234.4 1860.62   4
  -1   2  11 42937.7 1597.30   7
  -1   2  11 41772.1 4025.75   2
  -1   2  10 11777.6 2007.78   2
  -1   2  10 10292.9 810.385  10
  -1   2  10 10265.3 826.438   4
  -1   2   9 218039. 8293.91   2
  -1   2   8 11761.7 1708.54   2
  -1   2   7 594206. 12598.6   2
  -1   2   6 564393. 11374.3   2
  -1   2   5 103749. 3966.25   2
  -1   2   4 603226. 10235.1   2
  -1   2   3 23016.2 1548.01   1
  -1   2   2 247661. 3078.43   3
  -1   2   2 236448. 5437.24   1
  -1   2   1 45505.1 2074.27   1
  -1   2   0 303587. 6121.45   1
  -1   2  -1 443654. 7675.16   1
  -1   2  -2 7631.41 884.976   1
   1  -2   3 170967. 5196.17   2
   1  -2   4 804.112 487.295   2
   1  -2   5 196014. 6602.70   2
   1  -2   6 55075.6 3684.07   2
   1  -2   7 140664. 6494.21   2
   1  -2   8 146735. 7213.49   2
   1  -2   9 54650.4 4645.43   2
   1  -2   9 52764.2 1834.96  10
   1  -2  10 154249. 3516.07  10
   1  -2  11 15791.7 1057.07  10
   1  -2  11 15876.7 1101.50   4
   1  -2  12 89459.7 2577.34  10
   1  -2  12 89364.7 2663.55   4
   1  -2  13 38521.4 1554.53   4
   1  -2  13 39182.8 1525.95  10
   1  -2  14 55114.2 1634.33   4
   1  -2  14 57441.4 1571.17  10
  -1   1  16 424.966 172.939  10
  -1   1  15 87257.4 2313.88  10
  -1   1  14 14804.9 1029.92   4
  -1   1  14 15657.9 1052.32  10
  -1   1  13 48027.2 2024.20   4
  -1   1  13 49370.1 1963.85  10
  -1   1  12 270911. 5419.83   4
  -1   1  12 274004. 5253.25  10
  -1   1  11 32427.2 1597.58   4
  -1   1  11 36102.6 3707.06   2
  -1   1  11 32856.5 1540.31  10
  -1   1  10 104022. 2724.56  10
  -1   1  10 102966. 2778.63   4
  -1   1  10 98708.6 2416.75   7
  -1   1  10 105878. 6188.30   2
  -1   1   9 107054. 5759.06   2
  -1   1   8 70486.4 4230.97   2
  -1   1   7 215362. 6946.03   2
  -1   1   6 5840.93 969.005   2
  -1   1   5 526050. 9806.53   2
  -1   1   4 69853.3 2750.02   2
  -1   1   3 297980. 3633.35   3
  -1   1   3 297352. 5625.52   2
  -1   1   2 113559. 2888.05   1
  -1   1   1 347284. 5598.34   1
  -1   1   0 564794. 7851.39   1
  -1   1  -1 8096.08 687.124   1
   1  -1   2 55644.1 2215.49   2
   1  -1   3 32352.7 1851.58   2
   1  -1   4 651027. 11181.6   2
   1  -1   5 8029.13 1161.62   2
   1  -1   6 68471.3 3727.92   2
   1  -1   7 380547. 10335.4   2
   1  -1   8 4164.01 1134.76   2
   1  -1   9 178003. 3511.04  10
   1  -1   9 173299. 7943.03   2
   1  -1  10 8204.82 712.579  10
   1  -1  10 9611.28 811.377   4
   1  -1  11 151990. 3514.82  10
   1  -1  11 161319. 3769.51   4
   1  -1  12 100216. 2775.19  10
   1  -1  12 105449. 3017.91   4
   1  -1  13 4861.65 604.473   4
   1  -1  13 5686.35 633.052  10
   1  -1  14 124095. 2707.09  10
   1  -1  14 119268. 2848.55   4
   1  -1  15 2184.02 298.329   4
   1  -1  15 1961.21 236.036  10
  -1   0  16 35524.6 1048.81  10
  -1   0  15 56584.0 1738.77  10
  -1   0  14 7294.41 657.951   4
  -1   0  14 7339.95 721.406  10
  -1   0  13 111000. 3060.71  10
  -1   0  13 105551. 2977.71   4
  -1   0  12 12619.3 1026.15  10
  -1   0  12 13328.0 1043.53   4
  -1   0  11 250558. 4906.00  10
  -1   0  11 253674. 5034.16   4
  -1   0  10 19468.2 1143.76  10
  -1   0  10 20243.2 1181.72   4
  -1   0  10 17818.4 2524.34   2
  -1   0   9 79256.6 4995.35   2
  -1   0   8 373235. 10467.2   2
  -1   0   7 35904.2 2786.84   2
  -1   0   6 388496. 9003.23   2
  -1   0   5 2955.57 695.403   2
  -1   0   4 210489. 2828.09   3
  -1   0   4 212422. 5051.03   2
  -1   0   3 332320. 5915.67   2
  -1   0   3 334961. 3927.95   3
  -1   0   2 80079.3 2161.96   2
  -1   0   1 561472. 6797.76   2
  -1   0   0 1342.44 146.491   1
   1   0   1 464948. 6011.68   2
   1   0   2 24671.5 1136.38   2
   1   0   3 540038. 8297.18   2
   1   0   4 217056. 5168.70   2
   1   0   5 273203. 6638.19   2
   1   0   6 142126. 5151.75   2
   1   0   7 69802.3 3935.22   2
   1   0   8 229857. 8103.22   2
   1   0   9 64784.8 4549.41   2
   1   0  10 27658.1 1340.44   4
   1   0  10 26639.3 1243.62  10
   1   0  10 26986.5 3154.08   2
   1   0  11 72549.7 2374.07   4
   1   0  11 69343.6 2191.85  10
   1   0  12 6794.39 751.480   4
   1   0  12 7073.94 721.172  10
   1   0  13 237659. 4810.58   4
   1   0  13 228972. 4445.74  10
   1   0  14 98503.5 2498.42  10
   1   0  14 99515.2 2734.77   4
   1   0  15 18126.3 961.563   4
   1   0  15 18543.2 845.618  10
  -1  -1  15 550.217 206.289  10
  -1  -1  14 77807.3 2265.02  10
  -1  -1  13 47606.2 1908.06  10
  -1  -1  12 84093.0 2580.47   4
  -1  -1  12 92184.1 2784.50  10
  -1  -1  11 144110. 3556.30   4
  -1  -1  11 154841. 3694.43  10
  -1  -1  10 42242.8 1757.08  10
  -1  -1  10 43890.1 1773.54   4
  -1  -1  10 39096.9 3763.88   2
  -1  -1   9 202799. 4003.10  10
  -1  -1   9 196632. 8197.03   2
  -1  -1   8 18758.3 2306.09   2
  -1  -1   7 210996. 7254.65   2
  -1  -1   6 56710.3 3315.82   2
  -1  -1   5 318319. 7606.47   2
  -1  -1   4 76067.1 1303.88   3
  -1  -1   4 75984.3 3029.97   2
  -1  -1   3 20779.8 1347.50   2
  -1  -1   2 124030. 2974.38   2
  -1  -1   1 86238.3 1915.66   2
   1   1   0 283446. 3628.83   1
   1   1   1 178618. 2270.35   2
   1   1   2 100517. 2105.02   2
   1   1   3 108163. 2733.74   2
   1   1   4 21693.2 1385.61   2
   1   1   5 464965. 8792.46   2
   1   1   6 112412. 4330.18   2
   1   1   7 252037. 7528.73   2
   1   1   8 314730. 9302.24   2
   1   1   9 13743.1 2026.59   2
   1   1  10 216113. 4153.89   4
   1   1  10 212026. 3945.98  10
   1   1  10 215035. 8942.87   2
   1   1  11 18351.9 1080.29  10
   1   1  11 19327.5 2747.19   2
   1   1  11 18732.8 1165.20   4
   1   1  12 45064.4 1896.70   4
   1   1  12 43794.2 1754.40  10
   1   1  13 70453.6 2241.91  10
   1   1  13 74498.8 2491.08   4
   1   1  14 31626.6 1534.31   4
   1   1  14 30106.1 1337.87  10
   1   1  15 86291.8 2099.62  10
   1   1  15 89028.4 2421.61   4
   1   1  16 5.52991 136.546   4
  -1  -2  15 89939.4 1834.88  10
  -1  -2  14 38025.7 1419.53  10
  -1  -2  13 15666.7 1056.82  10
  -1  -2  12 94844.1 2827.15  10
  -1  -2  11 11741.2 968.799  10
  -1  -2  10 178189. 4047.21  10
  -1  -2   9 43381.2 1760.18  10
  -1  -2   9 39252.3 3723.71   2
  -1  -2   8 77748.0 4947.30   2
  -1  -2   8 84316.5 2244.00  11
  -1  -2   8 84383.5 2342.15  10
  -1  -2   7 136511. 6055.11   2
  -1  -2   6 65407.1 3776.59   2
  -1  -2   5 372482. 8788.43   2
  -1  -2   4 11847.2 1316.16   2
  -1  -2   3 441920. 8170.39   2
  -1  -2   2 13066.8 1045.30   2
  -1  -2   1 9349.00 809.083   2
   1   2  -1 9124.98 738.060   1
   1   2   0 290708. 4931.39   1
   1   2   1 596199. 8211.32   1
   1   2   2 711275. 9555.41   1
   1   2   3 727577. 9887.93   2
   1   2   4 59113.4 2373.54   2
   1   2   5 509166. 9255.05   2
   1   2   6 12079.5 1365.10   2
   1   2   7 331459. 8626.13   2
   1   2   8-82.9168 282.680   2
   1   2   9 308120. 9971.69   2
   1   2  10 79510.3 5281.53   2
   1   2  10 83208.7 2344.94   4
   1   2  10 75875.1 2131.80  10
   1   2  11 116113. 6739.51   2
   1   2  11 109824. 2795.79  10
   1   2  11 112398. 2977.54   4
   1   2  12 121730. 3052.14  10
   1   2  12 127884. 3324.45   4
   1   2  13 1993.18 362.798  10
   1   2  13 2872.67 531.163   4
   1   2  14 55033.2 1889.74  10
   1   2  14 58484.1 2162.26   4
   1   2  15 1423.02 276.377  10
   1   2  15 1747.26 386.537   4
  -1  -2 -16 68726.0 1671.06  12
   1   2  16 71974.9 1928.00   4
  -1  -3  14 16327.3 792.865  10
  -1  -3  13 95494.6 2473.42  10
  -1  -3  12 541.402 365.271  10
  -1  -3  11 110739. 3136.41  10
  -1  -3  10 59967.1 2255.23  10
  -1  -3   9 17810.6 2617.82   2
   1   3  -9 16767.2 2249.96   1
  -1  -3   9 20413.3 1263.19  10
  -1  -3   9 23609.9 1284.29  11
  -1  -3   8 69635.3 2120.52  11
  -1  -3   8 70670.2 2293.71  10
  -1  -3   7 3019.35 924.878   2
  -1  -3   6 236678. 8119.70   2
  -1  -3   5 52331.1 3392.06   2
  -1  -3   4 231893. 6792.51   2
  -1  -3   3 324411. 7590.52   2
   1   3  -3 322445. 7127.99   1
   1   3  -2 2542.43 540.721   1
   1   3  -1 189151. 4655.54   1
  -1  -3   0 545691. 6188.58   3
   1   3   0 522061. 8953.28   1
   1   3   1 714999. 10703.2   1
   1   3   2 234817. 5428.81   1
   1   3   3 286381. 6093.11   1
   1   3   5 98949.8 3730.18   2
   1   3   6 199821. 6120.28   2
   1   3   7 29124.0 2454.84   2
   1   3   8 162657. 6478.84   2
   1   3   9 114986. 5879.82   2
   1   3  10 59361.7 4496.49   2
   1   3  10 58532.9 1927.64   4
   1   3  10 57751.1 1836.68  10
   1   3  11 162549. 7858.36   2
   1   3  11 159201. 3632.85   4
   1   3  11 155258. 3444.82  10
   1   3  12 1518.28 327.687  10
   1   3  12 1845.78 401.253   4
   1   3  13 85447.7 2671.82   4
   1   3  13 80664.4 2434.91  10
   1   3  14 3121.79 426.132  10
   1   3  14 4381.19 585.611   4
   1   3  15 67608.9 1902.22  10
   1   3  15 69659.0 2196.52   4
  -1  -3 -16 49392.9 1522.24  12
   1   3  16 51628.6 1612.16   4
  -1  -4  13 16082.6 834.653  10
  -1  -4  12 63841.3 2037.79  10
  -1  -4  11 44914.7 1869.32  10
  -1  -4  10 19159.6 1241.32  10
  -1  -4   9 202414. 4493.31  10
  -1  -4   8 34492.2 1658.06  10
  -1  -4   8 31385.9 1441.55  11
   1   4  -8 32060.6 3157.17   1
   1   4  -7 48173.6 3738.58   1
  -1  -4   7 50222.0 1963.97  10
  -1  -4   7 50465.1 1777.98  11
   1   4  -6 38406.0 3181.02   1
   1   4  -5 35314.1 2836.77   1
   1   4  -4 161249. 5868.78   1
   1   4  -3 6822.69 1096.80   1
   1   4  -2 410637. 8890.75   1
   1   4  -1 227351. 6086.62   1
   1   4   0 231323. 6015.75   1
  -1  -4   0 230689. 3160.86   3
   1   4   1 479985. 9097.34   1
  -1  -4  -1 455631. 5684.60   3
   1   4   2 151966. 4884.24   1
   1   4   3 218424. 5961.85   1
   1   4   4 3705.87 756.761   1
   1   4   5 293291. 7153.33   2
   1   4   6 67236.6 3513.80   2
   1   4   7 123365. 5249.31   2
   1   4   8 109698. 5359.98   2
   1   4   9 19230.3 2381.71   2
   1   4  10 110637. 2787.36   4
   1   4  10 106914. 2672.96  10
   1   4  10 107278. 6024.51   2
   1   4  11 19126.8 1102.71  10
   1   4  11 18818.8 2570.95   2
   1   4  11 19028.1 1165.47   4
   1   4  12 58274.7 2149.09   4
   1   4  12 56943.6 2018.62  10
   1   4  13 42458.0 1705.08  10
   1   4  13 43695.5 1868.10   4
   1   4  14 46544.5 1895.50   4
   1   4  15 60837.4 2004.81   4
  -1  -4 -16 237.214 159.941  12
   1   4  16-66.9961 159.842   4
  -1  -5  12 70694.8 1877.82  10
  -1  -5  11 997.385 309.161  10
  -1  -5  10 50584.3 2001.29  10
  -1  -5   9 12158.1 1016.59  10
  -1  -5   8 146834. 3356.57  11
  -1  -5   8 153289. 3828.35  10
   1   5  -7 256003. 9196.87   1
  -1  -5   7 254633. 5147.39  10
  -1  -5   7 247716. 4642.06  11
  -1  -5   6 2750.92 420.087  11
   1   5  -6 2926.51 914.954   1
  -1  -5   6 2764.33 468.173  10
   1   5  -5 87909.2 4948.57   1
  -1  -5   5 93361.6 2636.29  10
  -1  -5   5 87016.4 2329.58  11
   1   5  -4 7896.37 1425.52   1
   1   5  -3 206947. 7089.34   1
   1   5  -2 99305.6 4609.85   1
   1   5  -1 30232.9 2406.41   1
   1   5   0 227278. 6705.34   1
   1   5   1 238.945 272.854   1
  -1  -5  -1 367.540 139.580   3
   1   5   2 297910. 7968.32   1
   1   5   3 32193.9 2478.33   1
   1   5   4 103150. 4437.20   1
   1   5   5 67342.2 3759.23   1
   1   5   5 70403.3 3548.33   2
   1   5   6 23499.5 2125.52   2
   1   5   7 197333. 6933.25   2
   1   5   8 22663.6 2464.63   2
   1   5   9 121135. 6074.81   2
   1   5   9 125776. 2894.65   4
   1   5  10 11910.3 1926.07   2
   1   5  10 11527.1 862.978   4
   1   5  11 10452.5 1940.28   2
   1   5  11 10962.8 894.115   4
   1   5  12 75272.8 2478.87   4
  -1  -5 -13 25480.8 1335.49   3
   1   5  13 29097.1 1509.80   4
   1   5  14 100177. 2779.00   4
  -1  -5 -15 6787.64 660.438  12
   1   5  15 6898.17 655.496   4
  -1  -5 -16 52635.3 1592.75  12
  -1  -6  11 34198.5 1258.29  10
  -1  -6  10 58207.2 1950.31  10
  -1  -6   9 6870.40 749.655  10
  -1  -6   8 94427.7 2425.10  11
  -1  -6   8 91293.2 2869.93  10
  -1  -6   7 271.438 258.598  10
  -1  -6   7 289.562 178.587  11
  -1  -6   6 197430. 4478.98  10
  -1  -6   6 197545. 3940.97  11
   1   6  -5 13966.6 2094.70   1
  -1  -6   5 13040.1 878.363  11
  -1  -6   5 12965.1 1019.68  10
  -1  -6   4 55378.8 1783.39   9
  -1  -6   4 57581.4 2141.78  10
   1   6  -4 54971.9 4063.31   1
  -1  -6   4 56574.4 1854.58  11
   1   6  -3 119742. 5925.62   1
  -1  -6   3 115742. 2992.32  10
   1   6  -2 62478.4 4013.85   1
   1   6  -1 110664. 5192.46   1
   1   6   0 636.745 477.842   1
   1   6   1 185446. 6675.08   1
  -1  -6  -2 69458.2 1766.20   3
   1   6   2 68268.4 4047.55   1
   1   6   3 17757.7 2051.93   1
   1   6   4 54691.5 3521.35   1
   1   6   5 10893.9 1614.12   1
   1   6   6 177526. 6421.33   2
   1   6   7 42165.7 3216.02   2
  -1  -6  -8 132440. 3186.75   8
   1   6   8 131400. 6066.87   2
   1   6   9 63804.9 2006.25   4
  -1  -6  -9 60784.5 2089.30   8
   1   6   9 60309.7 4226.59   2
   1   6  10 44848.0 1752.69   4
  -1  -6 -10 44796.2 1759.67   8
   1   6  10 41218.8 3618.19   2
   1   6  11 95379.1 2736.11   4
   1   6  12 16295.9 1087.26   4
   1   6  13 132671. 3307.73   4
  -1  -6 -14 7818.74 771.210  12
  -1  -6 -15 32580.9 1374.22  12
  -1  -6 -16 65442.4 1697.42  12
  -1  -7  10 228.928 174.619  10
  -1  -7   9 62409.4 1958.46  10
  -1  -7   8 4789.68 636.465  10
  -1  -7   7 62740.0 2307.95  10
  -1  -7   6 40706.4 1895.72  10
  -1  -7   6 41981.4 1560.16  11
  -1  -7   5 40055.3 1892.19  10
  -1  -7   5 41319.4 1590.94  11
  -1  -7   4 95719.7 2977.65  10
   1   7  -4 95434.4 5481.82   1
  -1  -7   4 96402.3 2546.85  11
  -1  -7   3 2492.40 374.058  11
  -1  -7   3 2488.35 465.683  10
  -1  -7   3 3165.55 402.435   5
  -1  -7   2 133412. 2892.81   5
  -1  -7   2 134723. 3460.02  10
  -1  -7   2 130981. 3011.33  11
   1   7  -2 135802. 6377.17   1
   1   7  -1 13988.4 1974.85   1
  -1  -7   1 13053.3 821.684   5
  -1  -7   1 12291.5 821.956  11
   1   7   0 102590. 5334.18   1
   1   7   1 79352.8 4690.79   1
   1   7   2 25221.0 2651.91   1
  -1  -7  -3 118209. 2603.94   3
   1   7   3 106782. 5490.46   1
   1   7   4 7936.23 1414.00   1
   1   7   5 92134.4 5001.46   1
   1   7   6 100842. 5408.40   1
   1   7   6 107830. 5083.44   2
  -1  -7  -7 33150.9 1388.51  12
   1   7   7 27092.5 2622.57   2
  -1  -7  -8 106086. 2791.65  12
  -1  -7  -9 1828.13 409.296  12
  -1  -7 -10 135962. 3448.02  12
  -1  -7 -11 5388.18 658.765  12
  -1  -7 -12 69296.2 2391.92  12
  -1  -7 -13 118827. 3094.11  12
  -1  -7 -14 40253.8 1598.43  12
  -1  -7 -15 50882.3 1602.69  12
  -1  -7 -16 1591.53 239.186  12
  -1  -8   9 19164.1 830.562  10
  -1  -8   8 22419.2 1077.23  10
  -1  -8   7 24327.9 1279.36  10
  -1  -8   6 16466.2 1128.99  10
  -1  -8   5 80792.3 2669.91  10
  -1  -8   4 13242.2 1089.90  10
  -1  -8   3 48443.0 2094.04  10
  -1  -8   3 47887.5 1695.63   5
  -1  -8   2 50166.6 1763.87   5
  -1  -8   2 49944.0 1755.89  11
  -1  -8   2 51411.9 2134.05  10
  -1  -8   1 27057.9 1290.58  11
  -1  -8   1 25453.8 1236.85   5
   1   8  -1 27804.4 2924.95   1
  -1  -8   1 27574.5 1513.08  10
   1   8   0 166373. 7330.90   1
  -1  -8   0 172850. 3607.58  11
  -1  -8   0 174456. 3605.31   5
  -1  -8  -1 1507.77 311.210  11
  -1  -8  -1 2463.97 403.312   5
  -1  -8  -2 67755.9 2113.09   5
   1   8   2 67394.7 4546.73   1
  -1  -8  -2 68354.9 2135.26  11
   1   8   3 9473.82 1643.43   1
  -1  -8  -3 10630.7 803.382   5
  -1  -8  -3 9531.77 793.282  11
   1   8   4 107551. 5567.00   1
  -1  -8  -4 102609. 2782.67  11
  -1  -8  -4 105887. 2717.42   5
  -1  -8  -5 118801. 2873.85   3
  -1  -8  -5 114189. 2853.20   5
  -1  -8  -5 113748. 3014.23  11
   1   8   5 107710. 5664.69   1
   1   8   6 43667.5 3608.35   1
  -1  -8  -6 41672.1 1662.07   5
  -1  -8  -7 119466. 2940.07   5
  -1  -8  -8 8793.00 737.526   5
  -1  -8  -8 7821.25 690.655  12
  -1  -8  -9 83664.3 2368.13   5
  -1  -8  -9 90769.0 2579.10  12
  -1  -8 -10 41263.9 1543.84   5
  -1  -8 -10 39372.9 1703.51  12
  -1  -8 -11 35878.4 1613.29  12
  -1  -8 -11 36438.6 1347.93   5
  -1  -8 -12 68165.2 2206.56  12
  -1  -8 -13 243.347 206.139  12
  -1  -8 -14 108530. 2501.21  12
  -1  -8 -15 4907.87 425.473  12
  -1  -9   8 57978.0 1339.29  10
  -1  -9   7 378.997 164.666  10
  -1  -9   6 57126.5 1821.50  10
  -1  -9   5 17889.8 1103.75  10
  -1  -9   4 18855.3 1202.91  10
  -1  -9   3 50351.5 1678.30   5
  -1  -9   3 51265.3 2071.93  10
  -1  -9   2 2972.39 517.905  10
  -1  -9   2 2095.45 352.420   5
  -1  -9   1 96420.6 2593.37   5
  -1  -9   1 101871. 3064.87  10
  -1  -9   0 14102.7 943.985   5
  -1  -9   0 12366.4 1036.00  10
  -1  -9  -1 114860. 2914.47   5
  -1  -9  -1 116068. 2843.40  11
  -1  -9  -2 86479.9 2452.31  11
  -1  -9  -2 88145.5 2509.74   5
  -1  -9  -3 11582.0 859.424   5
  -1  -9  -3 11293.7 861.136  11
  -1  -9  -4 127797. 3078.58   5
  -1  -9  -4 122269. 3114.84  11
  -1  -9  -5 443.706 211.657  11
  -1  -9  -5-22.1154 177.142   5
  -1  -9  -6 126045. 3259.93  11
  -1  -9  -6 130658. 3110.97   5
  -1  -9  -6 123336. 2939.77   3
  -1  -9  -7 6013.65 630.513   5
  -1  -9  -7 5035.80 628.398  11
  -1  -9  -7 5700.87 618.733   3
  -1  -9  -8 47973.1 1830.36   3
  -1  -9  -8 49750.3 1765.79   5
  -1  -9  -9 66745.3 2213.63   3
  -1  -9  -9 71983.5 2088.58   5
  -1  -9 -10 11023.0 856.951   3
  -1  -9 -10 10691.4 736.589   5
  -1  -9 -10 12777.2 851.911  12
  -1  -9 -11 47293.8 1457.78   5
  -1  -9 -11 48442.8 1694.18  12
  -1  -9 -12 1185.66 275.289  12
  -1  -9 -13 47483.8 1506.43  12
  -1  -9 -14 29260.2 1019.80  12
  -1  -9 -15 8066.33 460.877  11
  -1 -10   6 35391.3 1056.39  10
  -1 -10   5 9914.37 646.827  10
  -1 -10   4 79527.2 2148.43  10
  -1 -10   3 3215.54 464.512  10
  -1 -10   2 48248.8 1885.79  10
  -1 -10   2 48219.8 1579.89   5
  -1 -10   1 21174.5 1091.34   5
  -1 -10   1 20789.5 1269.36  10
  -1 -10   0 44275.7 1661.60   5
  -1 -10   0 47388.1 1947.62  10
  -1 -10  -1 40468.7 1609.26   5
  -1 -10  -1 39721.6 1799.39  10
  -1 -10  -2 2777.20 429.674   5
  -1 -10  -3 75699.3 2170.17  11
  -1 -10  -3 73976.5 2257.64   5
  -1 -10  -4 11966.9 874.169   5
  -1 -10  -4 9786.41 748.644  11
  -1 -10  -5 48475.6 1770.22  11
  -1 -10  -5 49269.7 1802.62   5
  -1 -10  -6 31247.1 1416.98  11
  -1 -10  -6 31600.2 1402.38   5
  -1 -10  -7 38532.2 1524.13   5
  -1 -10  -7 37755.2 1582.60  11
  -1 -10  -8 63505.6 2087.24  11
  -1 -10  -8 65725.3 1963.48   5
  -1 -10  -9 944.106 280.142  11
  -1 -10  -9 1158.98 272.731   5
  -1 -10 -10 44728.2 1437.48   5
  -1 -10 -10 46357.1 1691.34  11
  -1 -10 -11 3793.42 474.700  11
  -1 -10 -11 3158.41 334.248   5
  -1 -10 -12 28859.1 1161.25  11
  -1 -10 -13 33936.5 1119.65  11
  -1 -11   4 7729.44 451.157  10
  -1 -11   3 33350.0 1135.76  10
  -1 -11   2 28655.6 1151.51  10
  -1 -11   1 9746.01 729.904  10
  -1 -11   0 56132.9 1678.60   5
  -1 -11   0 57075.2 1879.02  10
  -1 -11  -1 1274.17 291.982   5
  -1 -11  -1 1485.46 343.559  10
  -1 -11  -2 36898.6 1423.82   5
  -1 -11  -2 36678.2 1568.83  10
  -1 -11  -3 21251.4 1079.68   5
  -1 -11  -4 18652.5 1021.17   5
  -1 -11  -5 28362.2 1251.53   5
  -1 -11  -6 3363.84 432.690   5
  -1 -11  -6 3179.61 386.655  11
  -1 -11  -7 54311.2 1682.35   5
  -1 -11  -7 50613.7 1575.78  11
  -1 -11  -8 3030.47 374.890  11
  -1 -11  -8 3547.21 412.052   5
  -1 -11  -9 31614.8 1129.36   5
  -1 -11  -9 32580.1 1193.61  11
  -1 -11 -10 34814.0 1173.59  11
  -1 -11 -10 34594.0 1077.05   5
  -1 -11 -11 6836.31 466.341  11
  -1 -11 -11 6218.30 362.477   5
  -1 -11 -12 31562.2 891.818  11
  -1 -12   1 24977.5 819.569  10
  -1 -12   0 3858.85 361.111  10
  -1 -12  -1 27301.5 1033.85  10
  -1 -12  -2 14301.8 720.841   5
  -1 -12  -2 13839.9 755.055  10
  -1 -12  -3 3740.04 388.481   5
  -1 -12  -3 4615.65 450.346  10
  -1 -12  -4 36764.7 1233.47   5
  -1 -12  -4 34912.8 1263.45  10
  -1 -12  -5 223.750 176.814   5
  -1 -12  -5-3.01894 142.449  10
  -1 -12  -6 32728.5 1126.39   5
  -1 -12  -7 13413.8 674.466   5
  -1 -12  -8 9032.83 518.572   5
  -1 -12  -9 18295.5 675.726   5
   2 -12  -6 2952.60 295.021  10
   2 -12  -5 18825.8 751.248  10
   2 -12  -4-109.841 123.153  10
   2 -12  -3 34809.5 987.467  10
  -2  12   1 22857.2 790.098   8
   2 -11 -11 19750.9 738.997  12
   2 -11 -10 12796.1 656.463  12
   2 -11  -9 6575.83 500.030  12
   2 -11  -8 73786.5 1877.59  12
   2 -11  -7 4101.90 442.953  12
   2 -11  -6 30702.5 1184.92  12
   2 -11  -5 3508.26 391.467  12
   2 -11  -4 50638.0 1459.17  12
   2 -11  -3 27694.3 1212.49  10
   2 -11  -2 24139.7 1092.88  10
   2 -11  -1 49274.2 1534.54  10
   2 -11   0 435.146 176.003  10
   2 -11   1 43689.7 1208.17  10
  -2  11  -2 17448.0 803.461   8
  -2  11  -3 17605.9 686.556   8
   2 -10 -13 3629.15 308.483  12
   2 -10 -12 25506.1 986.781  12
   2 -10 -11 26391.6 1114.38  12
   2 -10 -10 9479.39 719.457  12
   2 -10  -9 41043.0 1577.73  12
   2 -10  -8 7840.33 709.606  12
   2 -10  -7 65108.8 2113.22  12
   2 -10  -6 3732.38 496.493  12
   2 -10  -5 43060.1 1693.11  12
   2 -10  -5 44749.6 1592.91   5
   2 -10  -4 134565. 3121.48  12
   2 -10  -4 129182. 3051.43   5
   2 -10  -3 158.485 191.128   5
   2 -10  -3 313.425 157.675  12
   2 -10  -2 67663.7 1992.08  12
   2 -10  -1 2705.08 451.836  10
   2 -10   0 73985.4 2222.41  10
   2 -10   1 40893.7 1543.76  10
   2 -10   2 10319.3 706.296  10
   2 -10   3 71157.0 1763.31  10
  -2  10  -3 72552.9 2055.01   8
  -2  10  -4 4486.39 453.257   8
  -2  10  -5 34348.4 1022.52   8
   2  -9 -14 13098.4 611.927  12
  -2   9  14 13999.7 615.203   7
   2  -9 -13 19517.1 903.377  12
   2  -9 -12 55452.8 1758.76  12
   2  -9 -11 3054.99 459.134  12
   2  -9 -10 97234.5 2726.01  12
   2  -9  -9 15580.7 1078.05  12
   2  -9  -8 25749.8 1405.82  12
   2  -9  -7 40924.4 1801.00  12
   2  -9  -6 42804.6 1843.28  12
   2  -9  -5 78827.7 2536.56  12
   2  -9  -5 79417.7 2305.64   5
   2  -9  -4 3748.45 499.080   5
   2  -9  -4 4546.33 581.454  12
   2  -9  -3 149817. 3595.02   5
   2  -9  -3 145477. 3547.60  12
   2  -9  -2 149251. 3714.33   5
   2  -9  -2 148202. 3499.60  12
   2  -9  -1 8943.35 845.739   5
   2  -9  -1 8728.71 751.898  12
   2  -9   0 49524.4 1954.67  10
   2  -9   0 51662.4 1784.99  12
   2  -9   1 2676.10 429.163  10
   2  -9   2 80782.7 2419.41  10
   2  -9   3 23866.4 1195.47  10
   2  -9   4 55871.6 1743.20  10
  -2   9  -4 57123.3 2011.86   8
   2  -9   5 46888.6 1411.74  10
  -2   9  -5 47222.8 1640.89   8
  -2   9  -6 6089.09 504.604   8
   2  -8 -14 3892.24 406.478  12
  -2   8  14 5029.72 445.120   7
   2  -8 -13 28387.0 1243.62  12
   2  -8 -12 2115.73 416.364  12
   2  -8 -11 112217. 3057.77  12
   2  -8 -10 53554.0 2109.66  12
   2  -8  -9 22729.2 1381.02  12
   2  -8  -8 92165.3 2882.68  12
   2  -8  -7 842.844 338.963  12
   2  -8  -6 120305. 3315.94  12
   2  -8  -5 21671.7 1328.72  12
  -2   8   5 20996.1 2773.70   1
   2  -8  -4 34046.4 1556.11   5
  -2   8   4 33613.6 3508.41   1
   2  -8  -4 33557.8 1635.14  12
  -2   8   3 75296.2 5413.65   1
   2  -8  -3 77052.8 2543.02   5
   2  -8  -3 75600.3 2458.93  12
   2  -8  -2 7619.15 811.195   5
  -2   8   2 6681.98 1621.98   1
   2  -8  -2 6469.46 698.459  12
   2  -8  -1 203836. 4276.63  12
   2  -8  -1 206038. 4615.76   5
   2  -8   0 10922.3 965.447   5
   2  -8   0 11850.2 901.282  12
   2  -8   1 71112.3 2222.24  12
   2  -8   1 71215.4 2369.31  10
   2  -8   2 59363.2 1942.91  12
   2  -8   2 59536.8 2139.79  10
   2  -8   3 21569.4 1237.35  10
   2  -8   4 140108. 3308.03  10
  -2   8  -5 2744.79 492.037   8
   2  -8   5 2066.36 340.593  10
   2  -8   6 45113.9 1514.98  10
  -2   8  -6 43849.2 1699.05   8
  -2   8  -7 1233.69 248.676   8
  -2   8  -8 46538.1 1218.27   8
  -2   7  15 2494.42 267.845   7
   2  -7 -15 2210.05 258.158  12
   2  -7 -14 99498.7 2370.81  12
  -2   7  14 100343. 2347.35   7
   2  -7 -13 26943.1 1312.92  12
   2  -7 -12 6345.83 696.091  12
   2  -7 -11 90631.8 2848.23  12
   2  -7 -10 17884.7 1247.66  12
   2  -7  -9 130603. 3585.22  12
   2  -7  -8 19940.9 1312.81  12
   2  -7  -7 200042. 4513.31  12
  -2   7   7 201167. 8522.19   2
  -2   7   6 102525. 6112.59   1
   2  -7  -6 109418. 3134.11  12
   2  -7  -5 31999.0 1603.16  12
  -2   7   5 29331.2 3184.81   1
  -2   7   4 249007. 9601.75   1
   2  -7  -4 238083. 4780.29  12
  -2   7   3 10216.1 1898.13   1
   2  -7  -3 11821.5 946.740   5
   2  -7  -3 12878.2 942.565  12
   2  -7  -2 123011. 3253.96   5
   2  -7  -2 115962. 3017.37  12
  -2   7   2 112871. 6539.45   1
   2  -7  -1 21440.6 1295.10   5
  -2   7   1 20761.5 2760.87   1
   2  -7  -1 21401.3 1199.80  12
   2  -7   0 56785.7 2002.62  12
  -2   7   0 59432.5 4649.14   1
   2  -7   0 57498.1 2205.75   5
  -2   7  -1 62693.8 4762.14   1
   2  -7   1 63787.3 2126.01  12
   2  -7   1 63169.7 2353.93   5
   2  -7   2 26917.0 1321.68  12
   2  -7   2 26067.3 1346.77  10
  -2   7  -2 26572.3 3099.67   1
   2  -7   3 117824. 3062.99  10
   2  -7   3 125434. 2996.02  12
   2  -7   4 37547.4 1632.57  10
   2  -7   4 36244.3 1493.32  12
   2  -7   5 93499.7 2636.48  10
  -2   7  -6 5302.77 645.597   8
   2  -7   6 5129.40 562.501  10
   2  -7   7 49075.8 1668.73  10
  -2   7  -7 49863.5 1865.26   8
  -2   7  -8 80964.5 2172.40   8
  -2   7  -9 981.161 182.773   8
  -2   6  15 49241.0 1337.43   7
   2  -6 -15 49744.6 1378.50  12
   2  -6 -14 34741.4 1407.96  12
  -2   6  14 33491.1 1350.21   7
   2  -6 -13 35274.1 1595.30  12
   2  -6 -12 122339. 3343.65  12
   2  -6 -11 25230.1 1482.37  12
   2  -6 -10 89912.4 2939.18  12
  -2   6   9 40717.4 3828.35   2
   2  -6  -9 40252.4 1919.88  12
   2  -6  -8 56018.6 2238.40  12
  -2   6   8 57705.0 4428.52   2
   2  -6  -7 155860. 3873.73  12
  -2   6   7 159866. 7280.58   2
  -2   6   6-285.768 391.086   1
   2  -6  -6 1818.07 395.733  12
  -2   6   5 179423. 7633.91   1
  -2   6   4 46686.8 3828.38   1
  -2   6   3 182571. 7871.02   1
  -2   6   2 48073.2 3967.02   1
  -2   6   1 111072. 6043.86   1
  -2   6   0 114432. 6025.24   1
  -2   6  -1 2071.61 836.577   1
   2  -6   2 146110. 3278.48  12
  -2   6  -2 149290. 7103.69   1
   2  -6   3 3655.42 480.023  12
  -2   6  -3 2633.80 969.405   1
   2  -6   4 34078.4 1480.22  10
   2  -6   4 34697.2 1485.97  12
  -2   6  -4 35100.2 3552.70   1
   2  -6   5 120981. 3011.55  10
   2  -6   5 120136. 2930.51  12
   2  -6   6 57001.4 1978.70  10
  -2   6  -6 58495.4 2241.49   8
   2  -6   6 58513.7 1911.08  12
   2  -6   7 65265.7 2093.36  10
  -2   6  -7 65595.1 2307.13   8
  -2   6  -8 3259.14 472.513   8
  -2   6  -9 107949. 2549.87   8
   2  -6  10 64542.3 1604.41   4
  -2   5  15 81402.2 1818.78   7
  -2   5  14 834.001 244.346   7
   2  -5 -14 845.083 261.765  12
  -2   5  13 85300.6 2546.50   7
   2  -5 -13 86017.8 2645.54  12
   2  -5 -12 17628.8 1214.95  12
   2  -5 -11 105527. 3208.42  12
  -2   5  10 79581.7 2502.96  10
   2  -5 -10 81187.8 2786.71  12
  -2   5   9 52457.5 4319.59   2
   2  -5  -9 49775.5 2126.95  12
  -2   5   8 209314. 8414.86   2
   2  -5  -8 204180. 4554.05  12
  -2   5   7 5186.68 1259.45   2
  -2   5   6 120463. 5820.07   2
  -2   5   5 88473.0 4936.63   1
  -2   5   4 99467.0 5139.77   1
  -2   5   3 131291. 6111.00   1
  -2   5   2 52440.2 3812.39   1
  -2   5   1 173315. 6992.07   1
  -2   5   0 8244.65 1504.79   1
  -2   5  -1 270043. 8855.13   1
  -2   5  -2 80899.6 4804.22   1
  -2   5  -3 83579.5 5080.57   1
  -2   5  -4 101624. 5784.97   1
   2  -5   4 95772.6 2504.85  12
  -2   5  -5 6741.05 1517.34   1
   2  -5   5 4776.55 540.047  12
  -2   5  -6 263521. 5174.88   8
  -2   5  -6 273105. 10140.9   1
   2  -5   6 263586. 4778.20  12
   2  -5   7 42177.5 1653.79  12
  -2   5  -7 38197.8 1743.13   8
  -2   5  -8 18947.7 1165.10   8
  -2   5  -9 81725.2 2391.35   8
  -2   5 -10 8659.56 642.808   8
   2  -5  11 124696. 2527.16   4
  -2   4  14 85933.4 2261.07   7
  -2   4  14 84242.6 2394.26  10
  -2   4  13 36809.3 1594.89   7
   2  -4 -13 36163.7 1654.92  12
  -2   4  13 35727.4 1603.60  10
  -2   4  12 28672.2 1452.83  10
   2  -4 -12 28904.6 1581.00  12
  -2   4  11 201814. 4292.89  10
   2  -4 -11 199742. 4617.33  12
  -2   4  10 2391.93 394.325  10
  -2   4  10 3507.25 1168.77   2
   2  -4 -10 2617.87 522.080  12
  -2   4   9 158184. 3479.06  10
  -2   4   9 160896. 7492.48   2
   2  -4  -9 156387. 3956.92  12
  -2   4   8 2762.73 931.475   2
  -2   4   7 180870. 7091.72   2
  -2   4   6 100075. 4973.09   2
  -2   4   5 2957.62 750.791   1
  -2   4   4 70845.4 3893.83   1
  -2   4   3 65836.7 3823.13   1
  -2   4   2 400711. 10191.9   1
  -2   4   1 74113.4 4017.04   1
  -2   4   0 57822.7 3538.13   1
  -2   4  -1 359993. 9492.96   1
  -2   4  -2 5894.31 1168.29   1
  -2   4  -3 166791. 6564.78   1
  -2   4  -4 1873.21 680.474   1
  -2   4  -5 391107. 11283.4   1
  -2   4  -6 134389. 6580.63   1
  -2   4  -6 141339. 3353.57   8
   2  -4   6 136493. 3134.82  12
   2  -4   7 45222.6 1744.26  12
  -2   4  -7 45831.1 1833.73   8
  -2   4  -7 41279.3 3735.92   1
  -2   4  -8 198267. 4186.36   8
   2  -4   8 193010. 4035.99  12
  -2   4  -9 2970.58 464.937   8
  -2   4 -10 103605. 2629.73   8
   2  -4  11 34591.6 1427.83   4
   2  -4  12 48345.0 1512.38   4
   2  -4  13 56494.8 1280.38   4
  -2   3  15 53143.6 1662.48  10
  -2   3  14 46812.6 1567.46   7
  -2   3  14 45386.3 1715.76  10
  -2   3  13 9738.74 840.174  10
  -2   3  13 10916.7 830.503   7
  -2   3  12 92094.7 2741.44  10
  -2   3  12 96746.9 2781.86   7
  -2   3  11 8630.38 787.283  10
   2  -3 -11 9672.18 931.995  12
  -2   3  10 147839. 3417.82  10
  -2   3  10 141647. 3694.76   4
   2  -3 -10 143161. 3802.08  12
  -2   3  10 155272. 7463.91   2
  -2   3   9 39702.6 1752.17   4
  -2   3   9 35749.5 3356.43   2
   2  -3  -9 39386.9 1860.45  12
  -2   3   9 38442.6 1527.49  10
  -2   3   8 173199. 7102.15   2
  -2   3   7 163448. 6466.06   2
  -2   3   6 1182.87 500.417   2
  -2   3   5 340632. 8549.70   2
  -2   3   4 10003.9 1322.59   1
  -2   3   3 158078. 2572.54   3
  -2   3   3 160498. 5262.95   1
  -2   3   2 72048.4 3582.45   1
  -2   3   2 78437.9 1547.92   3
  -2   3   1 481420. 5683.33   3
  -2   3   1 464091. 9919.57   1
  -2   3   0 287496. 7459.69   1
  -2   3   0 300091. 3739.51   3
  -2   3  -1 119684. 4694.71   1
  -2   3  -1 112441. 1711.04   3
  -2   3  -2 486255. 10434.8   1
  -2   3  -3 187544. 6220.28   1
  -2   3  -4 195126. 6636.76   1
  -2   3  -5 382982. 10161.9   1
  -2   3  -6 12150.7 1828.95   1
   2  -3   7 238372. 4421.10  12
  -2   3  -7 248061. 8843.67   1
  -2   3  -7 237156. 4430.30   8
   2  -3   8 64321.4 2148.15  12
  -2   3  -8 59974.7 4449.37   1
  -2   3  -8 63060.1 2089.75   8
  -2   3  -9 110808. 2907.83   8
  -2   3 -10 42262.0 1667.52   8
   2  -3  11 40182.4 1687.01   4
   2  -3  12 102032. 2607.82   4
   2  -3  13 235.487 163.831   4
  -2   2  15 59540.8 1747.45  10
  -2   2  14 21621.2 1165.29  10
  -2   2  13 121795. 3141.19  10
  -2   2  13 120589. 2914.59   7
  -2   2  12 54509.8 2059.55  10
  -2   2  12 57064.7 2021.73   7
  -2   2  11 55890.2 2062.82  10
  -2   2  11 56782.6 2261.47   4
  -2   2  11 57314.3 2074.26   7
  -2   2  10 84934.1 2470.55  10
  -2   2  10 82547.0 2680.34   4
  -2   2  10 87522.9 5580.39   2
  -2   2  10 82789.5 2503.13   7
  -2   2   9 9542.41 745.157  10
  -2   2   9 9453.60 1679.37   2
  -2   2   9 11029.1 887.574   4
  -2   2   8 257039. 8650.63   2
  -2   2   7 556.752 408.144   2
  -2   2   6 184970. 6247.90   2
  -2   2   5 374267. 8588.07   2
  -2   2   4 389913. 5076.11   3
  -2   2   4 394903. 8273.16   2
  -2   2   3 787108. 8929.56   3
  -2   2   3 790048. 12376.6   1
  -2   2   2 2033.50 506.504   1
  -2   2   2 1885.05 216.674   3
  -2   2   1 564711. 6485.03   3
  -2   2   1 548673. 9769.62   1
  -2   2   0 11753.3 478.519   3
  -2   2   0 12668.3 1220.77   1
  -2   2  -1 150529. 2183.21   3
  -2   2  -1 162251. 4835.98   1
  -2   2  -2 492492. 5587.45   3
  -2   2  -2 484027. 9360.37   1
  -2   2  -3 149880. 4848.09   1
  -2   2  -4 268020. 7086.42   1
  -2   2  -5 3627.84 827.564   1
  -2   2  -6 243796. 7638.42   1
  -2   2  -7 160385. 6514.63   1
  -2   2  -8 46251.0 3678.48   1
  -2   2  -8 47606.2 1702.90   8
   2  -2   8 50588.1 1832.30  12
  -2   2  -9 161731. 7338.48   1
  -2   2  -9 158353. 3468.39   8
  -2   2 -10 6311.89 627.488   8
   2  -2  11 98912.5 2836.24   4
   2  -2  12 3340.20 505.594   4
   2  -2  13 63341.5 1975.90   4
   2  -2  14 39687.4 1302.57   4
  -2   1  15 10247.8 682.066  10
  -2   1  14 68557.1 2109.93  10
  -2   1  13 42900.9 1768.78  10
  -2   1  12 55355.2 2065.85  10
  -2   1  12 55059.1 1938.70   7
  -2   1  12 53346.0 2165.09   4
  -2   1  11 189435. 4137.07  10
  -2   1  11 192032. 4419.67   4
  -2   1  11 194464. 4078.66   7
  -2   1  10 5626.07 628.404  10
  -2   1  10 6152.93 705.559   4
  -2   1  10 5387.83 598.507   7
  -2   1   9 208618. 8214.89   2
  -2   1   9 200731. 3940.14   7
  -2   1   9 203831. 3918.73  10
  -2   1   8 97625.2 5110.72   2
  -2   1   7 142319. 5697.55   2
  -2   1   6 77189.0 3777.15   2
  -2   1   5 20967.7 834.665   3
  -2   1   5 19369.7 1689.97   2
  -2   1   4 735202. 8512.89   3
  -2   1   4 743511. 11804.0   2
  -2   1   3 30420.4 902.415   3
  -2   1   3 31745.1 1733.69   2
  -2   1   2 679335. 7706.53   3
  -2   1   1 41071.7 997.829   3
  -2   1   1 46230.2 1730.71   1
  -2   1   0 369527. 6273.66   1
  -2   1   0 367984. 4485.28   3
  -2   1  -1 771855. 8392.51   3
  -2   1  -1 726166. 10841.9   1
  -2   1  -2 48804.6 2172.64   1
  -2   1  -2 48490.8 1042.43   3
  -2   1  -3 535306. 8980.64   1
  -2   1  -3 515363. 5983.00   3
  -2   1  -4 55876.2 1159.17   3
   2  -1   5 89329.5 4287.93   2
   2  -1   6 56884.5 3694.02   2
   2  -1   7 22573.5 2531.89   2
   2  -1   8 181214. 7888.65   2
   2  -1   9 5168.35 1375.41   2
  -2   1  -9 5312.16 543.599   8
  -2   1 -10 152142. 3332.43   8
  -2   1 -11 46471.7 1670.52   8
   2  -1  11 46773.1 1915.27   4
   2  -1  12 40079.2 1760.47   4
   2  -1  13 100658. 2734.46   4
   2  -1  14 28.4235 173.455   4
   2  -1  15 65634.5 1579.65   4
  -2   0  15 41123.3 1324.55  10
  -2   0  14 107929. 2651.33  10
  -2   0  13 3609.15 543.088  10
  -2   0  12 178821. 4013.72  10
  -2   0  11 2247.97 392.049   7
  -2   0  11 2075.86 484.168  10
  -2   0  10 179274. 3871.24  10
  -2   0  10 178108. 7895.45   2
  -2   0  10 176623. 3765.86   7
  -2   0   9 135021. 3111.09  10
  -2   0   9 132883. 3040.81   7
  -2   0   9 130971. 6473.80   2
  -2   0   8 77810.9 4595.09   2
  -2   0   7 197420. 6878.65   2
  -2   0   6 40516.2 2724.88   2
  -2   0   5 510565. 6398.64   3
  -2   0   5 524213. 9963.78   2
  -2   0   4 237605. 3401.41   3
  -2   0   4 233477. 5571.20   2
  -2   0   3 367888. 4660.09   3
  -2   0   3 369524. 6526.73   2
  -2   0   2 260193. 3478.84   3
  -2   0   2 253444. 4572.08   2
  -2   0   1 8103.24 416.860   3
  -2   0   1 7986.21 532.844   2
  -2   0   0 123014. 1975.35   3
  -2   0  -1 85577.9 1834.70   1
  -2   0  -1 85575.3 1559.81   3
  -2   0  -2 670573. 7617.51   3
  -2   0  -2 675092. 8969.11   1
  -2   0  -3 105332. 1838.72   3
   2   0   4 187199. 5111.25   2
  -2   0  -4 176216. 2693.06   3
   2   0   5 400298. 8768.41   2
  -2   0  -5 388223. 4983.19   3
   2   0   6 503.386 435.420   2
  -2   0  -6 725.232 149.491   3
   2   0   7 69609.8 4144.53   2
   2   0   8 10352.8 1767.57   2
   2   0   9 136723. 6890.73   2
  -2   0  -9 139030. 3007.56   8
   2   0  10 130372. 7111.46   2
  -2   0 -10 132700. 3011.35   8
  -2   0 -11 36884.4 1473.23   8
   2   0  11 37669.8 1664.90   4
   2   0  12 97603.3 2829.00   4
   2   0  13 9731.32 853.991   4
   2   0  14 114085. 2804.17   4
   2   0  15 28663.0 1143.60   4
  -2  -1  15 80649.0 1714.19  10
  -2  -1  14 1401.78 297.790  10
  -2  -1  13 55358.6 1955.82  10
  -2  -1  12 81393.7 2540.29  10
  -2  -1  11 173876. 3966.02  10
  -2  -1  11 175547. 3629.56   9
  -2  -1  10 114234. 3063.24  10
  -2  -1   9 1162.90 586.048   2
  -2  -1   9 686.247 235.907  10
  -2  -1   9 586.717 213.747   7
  -2  -1   8 304489. 4948.85   7
  -2  -1   8 296915. 4968.44  10
  -2  -1   8 299593. 4948.70  11
  -2  -1   8 286765. 9315.42   2
  -2  -1   7 18001.7 2074.09   2
  -2  -1   6 123109. 4994.04   2
  -2  -1   5 30408.4 2156.43   2
  -2  -1   5 32086.5 999.229   3
  -2  -1   4 300750. 4058.77   3
  -2  -1   4 300091. 6600.62   2
  -2  -1   3 216942. 3109.18   3
  -2  -1   3 213469. 4766.15   2
  -2  -1   2 13637.7 567.699   3
  -2  -1   2 14041.1 895.905   2
  -2  -1   1 169200. 2655.66   2
   2   1  -1 162345. 2356.10   1
  -2  -1   1 166536. 2505.68   3
  -2  -1   0 118226. 1992.74   3
  -2  -1  -1 63901.8 1372.43   3
  -2  -1  -2 242852. 3437.02   3
  -2  -1  -3 17413.5 718.548   3
   2   1   3 18888.9 1089.07   2
  -2  -1  -4 509700. 6421.11   3
   2   1   4 530044. 8572.62   2
   2   1   5 7613.97 996.910   2
  -2  -1  -5 8471.96 542.206   3
  -2  -1  -6 230541. 3678.64   3
   2   1   6 226888. 6535.35   2
   2   1   7 144728. 5693.61   2
  -2  -1  -7 147289. 2822.02   3
   2   1   8 151027. 6425.61   2
  -2  -1  -8 168390. 3121.10   3
   2   1   9 316351. 10331.1   2
  -2  -1  -9 312094. 5009.57   8
  -2  -1 -10 4818.97 515.369   8
   2   1  10 5644.77 598.253   4
  -2  -1 -11 215746. 4071.75   8
   2   1  11 216879. 4401.99   4
   2   1  12 10397.1 894.524   4
   2   1  13 61104.5 2170.12   4
   2   1  14 112455. 2869.23   4
   2   1  15 23567.4 1096.54   4
   2   1  16 85752.6 1793.53   4
  -2  -2  14 40122.8 1306.27  10
  -2  -2  13 35720.5 1474.24  10
  -2  -2  12 2929.35 562.794  10
  -2  -2  11 130239. 3376.32  10
  -2  -2  11 130222. 2911.47   9
  -2  -2  10 29986.2 1526.71  10
  -2  -2  10 29824.1 1344.08   9
  -2  -2   9 95230.1 2732.30  10
  -2  -2   9 87099.5 5323.69   2
  -2  -2   9 94946.8 2530.75   9
  -2  -2   9 95918.4 2686.13  11
  -2  -2   8 79428.7 2331.28  10
  -2  -2   8 79576.5 2334.90  11
  -2  -2   7 105468. 5247.93   2
  -2  -2   6 283176. 8184.48   2
  -2  -2   5 1297.12 499.766   2
  -2  -2   4 224517. 5884.29   2
  -2  -2   4 224544. 3226.69   3
  -2  -2   3 3072.38 275.099   3
  -2  -2   3 3452.46 605.864   2
  -2  -2   2 519462. 8044.05   2
   2   2  -2 524751. 7770.61   1
  -2  -2   2 520967. 6267.80   3
   2   2  -1 311439. 4887.55   1
  -2  -2   1 307268. 4120.82   3
  -2  -2   0 69942.0 1511.07   3
  -2  -2  -1 305514. 4194.94   3
  -2  -2  -2 35230.8 1106.44   3
  -2  -2  -3 542070. 6889.94   3
   2   2   3 544628. 7115.30   2
  -2  -2  -4 330983. 4851.48   3
   2   2   4 337020. 6023.97   2
  -2  -2  -5 254584. 4147.67   3
   2   2   5 246539. 5849.05   2
  -2  -2  -6 106374. 2524.67   3
   2   2   6 105312. 4137.39   2
   2   2   7 3248.62 788.576   2
  -2  -2  -7 4549.76 514.517   3
   2   2   8 588021. 13507.4   2
  -2  -2  -8 622772. 8604.79   3
   2   2   9 8413.60 1563.62   2
  -2  -2  -9 8921.46 754.183   3
  -2  -2  -9 7794.34 635.413   8
   2   2   9 7374.42 612.494   4
  -2  -2 -10 240114. 4355.66   8
   2   2  10 245915. 4478.67   4
  -2  -2 -11 84075.9 2373.09   8
   2   2  11 84825.6 2510.89   4
   2   2  12 48940.6 1913.62   4
   2   2  13 80618.0 2512.16   4
   2   2  14 6325.67 660.576   4
   2   2  15 161412. 3271.39   4
   2   2  16 30334.6 1070.21   4
  -2  -3  13 490.245 244.224  10
  -2  -3  12 76169.2 2278.91  10
  -2  -3  11 14446.5 1049.25  10
  -2  -3  10 123262. 3318.66  10
  -2  -3  10 124764. 2883.41   9
  -2  -3   9 27215.4 1462.89  10
  -2  -3   9 28177.1 1307.74   9
  -2  -3   9 28044.0 1428.33  11
  -2  -3   8 6232.35 674.420  10
  -2  -3   8 6482.62 614.188   9
  -2  -3   8 6567.08 666.737  11
  -2  -3   7 137421. 3185.77  10
  -2  -3   7 131503. 6182.10   2
  -2  -3   7 139818. 3213.80  11
  -2  -3   7 133160. 2983.09   9
   2   3  -7 128218. 5508.97   1
  -2  -3   6 10364.2 1576.61   2
   2   3  -6 9448.35 1348.17   1
  -2  -3   5 280348. 8034.55   2
   2   3  -5 282779. 7427.70   1
  -2  -3   4 69116.9 3442.97   2
   2   3  -4 67007.5 3139.58   1
  -2  -3   3 149274. 2387.00   3
   2   3  -3 148689. 4484.30   1
  -2  -3   2 414587. 5243.51   3
   2   3  -2 429947. 7741.75   1
  -2  -3   1 5324.97 397.479   3
   2   3  -1 5905.72 728.925   1
  -2  -3   0 469644. 5988.10   3
   2   3   0 473218. 7348.74   1
   2   3   1 27198.2 1283.46   1
  -2  -3  -1 24798.0 961.313   3
  -2  -3  -2 530524. 6958.14   3
  -2  -3  -3 264978. 4303.66   3
  -2  -3  -4 171480. 3430.13   3
   2   3   5 280865. 6313.90   2
  -2  -3  -5 303682. 5300.67   3
  -2  -3  -6 53269.1 2124.07   3
   2   3   6 44038.2 2649.96   2
   2   3   7 314656. 8595.56   2
  -2  -3  -7 360551. 6655.63   3
  -2  -3  -8 165436. 4272.74   3
  -2  -3  -9 216439. 4065.32   8
  -2  -3  -9 212949. 4364.82   6
   2   3   9 211267. 3851.05   4
  -2  -3 -10 175633. 3707.25   8
   2   3  10 176813. 3662.39   4
  -2  -3 -10 184726. 4234.03   3
  -2  -3 -11 13926.0 953.328   8
   2   3  11 14439.1 970.360   4
  -2  -3 -12 160096. 3498.32   8
   2   3  12 157103. 3651.79   4
   2   3  13 28663.5 1434.80   4
   2   3  14 61111.8 2039.78   4
   2   3  15 32070.8 1312.35   4
   2   3  16 33551.3 1141.08   4
  -2  -4  13 43972.3 1220.66  10
  -2  -4  12 40787.1 1459.77  10
  -2  -4  11 41809.0 1678.21  10
  -2  -4  10 99534.5 2885.53  10
  -2  -4   9 15726.6 1118.99  10
  -2  -4   9 16248.3 971.243   9
  -2  -4   9 16589.4 1088.88  11
  -2  -4   8 139449. 3448.11  11
  -2  -4   8 148948. 3684.22  10
  -2  -4   8 146031. 3294.82   9
  -2  -4   7 32158.4 1548.73  10
  -2  -4   7 32117.6 1411.62   9
  -2  -4   7 30600.5 1482.96  11
  -2  -4   6 144119. 3365.08  10
  -2  -4   6 143980. 3322.15  11
  -2  -4   6 144152. 3150.53   9
   2   4  -4 105620. 4455.20   1
   2   4  -3 299488. 7509.64   1
   2   4  -2 5844.86 901.028   1
  -2  -4   1 239406. 3610.89   3
   2   4  -1 266536. 6262.18   1
   2   4   0 263202. 5996.41   1
  -2  -4   0 240949. 3743.70   3
   2   4   1 407490. 7836.96   1
  -2  -4  -1 403880. 5646.82   3
  -2  -4  -2 326750. 5082.19   3
   2   4   2 352936. 6833.49   1
  -2  -4  -3 127727. 2886.91   3
  -2  -4  -4 500064. 7569.76   3
  -2  -4  -5 73642.0 2755.50   3
  -2  -4  -6 146073. 5142.15   3
  -2  -4  -8 33591.9 2252.34   3
  -2  -4  -9 153603. 3403.22   8
   2   4   9 144699. 2998.10   4
  -2  -4 -10-25.8588 166.447   8
  -2  -4 -10 161.850 301.876   3
   2   4  10 264.708 175.898   4
  -2  -4 -11 145533. 3392.21   8
   2   4  11 143753. 3322.08   4
  -2  -4 -12 53108.4 1890.98   8
   2   4  12 50709.2 1922.36   4
   2   4  13 27039.7 1365.54   4
   2   4  14 122785. 2958.80   4
   2   4  15 194.909 158.242   4
   2   4  16 54378.1 1452.03   4
  -2  -4 -16 61628.3 1619.24  12
  -2  -5  12 11939.4 637.522  10
  -2  -5  11 135755. 2911.54  10
  -2  -5  10 8850.64 765.786  10
  -2  -5   9 99716.4 2900.35  10
  -2  -5   9 102544. 2707.53  11
  -2  -5   8 47547.8 1995.44  10
  -2  -5   8 47458.7 1868.81  11
  -2  -5   8 47872.2 1726.85   9
  -2  -5   7 70845.9 2468.32  10
  -2  -5   7 70092.1 2199.80   9
  -2  -5   7 70091.1 2329.22  11
  -2  -5   6 175613. 3876.20  11
  -2  -5   6 173652. 3994.56  10
  -2  -5   6 171852. 3700.33   9
  -2  -5   5 20568.8 1223.83  10
  -2  -5   5 19796.8 1097.24   9
  -2  -5   5 21790.9 1208.75  11
  -2  -5   4 340243. 5671.75  10
  -2  -5   4 342265. 5501.50   9
  -2  -5   4 335400. 5643.51  11
  -2  -5   0 3065.07 331.689   3
  -2  -5  -1 449160. 6232.96   3
  -2  -5  -2 139.599 164.734   3
  -2  -5  -3 38517.7 1548.02   3
  -2  -5  -4 38062.9 1711.33   3
  -2  -5  -5 233634. 5147.81   3
  -2  -5  -6 489793. 9307.21   3
  -2  -5  -7 3592.74 842.467   3
  -2  -5  -8 140201. 3308.99   8
  -2  -5  -8 145894. 3513.04   6
  -2  -5  -9 15327.4 1047.92   8
  -2  -5  -9 14811.1 1387.48   3
  -2  -5 -10 96671.2 2771.79   8
   2   5  10 97699.3 2507.35   4
  -2  -5 -11 80227.2 2490.80   8
   2   5  11 79590.5 2336.37   4
  -2  -5 -12 16075.3 1052.16   8
   2   5  12 18382.5 1099.03   4
  -2  -5 -12 14416.3 1120.13   3
   2   5  13 92363.5 2556.05   4
   2   5  14 4780.21 533.829   4
   2   5  15 73257.5 1927.18   4
  -2  -5 -16 31847.2 1096.41  12
  -2  -6  11 14777.8 696.217  10
  -2  -6  10 41128.2 1463.12  10
  -2  -6   9 67025.6 2156.08  10
  -2  -6   8 19083.1 1200.37  10
  -2  -6   8 16824.5 1022.79  11
  -2  -6   7 182789. 4200.95  10
  -2  -6   7 185619. 3786.23   9
  -2  -6   7 185997. 3955.86  11
  -2  -6   6 21985.7 1344.70  10
  -2  -6   6 23097.5 1261.05   9
  -2  -6   6 24004.0 1322.55  11
  -2  -6   5 110046. 3134.52  10
  -2  -6   5 108992. 2904.88   9
  -2  -6   5 109263. 2969.44  11
  -2  -6   4 58689.6 2161.55  10
  -2  -6   4 57412.4 2027.23   9
  -2  -6   4 59105.8 2103.74  11
  -2  -6   3 82598.0 2527.78  10
  -2  -6   3 83630.6 2433.29   9
  -2  -6   3 85181.6 2529.77  11
  -2  -6   2 93622.3 2513.98   9
  -2  -6   2 91527.6 2572.10  10
  -2  -6   2 94199.7 2612.45  11
  -2  -6  -1 126928. 2661.15   3
  -2  -6  -2 240140. 4277.66   3
  -2  -6  -3 57360.4 1977.69   3
  -2  -6  -4 17202.6 1126.28   3
  -2  -6  -5 160451. 3995.29   3
  -2  -6  -6 3905.87 674.268   3
  -2  -6  -7 258657. 5721.76   3
  -2  -6  -7 247851. 4882.19   8
  -2  -6  -7 250514. 4755.53   6
  -2  -6  -8 128414. 3863.79   3
  -2  -6  -8 122804. 3281.99   8
  -2  -6  -9 45729.7 2214.12   3
  -2  -6  -9 47365.6 1957.07   8
  -2  -6 -10 146999. 4089.92   3
  -2  -6 -10 148457. 3675.56   8
  -2  -6 -11 1509.91 452.381   3
  -2  -6 -11 1131.45 340.803   8
   2   6  12 103754. 2632.66   4
  -2  -6 -12 94990.1 3017.50   3
  -2  -6 -12 99514.6 2752.78   8
   2   6  13 12813.2 844.675   4
  -2  -6 -14 71668.9 2163.08  12
  -2  -6 -15 43846.5 1465.22  12
  -2  -6 -16 6274.66 435.161  12
  -2  -7  10 39704.8 1105.41  10
  -2  -7   9-230.043 243.472  10
  -2  -7   8 52426.9 1815.31  10
  -2  -7   7 6541.22 607.067  11
  -2  -7   7 6805.39 708.266  10
  -2  -7   6 102725. 2978.55  10
  -2  -7   6 106931. 2772.09  11
  -2  -7   6 106603. 2674.70   9
  -2  -7   5 165801. 3677.64   9
  -2  -7   5 162436. 3955.28  10
  -2  -7   5 166325. 3713.55  11
  -2  -7   4 11308.1 980.252  10
  -2  -7   4 11786.4 919.419   9
  -2  -7   4 12163.8 938.081  11
  -2  -7   3 84572.3 2719.01  10
  -2  -7   3 82052.8 2515.48   9
  -2  -7   3 87281.3 2625.42  11
  -2  -7   2 5702.14 653.515  11
  -2  -7   2 6143.78 684.963  10
  -2  -7   2 6809.24 686.792   9
  -2  -7   1 85009.8 2155.86   5
  -2  -7   1 86084.9 2644.87  10
  -2  -7   1 87711.3 2556.90   9
  -2  -7   1 89553.8 2643.73  11
  -2  -7   0 79979.9 2476.81  11
  -2  -7   0 83263.2 2153.06   5
  -2  -7   0 83986.7 2457.30   9
  -2  -7  -1 57395.5 1799.34   5
  -2  -7  -1 60492.5 2124.06  11
  -2  -7  -2 242532. 4755.98  11
  -2  -7  -2 246688. 4360.86   5
  -2  -7  -3 3682.11 517.297  11
  -2  -7  -3 3430.64 459.428   3
  -2  -7  -4 119582. 3202.94  11
  -2  -7  -4 122531. 3182.09   3
  -2  -7  -5 52243.8 2117.10   3
  -2  -7  -5 48490.4 1663.53   6
  -2  -7  -6 72161.6 2520.99   8
  -2  -7  -6 72998.7 2602.38   3
  -2  -7  -7 105537. 3163.57   8
  -2  -7  -7 107048. 3272.95   3
  -2  -7  -8 20916.8 1421.44   3
  -2  -7  -8 21892.4 1377.81   8
  -2  -7  -9 169757. 4109.70   8
  -2  -7  -9 173284. 4317.46   3
  -2  -7  -9 168772. 3649.76  12
  -2  -7 -10 3492.07 606.559   3
  -2  -7 -10 3119.40 517.572   8
  -2  -7 -11 72687.9 2618.54   3
  -2  -7 -11 71304.2 2405.09   8
  -2  -7 -11 71188.8 2316.44  12
  -2  -7 -12 45729.7 1791.59  12
  -2  -7 -13 45071.0 1681.98  12
  -2  -7 -14 61035.7 1814.80  12
  -2  -7 -15 3287.32 351.638  12
  -2  -8   8 37029.9 1226.78  10
  -2  -8   7 4971.17 523.176  10
  -2  -8   7 6358.05 496.642  11
  -2  -8   6 45395.6 1729.78  10
  -2  -8   6 43468.9 1469.12  11
  -2  -8   5 2443.11 390.383  11
  -2  -8   5 1942.91 387.423  10
  -2  -8   4 70944.9 2437.06  10
  -2  -8   4 71977.0 2214.60  11
  -2  -8   3 66845.9 2391.23  10
  -2  -8   3 66401.1 2199.95  11
  -2  -8   2 30736.1 1604.26  10
  -2  -8   2 31623.7 1515.84  11
  -2  -8   1 57087.8 2097.33  11
  -2  -8   1 57270.9 1786.30   5
  -2  -8   1 58242.6 2213.20  10
  -2  -8   0 9943.04 744.794   5
  -2  -8   0 9887.66 890.930  10
  -2  -8   0 10116.0 859.891  11
  -2  -8  -1 181830. 4049.25  11
  -2  -8  -1 178477. 3634.95   5
  -2  -8  -2 10816.1 905.577  11
  -2  -8  -2 12218.1 855.379   5
  -2  -8  -3 155611. 3780.33  11
  -2  -8  -3 154663. 3427.15   5
  -2  -8  -4 51080.2 2086.94  11
  -2  -8  -4 52314.3 1903.82   5
  -2  -8  -4 57459.6 1995.43   3
  -2  -8  -5 45554.0 1983.26  11
  -2  -8  -5 45732.5 1782.33   5
  -2  -8  -5 47076.3 1917.93   3
  -2  -8  -6 106484. 3085.30   3
  -2  -8  -6 106804. 3148.49  11
  -2  -8  -7 3706.00 586.849   3
  -2  -8  -8 167325. 4086.87   3
  -2  -8  -9 21986.1 1377.20   3
  -2  -8 -10 42097.0 1917.61   3
  -2  -8 -11 33657.7 1397.55  12
  -2  -8 -12 3930.28 468.388  12
  -2  -8 -12 3047.83 374.341   5
  -2  -8 -13 113064. 2152.88   5
  -2  -8 -13 113472. 2513.97  12
  -2  -8 -14 1713.96 254.219  12
  -2  -9   7 53890.4 1300.19  10
  -2  -9   6 10387.6 660.640  10
  -2  -9   5 42440.2 1257.77  11
  -2  -9   5 42511.1 1536.39  10
  -2  -9   4 20530.5 1145.55  10
  -2  -9   4 20884.0 978.657  11
  -2  -9   3 15093.0 1029.11  10
  -2  -9   3 15326.5 906.650  11
  -2  -9   2 92842.9 2759.94  10
  -2  -9   2 91276.9 2489.88  11
  -2  -9   1 1343.09 342.222  11
  -2  -9   1 1045.38 320.028  10
  -2  -9   1 1217.42 264.614   5
  -2  -9   0 96950.4 2476.87   5
  -2  -9   0 99573.4 2942.12  10
  -2  -9   0 97887.1 2741.95  11
  -2  -9  -1 39924.6 1556.98   5
  -2  -9  -1 35581.9 1703.92  10
  -2  -9  -1 38322.1 1682.19  11
  -2  -9  -2 58330.3 2123.47  11
  -2  -9  -2 56045.8 1922.63   5
  -2  -9  -3 81572.4 2597.96  11
  -2  -9  -3 83818.5 2405.52   5
  -2  -9  -4 18889.8 1108.29   5
  -2  -9  -4 19066.5 1218.96  11
  -2  -9  -5 142545. 3630.28  11
  -2  -9  -5 144345. 3335.98   5
  -2  -9  -6 9044.64 769.627   5
  -2  -9  -6 7854.10 725.025   3
  -2  -9  -6 7694.66 805.242  11
  -2  -9  -7 84801.8 2707.36  11
  -2  -9  -7 87210.5 2504.95   5
  -2  -9  -7 78229.2 2484.45   3
  -2  -9  -8 51491.0 2077.34  11
  -2  -9  -8 52919.3 1898.01   5
  -2  -9  -8 51336.1 1986.54   3
  -2  -9  -9 20037.1 1208.02   3
  -2  -9  -9 22016.6 1328.56  11
  -2  -9  -9 21262.5 1137.23   5
  -2  -9 -10 49934.1 1685.15   5
  -2  -9 -11 390.668 175.865   5
  -2  -9 -12 32205.8 1096.11   5
  -2  -9 -13 24757.3 1095.11  11
  -2  -9 -14 36533.6 1163.36  11
  -2 -10   5 30141.4 934.007  10
  -2 -10   4 9309.51 605.760  10
  -2 -10   3 54987.2 1710.15  10
  -2 -10   2 2032.60 278.184  11
  -2 -10   2 2656.12 420.854  10
  -2 -10   1 78187.8 1918.29   5
  -2 -10   1 78310.6 2327.46  10
  -2 -10   1 79218.2 2063.85  11
  -2 -10   0 38829.5 1394.64   5
  -2 -10   0 38508.3 1634.63  10
  -2 -10   0 39169.4 1482.39  11
  -2 -10  -1 16601.2 934.213   5
  -2 -10  -1 17030.0 1087.64  10
  -2 -10  -1 16938.4 995.204  11
  -2 -10  -2 60224.7 1887.89   5
  -2 -10  -2 60191.1 2118.88  10
  -2 -10  -2 59542.0 1990.16  11
  -2 -10  -3-67.7987 240.953  11
  -2 -10  -3 22.6839 164.430   5
  -2 -10  -4 51700.6 1795.15   5
  -2 -10  -4 51581.1 1904.01  11
  -2 -10  -5 20503.0 1188.71  11
  -2 -10  -5 21132.8 1141.68   5
  -2 -10  -6 40588.6 1700.15  11
  -2 -10  -6 42179.9 1622.27   5
  -2 -10  -7 77537.9 2404.00  11
  -2 -10  -7 83363.8 2306.36   5
  -2 -10  -8 409.190 249.439  11
  -2 -10  -8 810.513 271.351   5
  -2 -10  -9 67986.0 2145.16  11
  -2 -10  -9 69281.4 1943.27   5
  -2 -10 -10 6520.47 632.735  11
  -2 -10 -10 7610.58 578.199   5
  -2 -10 -11 37610.5 1400.40  11
  -2 -10 -11 35352.7 1148.50   5
  -2 -10 -12 20281.0 719.584   5
  -2 -10 -12 21512.5 951.747  11
  -2 -10 -13 3982.01 360.734  11
  -2 -11   2 31661.9 1001.95  10
  -2 -11   1 54054.5 1501.11  10
  -2 -11   0 1451.79 270.909  10
  -2 -11   0 1079.89 183.879   5
  -2 -11  -1 50510.7 1459.79   5
  -2 -11  -1 49788.3 1600.31  10
  -2 -11  -1 50973.3 1404.22  11
  -2 -11  -2 1755.86 278.100  11
  -2 -11  -2 1994.65 322.870  10
  -2 -11  -2 2152.31 316.698   5
  -2 -11  -3 41809.9 1411.37   5
  -2 -11  -3 42690.2 1501.01  10
  -2 -11  -3 41616.6 1410.00  11
  -2 -11  -4 50841.7 1584.62   5
  -2 -11  -4 46415.6 1577.50  10
  -2 -11  -4 46268.3 1536.79  11
  -2 -11  -5 1665.57 296.802  11
  -2 -11  -5 1679.90 309.491   5
  -2 -11  -6 53801.4 1680.73  11
  -2 -11  -6 56177.2 1688.98   5
  -2 -11  -7 1551.15 286.597  11
  -2 -11  -7 1905.62 317.965   5
  -2 -11  -8 24783.1 1082.25  11
  -2 -11  -8 26576.3 1059.01   5
  -2 -11  -9 22407.0 990.453  11
  -2 -11  -9 24632.2 954.000   5
  -2 -11 -10 17345.2 726.297   5
  -2 -11 -10 18895.0 846.014  11
  -2 -11 -11 35980.8 1088.41  11
  -2 -11 -11 36796.3 940.770   5
  -2 -12  -2 11649.4 530.857   5
  -2 -12  -3 36844.6 1064.60   5
  -2 -12  -4 13.9553 106.044   5
  -2 -12  -5 46329.5 1252.13   5
  -2 -12  -5 41410.0 1043.86  11
  -2 -12  -6 13174.8 633.004   5
  -2 -12  -6 10722.9 506.911  11
  -2 -12  -7 17196.8 707.769   5
  -2 -12  -7 14622.3 591.052  11
  -2 -12  -8 13998.1 599.737   5
  -2 -12  -8 12591.7 521.525  11
  -2 -12  -9 2665.29 240.764   5
   3 -11  -9 52492.4 1290.87  12
   3 -11  -8 1911.66 267.491  12
   3 -11  -7 52698.9 1443.86  12
   3 -11  -6 1585.47 257.461  12
   3 -11  -5 49793.9 1410.47  12
   3 -11  -4 20276.6 841.009  12
   3 -11  -3 21119.3 809.486  12
  -3  11   3 21358.3 785.415   8
  -3  11   2 27900.3 950.226   8
  -3  11   1 983.688 189.101   8
  -3  11   0 48451.6 1260.55   8
  -3  11  -1 2491.80 257.691   8
   3 -10 -11 13023.3 655.112  12
   3 -10 -10 40697.5 1327.62  12
   3 -10  -9 532.525 228.788  12
   3 -10  -8 65710.6 1946.40  12
   3 -10  -7 12613.7 861.094  12
   3 -10  -6 47585.9 1718.27  12
   3 -10  -5 47001.8 1721.25  12
   3 -10  -4 1847.23 371.729  12
   3 -10  -3 78582.9 2230.55  12
   3 -10  -2 3378.15 432.492  12
   3 -10  -1 41528.6 1443.24  12
   3 -10   0 14230.6 759.567  12
  -3  10  -1 53515.7 1719.01   8
  -3  10  -2 67656.7 1861.46   8
  -3  10  -3 2161.32 301.971   8
  -3  10  -4 50739.5 1277.43   8
  -3   9  13 66625.5 1437.89   7
   3  -9 -12 6291.52 492.307  12
   3  -9 -11 73657.5 1973.39  12
   3  -9 -10 6065.81 604.734  12
   3  -9  -9 44558.4 1742.13  12
   3  -9  -8 51512.5 1953.84  12
   3  -9  -7 38766.2 1731.34  12
   3  -9  -6 54608.2 2090.82  12
   3  -9  -5 4.27018 243.260  12
   3  -9  -4 79809.7 2586.96  12
   3  -9  -3 36014.2 1690.80  12
   3  -9  -2 58097.1 2145.53  12
   3  -9  -1 60450.3 2122.63  12
   3  -9   0 14598.9 963.888  12
   3  -9   1 108637. 2662.02  12
  -3   9  -2 614.876 298.063   8
   3  -9   2 1022.92 244.275  12
  -3   9  -3 106520. 2785.83   8
   3  -9   3 101806. 2165.74  12
  -3   9  -4 30629.0 1317.62   8
  -3   9  -5 15797.3 836.568   8
  -3   9  -6 55334.9 1354.32   8
  -3   8  14 63640.4 1383.59   7
  -3   8  13 1310.71 257.425   7
   3  -8 -13 1256.31 220.301  12
   3  -8 -12 50746.7 1629.03  12
   3  -8 -11 14663.7 947.265  12
   3  -8 -10 52552.6 1971.21  12
   3  -8  -9 70051.6 2417.13  12
   3  -8  -8 388.205 302.321  12
   3  -8  -7 188298. 4404.82  12
   3  -8  -6 2464.49 509.714  12
   3  -8  -5 64073.3 2441.25  12
   3  -8  -4 69449.5 2536.64  12
   3  -8  -3 60197.0 2326.64  12
   3  -8  -2 146249. 3774.24  12
   3  -8  -1 29.9299 221.169  12
   3  -8   0 119681. 3239.57  12
   3  -8   1 21295.7 1258.62  12
   3  -8   2 90981.6 2604.39  12
   3  -8   3 107033. 2716.27  12
  -3   8  -3 108840. 3235.63   8
  -3   8  -4 12563.4 1024.62   8
   3  -8   4 11849.8 775.722  12
  -3   8  -5 116354. 2959.49   8
   3  -8   5 109609. 2318.10  12
  -3   8  -6 6847.35 613.748   8
  -3   8  -7 70613.6 1766.99   8
  -3   7  14 7360.30 512.630   7
  -3   7  13 58167.2 1806.67   7
   3  -7 -13 54215.1 1619.87  12
   3  -7 -12 43954.4 1651.44  12
   3  -7 -11 16331.4 1083.98  12
   3  -7 -10 129262. 3419.34  12
   3  -7  -9 841.324 281.378  12
   3  -7  -8 131089. 3647.32  12
   3  -7  -7 96272.8 3113.58  12
   3  -7  -6 168975. 4289.75  12
  -3   7   5 72423.5 5030.34   1
   3  -7  -5 90050.4 2973.98  12
   3  -7  -4 3889.50 603.602  12
  -3   7   4 2403.27 910.211   1
  -3   7   3 195969. 8414.02   1
   3  -7  -3 191382. 4487.73  12
   3  -7  -2 1249.32 330.783  12
  -3   7   2 1328.80 871.688   1
   3  -7  -1 284806. 5600.86  12
  -3   7   1 257038. 10156.1   1
   3  -7   0 175374. 4177.13  12
   3  -7   1 6662.50 724.719  12
   3  -7   2 60249.6 2208.78  12
   3  -7   3 530.732 279.637  12
  -3   7  -4 106767. 3287.71   8
   3  -7   4 105577. 2843.44  12
  -3   7  -5 29160.5 1597.02   8
   3  -7   5 31608.9 1388.93  12
  -3   7  -6 67847.6 2307.96   8
   3  -7   6 65661.5 1903.31  12
  -3   7  -7 77104.8 2272.06   8
  -3   7  -8 990.416 233.697   8
   3  -7   9 57804.0 1241.34   4
  -3   6  14 49214.3 1505.52   7
  -3   6  13 75099.2 2234.31   7
   3  -6 -13 75597.1 2035.05  12
  -3   6  12 1495.06 411.815   7
   3  -6 -12 1301.62 339.505  12
   3  -6 -11 108099. 3092.71  12
   3  -6 -10 8596.90 883.364  12
   3  -6  -9 115088. 3456.31  12
   3  -6  -8 85613.6 2998.41  12
  -3   6   7 38266.0 3601.39   2
   3  -6  -7 39238.1 2001.97  12
   3  -6  -6 297078. 6066.65  12
  -3   6   6 278555. 9983.79   2
   3  -6  -5 5812.32 726.573  12
  -3   6   5 4056.55 1146.50   1
  -3   6   4 94160.6 5593.85   1
   3  -6  -4 97935.2 3049.51  12
  -3   6   3 51995.7 4125.12   1
   3  -6  -3 56446.8 2221.67  12
  -3   6   2 110277. 6310.23   1
   3  -6  -2 115969. 3230.34  12
   3  -6  -1 196580. 4377.00  12
  -3   6   1 188366. 8415.52   1
  -3   6   0 82157.6 5413.49   1
   3  -6   0 78675.0 2603.92  12
  -3   6  -1 253049. 9636.11   1
   3  -6   1 239302. 4930.08  12
   3  -6   2 49468.4 2003.18  12
  -3   6  -2 48452.6 4039.32   1
  -3   6  -3 38550.7 3577.76   1
   3  -6   3 39733.3 1771.66  12
   3  -6   4 84251.8 2620.44  12
  -3   6  -4 78847.3 2829.42   8
  -3   6  -5 30416.0 1684.64   8
   3  -6   5 30423.8 1499.27  12
   3  -6   6 105328. 2800.51  12
  -3   6  -6 99476.8 3069.81   8
   3  -6   7 3454.31 461.154  12
  -3   6  -7 2228.44 447.331   8
  -3   6  -8 45289.1 1739.27   8
  -3   6  -9 28397.8 1179.44   8
  -3   6 -10 36998.9 1038.93   8
   3  -6  10 40410.5 1132.31   4
  -3   5  14 119853. 2613.90   7
  -3   5  13 3392.77 500.005   7
  -3   5  12 151133. 3731.25   7
   3  -5 -12 142757. 3451.69  12
   3  -5 -11 155020. 3912.22  12
   3  -5 -10 43441.8 2085.20  12
   3  -5  -9 54891.6 2424.83  12
  -3   5   8 39100.2 3619.43   2
   3  -5  -8 38772.6 2067.33  12
  -3   5   7 285504. 10005.1   2
   3  -5  -7 319720. 6554.92  12
  -3   5   6 20326.4 2493.13   2
   3  -5  -6 23746.2 1528.78  12
   3  -5  -5 142538. 3759.78  12
  -3   5   4 160676. 6926.76   1
  -3   5   3 15417.7 2098.69   1
  -3   5   2 307286. 10058.2   1
  -3   5   1 48789.7 3921.27   1
  -3   5   0 180626. 7719.94   1
  -3   5  -1 41305.5 3543.31   1
   3  -5   1 40897.4 1721.81  12
  -3   5  -2 57834.7 4215.51   1
   3  -5   2 51899.9 1972.83  12
  -3   5  -3 167645. 7369.43   1
   3  -5   3 148193. 3575.96  12
   3  -5   4 815.780 275.432  12
  -3   5  -4 386.942 393.263   1
  -3   5  -4 650.940 272.259   8
  -3   5  -5 215836. 4847.02   8
   3  -5   5 217484. 4524.08  12
  -3   5  -6 6519.37 766.462   8
   3  -5   6 6477.68 705.864  12
  -3   5  -7 44970.9 1971.05   8
   3  -5   7 46756.2 1847.65  12
  -3   5  -8 50523.3 1990.31   8
  -3   5  -9 11498.6 862.172   8
  -3   5 -10 68542.0 1883.47   8
   3  -5  11 1204.13 218.776   4
  -3   4  14 16131.7 894.944   7
  -3   4  13 85757.2 2498.76   7
  -3   4  12 60610.5 2267.32   7
  -3   4  11 8952.58 913.008   7
  -3   4  10 318169. 5485.28  10
   3  -4 -10 321847. 6639.51  12
  -3   4   9 17140.1 1017.35  10
  -3   4   9 18458.6 2472.00   2
   3  -4  -9 18842.4 1517.03  12
  -3   4   8 101485. 5742.45   2
   3  -4  -8 107131. 3823.26  12
  -3   4   7 86636.8 5103.96   2
   3  -4  -7 95355.0 3488.32  12
  -3   4   6 97823.1 5229.50   2
  -3   4   5 128502. 5825.85   2
  -3   4   4 455.640 381.754   1
  -3   4   3 240728. 7720.90   1
  -3   4   2 79384.7 4392.09   1
  -3   4   2 75695.3 1811.89   3
  -3   4   1 142964. 2568.64   3
  -3   4   1 132839. 5993.92   1
  -3   4   0 185783. 2939.62   3
  -3   4   0 185790. 7135.22   1
  -3   4  -1 10074.2 1610.43   1
  -3   4  -2 319035. 9716.48   1
  -3   4  -3 6888.30 1357.71   1
   3  -4   3 7204.92 668.449  12
  -3   4  -4 107588. 2962.20   8
   3  -4   4 103507. 2809.09  12
  -3   4  -4 106472. 5730.08   1
  -3   4  -5 88466.4 5319.73   1
  -3   4  -5 84002.6 2679.86   8
   3  -4   5 84852.7 2576.36  12
  -3   4  -6 194109. 4398.01   8
   3  -4   6 195779. 4211.98  12
  -3   4  -7 87623.0 2794.22   8
   3  -4   7 82720.4 2576.14  12
   3  -4   8 875.507 317.885  12
  -3   4  -8 1408.03 379.127   8
  -3   4  -9 81249.2 2546.80   8
  -3   4 -10 1453.36 316.613   8
  -3   4 -11 98158.6 2230.67   8
   3  -4  11 102166. 2403.58   4
   3  -4  12 46627.6 1329.96   4
  -3   3  13 92350.7 2409.52  10
  -3   3  13 96630.2 2635.49   7
  -3   3  12 2353.56 386.927  10
  -3   3  12 3227.34 528.440   7
  -3   3  11 68589.9 2200.64  10
  -3   3  11 72707.1 2551.75   7
  -3   3  10 29035.3 1369.54  10
  -3   3  10 30416.1 1638.86   7
  -3   3   9 157536. 3382.43  10
  -3   3   9 160366. 7259.75   2
  -3   3   8 201807. 7940.23   2
  -3   3   7 25351.4 2611.25   2
  -3   3   6 241269. 7913.12   2
  -3   3   5 23080.5 2226.46   2
  -3   3   4 329723. 4910.51   3
  -3   3   4 340300. 8745.20   2
  -3   3   3 234144. 3764.98   3
  -3   3   3 243894. 6884.07   1
  -3   3   2 150665. 2719.51   3
  -3   3   2 160080. 5388.24   1
  -3   3   1 213820. 3338.93   3
  -3   3   1 207356. 6557.80   1
  -3   3   0 5969.03 421.642   3
  -3   3   0 5736.08 1051.10   1
  -3   3  -1 270402. 3781.07   3
  -3   3  -1 257937. 7700.61   1
  -3   3  -2 85110.6 4391.85   1
  -3   3  -3 195731. 7075.83   1
  -3   3  -4 120454. 5657.09   1
  -3   3  -5 6060.39 1247.15   1
   3  -3   5 5138.92 574.463  12
   3  -3   6 326246. 5699.20  12
  -3   3  -6 328924. 5794.47   8
  -3   3  -7 9924.15 882.468   8
   3  -3   7 9724.17 848.798  12
  -3   3  -8 100911. 2972.00   8
   3  -3   8 100294. 2902.56  12
  -3   3  -9 64607.8 2299.65   8
  -3   3 -10 43420.8 1764.18   8
  -3   3 -11 74119.8 2135.64   8
   3  -3  11 76879.7 2260.45   4
  -3   3 -12 13847.4 696.516   8
   3  -3  12 14016.7 830.912   4
   3  -3  13 72776.2 1670.71   4
  -3   2  14 99059.1 2241.46  10
  -3   2  14 97635.3 2191.89   9
  -3   2  13 5220.78 552.058  10
  -3   2  13 4970.14 571.858   7
  -3   2  12 60539.3 2035.75  10
  -3   2  12 65325.2 2252.18   7
  -3   2  11 83282.5 2465.98  10
  -3   2  11 88224.1 2782.54   7
  -3   2  10 46032.8 1757.45  10
  -3   2  10 48785.5 2046.24   7
  -3   2   9 192373. 3796.54  10
  -3   2   9 193678. 4351.32   7
  -3   2   9 199275. 7970.43   2
  -3   2   8 7029.08 1472.68   2
  -3   2   8 8368.99 773.614   7
  -3   2   7 239203. 7919.43   2
  -3   2   6 53499.8 3370.70   2
  -3   2   5 132891. 2744.46   3
  -3   2   5 139727. 5176.66   2
  -3   2   4 505775. 6728.79   3
  -3   2   4 532127. 10409.2   2
  -3   2   3 39858.5 1263.19   3
  -3   2   3 43329.7 2483.26   2
  -3   2   2 397126. 5355.88   3
  -3   2   1 17243.8 761.195   3
  -3   2   0 374055. 5014.83   3
  -3   2  -1 230743. 3445.18   3
  -3   2  -2 109213. 2057.53   3
  -3   2  -3 143685. 2421.95   3
  -3   2  -6 28246.7 1336.32   8
   3  -2   6 29816.3 1356.86  12
  -3   2  -7 138567. 3358.35   8
   3  -2   7 136788. 3316.90  12
  -3   2  -8 65190.9 2268.84   8
   3  -2   8 66246.9 2288.12  12
  -3   2  -9 14838.2 1059.58   8
  -3   2 -10 205761. 4303.35   8
  -3   2 -11 17824.3 1073.68   8
   3  -2  11 17501.3 1118.85   4
  -3   2 -12 78100.1 2035.97   8
   3  -2  12 78523.5 2257.49   4
   3  -2  13 20695.9 980.406   4
   3  -2  14 25263.0 849.723   4
  -3   1  14 33627.3 1183.96  10
  -3   1  14 32571.7 1079.18   9
  -3   1  13 43486.0 1575.05  10
  -3   1  13 42371.6 1555.72   9
  -3   1  12 69097.9 2177.02  10
  -3   1  12 74104.4 2334.72   7
  -3   1  11 8011.43 729.112  10
  -3   1  11 7865.86 803.539   7
  -3   1  10 231477. 4418.67  10
  -3   1  10 229078. 4766.77   7
  -3   1   9 632.896 163.098  10
  -3   1   9 1204.07 345.159   7
  -3   1   8 253789. 4824.59   7
  -3   1   7 95211.2 2555.42   7
  -3   1   7 99763.5 4757.24   2
  -3   1   6 63589.8 1832.51   3
  -3   1   6 60811.9 3423.74   2
  -3   1   5 228239. 3850.47   3
  -3   1   5 239126. 6427.29   2
  -3   1   4-470.120 273.545   2
  -3   1   4 38.2257 148.870   3
  -3   1   3 484042. 6344.00   3
  -3   1   3 480372. 8436.79   2
  -3   1   2 169988. 2930.29   3
  -3   1   1 179943. 2999.04   3
  -3   1   0 94584.4 1959.13   3
  -3   1  -1 42660.0 1222.43   3
  -3   1  -2 543104. 6743.68   3
  -3   1  -3 6246.32 441.087   3
  -3   1  -4 253063. 3711.67   3
  -3   1  -7 80097.7 2349.52   8
   3  -1   7 84596.5 2374.76  12
   3  -1   8 234.314 185.333  12
  -3   1  -8 279.608 178.841   8
  -3   1  -9 177828. 3929.55   8
  -3   1 -10 58264.9 2091.12   8
  -3   1 -11 44709.5 1754.81   8
   3  -1  11 45275.6 1835.14   4
  -3   1 -12 83138.1 2272.45   8
   3  -1  12 83955.5 2449.59   4
   3  -1  13 12105.6 816.922   4
   3  -1  14 78820.4 1873.89   4
  -3   0  14 19071.9 822.325  10
  -3   0  13 78408.8 2115.41  10
  -3   0  13 76674.9 1998.72   9
  -3   0  12 413.666 262.502  10
  -3   0  12 258.077 197.138   9
  -3   0  11 201896. 4136.62  10
  -3   0  10 79207.0 2386.44  10
  -3   0  10 79649.3 2546.84   7
  -3   0   9 148517. 3633.83   7
  -3   0   9 152477. 3316.14  10
  -3   0   8 219791. 4362.34   7
  -3   0   8 209385. 3950.34  11
  -3   0   7 33920.5 1441.73   7
  -3   0   7 33660.5 1274.31  11
  -3   0   6 149980. 3008.34   3
  -3   0   5 16816.7 866.549   3
  -3   0   4 357298. 5126.77   3
  -3   0   3 203973. 3389.84   3
  -3   0   2 54400.4 1486.06   3
  -3   0   1 621995. 7675.46   3
  -3   0   0 50149.0 1389.10   3
  -3   0  -1 19011.5 808.974   3
  -3   0  -2 180791. 3060.09   3
  -3   0  -3 237178. 3740.81   3
  -3   0  -4 320185. 4633.38   3
  -3   0  -5 6044.04 479.182   3
  -3   0  -6 185850. 3214.69   3
  -3   0  -7 6687.67 615.975   8
   3   0   7 6038.52 571.590  12
  -3   0  -8 141100. 3290.50   8
  -3   0  -9 133729. 3253.24   8
  -3   0 -10 39979.9 1702.90   8
  -3   0 -11 106484. 2823.75   8
   3   0  11 106911. 2863.57   4
  -3   0 -12 1199.47 300.161   8
   3   0  12 723.205 285.268   4
  -3   0 -13 72053.4 1949.72   8
   3   0  13 74370.9 2186.99   4
   3   0  14 11404.9 727.547   4
  -3  -1  13 6711.01 556.532  10
  -3  -1  13 7059.71 498.555   9
  -3  -1  12 47300.1 1716.34  10
  -3  -1  12 47013.2 1649.77   9
  -3  -1  11 59858.8 2056.36  10
  -3  -1  11 58951.2 2017.47   9
  -3  -1  10 83045.7 2461.49  10
  -3  -1  10 84019.0 2548.09   9
  -3  -1   9 283557. 5019.28  10
  -3  -1   8 25461.4 1207.29  10
  -3  -1   8 24676.4 1334.80   7
  -3  -1   8 27407.8 1313.51  11
  -3  -1   7 218587. 4264.64   7
  -3  -1   7 218710. 4024.96  11
  -3  -1   6 66284.3 1822.22   3
  -3  -1   5 25783.9 1059.06   3
  -3  -1   4 289415. 4443.44   3
  -3  -1   3 39082.6 1275.76   3
  -3  -1   2 352519. 5027.27   3
  -3  -1   1 56775.1 1550.22   3
  -3  -1   0 65259.5 1654.78   3
  -3  -1  -1 142388. 2709.23   3
  -3  -1  -2 12692.3 715.047   3
  -3  -1  -3 598240. 7646.21   3
  -3  -1  -4 7362.65 585.596   3
  -3  -1  -5 254071. 4218.67   3
  -3  -1  -6 113100. 2580.06   3
  -3  -1  -7 60556.3 1831.71   3
  -3  -1  -8 144355. 3279.22   8
  -3  -1  -8 153020. 4406.53   6
  -3  -1  -9 23878.7 1266.59   8
  -3  -1 -10 187878. 4014.74   8
   3   1  10 188645. 3860.06   4
  -3  -1 -11 2126.58 408.891   8
   3   1  11 2800.23 448.965   4
  -3  -1 -12 89315.7 2524.61   8
   3   1  12 89535.0 2555.00   4
  -3  -1 -13 40695.1 1497.91   8
   3   1  13 40461.3 1583.61   4
   3   1  14 13427.9 807.830   4
   3   1  15 42950.8 1252.00   4
  -3  -2  13 41539.2 1245.62  10
  -3  -2  12 111460. 2610.11  10
  -3  -2  12 107784. 2387.83   9
  -3  -2  11 895.234 337.928  10
  -3  -2  11 509.652 221.001   9
  -3  -2  10 125189. 3142.23  10
  -3  -2  10 121757. 3064.62   9
  -3  -2   9 35423.2 1559.64  10
  -3  -2   9 33962.5 1558.87   9
  -3  -2   9 35261.7 1610.31  11
  -3  -2   8 71038.1 2169.92  10
  -3  -2   8 66396.2 2227.86   9
  -3  -2   8 67453.7 2226.29  11
  -3  -2   7 167668. 3629.30  11
  -3  -2   6 26028.8 1218.52  11
  -3  -2   5 243970. 3895.90   3
  -3  -2   4 61447.8 1667.82   3
  -3  -2   3 385265. 5474.86   3
  -3  -2   2 234408. 3839.91   3
  -3  -2   1 97208.2 2174.32   3
  -3  -2   0 172266. 3156.86   3
  -3  -2  -1 4336.85 447.964   3
  -3  -2  -2 281435. 4493.54   3
  -3  -2  -3 2613.86 387.992   3
  -3  -2  -4 212901. 3910.27   3
  -3  -2  -5 133822. 3021.15   3
  -3  -2  -6 49354.7 1796.30   3
  -3  -2  -7 222822. 4414.51   3
  -3  -2  -8 16483.2 1010.80   8
   3   2   8 17566.9 874.953   4
  -3  -2  -8 16809.6 1435.26   6
  -3  -2  -8 17782.9 1101.75   3
  -3  -2  -9 102772. 2768.03   8
  -3  -2  -9 101766. 3173.78   6
  -3  -2  -9 108648. 2834.04   3
  -3  -2 -10 22986.5 1275.21   8
   3   2  10 20726.6 1116.60   4
  -3  -2 -11 116872. 3073.39   8
   3   2  11 116020. 2925.55   4
  -3  -2 -12 67040.6 2205.92   8
   3   2  12 64201.6 2109.66   4
  -3  -2 -13 2860.12 426.342   8
   3   2  13 3136.05 438.238   4
   3   2  14 58291.0 1766.35   4
   3   2  15 1120.69 213.216   4
  -3  -3  12 9389.28 625.339  10
  -3  -3  11 157465. 3320.49  10
  -3  -3  11 158139. 3126.80   9
  -3  -3  10 66630.3 2189.98  10
  -3  -3  10 66278.8 2076.50   9
  -3  -3   9 10490.1 849.657  10
  -3  -3   9 10739.9 847.678   9
  -3  -3   9 11025.9 921.070  11
  -3  -3   8 129840. 3170.76  10
  -3  -3   8 122205. 3132.39   9
  -3  -3   8 120541. 3201.16  11
  -3  -3   7 502.632 270.506  11
  -3  -3   7 118.790 188.390  10
  -3  -3   7-8.69422 195.876   9
  -3  -3   6 142849. 3314.15   9
  -3  -3   6 141261. 3369.58  11
  -3  -3   5 97163.6 2599.94  11
  -3  -3   5 99336.0 2565.00   9
  -3  -3   3 176447. 3175.26   3
  -3  -3   2 63601.1 1755.08   3
  -3  -3   1 226981. 3849.27   3
  -3  -3   0 1597.78 320.222   3
  -3  -3  -1 265644. 4472.03   3
  -3  -3  -2 151150. 3222.37   3
  -3  -3  -3 193066. 3862.85   3
  -3  -3  -4 110675. 2905.04   3
  -3  -3  -5 35103.3 1665.76   3
  -3  -3  -6 180015. 4245.39   3
  -3  -3  -7 3111.50 588.224   3
  -3  -3  -7 2580.10 397.204   8
  -3  -3  -8 103208. 2786.49   8
  -3  -3  -8 101413. 3773.29   6
  -3  -3  -9 110917. 3006.30   8
  -3  -3  -9 109235. 3499.10   6
  -3  -3 -10 17595.5 1157.99   8
   3   3  10 17461.4 989.272   4
  -3  -3 -10 19576.4 1296.81   3
  -3  -3 -11 127267. 3306.74   8
   3   3  11 129468. 3016.48   4
  -3  -3 -12 155.493 182.675   8
   3   3  12 184.504 172.377   4
  -3  -3 -13 43534.6 1625.72   8
   3   3  13 43530.1 1599.42   4
   3   3  14 31027.9 1233.20   4
   3   3  15 38772.1 1181.59   4
  -3  -4  11 149386. 2900.77  10
  -3  -4  10 7482.49 673.905  10
  -3  -4  10 6506.79 583.381   9
  -3  -4   9 39352.1 1657.68  10
  -3  -4   9 39292.9 1594.63   9
  -3  -4   9 41422.7 1728.16  11
  -3  -4   8 1883.35 438.671  11
  -3  -4   8 1792.08 385.180  10
  -3  -4   8 2021.74 395.107   9
  -3  -4   7 192913. 4050.19  10
  -3  -4   7 186217. 4028.34   9
  -3  -4   7 182898. 4106.59  11
  -3  -4   6 63575.7 2150.39   9
  -3  -4   6 62227.0 2201.37  11
  -3  -4   5 70007.9 2314.35  11
  -3  -4   5 71889.8 2258.86   9
  -3  -4   4 183700. 3733.31   9
  -3  -4   4 176865. 3844.53  11
  -3  -4   3 1256.66 283.007   9
  -3  -4   2 65674.2 1780.61   3
  -3  -4   1 2869.39 368.808   3
  -3  -4   0 162691. 3292.90   3
  -3  -4  -1 172253. 3524.17   3
  -3  -4  -2 24010.9 1248.07   3
  -3  -4  -3 248413. 4844.56   3
  -3  -4  -4 9100.50 944.240   3
  -3  -4  -5 261283. 5872.42   3
  -3  -4  -6 38755.9 2316.48   3
  -3  -4  -7 30662.9 1473.53   8
  -3  -4  -7 30396.6 1835.16   6
  -3  -4  -8 136154. 3487.72   8
  -3  -4  -8 148356. 4698.57   6
  -3  -4  -9 2350.54 533.508   6
  -3  -4  -9 2894.94 734.186   3
  -3  -4  -9 1878.61 393.956   8
  -3  -4 -10 130059. 3448.79   8
  -3  -4 -10 130242. 4028.45   3
  -3  -4 -11 17642.8 1154.13   8
  -3  -4 -11 14953.0 1159.54   3
  -3  -4 -12 49985.4 1910.70   8
   3   4  12 50933.8 1730.35   4
  -3  -4 -13 33483.7 1431.49   8
   3   4  13 34367.5 1350.20   4
  -3  -4 -14 4592.77 435.281   8
   3   4  14 5376.50 482.353   4
   3   4  15 64581.7 1446.77   4
  -3  -5  10 74913.1 1926.30  10
  -3  -5  10 78432.6 1781.86   9
  -3  -5   9 5339.56 573.589  10
  -3  -5   9 5551.01 541.774   9
  -3  -5   8 25067.0 1309.69  10
  -3  -5   8 25553.0 1286.03   9
  -3  -5   8 28106.5 1410.92  11
  -3  -5   7 80617.9 2500.81  10
  -3  -5   7 79520.3 2460.86   9
  -3  -5   7 82136.4 2576.81  11
  -3  -5   6 26705.2 1387.83  10
  -3  -5   6 26355.2 1397.17   9
  -3  -5   6 26172.6 1431.32  11
  -3  -5   5 135286. 3351.25   9
  -3  -5   5 133457. 3427.97  11
  -3  -5   4 234.647 223.064  11
  -3  -5   4 746.803 281.260   9
  -3  -5   3 108261. 2848.41   9
  -3  -5   3 109251. 3007.82  11
  -3  -5   2 42157.9 1628.03   9
  -3  -5   2 40991.6 1740.48  11
  -3  -5   1 52290.5 1624.81   3
  -3  -5   1 54707.3 1825.74   9
  -3  -5   1 55376.6 1994.63  11
  -3  -5   0 95216.5 2430.21   3
  -3  -5  -1 3128.19 456.324   3
  -3  -5  -2 196637. 4117.68   3
  -3  -5  -3 78746.8 2577.01   3
  -3  -5  -4 43516.7 2068.01   3
  -3  -5  -5 115530. 3848.24   3
  -3  -5  -6 41857.9 1747.90   8
  -3  -5  -6 36716.2 2494.69   3
  -3  -5  -6 40694.8 2029.34   6
  -3  -5  -7 134527. 3400.72   8
  -3  -5  -7 128062. 4086.34   6
  -3  -5  -8 30751.3 1575.48   8
  -3  -5  -8 31858.8 1911.93   6
  -3  -5  -9 163140. 3922.16   8
  -3  -5  -9 164029. 4131.90   6
  -3  -5 -10 43771.3 1917.09   8
  -3  -5 -10 32937.7 2127.72   3
  -3  -5 -11 38729.7 1753.67   8
  -3  -5 -11 30440.7 1796.65   3
  -3  -5 -12 54520.1 2015.16   8
  -3  -5 -13 3150.17 457.356   8
  -3  -5 -14 70485.2 1789.11   8
  -3  -5 -15 14411.0 733.566  12
  -3  -6   9 28239.5 1086.98  10
  -3  -6   9 28373.4 993.144   9
  -3  -6   8 32787.9 1356.15  10
  -3  -6   8 33842.8 1343.21   9
  -3  -6   8 36859.0 1453.35  11
  -3  -6   7 97.1624 242.557  11
  -3  -6   7-461.032 299.046  10
  -3  -6   7 312.038 207.474   9
  -3  -6   6 98438.3 2771.39  10
  -3  -6   6 99874.1 2799.11   9
  -3  -6   6 102931. 2901.78  11
  -3  -6   5 32562.6 1537.10  10
  -3  -6   5 32434.1 1577.18   9
  -3  -6   5 34583.0 1659.19  11
  -3  -6   4 74291.3 2451.06   9
  -3  -6   4 74998.3 2515.40  11
  -3  -6   3 64380.2 2243.38   9
  -3  -6   3 63490.2 2301.00  11
  -3  -6   2 25807.0 1375.00   9
  -3  -6   2 28269.2 1498.61  11
  -3  -6   1 137027. 3332.66   9
  -3  -6   1 140504. 3557.42  11
  -3  -6   0 8163.45 731.933   9
  -3  -6   0 7232.34 744.310  11
  -3  -6  -1 178503. 4057.96  11
  -3  -6  -1 171724. 3660.36   9
  -3  -6  -1 171808. 3619.23   3
  -3  -6  -2 114257. 3156.23  11
  -3  -6  -2 110297. 2760.59   9
  -3  -6  -2 108738. 2941.43   3
  -3  -6  -3 18587.3 1229.48  11
  -3  -6  -3 16957.6 1113.07   8
  -3  -6  -3 17086.3 1184.68   3
  -3  -6  -4 128938. 3487.35  11
  -3  -6  -4 124794. 3254.11   8
  -3  -6  -4 127312. 3617.55   3
  -3  -6  -4 117398. 3264.02   6
  -3  -6  -5 339.246 208.907  11
  -3  -6  -5 449.801 293.116   6
  -3  -6  -5 345.049 331.479   3
  -3  -6  -5 510.228 262.084   8
  -3  -6  -6 191006. 4318.90   8
  -3  -6  -6 201009. 5547.26   3
  -3  -6  -7 71297.7 2535.94   8
  -3  -6  -7 78385.9 3635.35   3
  -3  -6  -7 76036.8 2914.52   6
  -3  -6  -8 31595.2 1657.44   8
  -3  -6  -8 33174.8 2324.60   3
  -3  -6  -8 33097.7 1731.62   6
  -3  -6  -9 109109. 3223.56   8
  -3  -6  -9 108484. 4050.45   3
  -3  -6 -10 17184.9 1204.63   8
  -3  -6 -10 16324.4 1456.91   3
  -3  -6 -11 67382.2 2368.29   8
  -3  -6 -11 63195.7 2637.04   3
  -3  -6 -12 632.151 241.389   8
  -3  -6 -13 59835.9 1893.43   8
  -3  -6 -14 19032.1 905.944  12
  -3  -6 -15 22943.6 816.841  12
  -3  -7   7 26486.6 1142.10  10
  -3  -7   7 28841.8 1224.21  11
  -3  -7   6 41297.2 1593.68  10
  -3  -7   6 41156.5 1601.10   9
  -3  -7   6 41493.4 1635.12  11
  -3  -7   5 18576.1 1108.31  10
  -3  -7   5 19067.1 1154.71   9
  -3  -7   5 19292.9 1179.64  11
  -3  -7   4 106949. 2986.84   9
  -3  -7   4 110473. 3040.23  11
  -3  -7   3 240.937 241.244  11
  -3  -7   3 627.608 343.203   9
  -3  -7   2 125784. 3318.54   9
  -3  -7   2 131765. 3473.54  11
  -3  -7   1 53518.8 2042.23   9
  -3  -7   1 51282.2 2104.37  11
  -3  -7   0 52219.3 2012.90   9
  -3  -7   0 53075.6 2137.94  11
  -3  -7  -1 256769. 5246.87  11
  -3  -7  -1 254560. 4365.22   5
  -3  -7  -2 8545.29 852.605  11
  -3  -7  -2 6707.34 619.714   5
  -3  -7  -3 87913.8 2869.75  11
  -3  -7  -3 88715.3 2699.53   3
  -3  -7  -4 5536.21 714.958  11
  -3  -7  -4 6620.39 784.315   6
  -3  -7  -4 5685.10 704.149   3
  -3  -7  -5 64100.5 2523.15  11
  -3  -7  -5 61151.5 2361.69   8
  -3  -7  -5 63414.1 2446.65   6
  -3  -7  -5 60411.0 2495.00   3
  -3  -7  -6 25823.4 1545.55   8
  -3  -7  -6 27002.5 1518.84   6
  -3  -7  -6 28608.6 1791.59   3
  -3  -7  -6 25011.2 1555.96  11
  -3  -7  -7 62039.5 2473.35  11
  -3  -7  -7 58361.4 2349.74   8
  -3  -7  -7 58038.9 2156.12   6
  -3  -7  -7 59997.4 2698.37   3
  -3  -7  -8 112458. 3328.49   8
  -3  -7  -8 111491. 3707.89   3
  -3  -7  -9 5055.92 750.816   3
  -3  -7  -9 4827.49 678.354   8
  -3  -7 -10 42265.1 1911.69   8
  -3  -7 -10 40734.9 2048.89   3
  -3  -7 -11 2929.57 492.730   8
  -3  -7 -12 44112.0 1722.53   8
  -3  -7 -12 44026.3 1495.03  12
  -3  -7 -13 25774.6 1033.76  12
  -3  -7 -14 6933.25 516.980  11
  -3  -7 -14 5394.61 347.797   5
  -3  -7 -14 6753.81 438.209  12
  -3  -8   7 60937.5 1461.39  11
  -3  -8   6 1423.25 264.998  11
  -3  -8   5 77669.6 2065.34  10
  -3  -8   5 80099.9 2163.58  11
  -3  -8   4 16278.2 1022.09  11
  -3  -8   3 48021.3 1872.18  11
  -3  -8   2 43044.9 1839.78  11
  -3  -8   1 29387.4 1535.77  11
  -3  -8   0 106358. 3094.34  11
  -3  -8  -1 22960.2 1102.60   5
  -3  -8  -1 20640.5 1321.67  11
  -3  -8  -2 143009. 3711.06  11
  -3  -8  -2 138407. 3097.61   5
  -3  -8  -3 5536.18 701.451  11
  -3  -8  -3 4781.04 539.376   5
  -3  -8  -4 38355.6 1870.01  11
  -3  -8  -4 35268.5 1555.90   5
  -3  -8  -4 37749.9 1665.63   3
  -3  -8  -5 96775.0 3090.89  11
  -3  -8  -5 94475.9 2914.06   3
  -3  -8  -6 1979.63 453.315  11
  -3  -8  -6 2250.79 450.228   3
  -3  -8  -7 39678.2 1923.74  11
  -3  -8  -7 39026.0 1902.49   3
  -3  -8  -8 2883.28 509.666  11
  -3  -8  -8 2585.89 496.266   3
  -3  -8  -9 60622.3 2311.51  11
  -3  -8  -9 57777.5 2291.54   3
  -3  -8 -10 26640.9 1459.68  11
  -3  -8 -11 15306.6 1043.15  11
  -3  -8 -12 32658.9 1407.24  11
  -3  -8 -13 244.292 164.401  11
  -3  -8 -13 188.206 102.827   5
  -3  -8 -14 33086.2 1009.00  11
  -3  -9   5 10447.2 573.856  11
  -3  -9   4 49254.6 1489.89  11
  -3  -9   3 96027.8 2365.27  11
  -3  -9   2 277.679 192.047  11
  -3  -9   1 44913.7 1750.47  11
  -3  -9   0 8228.17 789.584  11
  -3  -9  -1 14309.3 821.593   5
  -3  -9  -1 15781.5 1081.93  11
  -3  -9  -2 28880.1 1247.42   5
  -3  -9  -2 29739.6 1540.01  11
  -3  -9  -3 42801.9 1880.24  11
  -3  -9  -3 39753.9 1516.00   5
  -3  -9  -4 38212.1 1528.70   5
  -3  -9  -4 39848.7 1832.59  11
  -3  -9  -5 4510.16 636.726  11
  -3  -9  -5 4867.52 549.432   5
  -3  -9  -6 60454.0 2281.64  11
  -3  -9  -6 59760.6 1995.62   5
  -3  -9  -7 16750.3 1166.71  11
  -3  -9  -7 17979.4 1069.60   5
  -3  -9  -8 21785.4 1309.79  11
  -3  -9  -8 21004.4 1152.36   5
  -3  -9  -9 19017.1 1197.83  11
  -3  -9  -9 17876.0 1020.13   5
  -3  -9 -10 14449.7 985.329  11
  -3  -9 -10 13441.0 823.001   5
  -3  -9 -11 51417.8 1736.70  11
  -3  -9 -11 50024.9 1493.23   5
  -3  -9 -12 2372.45 353.951  11
  -3  -9 -12 1975.23 259.696   5
  -3  -9 -13 31499.0 1017.63  11
  -3  -9 -13 25517.5 727.183   5
  -3 -10   3 1209.54 195.185  11
  -3 -10   2 71744.5 1731.98  11
  -3 -10   1 26185.5 1085.96  11
  -3 -10   0 3208.33 421.295  11
  -3 -10  -1 11836.7 643.014   5
  -3 -10  -1 12266.2 830.187  11
  -3 -10  -2 5081.36 559.790  11
  -3 -10  -2 4679.76 438.956   5
  -3 -10  -3 46951.5 1506.49   5
  -3 -10  -3 49316.4 1801.76  11
  -3 -10  -4 923.576 273.994  11
  -3 -10  -4 1084.92 259.095   5
  -3 -10  -5 20957.5 1187.86  11
  -3 -10  -5 19150.2 987.751   5
  -3 -10  -6 30531.4 1417.96  11
  -3 -10  -6 31419.8 1278.19   5
  -3 -10  -7 7488.13 684.473  11
  -3 -10  -7 7320.07 622.530   5
  -3 -10  -8 43106.1 1619.33  11
  -3 -10  -8 43777.4 1474.00   5
  -3 -10  -9 163.012 176.403  11
  -3 -10  -9 217.754 176.166   5
  -3 -10 -10 54828.0 1658.58  11
  -3 -10 -10 54556.3 1474.39   5
  -3 -10 -11 7683.00 543.230  11
  -3 -10 -11 7520.71 461.336   5
  -3 -10 -12 18307.6 727.932  11
  -3 -10 -12 15605.3 555.079   5
  -3 -11   0 23725.7 797.742  11
  -3 -11  -1 125.626 108.883  11
  -3 -11  -2 33007.5 1124.06  11
  -3 -11  -3 9969.65 545.803   5
  -3 -11  -3 9827.42 633.070  11
  -3 -11  -4 18562.3 795.213   5
  -3 -11  -4 19282.1 915.530  11
  -3 -11  -5 23201.0 915.169   5
  -3 -11  -5 23357.0 1020.49  11
  -3 -11  -6 1404.09 264.327  11
  -3 -11  -6 1253.07 239.304   5
  -3 -11  -7 40024.8 1212.12   5
  -3 -11  -7 40074.0 1312.41  11
  -3 -11  -8 4615.49 421.961  11
  -3 -11  -8 5187.77 406.390   5
  -3 -11  -9 28260.1 999.010  11
  -3 -11  -9 28382.4 903.000   5
  -3 -11 -10 16985.9 693.667  11
  -3 -11 -10 18897.8 650.261   5
   4 -10  -9 45262.4 1177.22  12
   4 -10  -8 2599.60 306.032  12
   4 -10  -7 26034.6 1028.37  12
   4 -10  -6 31061.6 1168.65  12
   4 -10  -5 22202.7 997.326  12
   4 -10  -4 49988.8 1536.77  12
   4 -10  -3-18.6270 157.443  12
   4 -10  -2 63340.1 1660.77  12
   4 -10  -1 21709.4 874.824  12
  -4  10   0 24896.6 805.274   8
   4 -10   0 25034.2 855.394  12
  -4  10  -1 38143.2 988.907   8
   4  -9 -10 55338.3 1472.13  12
  -4   9  10 53884.3 1259.09   7
   4  -9  -9 19562.8 942.553  12
  -4   9   9 17868.1 735.531   7
   4  -9  -8 33919.8 1354.41  12
   4  -9  -7 54503.0 1843.86  12
   4  -9  -6 2420.33 416.518  12
   4  -9  -5 73983.2 2315.01  12
   4  -9  -4 5528.80 640.552  12
   4  -9  -3 35776.4 1588.02  12
   4  -9  -2 15507.0 1005.35  12
  -4   9   1 21836.2 1042.42   8
   4  -9  -1 20120.5 1115.42  12
  -4   9   0 101198. 2467.23   8
   4  -9   0 100783. 2497.28  12
  -4   9  -1 446.605 206.187   8
   4  -9   1 44.7795 138.270  12
  -4   9  -2 52390.7 1631.21   8
   4  -9   2 50875.0 1467.42  12
  -4   9  -3 8844.32 599.258   8
   4  -9   3 8149.03 478.888  12
  -4   9  -4 30181.7 999.721   8
  -4   8  12 7511.00 454.371   7
  -4   8  11 24805.8 995.102   7
   4  -8 -11 23892.1 958.861  12
   4  -8 -10 43308.0 1506.88  12
  -4   8  10 43872.6 1491.75   7
   4  -8  -9 9044.07 743.027  12
  -4   8   9 9972.37 744.081   7
   4  -8  -8 55853.5 2014.89  12
   4  -8  -7 1399.82 385.038  12
   4  -8  -6 135378. 3571.11  12
   4  -8  -5 29408.1 1614.64  12
   4  -8  -4 45104.2 2035.47  12
   4  -8  -3 64939.0 2446.92  12
   4  -8  -2 11304.9 992.544  12
  -4   8   1 86081.1 2791.41   8
   4  -8  -1 75653.1 2567.63  12
  -4   8   0 11560.2 1052.61   8
   4  -8   0 10178.9 887.912  12
  -4   8  -1 63793.3 2420.16   8
   4  -8   1 59215.1 2080.63  12
  -4   8  -2 13569.1 1035.28   8
   4  -8   2 13224.9 909.749  12
  -4   8  -3 30857.5 1454.43   8
   4  -8   3 28557.5 1247.26  12
  -4   8  -4 65517.9 2016.76   8
   4  -8   4 62715.2 1721.34  12
  -4   8  -5-49.4610 170.156   8
   4  -8   5 311.795 95.6796  12
  -4   8  -6 51837.3 1389.91   8
  -4   7  13 14568.9 651.317   7
  -4   7  12 51219.4 1540.84   7
   4  -7 -12 45946.0 1223.73  12
  -4   7  11 57078.0 1867.55   7
   4  -7 -11 58449.6 1727.88  12
   4  -7 -10 739.211 285.600  12
  -4   7  10 896.456 386.369   7
   4  -7  -9 68934.1 2351.48  12
   4  -7  -8 14605.1 1129.69  12
   4  -7  -7 85581.5 2922.04  12
   4  -7  -6 60414.5 2503.40  12
   4  -7  -5 31963.0 1822.56  12
   4  -7  -4 78011.1 2875.11  12
   4  -7  -3 364.516 345.466  12
   4  -7  -2 129657. 3706.59  12
  -4   7   1 18819.4 1944.95   8
   4  -7  -1 18218.2 1293.45  12
  -4   7   0 41660.1 2490.85   8
   4  -7   0 47140.7 2075.26  12
  -4   7  -1 49912.4 2490.62   8
   4  -7   1 61545.3 2317.32  12
  -4   7  -2 5118.72 736.839   8
   4  -7   2 6543.86 732.183  12
  -4   7  -3 60010.8 2416.52   8
   4  -7   3 64981.2 2221.87  12
  -4   7  -4 722.992 368.301   8
   4  -7   4 791.405 300.410  12
  -4   7  -5 50650.1 1934.91   8
   4  -7   5 50032.2 1680.61  12
  -4   7  -6 44582.0 1633.66   8
   4  -7   6 41866.1 1376.21  12
  -4   7  -7 24290.8 1039.93   8
  -4   6  13 13354.7 731.097   7
  -4   6  12 68779.1 2039.34   7
  -4   6  11 268.637 255.238   7
   4  -6 -11 237.982 176.189  12
  -4   6  10 46073.8 2015.05   7
   4  -6 -10 52603.0 2019.00  12
   4  -6  -9 9969.28 985.084  12
   4  -6  -8 46180.1 2240.63  12
   4  -6  -7 159931. 4533.67  12
   4  -6  -6 20595.5 1568.43  12
   4  -6  -5 77279.2 2995.45  12
   4  -6  -4 22599.2 1566.35  12
   4  -6  -3 75107.4 2829.34  12
   4  -6  -2 77449.4 2829.71  12
   4  -6  -1 50978.8 2246.73  12
  -4   6   0 116907. 4421.03   8
   4  -6   0 130713. 3664.65  12
  -4   6  -1-200.468 321.466   8
   4  -6   1 33.5659 227.484  12
   4  -6   2 108406. 3193.73  12
  -4   6  -2 89956.2 3358.96   8
  -4   6  -3 19045.1 1431.45   8
   4  -6   3 22260.4 1369.36  12
  -4   6  -4 51710.4 2290.07   8
   4  -6   4 56575.2 2153.07  12
  -4   6  -5 44702.1 2022.05   8
   4  -6   5 47444.9 1869.38  12
  -4   6  -6 4358.35 616.539   8
   4  -6   6 4465.38 544.636  12
  -4   6  -7 124665. 3058.86   8
  -4   6  -8 5182.99 518.777   8
  -4   6  -9 38692.4 1136.62   8
   4  -6   9 37380.3 1087.80   4
  -4   5  13 86717.2 2148.52   7
  -4   5  12 7698.48 717.730   7
  -4   5  11 73850.2 2511.60   7
  -4   5  10 61070.7 2429.02   7
  -4   5   9 34803.1 1913.36   7
   4  -5  -9 32435.0 1992.98  12
   4  -5  -8 94199.6 3833.00  12
   4  -5  -7 7898.31 1120.13  12
   4  -5  -6 222089. 5776.23  12
   4  -5  -5 11571.0 1194.82  12
   4  -5  -4 8432.57 944.363  12
   4  -5  -3 146427. 4025.92  12
   4  -5  -2 1382.99 415.110  12
   4  -5  -1 136380. 3757.07  12
  -4   5   0 13004.1 1104.46   8
   4  -5   0 11935.2 1044.26  12
  -4   5  -1 167593. 4359.55   8
   4  -5   1 157622. 4000.68  12
  -4   5  -2 160138. 4280.85   8
   4  -5   2 154408. 3928.45  12
   4  -5   3 3791.51 571.174  12
  -4   5  -3 4521.50 705.480   8
  -4   5  -4 60595.0 2527.96   8
   4  -5   4 61496.5 2338.85  12
  -4   5  -5 6049.67 796.523   8
   4  -5   5 5689.48 714.412  12
  -4   5  -6 128504. 3594.71   8
   4  -5   6 129500. 3317.16  12
  -4   5  -7 20429.3 1293.63   8
   4  -5   7 20243.4 1169.54  12
  -4   5  -8 55522.9 1989.12   8
  -4   5  -9 50944.0 1659.22   8
  -4   5 -10 5555.68 422.785   8
   4  -5  10 5509.39 428.930   4
  -4   4  14 55097.5 1366.53   9
  -4   4  13 33345.8 1321.61   7
  -4   4  12 24354.8 1309.44   7
  -4   4  11 82534.4 2722.09   7
  -4   4  10 267.458 306.174   7
  -4   4   9 161754. 4335.16   7
  -4   4   8 30908.6 1840.51   7
   4  -4  -7 65259.9 3553.10  12
   4  -4  -6 152095. 4757.05  12
   4  -4  -5 49980.8 2363.04  12
   4  -4  -4 89339.4 3008.68  12
   4  -4  -3 24876.9 1479.42  12
  -4   4   2 104135. 2846.41   6
   4  -4  -2 107207. 3131.69  12
  -4   4   1 52723.1 1617.67   3
   4  -4  -1 50901.7 2057.61  12
  -4   4   0 89469.8 2055.93   3
   4  -4   0 78821.8 2615.25  12
  -4   4  -1 78572.4 2490.10   8
   4  -4   1 75129.1 2537.09  12
  -4   4  -2 28559.7 1522.46   8
   4  -4   2 28634.8 1533.34  12
  -4   4  -3 212507. 4672.14   8
   4  -4   3 203144. 4492.98  12
   4  -4   4 57621.6 2227.55  12
  -4   4  -4 58508.1 2340.40   8
   4  -4   5 76653.3 2595.73  12
  -4   4  -5 81012.6 2795.55   8
  -4   4  -6 57595.9 2347.17   8
   4  -4   6 53310.4 2110.67  12
  -4   4  -7 46168.0 2053.74   8
   4  -4   7 43784.0 1867.53  12
  -4   4  -8 68152.2 2414.11   8
  -4   4  -9-167.853 218.657   8
  -4   4 -10 80634.0 2115.86   8
  -4   4 -11 9242.14 521.009   8
   4  -4  11 9340.02 557.954   4
  -4   3  14 52351.6 1318.71   9
  -4   3  13 13821.4 781.661   6
  -4   3  12 74272.9 2353.27   7
  -4   3  11 5410.30 706.819   7
  -4   3  10 166174. 4227.98   7
  -4   3   9 141497. 3935.87   7
  -4   3   8 12108.8 1081.06   7
  -4   3   7 132345. 3661.32   7
  -4   3   6 1918.55 410.916   7
  -4   3   5 218263. 4443.11   7
  -4   3   4 11923.5 818.234   3
  -4   3   3 152714. 3172.84   3
  -4   3   2 237076. 4073.46   3
  -4   3   1 11356.9 738.298   3
  -4   3   0 211932. 3657.56   3
  -4   3  -1 2978.98 346.656   3
   4  -3   1 2611.35 412.888  12
  -4   3  -2 38757.8 1600.98   8
   4  -3   2 43252.5 1759.21  12
  -4   3  -3 7901.81 762.722   8
   4  -3   3 9477.51 831.194  12
   4  -3   4 94907.2 2807.32  12
  -4   3  -4 91586.7 2806.13   8
  -4   3  -5 212096. 4665.97   8
   4  -3   5 214303. 4562.92  12
  -4   3  -6 6723.14 782.783   8
   4  -3   6 6539.73 737.774  12
  -4   3  -7 86262.9 2843.22   8
   4  -3   7 87827.1 2728.26  12
   4  -3   8 5603.58 690.668  12
  -4   3  -8 5262.17 693.988   8
  -4   3  -9 59447.5 2192.32   8
  -4   3 -10 58999.3 1976.53   8
  -4   3 -11 18923.7 925.823   8
   4  -3  11 19957.2 953.271   4
   4  -3  12 40876.1 1163.99   4
  -4   2  14 2238.60 240.681   9
  -4   2  13 87027.7 2161.32   9
  -4   2  11 37459.8 1775.87   7
  -4   2  10 133358. 3680.11   7
  -4   2   9 46400.4 2101.13   7
  -4   2   8 243997. 5148.93   7
  -4   2   7 119681. 3310.18   7
  -4   2   6 31361.7 1537.74   7
  -4   2   5 12246.5 862.355   3
  -4   2   5 12434.5 889.124   7
  -4   2   4 84407.4 2283.90   3
  -4   2   3 179759. 3488.10   3
  -4   2   2 4587.08 481.202   3
  -4   2   1 227758. 3949.20   3
  -4   2   0 9103.16 647.977   3
  -4   2  -1 154720. 3017.20   3
  -4   2  -2 31886.8 1187.31   3
  -4   2  -3 45769.1 1405.81   3
  -4   2  -3 41186.0 1614.25   8
   4  -2   3 44001.9 1657.03  12
  -4   2  -4 126869. 3172.95   8
   4  -2   4 132923. 3175.77  12
  -4   2  -5 8686.45 809.728   8
   4  -2   5 10289.7 847.619  12
  -4   2  -6 150913. 3756.31   8
   4  -2   6 157053. 3669.46  12
  -4   2  -7 10930.3 949.606   8
   4  -2   7 11270.8 947.935  12
  -4   2  -8 43689.2 1936.54   8
   4  -2   8 44639.1 1904.97  12
  -4   2  -9 118361. 3238.72   8
  -4   2 -10 874.842 354.544   8
  -4   2 -11 87211.4 2320.15   8
   4  -2  11 83342.7 2217.32   4
  -4   2 -12 4325.00 417.637   8
   4  -2  12 4007.01 418.537   4
  -4   1  13 70529.2 1827.83   9
  -4   1  12 18426.8 1050.91   9
  -4   1  11 71098.1 2183.37   6
  -4   1  10 3803.43 601.431   7
  -4   1   9 137081. 3655.05   7
  -4   1   8 5914.92 720.568   7
  -4   1   7 76714.3 2546.57   7
  -4   1   6 75378.5 2263.98   3
  -4   1   6 74572.1 2393.47   7
  -4   1   5 31669.7 1391.38   3
  -4   1   5 30872.4 1401.38   7
  -4   1   4 98817.3 2505.50   3
  -4   1   3 6493.72 611.596   3
  -4   1   2 157857. 3212.98   3
  -4   1   1 89063.6 2265.08   3
  -4   1   0 62367.5 1827.81   3
  -4   1  -1 112728. 2557.72   3
  -4   1  -2 13438.1 815.321   3
  -4   1  -3 319296. 4943.95   3
  -4   1  -4 15927.2 851.560   3
  -4   1  -4 16500.7 990.757   8
   4  -1   4 16441.2 942.599  12
  -4   1  -5 82915.2 2493.85   8
   4  -1   5 87215.7 2419.66  12
  -4   1  -6 200058. 4308.39   8
   4  -1   6 203907. 4136.56  12
  -4   1  -7 56163.7 2149.89   8
   4  -1   7 55507.0 2063.89  12
  -4   1  -8 63063.6 2294.59   8
  -4   1  -9 1999.15 427.630   8
  -4   1 -10 118487. 3124.54   8
  -4   1 -11 60642.7 2011.54   8
   4  -1  11 59709.0 1907.02   4
  -4   1 -12 31461.7 1262.80   8
   4  -1  12 31469.7 1239.39   4
  -4   1 -13 39295.5 1102.83   8
   4  -1  13 44043.6 1245.21   4
  -4   0  13 2368.72 291.251   9
  -4   0  12 76629.4 2120.41   9
  -4   0  11 15329.5 1022.37   9
  -4   0   8 17348.6 1198.44   7
  -4   0   7 66632.1 2343.26   7
  -4   0   7 65469.2 1902.34  11
  -4   0   6 30911.6 1391.27   3
  -4   0   6 29751.1 1475.88   7
  -4   0   5 130729. 3011.69   3
  -4   0   5 127722. 3077.56   7
  -4   0   4 29849.9 1312.38   3
  -4   0   4 27117.8 1237.47   7
  -4   0   3 108053. 2630.08   3
  -4   0   2 138500. 3027.02   3
  -4   0   1 30696.9 1304.17   3
  -4   0   0 127570. 2846.94   3
  -4   0  -1 2577.06 395.198   3
  -4   0  -2 258812. 4415.91   3
  -4   0  -3 166234. 3319.10   3
  -4   0  -4 64785.0 1915.85   3
  -4   0  -5 169408. 3346.38   3
   4   0   5 174518. 3418.93  12
  -4   0  -5 175755. 3675.42   8
  -4   0  -5 171812. 3516.48   6
  -4   0  -6 2151.59 424.408   6
  -4   0  -6 1741.89 301.656   3
  -4   0  -6 1469.41 331.042   8
   4   0   6 1346.72 315.782  12
  -4   0  -7 265301. 5108.03   8
   4   0   7 263002. 4866.23  12
  -4   0  -8 2443.23 491.915   8
  -4   0  -9 66616.2 2339.27   8
  -4   0 -10 90383.8 2702.10   8
   4   0  10 84768.1 2402.17   4
  -4   0 -11 26689.6 1343.30   8
   4   0  11 25569.4 1213.87   4
  -4   0 -12 125935. 2900.75   8
   4   0  12 127832. 2780.87   4
  -4   0 -13 1130.12 237.341   8
   4   0  13 1324.03 248.291   4
  -4  -1  12 12930.1 756.430   9
  -4  -1  11 16482.1 1001.52   9
  -4  -1  10 78996.2 2451.17   9
  -4  -1   9 2255.18 393.386   9
  -4  -1   8 65212.3 2334.62   9
  -4  -1   8 70367.7 2173.98  11
  -4  -1   7 1472.00 300.169  11
  -4  -1   7 1563.09 327.190   6
  -4  -1   6 189813. 3977.59   6
  -4  -1   6 192981. 3824.69   3
  -4  -1   6 202283. 3762.69  11
  -4  -1   5 98760.0 2685.05   6
  -4  -1   5 105951. 2644.03   3
  -4  -1   5 101782. 2389.89  11
  -4  -1   4 28089.9 1331.82   6
  -4  -1   4 30037.7 1325.26   3
  -4  -1   3 242826. 4398.50   3
  -4  -1   2 14337.5 922.573   3
  -4  -1   1 358000. 5688.95   3
  -4  -1   0 22049.4 1121.77   3
  -4  -1  -1 98723.9 2537.28   3
  -4  -1  -2 164176. 3408.17   3
  -4  -1  -3 63197.9 1987.41   3
  -4  -1  -4 294130. 5050.85   3
  -4  -1  -5 43400.9 1642.86   8
   4   1   5 41670.7 1424.37  12
  -4  -1  -5 43410.4 1646.60   6
  -4  -1  -5 43078.8 1662.35   3
  -4  -1  -6 155609. 3518.96   8
  -4  -1  -6 152730. 3631.53   6
  -4  -1  -6 150971. 3378.23   3
  -4  -1  -7 73377.9 2378.78   8
  -4  -1  -7 69565.8 2696.02   6
  -4  -1  -7 73641.3 2180.77   3
  -4  -1  -8 60526.9 2195.10   8
  -4  -1  -8 56710.3 2741.85   6
  -4  -1  -9 88849.1 2738.15   8
   4   1   9 91129.1 2353.55   4
  -4  -1 -10 479.365 299.859   8
   4   1  10 564.858 225.668   4
  -4  -1 -11 123156. 3141.33   8
   4   1  11 115557. 2733.22   4
  -4  -1 -12 11521.8 844.464   8
   4   1  12 10926.8 735.301   4
  -4  -1 -13 48597.4 1532.19   8
   4   1  13 51509.6 1464.79   4
  -4  -2  12 16999.6 746.713   9
  -4  -2  11 66608.7 1923.69   9
  -4  -2  10 3702.06 519.159   9
  -4  -2   9 83344.1 2545.30   9
  -4  -2   8 13846.9 1028.80   9
  -4  -2   8 15645.3 1017.26  11
  -4  -2   7 101100. 2892.70   9
  -4  -2   7 97856.7 2691.22  11
  -4  -2   6 136883. 3382.34   9
  -4  -2   6 131901. 3137.13  11
  -4  -2   5 4123.64 484.513   6
  -4  -2   5 3636.60 472.761  11
  -4  -2   5 4109.11 462.223   3
  -4  -2   5 3666.49 479.757   9
  -4  -2   4 236819. 4368.87   6
  -4  -2   4 241735. 4396.13   3
  -4  -2   4 243378. 4529.55   9
  -4  -2   4 242528. 4262.68  11
  -4  -2   3 26894.4 1239.43   6
  -4  -2   3 27549.6 1284.76   3
  -4  -2   3 25554.4 1201.83   9
  -4  -2   2 259342. 4701.97   3
  -4  -2   1 138106. 3189.69   3
  -4  -2   0 186994. 3845.12   3
  -4  -2  -1 262426. 4773.69   3
  -4  -2  -2 33738.5 1516.50   3
  -4  -2  -3 163052. 3662.59   3
  -4  -2  -4 11060.0 792.760   6
  -4  -2  -4 11316.5 909.640   3
  -4  -2  -5 81666.0 2358.28   8
  -4  -2  -5 86901.6 2457.56   6
  -4  -2  -5 87059.0 2620.84   3
  -4  -2  -6 80849.4 2439.81   8
  -4  -2  -6 85155.0 2696.28   6
  -4  -2  -6 82069.7 2597.83   3
  -4  -2  -7 29179.7 1464.61   8
  -4  -2  -7 29357.1 1779.88   6
  -4  -2  -7 30414.2 1535.28   3
  -4  -2  -8 113257. 3111.56   8
  -4  -2  -8 118778. 3113.03   3
  -4  -2  -9 17976.5 1191.10   8
  -4  -2  -9 18031.3 1435.08   6
  -4  -2 -10 87927.2 2750.80   8
  -4  -2 -11 36851.5 1676.90   8
   4   2  11 36260.1 1377.14   4
  -4  -2 -12 27847.9 1351.96   8
   4   2  12 28449.0 1148.07   4
  -4  -2 -13 66345.4 1867.27   8
   4   2  13 65885.3 1636.71   4
  -4  -3  11 16855.8 811.156   9
  -4  -3  10 43680.8 1573.82   9
  -4  -3   9 26783.0 1331.88   9
  -4  -3   8 91540.7 2683.83   9
  -4  -3   8 92955.4 2651.68  11
  -4  -3   7 218212. 4563.04   9
  -4  -3   7 220371. 4482.72  11
  -4  -3   6 816.313 313.947  11
  -4  -3   6 601.670 277.220   9
  -4  -3   5 95494.3 2769.34   9
  -4  -3   5 99163.5 2756.65  11
  -4  -3   4 99058.5 2470.28   3
  -4  -3   4 97683.6 2727.25   9
  -4  -3   4 96747.5 2678.35  11
  -4  -3   3 54434.3 1722.76   6
  -4  -3   3 55824.7 1869.07   3
  -4  -3   3 55124.6 1923.85   9
  -4  -3   3 56862.4 1946.44  11
  -4  -3   2 101620. 2445.00   6
  -4  -3   2 104767. 2729.11   3
  -4  -3   2 103527. 2601.25   9
  -4  -3   2 101255. 2605.75  11
  -4  -3   1 21852.7 1054.95   6
  -4  -3   1 23051.2 1235.54   3
  -4  -3   1 20939.4 1045.11   9
  -4  -3   0 271145. 5037.47   3
  -4  -3  -1 7062.43 719.627   3
  -4  -3  -2 105821. 3004.29   3
  -4  -3  -3 197333. 3792.78   6
  -4  -3  -3 209471. 4540.29   3
  -4  -3  -4 35477.6 1501.51   8
  -4  -3  -4 37814.5 1514.48   6
  -4  -3  -4 37318.1 1812.77   3
  -4  -3  -5 68880.2 2222.43   8
  -4  -3  -5 68456.6 2216.11   6
  -4  -3  -5 69742.3 2595.89   3
  -4  -3  -6 14096.6 1015.61   8
  -4  -3  -6 16089.7 1171.00   6
  -4  -3  -6 16443.8 1277.60   3
  -4  -3  -7 135398. 3470.29   8
  -4  -3  -7 129516. 4072.70   6
  -4  -3  -8 39192.8 1818.82   8
  -4  -3  -8 37281.6 2339.02   6
  -4  -3  -8 43703.6 2101.57   3
  -4  -3  -9 29610.0 1593.16   8
  -4  -3  -9 31078.1 2007.09   6
  -4  -3  -9 32384.1 1718.24   3
  -4  -3 -10 69911.8 2465.26   8
  -4  -3 -10 68449.6 2428.36   6
  -4  -3 -11 13936.5 1045.37   8
  -4  -3 -12 81711.6 2405.81   8
  -4  -3 -13 3582.96 433.620   8
  -4  -3 -14 63289.2 1490.90   8
  -4  -4  10 83991.6 1999.72   9
  -4  -4   9 3016.83 414.526   9
  -4  -4   8 108203. 2826.72   9
  -4  -4   8 107068. 2803.95  11
  -4  -4   7 7500.75 756.895   9
  -4  -4   7 7850.34 759.221  11
  -4  -4   6 143662. 3563.57   9
  -4  -4   6 139759. 3487.95  11
  -4  -4   5 68880.6 2346.62   9
  -4  -4   5 63392.2 2262.07  11
  -4  -4   4 9707.06 856.544   9
  -4  -4   4 8931.29 829.241  11
  -4  -4   3 161816. 3700.74   9
  -4  -4   3 158564. 3750.68  11
  -4  -4   2 450.231 223.024  11
  -4  -4   2 788.422 275.135   9
  -4  -4   2 699.159 245.377   3
  -4  -4   1 94562.6 2656.64   3
  -4  -4   1 95957.0 2558.85   9
  -4  -4   1 93806.4 2292.04   6
  -4  -4   1 96674.4 2722.77  11
  -4  -4   0 34535.7 1590.02   3
  -4  -4   0 33320.3 1396.42   9
  -4  -4   0 33290.6 1292.88   6
  -4  -4   0 31619.4 1490.93  11
  -4  -4  -1 24530.0 1164.67   9
  -4  -4  -1 25554.7 1141.26   6
  -4  -4  -1 24028.5 1365.90   3
  -4  -4  -1 25253.6 1308.66  11
  -4  -4  -2 146389. 3061.47   6
  -4  -4  -2 143037. 3713.43   3
  -4  -4  -3 6605.05 707.229  11
  -4  -4  -3 8174.35 710.324   8
  -4  -4  -3 8465.72 684.112   6
  -4  -4  -3 8235.32 915.442   3
  -4  -4  -4 99594.6 2741.60   8
  -4  -4  -4 98774.1 2645.70   6
  -4  -4  -4 104774. 3434.42   3
  -4  -4  -5 3447.18 542.804   6
  -4  -4  -5 3115.32 673.375   3
  -4  -4  -5 2377.15 422.418   8
  -4  -4  -6 158758. 3842.84   8
  -4  -4  -6 156659. 4121.51   6
  -4  -4  -7 84405.4 2755.59   8
  -4  -4  -7 78782.5 3195.31   6
  -4  -4  -8 27977.6 1560.89   8
  -4  -4  -8 27629.0 2050.90   6
  -4  -4  -9 121935. 3439.95   8
  -4  -4  -9 130919. 4108.37   6
  -4  -4  -9 137027. 4448.36   3
  -4  -4 -10 569.445 245.923   3
  -4  -4 -10 763.500 325.430   8
  -4  -4 -10 639.521 288.505   6
  -4  -4 -11 82645.8 2585.47   8
  -4  -4 -12 6569.39 673.114   8
  -4  -4 -13 53644.4 1700.03   8
  -4  -4 -14 57875.5 1427.21   8
  -4  -5   9 71442.5 1818.72   9
  -4  -5   8 63504.9 1944.40   9
  -4  -5   8 65646.8 1985.66  11
  -4  -5   7 13655.5 945.298   9
  -4  -5   7 15649.9 1035.69  11
  -4  -5   6 88968.5 2649.20   9
  -4  -5   6 86231.5 2635.38  11
  -4  -5   5 603.226 274.440  11
  -4  -5   5 849.156 262.033   9
  -4  -5   4 70986.7 2407.47   9
  -4  -5   4 71606.7 2461.89  11
  -4  -5   3 25386.4 1378.87   9
  -4  -5   3 26990.5 1489.26  11
  -4  -5   2 67456.9 2275.82   9
  -4  -5   2 65150.0 2386.81  11
  -4  -5   1 35614.0 1506.85   3
  -4  -5   1 34982.3 1596.82   9
  -4  -5   1 35075.8 1709.49  11
  -4  -5   0 28053.0 1407.43   3
  -4  -5   0 25301.1 1320.29   9
  -4  -5   0 27579.6 1511.23  11
  -4  -5  -1 86592.9 2706.68   3
  -4  -5  -1 89360.8 2510.89   9
  -4  -5  -1 91390.8 2293.75   6
  -4  -5  -1 88517.4 2806.73  11
  -4  -5  -2 13357.0 1062.68  11
  -4  -5  -2 15037.4 946.367   9
  -4  -5  -2 14524.6 911.447   6
  -4  -5  -2 14156.8 1120.32   3
  -4  -5  -3 84966.6 2820.40  11
  -4  -5  -3 89984.1 2619.82   8
  -4  -5  -3 88525.1 2467.57   6
  -4  -5  -3 83706.9 2970.84   3
  -4  -5  -4 22286.7 1433.12  11
  -4  -5  -4 22491.4 1304.64   8
  -4  -5  -4 24969.7 1341.88   6
  -4  -5  -4 20719.1 1544.83   3
  -4  -5  -5 76710.0 2824.52  11
  -4  -5  -5 78370.5 2567.60   8
  -4  -5  -5 79649.1 2686.09   6
  -4  -5  -6 116209. 3668.93  11
  -4  -5  -6 117501. 3288.82   8
  -4  -5  -6 115218. 3705.95   6
  -4  -5  -7 11414.8 1163.37  11
  -4  -5  -7 9096.48 1101.31   6
  -4  -5  -7 8170.13 1600.43   3
  -4  -5  -7 10326.2 966.882   8
  -4  -5  -8 142152. 4297.28  11
  -4  -5  -8 140258. 3713.39   8
  -4  -5  -8 157622. 4834.95   6
  -4  -5  -8 145280. 7306.62   3
  -4  -5  -9 6186.98 813.953  11
  -4  -5  -9 6702.10 828.892   6
  -4  -5  -9 5167.44 989.513   3
  -4  -5  -9 6330.18 771.026   8
  -4  -5 -10 115681. 3245.15   8
  -4  -5 -11 68271.0 2336.28   8
  -4  -5 -12 36966.1 1545.14   8
  -4  -5 -13 49497.7 1593.56   8
  -4  -5 -14 194.784 95.4036   8
  -4  -6   8 541.293 204.707   9
  -4  -6   7 52998.5 1730.45   9
  -4  -6   7 56396.2 1792.39  11
  -4  -6   6 4204.32 567.077  11
  -4  -6   6 3974.29 553.044   9
  -4  -6   5 53115.4 2000.83   9
  -4  -6   5 53491.3 2014.30  11
  -4  -6   4 39630.4 1763.88   9
  -4  -6   4 38754.6 1764.18  11
  -4  -6   3 21903.1 1326.46   9
  -4  -6   3 24625.2 1441.84  11
  -4  -6   2 135154. 3461.65   9
  -4  -6   2 138299. 3649.23  11
  -4  -6   1 1408.69 352.843  11
  -4  -6   1 1160.05 353.307   9
  -4  -6   0 79346.0 2504.20   9
  -4  -6   0 80795.5 2752.73  11
  -4  -6  -1 3906.92 600.257  11
  -4  -6  -1 5072.01 620.736   9
  -4  -6  -1 4041.62 538.316   3
  -4  -6  -2 84247.0 2868.81  11
  -4  -6  -2 87138.9 2479.77   6
  -4  -6  -2 81490.3 2681.53   3
  -4  -6  -3 52699.1 2282.43  11
  -4  -6  -3 56453.5 2092.87   6
  -4  -6  -3 53192.1 2304.22   3
  -4  -6  -4 73056.0 2722.87  11
  -4  -6  -4 68106.8 2426.61   8
  -4  -6  -4 64416.6 2462.34   6
  -4  -6  -4 67798.0 2760.88   3
  -4  -6  -5 161013. 4289.89  11
  -4  -6  -5 150492. 3822.37   8
  -4  -6  -5 150847. 4222.30   6
  -4  -6  -5 145848. 4498.53   3
  -4  -6  -6 1122.55 378.430  11
  -4  -6  -6 147.568 342.345   6
  -4  -6  -6 1032.80 537.581   3
  -4  -6  -6 594.298 290.460   8
  -4  -6  -7 93598.9 3264.59  11
  -4  -6  -7 93209.4 2984.16   8
  -4  -6  -7 95684.7 3619.68   6
  -4  -6  -7 100542. 4545.98   3
  -4  -6  -8 31390.7 1799.96  11
  -4  -6  -8 32500.6 1715.14   8
  -4  -6  -8 34909.7 1882.93   6
  -4  -6  -8 31899.1 2489.76   3
  -4  -6  -9 41117.1 1970.54  11
  -4  -6  -9 42126.6 1927.42   8
  -4  -6  -9 43198.8 1904.69   6
  -4  -6  -9 39400.3 2488.74   3
  -4  -6 -10 76384.8 2566.24  11
  -4  -6 -10 82452.7 2659.74   8
  -4  -6 -11 8610.01 742.256  11
  -4  -6 -11 8609.20 806.537   8
  -4  -6 -12 98981.3 2555.17   8
  -4  -6 -13 4661.37 461.141   8
  -4  -7   7 28827.5 1054.14  11
  -4  -7   6 14990.9 853.665  11
  -4  -7   5 24863.8 1212.21   9
  -4  -7   5 25089.8 1233.43  11
  -4  -7   4 13398.5 970.681   9
  -4  -7   4 13254.4 978.508  11
  -4  -7   3 82570.1 2564.82   9
  -4  -7   3 86265.4 2654.47  11
  -4  -7   2 1991.21 430.293  11
  -4  -7   2 3666.11 596.847   9
  -4  -7   1 110215. 3028.76   9
  -4  -7   1 114370. 3290.28  11
  -4  -7   0 52643.7 2198.55  11
  -4  -7  -1 23676.1 1458.36  11
  -4  -7  -2 59603.7 2387.10  11
  -4  -7  -3 34403.6 1809.45  11
  -4  -7  -3 33391.6 1404.09   5
  -4  -7  -3 30115.4 1568.66   3
  -4  -7  -4 181392. 4608.63   6
  -4  -7  -4 179567. 4418.87   3
  -4  -7  -5 19947.5 1417.65  11
  -4  -7  -5 20871.3 1542.20   6
  -4  -7  -5 18838.4 1412.02   3
  -4  -7  -6 79997.4 2876.45  11
  -4  -7  -6 73298.2 2612.37   8
  -4  -7  -6 78994.9 2869.05   6
  -4  -7  -6 77300.7 3040.07   3
  -4  -7  -7 28556.6 1654.38  11
  -4  -7  -7 28068.6 1581.92   8
  -4  -7  -7 29079.0 1570.55   6
  -4  -7  -7 28894.1 1872.77   3
  -4  -7  -8 10740.6 993.121  11
  -4  -7  -8 9738.71 929.584   8
  -4  -7  -8 9853.86 858.665   6
  -4  -7  -8 9266.80 1002.12   3
  -4  -7  -9 85515.5 2735.96  11
  -4  -7  -9 88061.6 2786.28   8
  -4  -7 -10 1263.55 331.408  11
  -4  -7 -10 1026.13 380.630   8
  -4  -7 -11 57644.1 1846.33  11
  -4  -7 -11 60236.8 2020.86   8
  -4  -7 -12 21873.9 933.208  11
  -4  -8   6 43693.6 1161.83  11
  -4  -8   5 3789.88 396.102  11
  -4  -8   4 62694.8 1836.25  11
  -4  -8   3 6162.53 618.650  11
  -4  -8   2 45013.7 1786.80  11
  -4  -8   1 45080.2 1858.52  11
  -4  -8   0 12558.2 1006.49  11
  -4  -8  -1 84453.2 2726.39  11
  -4  -8  -2 224.750 292.266  11
  -4  -8  -3 104282. 2461.64   5
  -4  -8  -3 105924. 3161.31  11
  -4  -8  -4 52045.3 2171.43  11
  -4  -8  -4 47947.4 1666.34   5
  -4  -8  -5 30114.7 1642.51  11
  -4  -8  -5 27036.5 1281.31   5
  -4  -8  -5 30015.9 1302.30   6
  -4  -8  -6 85554.4 2788.07  11
  -4  -8  -6 83400.1 2294.23   6
  -4  -8  -7 1742.76 399.493  11
  -4  -8  -8 51653.0 2001.12  11
  -4  -8  -9 21121.2 1200.21  11
  -4  -8 -10 34908.1 1428.87  11
  -4  -8 -11 30168.0 1181.02  11
  -4  -8 -12 2618.05 286.286  11
  -4  -8 -12 2497.00 275.390   5
  -4  -9   4 16325.7 682.661  11
  -4  -9   3 28152.7 1036.47  11
  -4  -9   2 49793.9 1561.05  11
  -4  -9   1 441.641 181.155  11
  -4  -9   0 43902.0 1652.75  11
  -4  -9  -1 12651.5 918.530  11
  -4  -9  -2 52223.6 1947.47  11
  -4  -9  -3 53794.2 1515.79   5
  -4  -9  -3 56567.5 2061.11  11
  -4  -9  -4 619.639 279.618  11
  -4  -9  -4 236.207 161.410   5
  -4  -9  -5 58127.1 1708.77   5
  -4  -9  -5 62922.7 2149.46  11
  -4  -9  -6 10501.0 853.357  11
  -4  -9  -6 11071.3 729.585   5
  -4  -9  -7 34680.8 1507.56  11
  -4  -9  -7 33396.9 1279.16   5
  -4  -9  -8 17358.1 1005.27  11
  -4  -9  -8 17920.3 912.437   5
  -4  -9  -9 17085.3 942.420  11
  -4  -9  -9 16243.2 825.705   5
  -4  -9 -10 66663.2 1794.41  11
  -4  -9 -10 73370.1 1713.61   5
  -4  -9 -11 305.967 123.172  11
  -4  -9 -11 267.764 113.484   5
  -4 -10   2 2794.00 256.924  11
  -4 -10   1 27982.3 951.835  11
  -4 -10   0 15708.7 769.474  11
  -4 -10  -1 9258.43 628.845  11
  -4 -10  -2 72785.2 1932.62  11
  -4 -10  -3 106.096 175.652  11
  -4 -10  -4 27855.8 917.834   5
  -4 -10  -4 30934.8 1253.20  11
  -4 -10  -5 21510.1 836.792   5
  -4 -10  -5 21954.0 1046.45  11
  -4 -10  -6 13684.4 681.581   5
  -4 -10  -6 15308.4 853.912  11
  -4 -10  -7 39090.1 1169.25   5
  -4 -10  -7 39181.4 1342.28  11
  -4 -10  -8 890.001 214.015  11
  -4 -10  -8 881.330 181.943   5
  -4 -10  -9 27932.0 880.040   5
  -4 -10  -9 26090.6 955.254  11
  -4 -10 -10 827.408 154.214  11
  -4 -10 -10 1328.49 176.951   5
  -4 -11  -2 8041.26 418.343  11
  -4 -11  -3 36424.7 1001.44  11
  -4 -11  -4 12345.8 581.816  11
  -4 -11  -5 3360.91 303.319  11
  -4 -11  -6 29452.3 905.996  11
  -4 -11  -7 242.502 105.201  11
   5  -9  -7 23793.3 821.958  12
   5  -9  -6 72491.5 1683.70  12
   5  -9  -5 143.359 127.648  12
   5  -9  -4 61057.3 1643.39  12
   5  -9  -3 7615.71 553.868  12
   5  -9  -2 24140.9 971.584  12
   5  -9  -1 27765.3 1005.02  12
   5  -9   0 11346.4 588.725  12
   5  -8  -8 8704.59 564.220  12
   5  -8  -7 76587.5 2000.51  12
   5  -8  -6 9984.11 744.799  12
   5  -8  -5 87211.0 2411.48  12
   5  -8  -4 27907.2 1338.23  12
   5  -8  -3 25647.3 1290.94  12
   5  -8  -2 60085.6 1986.95  12
   5  -8  -1 4256.55 524.367  12
   5  -8   0 76550.1 2131.89  12
   5  -8   1 21356.4 1013.86  12
   5  -8   2 32092.0 1153.02  12
   5  -8   3 40621.5 1174.31  12
  -5   7  10 68889.8 1563.83   6
  -5   7   9 293.667 161.661   6
   5  -7  -9 115.418 125.171  12
  -5   7   8 73428.0 1864.08   6
   5  -7  -8 70584.2 2042.13  12
  -5   7   7 25077.9 1056.91   6
   5  -7  -7 23650.4 1288.93  12
   5  -7  -6 30882.8 1591.30  12
   5  -7  -5 101060. 3099.98  12
   5  -7  -4 5131.95 672.333  12
   5  -7  -3 65692.6 2450.09  12
   5  -7  -2 954.024 356.598  12
   5  -7  -1 63785.4 2304.74  12
   5  -7   0 32810.0 1587.12  12
  -5   7  -1 57661.3 2098.15   8
   5  -7   1 49388.5 1896.94  12
  -5   7  -2 113407. 3048.69   8
   5  -7   2 98749.3 2639.05  12
  -5   7  -3 346.891 242.778   8
   5  -7   3 184.743 188.272  12
  -5   7  -4 64507.1 1889.56   8
   5  -7   4 63624.3 1745.36  12
  -5   7  -5 9239.89 589.515   8
   5  -7   5 8933.61 552.592  12
  -5   6  11 63973.7 1650.73   6
  -5   6  10 7757.70 643.279   6
  -5   6  10 6112.66 535.327   7
  -5   6   9 51181.4 1830.04   6
  -5   6   9 49762.5 1777.35   7
  -5   6   8 38108.7 1670.51   6
  -5   6   8 37567.7 1693.96   7
   5  -6  -8 35784.4 1683.76  12
  -5   6   7 17486.9 1167.69   6
   5  -6  -7 14991.4 1274.70  12
  -5   6   6 78341.2 2536.88   6
   5  -6  -6 76264.1 3199.87  12
  -5   6   5 1927.37 409.919   6
   5  -6  -5 730.869 422.580  12
   5  -6  -4 106808. 3578.25  12
   5  -6  -3 22034.9 1525.03  12
   5  -6  -2 73939.7 2775.37  12
   5  -6  -1 96971.6 3131.99  12
   5  -6   0 1005.95 290.627  12
   5  -6   1 136260. 3596.90  12
  -5   6  -2 409.020 337.421   8
   5  -6   2 1213.56 429.537  12
  -5   6  -3 65863.8 2683.89   8
   5  -6   3 82733.6 2500.46  12
  -5   6  -4 28990.1 1560.07   8
   5  -6   4 36161.8 1511.78  12
  -5   6  -5 36599.5 1583.26   8
   5  -6   5 40465.5 1489.91  12
  -5   6  -6 80880.2 2143.98   8
  -5   6  -7 1989.29 274.536   8
  -5   5  12 57890.6 1462.83   6
  -5   5  12 51595.0 1309.39   9
  -5   5  11 8292.18 686.015   6
  -5   5  10 50629.5 1995.32   6
  -5   5  10 42212.3 1679.39   7
  -5   5   9 124196. 3644.29   6
  -5   5   9 92717.6 2932.68   7
  -5   5   8 2254.87 677.666   6
  -5   5   8 1677.52 537.728   7
  -5   5   7 131799. 4342.84   6
  -5   5   7 76768.8 3804.31   7
  -5   5   6 14775.2 1386.29   6
   5  -5  -6 8264.82 1277.38  12
  -5   5   5 76988.0 2900.70   6
   5  -5  -5 60575.4 3048.30  12
  -5   5   4 21990.3 1422.07   6
   5  -5  -4 20666.4 1638.03  12
  -5   5   3 64986.3 2298.23   6
   5  -5  -3 55274.0 2553.11  12
   5  -5  -2 168132. 4452.70  12
   5  -5  -1 795.851 303.214  12
   5  -5   0 113526. 3405.48  12
   5  -5   1 50057.9 2153.46  12
  -5   5  -2 92031.7 3558.78   8
   5  -5   2 88066.9 2866.42  12
  -5   5  -3 92158.1 3452.00   8
   5  -5   3 93368.9 2882.96  12
  -5   5  -4 7612.34 930.146   8
   5  -5   4 7463.32 780.379  12
  -5   5  -5 93564.5 2971.19   8
   5  -5   5 102211. 2767.76  12
   5  -5   6 5888.35 607.960  12
  -5   5  -6 4963.89 608.157   8
  -5   5  -7 65479.7 1997.48   8
  -5   5  -8 37367.8 1260.81   8
  -5   4  12 33529.3 1153.57   6
  -5   4  12 33576.1 1128.95   9
  -5   4  11 14687.6 969.626   6
  -5   4  10 48819.3 2203.01   6
  -5   4  10 52986.6 2020.32   7
  -5   4   9-126.232 544.880   6
  -5   4   9 63.6567 262.946   7
  -5   4   8 126191. 4014.87   7
  -5   4   7 66267.5 2917.14   7
  -5   4   6 79680.2 3792.95   6
  -5   4   5 83088.3 3454.57   6
  -5   4   4 38894.6 2129.12   6
   5  -4  -4 48135.7 2289.19  12
  -5   4   3 210627. 4990.10   6
   5  -4  -3 233628. 5295.26  12
  -5   4   2 28755.4 1569.18   6
   5  -4  -2 29226.6 1706.33  12
  -5   4   1 131840. 3300.70   6
   5  -4  -1 130055. 3690.36  12
   5  -4   0 64693.1 2473.71  12
   5  -4   1 38409.2 1858.73  12
  -5   4  -2 162871. 4235.90   8
   5  -4   2 149674. 3879.42  12
  -5   4  -3 212.611 249.460   8
   5  -4   3 282.959 240.119  12
  -5   4  -4 151376. 4090.97   8
   5  -4   4 142869. 3675.32  12
  -5   4  -5 47163.1 2128.24   8
   5  -4   5 44693.3 1884.74  12
  -5   4  -6 21347.4 1375.38   8
   5  -4   6 20276.8 1213.89  12
  -5   4  -7 84392.5 2573.68   8
  -5   4  -8 9807.89 757.967   8
  -5   4  -9 70596.5 1816.32   8
   5  -4   9 68836.6 1636.30   4
  -5   3  12 7456.19 509.157   6
  -5   3  12 6712.05 518.502   9
  -5   3  11 88936.5 2461.20   6
  -5   3  10 5478.35 718.053   6
  -5   3   9 90696.4 3660.91   6
  -5   3   9 92891.3 3063.78   7
  -5   3   8 95232.5 4196.12   6
  -5   3   8 98540.9 3261.36   7
  -5   3   7 5227.51 955.311   6
  -5   3   7 6326.20 831.930   7
  -5   3   6 208954. 6263.69   6
  -5   3   6 216931. 4927.40   7
  -5   3   5 30441.2 2124.86   6
  -5   3   4 199706. 5306.89   6
  -5   3   3 132221. 3966.20   6
  -5   3   3 146089. 3271.07   3
  -5   3   2 66900.6 2598.37   6
  -5   3   2 72380.2 2163.96   3
  -5   3   1 181476. 3616.68   3
   5  -3  -1 187206. 4093.22  12
  -5   3   0 5549.41 638.824   6
  -5   3   0 6127.45 562.230   3
   5  -3   0 6110.61 687.522  12
   5  -3   1 142060. 3577.18  12
  -5   3  -2 10747.4 932.238   8
   5  -3   2 10824.7 928.360  12
  -5   3  -3 124869. 3506.67   8
   5  -3   3 130494. 3436.92  12
  -5   3  -4 132447. 3654.94   8
   5  -3   4 132181. 3478.56  12
  -5   3  -5 2026.94 466.970   8
   5  -3   5 2655.00 501.447  12
  -5   3  -6 63336.3 2387.77   8
   5  -3   6 60591.5 2201.22  12
   5  -3   7 3853.53 566.007  12
  -5   3  -7 4478.80 641.182   8
  -5   3  -8 97518.2 2770.37   8
  -5   3  -9 13120.4 864.224   8
  -5   3 -10 37591.7 1255.04   8
   5  -3  10 36054.1 1087.28   4
  -5   2  12 102812. 2217.78   9
  -5   2  11 31101.1 1299.80   6
  -5   2  11 31765.6 1355.72   9
  -5   2  10 58423.1 2191.33   6
  -5   2   9 119693. 3684.35   6
  -5   2   8 5684.67 812.537   6
  -5   2   8 5628.51 750.064   7
  -5   2   7 117877. 3963.23   6
  -5   2   7 118004. 3450.00   7
  -5   2   6 38396.8 2224.57   6
  -5   2   6 40697.6 1897.12   7
  -5   2   5 267378. 6187.94   6
  -5   2   5 267673. 5213.77   7
  -5   2   4 97659.2 3418.42   6
  -5   2   4 94419.9 2648.07   3
  -5   2   3 1528.60 415.395   6
  -5   2   3 1519.20 358.812   3
  -5   2   2 242955. 5436.78   6
  -5   2   2 250637. 4591.23   3
  -5   2   1 18212.3 1288.16   6
  -5   2   1 18176.9 1041.69   3
  -5   2   0 137744. 3547.78   6
  -5   2   0 135604. 3101.54   3
  -5   2  -1 59546.5 1893.16   3
  -5   2  -1 59600.8 2142.33   6
  -5   2  -2 58420.6 1805.55   3
   5  -2   2 56524.0 1992.99  12
  -5   2  -2 57439.8 2017.34   6
  -5   2  -3 108167. 3014.36   8
   5  -2   3 105233. 2874.84  12
  -5   2  -4 6627.77 759.314   8
   5  -2   4 7351.69 723.559  12
  -5   2  -5 180260. 4239.48   8
   5  -2   5 178516. 3988.36  12
  -5   2  -6 64220.4 2399.48   8
   5  -2   6 64956.5 2258.85  12
  -5   2  -7 33685.0 1688.53   8
  -5   2  -8 29710.0 1523.50   8
  -5   2  -9 27224.7 1350.94   8
  -5   2 -10 94944.4 2363.51   8
   5  -2  10 88615.8 2008.29   4
  -5   2 -11 927.251 213.544   8
  -5   1  12 64288.3 1607.05   9
  -5   1  11 16422.0 939.295   9
  -5   1  10 147099. 3313.31   6
  -5   1  10 152373. 3519.46   9
  -5   1   9 4645.55 611.128   6
  -5   1   9 4839.08 650.379   9
  -5   1   8 131578. 3672.45   6
  -5   1   7 65020.5 2606.80   6
  -5   1   6 46560.3 2213.89   6
  -5   1   5 220628. 5184.28   6
  -5   1   5 216772. 4394.31   3
  -5   1   4 2868.68 555.343   6
  -5   1   4 2883.73 467.872   3
  -5   1   3 94576.9 3135.64   6
  -5   1   3 93618.1 2625.72   3
  -5   1   2 92692.8 3027.48   6
  -5   1   2 89719.1 2552.50   3
  -5   1   1 104377. 3173.70   6
  -5   1   1 103728. 2747.66   3
  -5   1   0 229911. 4856.91   6
  -5   1   0 223663. 4313.69   3
  -5   1  -1 7360.76 672.536   3
  -5   1  -1 7682.87 766.060   6
  -5   1  -2 141217. 3184.06   3
  -5   1  -2 141087. 3433.93   6
  -5   1  -3 20287.9 1072.07   3
  -5   1  -3 20992.0 1211.14   8
   5  -1   3 20716.4 1100.61  12
  -5   1  -3 21082.7 1199.42   6
  -5   1  -4 66620.7 2319.79   8
   5  -1   4 67950.1 2128.45  12
  -5   1  -4 66392.2 2171.75   6
  -5   1  -5 41284.4 1845.40   8
   5  -1   5 42948.3 1717.99  12
  -5   1  -6 105791. 3099.05   8
   5  -1   6 108895. 2904.88  12
  -5   1  -7 133462. 3502.04   8
  -5   1  -8 5621.83 691.166   8
  -5   1  -9 91135.8 2664.85   8
   5  -1   9 89525.9 2201.85   4
  -5   1 -10 20193.1 1109.28   8
   5  -1  10 18909.3 870.595   4
  -5   1 -11 53750.4 1640.62   8
   5  -1  11 50807.4 1302.66   4
  -5   0  12 115.363 101.546   9
  -5   0  11 64187.4 1838.97   9
  -5   0  10 53594.9 1889.22   9
  -5   0   9 61397.2 1977.76   6
  -5   0   9 64143.0 2219.16   9
  -5   0   8 84225.8 2590.90   6
  -5   0   8 86667.8 2704.97   9
  -5   0   7 24004.5 1418.90   6
  -5   0   7 25750.5 1451.02   9
  -5   0   6 338088. 6376.50   6
  -5   0   6 343181. 6186.37   9
  -5   0   5 101789. 3151.59   6
  -5   0   5 100671. 2797.81   3
  -5   0   5 97298.9 2853.25   9
  -5   0   4 38388.8 1870.74   6
  -5   0   4 38431.2 1670.61   3
  -5   0   4 38880.0 1647.44   9
  -5   0   3 26639.6 1537.18   6
  -5   0   3 26367.7 1360.48   3
  -5   0   2 33256.9 1691.12   6
  -5   0   2 33556.0 1538.23   3
  -5   0   1 164158. 3966.98   6
  -5   0   1 163709. 3677.25   3
  -5   0   0 1003.63 328.228   6
  -5   0   0 1472.53 364.245   3
  -5   0  -1 229944. 4495.88   3
  -5   0  -1 230828. 4741.65   6
  -5   0  -2 28078.3 1385.29   3
  -5   0  -2 30210.7 1523.21   6
  -5   0  -3 54992.1 1959.25   3
  -5   0  -3 55595.1 1945.76   8
  -5   0  -3 56551.1 2072.40   6
  -5   0  -4 114854. 2896.40   3
  -5   0  -4 123299. 3123.38   8
  -5   0  -4 114480. 3063.10   6
  -5   0  -5 5505.18 568.687   3
  -5   0  -5 5604.08 660.064   8
   5   0   5 5251.15 558.423  12
  -5   0  -5 4898.91 624.137   6
  -5   0  -6 152375. 3735.45   8
  -5   0  -6 148493. 3873.99   6
  -5   0  -7 10809.7 943.513   8
  -5   0  -8 159675. 3829.99   8
  -5   0  -9 65047.0 2270.62   8
  -5   0 -10 27659.5 1366.86   8
  -5   0 -11 77496.9 2151.11   8
  -5   0 -12 1769.07 280.695   8
  -5  -1  11 50195.7 1474.80   9
  -5  -1  10 1615.43 323.699   9
  -5  -1   9 105549. 2797.66   9
  -5  -1   8 99.7306 169.148   6
  -5  -1   8 189.269 265.138   9
  -5  -1   7 94885.7 2636.29   6
  -5  -1   7 96397.0 2842.89   9
  -5  -1   6 52857.6 2023.94   6
  -5  -1   6 53884.7 2083.08   9
  -5  -1   5 110913. 3088.99   6
  -5  -1   5 104633. 2808.04   3
  -5  -1   5 109751. 3032.28   9
  -5  -1   4 189809. 4267.47   6
  -5  -1   4 183558. 3998.22   3
  -5  -1   4 186655. 4018.59   9
  -5  -1   3 669.399 314.430   6
  -5  -1   3 676.196 252.799   9
  -5  -1   3 1092.10 320.054   3
  -5  -1   2 120914. 3277.55   6
  -5  -1   2 124263. 3225.81   3
  -5  -1   1 1372.53 368.352   6
  -5  -1   1 1657.57 402.349   3
  -5  -1   0 205421. 4368.15   6
  -5  -1   0 206710. 4385.68   3
  -5  -1  -1 68114.5 2322.58   3
  -5  -1  -1 66224.0 2288.95   6
  -5  -1  -2 63337.9 2229.88   3
  -5  -1  -2 65397.5 2257.08   6
  -5  -1  -3 112591. 3037.35   3
  -5  -1  -3 114408. 3089.82   6
  -5  -1  -4 1678.39 420.585   6
  -5  -1  -4 1349.88 351.186   3
  -5  -1  -4 834.743 238.033   8
  -5  -1  -5 105401. 2884.44   3
  -5  -1  -5 108035. 3001.77   8
  -5  -1  -5 107471. 3081.40   6
  -5  -1  -6 33926.8 1513.12   3
  -5  -1  -6 35121.3 1673.39   8
  -5  -1  -6 34587.1 1839.89   6
  -5  -1  -7 183191. 4140.10   8
  -5  -1  -7 162390. 4660.47   6
  -5  -1  -8 104927. 3057.34   8
  -5  -1  -8 104615. 3782.93   6
  -5  -1  -9 1392.90 369.629   8
  -5  -1 -10 83672.5 2524.32   8
  -5  -1 -11 2777.91 437.021   8
  -5  -1 -12 75848.5 1910.02   8
  -5  -2  11 3095.65 293.567   9
  -5  -2  10 78427.1 2026.74   9
  -5  -2   9 25210.1 1227.15   9
  -5  -2   8 89909.2 2581.14   9
  -5  -2   7 74391.2 2405.93   9
  -5  -2   6 5876.28 577.949   6
  -5  -2   6 5609.39 671.267   9
  -5  -2   6 6263.90 578.835  11
  -5  -2   5 82053.2 2411.66   6
  -5  -2   5 76269.4 2246.37   3
  -5  -2   5 83569.1 2601.77   9
  -5  -2   4 842.333 292.822   6
  -5  -2   4 1153.24 314.126   9
  -5  -2   4 747.476 258.415   3
  -5  -2   3 133074. 3288.32   6
  -5  -2   3 127813. 3276.17   3
  -5  -2   3 135174. 3251.65   9
  -5  -2   2 45865.2 1843.94   6
  -5  -2   2 45408.6 1910.15   3
  -5  -2   2 44544.6 1695.25   9
  -5  -2   1 114050. 3175.06   3
  -5  -2   1 112004. 2989.93   6
  -5  -2   0 126298. 3394.72   3
  -5  -2   0 122511. 3146.61   6
  -5  -2  -1 25377.1 1451.04   3
  -5  -2  -1 25099.7 1341.68   6
  -5  -2  -2 170969. 4072.44   3
  -5  -2  -2 165390. 3794.72   6
  -5  -2  -3 6833.61 779.695   3
  -5  -2  -3 7028.16 737.019   6
  -5  -2  -4 125364. 3416.56   3
  -5  -2  -4 120960. 3156.36   8
  -5  -2  -4 119337. 3221.97   6
  -5  -2  -5 35121.9 1732.42   3
  -5  -2  -5 34541.6 1653.71   8
  -5  -2  -5 37163.6 1774.93   6
  -5  -2  -6 31943.6 1627.67   3
  -5  -2  -6 31727.4 1621.25   8
  -5  -2  -6 34360.1 1843.33   6
  -5  -2  -7 227719. 4671.99   3
  -5  -2  -7 219678. 5665.73   6
  -5  -2  -8 411.765 390.551   6
  -5  -2  -8 647.639 311.495   8
  -5  -2  -9 50095.3 2021.79   8
  -5  -2  -9 48995.2 2094.93   6
  -5  -2 -10 46656.7 1892.05   8
  -5  -2 -11 31927.6 1410.94   8
  -5  -2 -12 65889.9 1812.34   8
  -5  -3  10 31118.8 1049.17   9
  -5  -3   9 36632.5 1353.00   9
  -5  -3   8 77475.1 2233.35   9
  -5  -3   7 7528.61 748.827   9
  -5  -3   7 8564.42 705.257  11
  -5  -3   6 92244.2 2711.50   9
  -5  -3   6 92200.0 2475.05  11
  -5  -3   5 3122.08 454.493  11
  -5  -3   5 3059.73 499.464   9
  -5  -3   4 67325.7 2322.63   9
  -5  -3   4 69842.3 2138.87  11
  -5  -3   4 69605.5 2056.40   6
  -5  -3   3 58169.8 2038.22   3
  -5  -3   3 59030.4 2119.58   9
  -5  -3   3 59537.0 1937.46  11
  -5  -3   3 59709.6 1971.73   6
  -5  -3   2 30263.8 1505.86   3
  -5  -3   2 31829.7 1481.78   9
  -5  -3   2 29009.2 1369.60   6
  -5  -3   1 150642. 3766.10   3
  -5  -3   1 150853. 3376.61   9
  -5  -3   1 151456. 3436.49   6
  -5  -3   0 209.270 183.657   6
  -5  -3   0 402.596 245.408   3
  -5  -3  -1 152423. 3950.15   3
  -5  -3  -1 143856. 3413.54   6
  -5  -3  -2 93898.8 3059.85   3
  -5  -3  -2 88217.9 2601.62   6
  -5  -3  -3 58862.0 2420.62   3
  -5  -3  -3 57529.2 2106.37   6
  -5  -3  -4 100435. 3263.92   3
  -5  -3  -4 99592.8 2842.11   8
  -5  -3  -4 99749.1 2902.20   6
  -5  -3  -5 24387.8 1589.27   3
  -5  -3  -5 24111.1 1396.43   8
  -5  -3  -5 23391.0 1441.04   6
  -5  -3  -6 216803. 4731.03   8
  -5  -3  -6 224451. 5219.98   6
  -5  -3  -7 72517.3 2727.89   3
  -5  -3  -7 67722.4 2460.39   8
  -5  -3  -7 68180.9 3020.96   6
  -5  -3  -8 79738.4 2702.43   3
  -5  -3  -8 78336.0 2637.13   8
  -5  -3  -8 74320.9 3319.97   6
  -5  -3  -9 31690.5 1606.87   8
  -5  -3  -9 32368.4 1779.76   6
  -5  -3 -10 3140.13 489.301   8
  -5  -3 -11 87390.2 2401.12   8
  -5  -3 -12 1042.37 254.185   8
  -5  -4   9 82597.7 1857.95   9
  -5  -4   8 284.534 188.153   9
  -5  -4   7 76978.2 2218.90   9
  -5  -4   7 76218.2 2069.27  11
  -5  -4   6 24901.6 1299.83   9
  -5  -4   6 24505.0 1202.28  11
  -5  -4   5 40730.4 1724.18   9
  -5  -4   5 41457.7 1671.25  11
  -5  -4   4 56521.3 2083.64   9
  -5  -4   4 57664.8 2034.65  11
  -5  -4   3 8371.79 789.026   9
  -5  -4   3 8732.84 792.484  11
  -5  -4   2 159249. 3579.24   3
  -5  -4   2 165747. 3772.85   9
  -5  -4   2 170144. 3781.73  11
  -5  -4   2 166876. 3380.60   6
  -5  -4   1 27504.1 1463.09   3
  -5  -4   1 29146.9 1424.02   9
  -5  -4   1 29800.0 1329.88   6
  -5  -4   1 32041.7 1517.50  11
  -5  -4   0 80464.3 2717.52   3
  -5  -4   0 85598.9 2449.43   9
  -5  -4   0 85252.8 2406.83   6
  -5  -4  -1 67088.8 2551.23   3
  -5  -4  -1 72999.7 2236.44   6
  -5  -4  -2 4950.13 727.950   3
  -5  -4  -2 5682.18 629.802   6
  -5  -4  -3 197572. 5034.55   3
  -5  -4  -3 204645. 4263.78   6
  -5  -4  -4 12220.7 1199.50   3
  -5  -4  -4 11794.2 937.897   8
  -5  -4  -4 12899.3 1040.24   6
  -5  -4  -5 101048. 2982.55   8
  -5  -4  -5 105477. 3244.09   6
  -5  -4  -5 112267. 3961.63   3
  -5  -4  -6 75856.3 2556.40   8
  -5  -4  -6 75081.8 2970.70   6
  -5  -4  -7 37894.1 1785.73   8
  -5  -4  -7 36762.7 2212.23   6
  -5  -4  -8 90416.2 2814.76   8
  -5  -4  -8 99599.5 3803.98   6
  -5  -4  -9 2693.96 570.936   6
  -5  -4  -9 2761.92 501.628   8
  -5  -4 -10 67401.9 2222.77   8
  -5  -4 -11 11295.5 818.906   8
  -5  -4 -12 39975.2 1375.14   8
  -5  -5   8 32123.6 1067.47   9
  -5  -5   7 43168.4 1454.04   9
  -5  -5   7 43965.5 1405.89  11
  -5  -5   6 12380.1 843.187   9
  -5  -5   6 12001.8 797.665  11
  -5  -5   5 93584.5 2571.25   9
  -5  -5   5 90993.2 2472.12  11
  -5  -5   4 7187.30 710.449   9
  -5  -5   4 7280.83 720.395  11
  -5  -5   3 110541. 2959.30   9
  -5  -5   3 107377. 2943.56  11
  -5  -5   2 68062.4 2286.35   9
  -5  -5   2 66138.4 2307.24  11
  -5  -5   1 34642.0 1594.04   9
  -5  -5   1 34307.1 1331.40   6
  -5  -5   1 34916.7 1667.74  11
  -5  -5   0 99040.5 2869.21   3
  -5  -5   0 105994. 2820.10   9
  -5  -5   0 109536. 2639.78   6
  -5  -5   0 103184. 3012.02  11
  -5  -5  -1 2872.29 510.264  11
  -5  -5  -1 2806.66 434.823   6
  -5  -5  -1 2508.56 482.680   3
  -5  -5  -2 72450.6 2722.96   3
  -5  -5  -2 77901.6 2632.65  11
  -5  -5  -3 27467.5 1710.82   3
  -5  -5  -3 26983.3 1530.35  11
  -5  -5  -4 108978. 2988.21   8
  -5  -5  -4 112555. 3268.19   6
  -5  -5  -5 116296. 3174.71   8
  -5  -5  -5 116050. 3545.76   6
  -5  -5  -6 1461.61 582.289   6
  -5  -5  -6 746.764 594.513   3
  -5  -5  -6 1690.84 407.186   8
  -5  -5  -7 62588.6 2278.02   8
  -5  -5  -7 60117.4 2840.12   6
  -5  -5  -8 151.276 462.192   6
  -5  -5  -8 166.603 243.033   8
  -5  -5  -9 58315.1 2119.70   8
  -5  -5  -9 62394.3 2233.35   6
  -5  -5 -10 25118.0 1295.80   8
  -5  -5 -11 25744.3 1192.54   8
  -5  -5 -12 34854.8 1228.96   8
  -5  -6   6 41216.4 1359.40   9
  -5  -6   6 39587.7 1286.81  11
  -5  -6   5 5603.75 557.643   9
  -5  -6   5 4621.42 496.461  11
  -5  -6   4 55393.7 1849.23   9
  -5  -6   4 52931.9 1812.63  11
  -5  -6   3 122725. 2986.52   9
  -5  -6   3 118751. 3010.29  11
  -5  -6   2 4675.89 607.319  11
  -5  -6   2 5422.58 619.506   9
  -5  -6   1 122104. 3008.85   9
  -5  -6   1 113414. 3144.79  11
  -5  -6   0 9312.74 884.044  11
  -5  -6  -1 71486.2 2205.19   6
  -5  -6  -1 64770.6 2417.76  11
  -5  -6  -2 27146.0 1472.32   3
  -5  -6  -2 28866.6 1463.42   6
  -5  -6  -2 26746.5 1537.93  11
  -5  -6  -3 24876.3 1494.11   3
  -5  -6  -3 23760.2 1435.17   6
  -5  -6  -3 24709.2 1498.82  11
  -5  -6  -4 100953. 3327.95   3
  -5  -6  -4 109986. 3395.83   6
  -5  -6  -4 101884. 3220.58  11
  -5  -6  -5-297.822 314.400  11
  -5  -6  -5 40.2610 372.414   6
  -5  -6  -5 569.013 243.468   8
  -5  -6  -5-79.8774 269.889   3
  -5  -6  -6 43606.2 2138.69  11
  -5  -6  -6 40454.5 1776.37   8
  -5  -6  -6 40792.1 2193.06   6
  -5  -6  -7 6879.64 882.279   6
  -5  -6  -7 6519.17 719.247   8
  -5  -6  -8 27520.7 1429.10   8
  -5  -6  -8 29354.5 1525.89   6
  -5  -6  -9 27992.1 1373.04   8
  -5  -6 -10 8496.28 718.627   8
  -5  -6 -11 57020.6 1719.18   8
  -5  -7   5 12169.3 639.272  11
  -5  -7   4 42404.8 1405.16  11
  -5  -7   3 993.858 259.744  11
  -5  -7   2 71182.5 2156.32  11
  -5  -7   1 16700.3 1060.03  11
  -5  -7   0 32110.2 1539.22  11
  -5  -7  -1 46075.2 1899.77  11
  -5  -7  -2 4767.57 633.399  11
  -5  -7  -3 67920.7 2433.45   6
  -5  -7  -3 72832.4 2503.64  11
  -5  -7  -4 4005.23 599.367  11
  -5  -7  -4 4505.22 675.803   6
  -5  -7  -5 51566.9 2157.53   6
  -5  -7  -5 53371.5 2149.55  11
  -5  -7  -6 17797.3 1169.18   6
  -5  -7  -6 16152.7 1138.84  11
  -5  -7  -7 12322.2 872.436   6
  -5  -7  -7 12025.8 899.590  11
  -5  -7  -8 25773.7 1197.11  11
  -5  -8   3 24017.1 915.095  11
  -5  -8   2 22477.2 985.905  11
  -5  -8   1 15363.8 878.613  11
  -5  -8   0 40390.1 1511.95  11
  -5  -8  -1 845.110 261.342  11
  -5  -8  -2 29794.6 1387.85  11
  -5  -8  -3 14007.4 971.176  11
  -5  -8  -4 29401.9 1393.06  11
  -5  -8  -5 40988.6 1229.66   5
  -5  -8  -5 39424.4 1587.14  11
  -5  -8  -6 3992.85 483.332  11
  -5  -8  -6 3581.84 362.803   5
  -5  -8  -7 42228.2 1292.57   5
  -5  -8  -7 40942.0 1452.22  11
  -5  -8  -8 1317.23 240.382  11
  -5  -8  -8 1315.98 236.706   5
  -5  -8  -9 37954.4 1135.80   5
  -5  -8 -10 20738.5 740.151   5
  -5  -9   1 43148.4 1153.26  11
  -5  -9   0 1903.00 268.301  11
  -5  -9  -1 23504.8 975.854  11
  -5  -9  -2 23310.9 1005.82  11
  -5  -9  -3 3595.47 415.336  11
  -5  -9  -4 30750.4 1177.52  11
  -5  -9  -5-8.71995 135.369  11
  -5  -9  -6 39647.2 1253.18  11
  -5  -9  -7 9295.98 454.778   5
  -5  -9  -7 9730.83 552.176  11
  -5  -9  -8 19101.4 638.620   5
   6  -7  -4 79269.7 1818.46  12
   6  -7  -3 439.439 158.269  12
   6  -7  -2 75874.7 1934.78  12
   6  -7  -1 53175.2 1563.42  12
   6  -7   0 10419.9 628.338  12
   6  -7   1 23606.7 884.542  12
  -6   6   7 48402.9 1189.75   6
  -6   6   6 695.696 166.253   6
   6  -6  -4 6024.47 690.230  12
   6  -6  -3 72474.5 2464.01  12
   6  -6  -2 70175.7 2317.31  12
   6  -6  -1 2445.79 436.983  12
   6  -6   0 46762.2 1699.24  12
   6  -6   1 103.523 177.129  12
   6  -6   2 54879.8 1647.93  12
   6  -6   3 15650.6 773.511  12
  -6   5   9 18102.5 768.750   6
  -6   5   8 116596. 2531.89   6
  -6   5   7 10654.4 780.964   6
  -6   5   6 53367.5 1853.36   6
  -6   5   5 49812.6 1776.81   6
  -6   5   4 64815.3 1966.33   6
  -6   5   3 87017.2 2167.43   6
   6  -5  -2 2387.36 513.123  12
   6  -5  -1 33054.3 1672.87  12
   6  -5   0 3287.16 506.271  12
   6  -5   1 35252.8 1564.73  12
   6  -5   2 25262.8 1251.67  12
   6  -5   3 28972.7 1266.89  12
   6  -5   4 70690.0 1902.33  12
  -6   4   9 60905.6 1891.66   6
  -6   4   8 22723.7 1386.15   6
  -6   4   7 44979.4 2317.77   6
  -6   4   6 67628.4 3056.10   6
  -6   4   5 13332.9 1205.02   6
  -6   4   4 115996. 3411.38   6
  -6   4   3 114.874 247.437   6
  -6   4   2 62568.1 2088.93   6
   6  -4  -1 15612.9 1079.32  12
  -6   4   1 15863.4 927.613   6
   6  -4   0 30394.5 1535.79  12
   6  -4   1 69680.8 2356.32  12
   6  -4   2 4704.79 586.374  12
   6  -4   3 55547.4 1928.35  12
   6  -4   4 1547.63 334.818  12
  -6   4  -5 37711.1 1638.49   8
  -6   4  -6 25139.2 1094.76   8
  -6   3   9 23398.2 1206.72   6
  -6   3   9 17747.6 856.493   9
  -6   3   8 20036.8 1514.34   6
  -6   3   7 65451.7 3781.31   6
  -6   3   6 138.574 682.933   6
  -6   3   5 71746.7 3347.49   6
  -6   3   4 21030.4 1612.69   6
  -6   3   3 25036.2 1594.10   6
  -6   3   2 21644.4 1379.37   6
  -6   3   1 39481.8 1781.11   6
  -6   3   0 96649.3 2652.61   6
   6  -3   1 1945.34 371.003  12
   6  -3   2 128632. 3089.78  12
   6  -3   3 22404.1 1213.67  12
  -6   3  -4 29300.4 1636.64   8
   6  -3   4 29298.5 1363.67  12
  -6   3  -5 60933.3 2273.66   8
  -6   3  -6 1505.66 342.136   8
  -6   3  -7 47783.9 1598.33   8
  -6   2   9 2624.10 399.462   6
  -6   2   9 2079.51 324.561   9
  -6   2   8 50157.3 2169.68   6
  -6   2   8 49871.8 1982.01   9
  -6   2   7 383.411 418.832   6
  -6   2   7 601.126 288.202   9
  -6   2   6 97362.2 3626.92   6
  -6   2   5 51705.3 2616.77   6
  -6   2   4 24732.4 1794.52   6
  -6   2   3 62467.5 2702.48   6
  -6   2   2 1622.24 467.195   6
  -6   2   1 107270. 3238.79   6
  -6   2   0 9147.94 858.900   6
  -6   2  -1 83319.7 2563.01   6
  -6   2  -2 101304. 2687.65   6
   6  -2   3 22211.4 1112.98  12
   6  -2   4 104105. 2607.63  12
  -6   2  -5 958.618 322.117   8
  -6   2  -6 68161.7 2264.79   8
  -6   2  -7 37698.9 1543.85   8
  -6   2  -8 24846.0 1119.68   8
  -6   1   9 53189.9 1526.90   6
  -6   1   9 51300.7 1622.47   9
  -6   1   8 17253.9 1055.22   6
  -6   1   8 17114.7 1044.09   9
  -6   1   7 43704.1 1921.88   6
  -6   1   7 43978.0 1791.55   9
  -6   1   6 91012.2 3016.12   6
  -6   1   5 22330.7 1537.51   6
  -6   1   4 75819.2 2862.56   6
  -6   1   3 2014.99 572.689   6
  -6   1   2 111284. 3446.36   6
  -6   1   2 108050. 2818.52   3
  -6   1   1 72014.9 2215.13   3
  -6   1   1 72057.1 2662.36   6
  -6   1   0 47900.9 1752.53   3
  -6   1   0 44944.1 2021.42   6
  -6   1  -1 133960. 3028.19   3
  -6   1  -1 129789. 3458.15   6
  -6   1  -2 1615.91 380.651   6
  -6   1  -3 102231. 2828.02   6
  -6   1  -4 18550.6 1144.38   6
  -6   1  -5 72000.3 2403.98   8
  -6   1  -6 59299.5 2131.71   8
  -6   1  -7 3876.34 540.997   8
  -6   1  -8 88204.7 2354.68   8
  -6   1  -9 1518.64 294.732   8
  -6   0   9 40414.9 1355.27   9
  -6   0   8 15269.3 932.270   9
  -6   0   8 14706.7 817.105   6
  -6   0   7 79257.0 2302.88   6
  -6   0   7 80389.5 2357.78   9
  -6   0   6 2038.31 482.940   6
  -6   0   6 1876.58 380.084   9
  -6   0   5 185317. 4238.12   6
  -6   0   4 10896.3 1004.82   6
  -6   0   3 37349.9 1847.17   6
  -6   0   2 95596.4 2693.71   3
  -6   0   2 95983.7 3036.74   6
  -6   0   1 22442.0 1247.39   3
  -6   0   1 22413.9 1423.02   6
  -6   0   0 158294. 3638.46   3
  -6   0   0 170571. 4104.26   6
  -6   0  -1 11729.0 885.339   3
  -6   0  -1 12765.5 1042.28   6
  -6   0  -2 60536.5 2026.92   3
  -6   0  -2 62494.3 2306.05   6
  -6   0  -3 47574.9 1949.50   6
  -6   0  -4 17419.8 1183.83   6
  -6   0  -5 59081.3 2130.70   8
  -6   0  -5 54280.9 2183.33   6
  -6   0  -6 3770.23 631.749   6
  -6   0  -6 3758.15 541.136   8
  -6   0  -7 108896. 2897.49   8
  -6   0  -8 47575.4 1738.54   8
  -6   0  -9 14707.6 862.462   8
  -6   0 -10 7951.76 521.424   8
  -6  -1   9 2462.69 301.600   9
  -6  -1   8 67900.4 1907.33   9
  -6  -1   7 7743.87 681.996   9
  -6  -1   7 7473.90 567.046   6
  -6  -1   6 58870.2 1980.10   9
  -6  -1   6 59444.3 1886.53   6
  -6  -1   5 102821. 2705.33   9
  -6  -1   5 100022. 2718.39   6
  -6  -1   4 49616.9 1945.29   6
  -6  -1   3 58313.7 2174.55   6
  -6  -1   2 2566.15 502.048   6
  -6  -1   2 3130.24 490.262   3
  -6  -1   1 159264. 3757.06   3
  -6  -1   1 163838. 3929.01   6
  -6  -1   0 38994.9 1730.56   3
  -6  -1   0 40901.9 1861.46   6
  -6  -1  -1 56831.0 2117.45   3
  -6  -1  -1 59380.0 2250.58   6
  -6  -1  -2 68124.8 2306.56   3
  -6  -1  -2 69518.9 2438.78   6
  -6  -1  -3 1758.76 461.019   6
  -6  -1  -3 2419.38 439.991   3
  -6  -1  -4 54035.7 2162.85   6
  -6  -1  -5 6495.81 784.654   6
  -6  -1  -5 6353.50 689.546   8
  -6  -1  -6 37041.4 1653.82   8
  -6  -1  -6 33177.8 1898.42   6
  -6  -1  -7 20137.1 1192.57   8
  -6  -1  -7 19931.4 1440.13   6
  -6  -1  -8 24500.4 1244.43   8
  -6  -1  -9 48866.5 1645.63   8
  -6  -1 -10-147.594 146.045   8
  -6  -2   8 11830.2 680.573   9
  -6  -2   7 32048.3 1282.36   9
  -6  -2   6 55049.8 1824.53   9
  -6  -2   6 59344.0 1573.63   6
  -6  -2   5 2973.89 394.611   6
  -6  -2   5 2120.95 378.317   9
  -6  -2   4 124299. 2948.05   9
  -6  -2   4 120576. 2877.30   6
  -6  -2   3 14918.1 991.159   6
  -6  -2   2 18219.0 1133.54   6
  -6  -2   1 63548.5 2221.95   6
  -6  -2   0 18971.8 1229.43   3
  -6  -2   0 17556.4 1158.90   6
  -6  -2  -1 80689.6 2670.18   3
  -6  -2  -1 82806.3 2601.49   6
  -6  -2  -2 2208.94 487.703   6
  -6  -2  -2 2200.66 448.221   3
  -6  -2  -3 73063.6 2493.06   6
  -6  -2  -4 21809.3 1376.01   6
  -6  -2  -5 30821.6 1457.66   8
  -6  -2  -5 30039.6 1704.08   6
  -6  -2  -6 68462.4 2236.52   8
  -6  -2  -6 65400.7 2754.20   6
  -6  -2  -7 2509.04 574.795   6
  -6  -2  -7 3044.01 458.782   8
  -6  -2  -8 28196.1 1319.04   8
  -6  -2  -8 28718.1 1411.90   6
  -6  -2  -9 2022.70 347.400   8
  -6  -2 -10 58482.1 1616.94   8
  -6  -3   7 45449.8 1384.92   9
  -6  -3   6 1638.24 294.678   9
  -6  -3   5 38805.3 1478.74   9
  -6  -3   4 5644.68 575.932   9
  -6  -3   4 6546.51 532.407   6
  -6  -3   3 66959.6 2016.81   9
  -6  -3   3 64120.7 1901.57   6
  -6  -3   2 100996. 2589.92   6
  -6  -3   1 15260.4 992.413   6
  -6  -3   0 41224.5 1690.45   6
  -6  -3  -1 2936.78 487.886   6
  -6  -3  -2 73601.5 2408.98   6
  -6  -3  -3 38316.9 1768.54   6
  -6  -3  -4 20198.4 1367.39   6
  -6  -3  -5 80107.9 2853.63   6
  -6  -3  -6 522.115 406.561   6
  -6  -3  -6 924.985 276.022   8
  -6  -3  -7 86748.6 2466.58   8
  -6  -3  -7 89387.8 3274.30   6
  -6  -3  -8 3917.75 579.934   6
  -6  -3  -8 3241.38 462.655   8
  -6  -3  -9 32553.9 1304.43   8
  -6  -3 -10 36929.5 1244.61   8
  -6  -4   6 18749.3 836.946   9
  -6  -4   5 36147.8 1294.91   9
  -6  -4   4 9207.54 682.404   9
  -6  -4   3 44879.0 1556.66   9
  -6  -4   2 509.893 220.928   6
  -6  -4   1 73992.1 2075.64   6
  -6  -4   0 31666.9 1385.17   6
  -6  -4  -1 24719.3 1289.05   6
  -6  -4  -2 48724.7 1885.42   6
  -6  -4  -3 6538.75 748.782   6
  -6  -4  -4 77820.3 2673.59   6
  -6  -4  -5 4742.62 770.193   6
  -6  -4  -6 44942.3 1655.73   8
  -6  -4  -6 48312.9 2299.67   6
  -6  -4  -7 43214.2 1611.70   8
  -6  -4  -7 51904.2 2364.87   6
  -6  -4  -8 39730.0 1497.07   8
  -6  -4  -8 46416.2 1764.66   6
  -6  -4  -9 36367.5 1320.15   8
  -6  -4 -10-110.036 141.517   8
  -6  -5   1 34255.4 1254.59   6
  -6  -5   0 25903.7 1182.56   6
  -6  -5  -1 67321.5 2099.51   6
  -6  -5  -2 442.091 282.274   6
  -6  -5  -3 63580.2 2289.28   6
  -6  -5  -4 14927.7 1162.16   6
  -6  -5  -5 29213.6 1692.53   6
  -6  -5  -6 37225.6 1952.19   6
  -6  -5  -7 1541.70 438.833   6
  -6  -5  -7 1245.69 263.115   8
  -6  -5  -8 76729.1 1991.23   8
  -6  -5  -8 86478.0 2179.01   6
  -6  -5  -9 909.376 202.070   8
  -6  -6  -1 5362.68 553.424   6
  -6  -6  -2 24641.0 1280.27   6
  -6  -6  -3 25555.6 1397.84   6
  -6  -6  -4 18155.1 1214.63   6
  -6  -6  -5 59937.9 2222.67   6
  -6  -6  -6 2567.46 425.839   6
  -6  -6  -7 25147.9 1086.31   6
  -6  -7  -4 49603.5 1324.91   6
  -6  -7  -5 5039.92 402.348   6
  -7   3   5 13590.1 826.849   6
  -7   3   4 82672.1 2294.07   6
  -7   3   3 27254.4 1179.19   6
  -7   3   2 28128.5 1099.95   6
  -7   3   1 56355.5 1460.05   6
  -7   2   6 2923.76 447.764   6
  -7   2   5 29842.8 1971.76   6
  -7   2   4 47431.5 2220.98   6
  -7   2   3 9298.19 896.086   6
  -7   2   2 44731.1 1760.49   6
  -7   2   1 138.003 219.599   6
  -7   2   0 69647.5 1934.72   6
  -7   2  -1 40289.8 1323.85   6
  -7   1   6 30875.7 1245.46   6
  -7   1   5 82094.4 2436.89   6
  -7   1   4 811.526 366.956   6
  -7   1   3 72679.9 2482.20   6
  -7   1   2 5001.31 648.679   6
  -7   1   1 39280.9 1679.83   6
  -7   1   0 30997.4 1410.65   6
  -7   1  -1 9603.84 759.272   6
  -7   1  -2 78949.8 2186.02   6
  -7   1  -3 487.243 201.083   6
  -7   0   5 1333.16 289.172   6
  -7   0   4 81036.7 2238.20   6
  -7   0   3 31581.7 1425.19   6
  -7   0   2 37652.4 1607.31   6
  -7   0   1 78109.2 2398.03   6
  -7   0   0 1172.18 388.769   6
  -7   0  -1 47080.2 1800.64   6
  -7   0  -2 5352.36 607.219   6
  -7   0  -3 70801.0 2219.99   6
  -7   0  -4 40667.1 1629.40   6
  -7  -1   5 27896.9 939.626   6
  -7  -1   4 32807.4 1186.98   6
  -7  -1   3 15921.6 897.650   6
  -7  -1   2 91497.0 2382.70   6
  -7  -1   1 5381.29 588.947   6
  -7  -1   0 76660.1 2263.73   6
  -7  -1  -1 29134.1 1379.26   6
  -7  -1  -2 29228.0 1425.37   6
  -7  -1  -3 81945.6 2522.84   6
  -7  -1  -4 1185.63 379.854   6
  -7  -1  -5 49876.8 1881.13   6
  -7  -2   3 53805.8 1494.32   6
  -7  -2   2 28544.1 1156.19   6
  -7  -2   1 27978.0 1206.82   6
  -7  -2   0 57021.3 1837.48   6
  -7  -2  -1 13097.6 900.373   6
  -7  -2  -2 102289. 2715.47   6
  -7  -2  -3 12171.4 945.056   6
  -7  -2  -4 56373.0 2165.73   6
  -7  -2  -5 25955.1 1435.92   6
  -7  -2  -6 15934.7 853.119   6
  -7  -3   2 5438.31 446.793   6
  -7  -3   1 75426.2 1922.41   6
  -7  -3   0 323.337 200.260   6
  -7  -3  -1 72883.0 2088.99   6
  -7  -3  -2 20984.4 1147.08   6
  -7  -3  -3 28168.4 1388.79   6
  -7  -3  -4 55344.7 2061.07   6
  -7  -3  -5 3190.80 498.615   6
  -7  -3  -6 68786.7 1842.06   6
  -7  -4   0 35160.1 1235.89   6
  -7  -4  -1 23623.4 1101.42   6
  -7  -4  -2 16187.9 960.150   6
  -7  -4  -3 40907.8 1608.65   6
  -7  -4  -4 239.199 216.002   6
  -7  -4  -5 62659.0 1865.59   6
   0   0   0    0.00    0.00   0
TITL ull23 in P-1
REM P-1 (#2 in standard setting)
CELL 1.54184   6.099332  10.501020  13.688148  72.6068  88.7893  88.9799
ZERR    2.00   0.000343   0.000664   0.001069   0.0062   0.0054   0.0048
LATT  1
SFAC C H N O Ce
UNIT 16.00 30.00 4.00 16.00 2.00
TREF
HKLF 4
END
;
_shelx_hkl_checksum              65759
loop_
_space_group_symop_operation_xyz
'x, y, z'
'-x, -y, -z'
loop_
_atom_site_label
_atom_site_type_symbol
_atom_site_fract_x
_atom_site_fract_y
_atom_site_fract_z
_atom_site_U_iso_or_equiv
_atom_site_adp_type
_atom_site_occupancy
_atom_site_site_symmetry_order
_atom_site_calc_flag
_atom_site_refinement_flags_posn
_atom_site_refinement_flags_adp
_atom_site_refinement_flags_occupancy
Ce1 Ce 0.74860(3) 0.33898(2) 0.29069(2) 0.01959(10) Uani 1 1 d . . .
C1 C 0.6007(7) 0.1313(4) 0.5269(3) 0.0259(8) Uani 1 1 d . . .
C3 C 1.1089(7) 0.0517(4) 0.4116(3) 0.0302(9) Uani 1 1 d . . .
H6 H 1.1894 0.0853 0.3511 0.036 Uiso 1 1 calc R U .
O1 O 0.5458(5) 0.2284(3) 0.4529(2) 0.0325(6) Uani 1 1 d . . .
O2 O 0.4974(6) 0.0894(4) 0.6097(3) 0.0428(8) Uani 1 1 d . . .
O3 O 0.9376(5) 0.3024(4) 0.1416(2) 0.0359(7) Uani 1 1 d . . .
O4 O 1.0015(7) 0.3211(5) -0.0222(3) 0.0507(10) Uani 1 1 d . . .
N2 N 0.5656(6) 0.4437(4) 0.1005(3) 0.0278(7) Uani 1 1 d . . .
N1 N 0.9214(5) 0.1119(4) 0.4249(3) 0.0274(7) Uani 1 1 d . . .
C2 C 0.8133(6) 0.0603(4) 0.5136(3) 0.0253(8) Uani 1 1 d . . .
C5 C 0.6826(7) 0.4262(4) 0.0223(3) 0.0265(8) Uani 1 1 d . . .
C4 C 0.8908(7) 0.3430(4) 0.0481(3) 0.0290(8) Uani 1 1 d . . .
C6 C 0.3826(7) 0.5177(4) 0.0783(3) 0.0298(8) Uani 1 1 d . . .
H3 H 0.2971 0.5319 0.1312 0.036 Uiso 1 1 calc R U .
O2W O 0.8471(6) 0.5829(3) 0.2184(2) 0.0366(7) Uani 1 1 d . . .
O1W O 0.5648(6) 0.1504(3) 0.2521(3) 0.0428(8) Uani 1 1 d . . .
O6 O 1.4390(4) 0.4774(3) 0.3251(2) 0.0269(6) Uani 1 1 d . . .
O5 O 1.1554(5) 0.3589(3) 0.3011(2) 0.0287(6) Uani 1 1 d . . .
C7 C 1.2475(6) 0.4326(4) 0.3433(3) 0.0229(7) Uani 1 1 d . . .
C8 C 1.1166(6) 0.4710(4) 0.4257(3) 0.0233(7) Uani 1 1 d . . .
N3 N 0.9102(5) 0.4273(4) 0.4413(3) 0.0254(7) Uani 1 1 d . . .
C9 C 0.7946(6) 0.4558(4) 0.5156(3) 0.0257(8) Uani 1 1 d . . .
H9 H 0.6510 0.4262 0.5286 0.031 Uiso 1 1 calc R U .
O3W O 0.3709(13) 0.1599(8) 0.0727(7) 0.115(3) Uani 1 1 d . . .
O4W O 0.380(5) -0.179(4) 0.142(4) 0.34(3) Uani 0.5 1 d . . P
O5W O 0.833(2) 0.7717(9) 0.3170(10) 0.196(6) Uani 1 1 d . . .
O6W O 0.998(4) 0.983(2) 0.1690(19) 0.171(10) Uani 0.5 1 d . . P
loop_
_atom_site_aniso_label
_atom_site_aniso_U_11
_atom_site_aniso_U_22
_atom_site_aniso_U_33
_atom_site_aniso_U_23
_atom_site_aniso_U_13
_atom_site_aniso_U_12
Ce1 0.01713(14) 0.02648(14) 0.01351(13) -0.00376(9) 0.00138(8) 0.00282(8)
C1 0.0229(19) 0.0283(18) 0.0239(19) -0.0042(15) 0.0022(15) -0.0006(15)
C3 0.025(2) 0.035(2) 0.0229(19) 0.0011(16) 0.0068(15) 0.0014(17)
O1 0.0257(14) 0.0372(16) 0.0262(15) 0.0029(12) 0.0042(11) 0.0062(12)
O2 0.0435(19) 0.0422(18) 0.0314(17) 0.0046(14) 0.0168(14) 0.0109(15)
O3 0.0295(15) 0.058(2) 0.0209(14) -0.0127(14) -0.0008(12) 0.0101(14)
O4 0.052(2) 0.073(3) 0.0232(16) -0.0102(16) 0.0080(15) 0.0241(19)
N2 0.0279(17) 0.0365(18) 0.0170(15) -0.0050(13) 0.0033(13) -0.0007(14)
N1 0.0219(16) 0.0323(17) 0.0229(16) -0.0008(13) 0.0008(13) 0.0032(13)
C2 0.0220(18) 0.0294(19) 0.0223(18) -0.0044(15) -0.0005(15) 0.0015(15)
C5 0.026(2) 0.0317(19) 0.0207(18) -0.0062(15) 0.0011(15) -0.0015(15)
C4 0.027(2) 0.037(2) 0.0210(19) -0.0068(16) 0.0041(15) 0.0017(17)
C6 0.030(2) 0.041(2) 0.0171(18) -0.0059(16) 0.0020(15) 0.0021(17)
O2W 0.0423(18) 0.0352(16) 0.0302(16) -0.0071(13) 0.0091(13) -0.0019(14)
O1W 0.057(2) 0.0380(17) 0.0320(17) -0.0073(14) 0.0017(15) -0.0149(16)
O6 0.0190(13) 0.0356(15) 0.0246(14) -0.0073(11) 0.0080(10) 0.0011(11)
O5 0.0235(14) 0.0409(16) 0.0248(14) -0.0148(12) 0.0017(11) 0.0042(12)
C7 0.0188(18) 0.0312(19) 0.0167(17) -0.0045(14) 0.0017(13) 0.0079(14)
C8 0.0171(17) 0.0336(19) 0.0176(17) -0.0057(15) 0.0005(13) 0.0044(15)
N3 0.0175(15) 0.0368(17) 0.0218(16) -0.0086(13) 0.0024(12) 0.0024(13)
C9 0.0159(17) 0.040(2) 0.0219(18) -0.0110(16) 0.0043(14) 0.0005(15)
O3W 0.126(6) 0.097(5) 0.138(7) -0.058(5) -0.080(5) 0.050(4)
O4W 0.22(3) 0.28(4) 0.65(8) -0.35(5) -0.01(4) -0.02(3)
O5W 0.256(12) 0.104(6) 0.253(13) -0.103(8) 0.174(11) -0.043(7)
O6W 0.174(18) 0.117(14) 0.18(2) 0.010(14) 0.080(16) -0.032(13)
loop_
_atom_type_symbol
_atom_type_description
_atom_type_scat_dispersion_real
_atom_type_scat_dispersion_imag
_atom_type_scat_source
C C 0.0181 0.0091 'International Tables Vol C Tables 4.2.6.8 and 6.1.1.4'
H H 0.0000 0.0000 'International Tables Vol C Tables 4.2.6.8 and 6.1.1.4'
N N 0.0311 0.0180 'International Tables Vol C Tables 4.2.6.8 and 6.1.1.4'
O O 0.0492 0.0322 'International Tables Vol C Tables 4.2.6.8 and 6.1.1.4'
Ce Ce -1.8482 9.6596 'International Tables Vol C Tables 4.2.6.8 and 6.1.1.4'
loop_
_geom_angle_atom_site_label_1
_geom_angle_atom_site_label_2
_geom_angle_atom_site_label_3
_geom_angle
_geom_angle_site_symmetry_1
_geom_angle_site_symmetry_3
O3 Ce1 O6 137.72(10) . 1_455
O3 Ce1 O1W 72.63(12) . .
O6 Ce1 O1W 103.76(12) 1_455 .
O3 Ce1 O1 144.50(12) . .
O6 Ce1 O1 67.18(10) 1_455 .
O1W Ce1 O1 76.82(12) . .
O3 Ce1 O5 68.70(10) . .
O6 Ce1 O5 131.77(10) 1_455 .
O1W Ce1 O5 124.33(12) . .
O1 Ce1 O5 117.19(10) . .
O3 Ce1 O2W 87.46(12) . .
O6 Ce1 O2W 71.19(11) 1_455 .
O1W Ce1 O2W 144.01(11) . .
O1 Ce1 O2W 128.03(11) . .
O5 Ce1 O2W 71.63(11) . .
O3 Ce1 N3 129.39(11) . .
O6 Ce1 N3 77.95(10) 1_455 .
O1W Ce1 N3 144.85(11) . .
O1 Ce1 N3 71.59(11) . .
O5 Ce1 N3 61.30(10) . .
O2W Ce1 N3 70.48(11) . .
O3 Ce1 N1 93.67(11) . .
O6 Ce1 N1 126.75(10) 1_455 .
O1W Ce1 N1 74.61(12) . .
O1 Ce1 N1 60.62(11) . .
O5 Ce1 N1 69.68(10) . .
O2W Ce1 N1 137.84(11) . .
N3 Ce1 N1 76.69(11) . .
O3 Ce1 N2 61.25(11) . .
O6 Ce1 N2 77.09(10) 1_455 .
O1W Ce1 N2 73.83(11) . .
O1 Ce1 N2 125.92(11) . .
O5 Ce1 N2 116.89(10) . .
O2W Ce1 N2 70.30(11) . .
N3 Ce1 N2 138.48(11) . .
N1 Ce1 N2 144.36(11) . .
O2 C1 O1 125.8(4) . .
O2 C1 C2 118.1(4) . .
O1 C1 C2 116.2(4) . .
N1 C3 C2 121.3(4) . 2_756
C1 O1 Ce1 129.9(3) . .
C4 O3 Ce1 130.4(3) . .
C5 N2 C6 117.2(4) . .
C5 N2 Ce1 115.6(3) . .
C6 N2 Ce1 127.0(3) . .
C3 N1 C2 116.8(4) . .
C3 N1 Ce1 125.8(3) . .
C2 N1 Ce1 117.3(3) . .
N1 C2 C3 121.8(4) . 2_756
N1 C2 C1 115.7(4) . .
C3 C2 C1 122.5(4) 2_756 .
N2 C5 C6 121.5(4) . 2_665
N2 C5 C4 116.9(4) . .
C6 C5 C4 121.6(4) 2_665 .
O4 C4 O3 125.2(4) . .
O4 C4 C5 119.0(4) . .
O3 C4 C5 115.8(4) . .
N2 C6 C5 121.3(4) . 2_665
C7 O6 Ce1 121.8(3) . 1_655
C7 O5 Ce1 124.8(2) . .
O5 C7 O6 126.5(3) . .
O5 C7 C8 116.5(3) . .
O6 C7 C8 116.9(3) . .
N3 C8 C9 121.2(4) . 2_766
N3 C8 C7 116.3(3) . .
C9 C8 C7 122.5(3) 2_766 .
C9 N3 C8 117.4(4) . .
C9 N3 Ce1 126.3(3) . .
C8 N3 Ce1 114.9(2) . .
N3 C9 C8 121.5(4) . 2_766
loop_
_geom_bond_atom_site_label_1
_geom_bond_atom_site_label_2
_geom_bond_distance
_geom_bond_site_symmetry_2
Ce1 O3 2.448(3) .
Ce1 O6 2.485(3) 1_455
Ce1 O1W 2.487(3) .
Ce1 O1 2.490(3) .
Ce1 O5 2.504(3) .
Ce1 O2W 2.533(3) .
Ce1 N3 2.710(4) .
Ce1 N1 2.746(4) .
Ce1 N2 2.757(4) .
C1 O2 1.247(5) .
C1 O1 1.250(5) .
C1 C2 1.519(6) .
C3 N1 1.332(6) .
C3 C2 1.393(6) 2_756
O3 C4 1.260(5) .
O4 C4 1.239(6) .
N2 C5 1.330(5) .
N2 C6 1.336(6) .
N1 C2 1.338(5) .
C2 C3 1.393(6) 2_756
C5 C6 1.390(6) 2_665
C5 C4 1.515(6) .
C6 C5 1.390(6) 2_665
O6 C7 1.259(5) .
O6 Ce1 2.485(3) 1_655
O5 C7 1.242(5) .
C7 C8 1.514(5) .
C8 N3 1.338(5) .
C8 C9 1.390(6) 2_766
N3 C9 1.329(5) .
C9 C8 1.390(6) 2_766
