#------------------------------------------------------------------------------
#$Date: 2017-02-04 00:26:51 +0200 (Sat, 04 Feb 2017) $
#$Revision: 191258 $
#$URL: file:///home/coder/svn-repositories/cod/cif/4/34/51/4345110.cif $
#------------------------------------------------------------------------------
#
# This file is available in the Crystallography Open Database (COD),
# http://www.crystallography.net/
#
# All data on this site have been placed in the public domain by the
# contributors.
#
data_4345110
loop_
_publ_author_name
'Mazzuca, Lidia'
'Ca\~nadillas-Delgado, Laura'
'Rodr\'iguez-Velamaz\'an, J Alberto'
'Fabelo, Oscar'
'Scarrozza, Marco'
'Stroppa, Alessandro'
'Picozzi, Silvia'
'Zhao, Jiong-Peng'
'Bu, Xian-He'
'Rodr\'iguez-Carvajal, Juan'
_publ_section_title
;
 Magnetic Structures of Heterometallic M(II)-M(III) Formate Compounds.
;
_journal_issue                   1
_journal_name_full               'Inorganic chemistry'
_journal_page_first              197
_journal_page_last               207
_journal_paper_doi               10.1021/acs.inorgchem.6b01866
_journal_volume                  56
_journal_year                    2017
_chemical_formula_sum            'C8 H14 Fe Mn N O12'
_chemical_formula_weight         426.98
_chemical_name_systematic
;
 ?
;
_space_group_crystal_system      trigonal
_space_group_IT_number           163
_space_group_name_Hall           '-P 3 2c'
_space_group_name_H-M_alt        'P -3 1 c'
_symmetry_space_group_name_Hall  '-P 3 2c'
_symmetry_space_group_name_H-M   'P -3 1 c'
_atom_sites_solution_hydrogens   geom
_audit_creation_method           SHELXL-2014
_cell_angle_alpha                90
_cell_angle_beta                 90
_cell_angle_gamma                120
_cell_formula_units_Z            2
_cell_length_a                   8.27610(10)
_cell_length_b                   8.27610(10)
_cell_length_c                   13.8917(2)
_cell_measurement_reflns_used    6359
_cell_measurement_temperature    65(2)
_cell_measurement_theta_max      32.2510
_cell_measurement_theta_min      2.7170
_cell_volume                     824.019(18)
_computing_cell_refinement       'CrysAlis PRO software program'
_computing_data_collection       'CrysAlis PRO software program'
_computing_data_reduction        'CrysAlis PRO software program'
_computing_molecular_graphics    'Mercury (McRae, 2006)'
_computing_publication_material  'WINGX (Farrugia, 1999)'
_computing_structure_refinement  'SHELXL-2014 (Sheldrick, 2014)'
_computing_structure_solution    'SHELXL-2014 (Sheldrick, 2014)'
_diffrn_ambient_temperature      65(2)
_diffrn_measured_fraction_theta_full 0.908
_diffrn_measured_fraction_theta_max 0.929
_diffrn_measurement_device_type  'CRISTAL beamline, SOLEIL synchrotron'
_diffrn_radiation_type           synchrotron
_diffrn_radiation_wavelength     0.66951
_diffrn_reflns_av_R_equivalents  0.0500
_diffrn_reflns_av_unetI/netI     0.0206
_diffrn_reflns_Laue_measured_fraction_full 0.908
_diffrn_reflns_Laue_measured_fraction_max 0.929
_diffrn_reflns_limit_h_max       12
_diffrn_reflns_limit_h_min       -12
_diffrn_reflns_limit_k_max       12
_diffrn_reflns_limit_k_min       -11
_diffrn_reflns_limit_l_max       22
_diffrn_reflns_limit_l_min       -22
_diffrn_reflns_number            10309
_diffrn_reflns_point_group_measured_fraction_full 0.908
_diffrn_reflns_point_group_measured_fraction_max 0.929
_diffrn_reflns_theta_full        23.685
_diffrn_reflns_theta_max         32.604
_diffrn_reflns_theta_min         2.762
_diffrn_source                   synchrotron
_exptl_absorpt_coefficient_mu    1.436
_exptl_absorpt_correction_T_max  1.00000
_exptl_absorpt_correction_T_min  0.80803
_exptl_absorpt_correction_type   multi-scan
_exptl_absorpt_process_details
;
CrysAlisPro, Agilent Technologies,
Version 1.171.37.33 (release 27-03-2014 CrysAlis171 .NET)
(compiled Mar 27 2014,17:12:48)
Empirical absorption correction using spherical harmonics,
 implemented in SCALE3 ABSPACK scaling algorithm.
;
_exptl_crystal_colour            dark-yellow
_exptl_crystal_density_diffrn    1.721
_exptl_crystal_description       prism
_exptl_crystal_F_000             432
_exptl_crystal_size_max          0.08
_exptl_crystal_size_mid          0.07
_exptl_crystal_size_min          0.06
_refine_diff_density_max         0.630
_refine_diff_density_min         -0.524
_refine_diff_density_rms         0.070
_refine_ls_extinction_method     none
_refine_ls_goodness_of_fit_ref   1.222
_refine_ls_hydrogen_treatment    refU
_refine_ls_matrix_type           full
_refine_ls_number_parameters     41
_refine_ls_number_reflns         1120
_refine_ls_number_restraints     0
_refine_ls_restrained_S_all      1.222
_refine_ls_R_factor_all          0.0327
_refine_ls_R_factor_gt           0.0305
_refine_ls_shift/su_max          0.000
_refine_ls_shift/su_mean         0.000
_refine_ls_structure_factor_coef Fsqd
_refine_ls_weighting_details
'w=1/[\s^2^(Fo^2^)+(0.0403P)^2^+0.4896P] where P=(Fo^2^+2Fc^2^)/3'
_refine_ls_weighting_scheme      calc
_refine_ls_wR_factor_gt          0.0876
_refine_ls_wR_factor_ref         0.0947
_reflns_Friedel_coverage         0.000
_reflns_number_gt                1060
_reflns_number_total             1120
_reflns_threshold_expression     'I > 2\s(I)'
_cod_data_source_file            FeMn_65K.cif
_cod_data_source_block           shelx
_cod_original_cell_volume        824.02(2)
_cod_database_code               4345110
_shelx_space_group_comment
;
The symmetry employed for this shelxl refinement is uniquely defined
by the following loop, which should always be used as a source of
symmetry information in preference to the above space-group names.
They are only intended as comments.
;
_shelxl_version_number           2014-3
_shelx_res_file
;
TITL FeMn_warm3 in P-31c
CELL  0.66951   8.2761   8.2761  13.8917   90.000   90.000  120.000
ZERR     2.00   0.0001   0.0001   0.0002    0.000    0.000    0.000
LATT   1
SYMM  - Y,   X - Y,   Z
SYMM  - X + Y, - X,   Z
SYMM  - Y, - X, 1/2 - Z
SYMM  - X + Y,   Y, 1/2 - Z
SYMM    X,   X - Y, 1/2 - Z
SFAC  C        2.31000 20.84392  1.02000 10.20751   1.58860   0.56870 =
         0.86500  51.65125   0.21560   0.003   0.001    10.064   0.770  12.011
SFAC  H        0.49300 10.51091  0.32291 26.12573   0.14019   3.14236 =
         0.04081  57.79977   0.00304   0.000   0.000     0.666   0.320   1.008
SFAC  N       12.21261  0.00570  3.13220  9.89331   2.01250  28.99754 =
         1.16630   0.58260 -11.52901   0.005   0.003    16.889   0.700  14.007
SFAC  O        3.04850 13.27711  2.28680  5.70111   1.54630   0.32390 =
         0.86700  32.90894   0.25080   0.009   0.005    27.551   0.660  15.999
SFAC  FE      11.76951  4.76111  7.35731  0.30720   3.52220  15.35351 =
         2.30450  76.88058   1.03690   0.338   0.762  2939.485   1.260  55.845
SFAC  MN      11.28191  5.34091  7.35731  0.34320   3.01930  17.86742 =
         2.24410  83.75438   1.08960   0.324   0.657  2538.176   1.370  54.938
UNIT  16   28   2    24   2    2
MERG   2
FMAP   2
PLAN   20
ACTA
L.S.  15
WGHT    0.040300    0.489600
FVAR      18.37222
MN2   6    0.666667    0.333333    0.250000    10.16667    0.01220    0.01220 =
         0.01624    0.00000    0.00000    0.00610
FE1   5    1.000000    0.000000    0.000000    10.16667    0.01173    0.01173 =
         0.01574    0.00000    0.00000    0.00587
O1    4    0.889069    0.342290    0.165965    11.00000    0.02417    0.02292 =
         0.03875   -0.00832    0.00781    0.01076
O2    4    1.015976    0.207982    0.081830    11.00000    0.01932    0.01996 =
         0.02739   -0.00399    0.00209    0.01091
C1    1    0.878355    0.211235    0.118236    11.00000    0.01953    0.02181 =
         0.02611   -0.00534    0.00028    0.01145
AFIX  43
H1    2    0.760614    0.108017    0.108564    11.00000    0.04561
AFIX   0
C2    1    1.333333    0.666667    0.160104    10.33333    0.03187    0.03187 =
         0.64682    0.00000    0.00000    0.01593
N1    3    1.279164    0.558327    0.250000    10.16667    0.03407    0.01749 =
         0.39528    0.00000   -0.07419    0.00874
HKLF    4  1.0  0.00  1.00  0.00  1.00  0.00  0.00  0.00  0.00 -1.00

REM  FeMn_warm3 in P-31c
REM R1 =  0.0305 for    1060 Fo > 4sig(Fo)  and  0.0327 for all    1120 data
REM     41 parameters refined using      0 restraints

END

WGHT      0.0403      0.4896

REM Highest difference peak  0.630,  deepest hole -0.524,  1-sigma level  0.070
Q1    1   1.3333  0.6667  0.0872  10.33333  0.05    0.63
Q2    1   1.3300  0.5563  0.1682  11.00000  0.05    0.41
Q3    1   0.9797  0.0961  0.0311  11.00000  0.05    0.29
Q4    1   0.8608  0.2934  0.1309  11.00000  0.05    0.28
Q5    1   0.9625  0.1784  0.1243  11.00000  0.05    0.25
Q6    1   0.9416  0.1680  0.0469  11.00000  0.05    0.24
Q7    1   1.3333  0.6667  0.2500  10.16667  0.05    0.24
Q8    1   0.8791  0.2568  0.1604  11.00000  0.05    0.23
Q9    1   0.8631  0.2770  0.2044  11.00000  0.05    0.23
Q10   1   1.2723  0.5319  0.1373  11.00000  0.05    0.22
Q11   1   0.7980  0.3235  0.1510  11.00000  0.05    0.22
Q12   1   0.9476  0.2395  0.0832  11.00000  0.05    0.21
Q13   1   0.8636  0.3284  0.2374  11.00000  0.05    0.21
Q14   1   0.8271  0.1729  0.2500  10.50000  0.05    0.20
Q15   1   0.7456  0.0876  0.1495  11.00000  0.05    0.19
Q16   1   0.8118  0.0919  0.1613  11.00000  0.05    0.19
Q17   1   1.0350  0.4557  0.1327  11.00000  0.05    0.19
Q18   1   1.1571  0.7025  0.1220  11.00000  0.05    0.18
Q19   1   0.9559  0.4186  0.1027  11.00000  0.05    0.18
Q20   1   1.1655  0.3184  0.1019  11.00000  0.05    0.18
;
_shelx_res_checksum              29641
_shelx_hkl_file
;
   0   0  -2 38436.8 1126.77   2
   0   0  -2 39301.4 1235.51   1
   0   0  -3 554.563 236.339   1
   0   0   3 63.1644 180.218   1
   0   0  -3 129.088 110.457   2
   0   0   5-136.489 189.165   1
   0   0  -5-269.241 279.701   1
   0   0  -5 149.222 201.196   2
   0   0   6 66481.9 2625.27   1
   0   0  -6 62002.3 2341.92   2
   0   0  -6 62818.5 2614.18   1
   0   0  -7-19.6430 214.022   2
   0   0   7-336.381 315.717   1
   0   0  -7 157.670 184.755   1
   0   0   9 643.590 540.870   1
   0   0  -9 99.3891 332.571   2
   0   0  -9 481.595 236.017   1
   0   0 -10 18792.6 1574.33   2
   0   0  10 19047.7 1752.04   1
   0   0 -10 17826.7 1694.86   1
   0   0 -11 303.440 404.300   1
   0   0 -11 2.73690 217.280   2
   0   0  11 469.967 336.295   1
   0   0 -13-406.263 353.759   2
   0   0  13 404.246 513.058   1
   0   0 -13-262.615 361.277   1
   0   0 -14 1823.37 486.114   1
   0   0 -14 2970.67 809.153   2
   0   0  14 1602.16 671.187   1
   0   0  15-280.345 533.026   1
   0   0 -15 694.687 535.065   1
   0   0 -15-454.616 423.056   2
   0   0 -16 207755. 8042.63   1
   0   0  16 212052. 7881.06   1
   0   0 -17 223.738 383.805   1
   0   0  17-112.575 390.039   1
   0   0 -18 4813.46 1305.12   1
   0   0  18 3402.96 1004.84   1
   0   0  19-34.3808 578.089   1
   0   0 -19-625.581 596.928   1
   0   0 -20 19304.9 2603.41   1
   0   0  20 22731.7 2583.95   1
   0   0  21 557.404 621.357   1
   0   0 -21-135.836 399.818   1
   0   0  22 4263.63 1325.04   1
   0   0 -22 3212.28 1075.11   1
   0  -1   3 164965. 4038.60   1
   0   1  -3 172971. 4161.95   1
   1  -1   3 151028. 3805.73   1
   1  -1  -3 155976. 4022.44   1
  -1   1   3 178753. 4118.49   1
   1   0  -3 176485. 4181.63   1
   1  -1  -3 192371. 4167.11   2
   1  -1   4 10316.4 808.876   1
   0  -1   4 9567.98 806.010   1
  -1   0  -4 10648.9 754.768   1
   1   0  -4 10186.0 888.096   1
   0  -1  -4 10188.2 796.245   1
   0   1   4 11600.5 846.624   1
  -1   1  -4 9875.14 833.988   1
   1   0   4 11020.6 751.569   1
  -1   0  -4 7691.09 498.385   2
   1   0  -4 8312.89 772.083   2
  -1   1  -4 9163.29 590.479   2
   1  -1  -4 8664.20 755.133   1
  -1   0   4 9319.19 845.584   1
   0   1  -4 10626.2 903.239   1
   0   1  -4 10319.4 750.872   2
   0  -1  -4 11615.6 861.687   2
  -1   1   4 11164.6 898.738   1
   1  -1  -4 9601.47 779.360   2
  -1   1   5 8060.44 846.644   1
   1   0  -5 8106.78 859.425   1
   0   1   5 6965.97 755.842   1
  -1   0  -5 7984.20 544.814   2
   0  -1   5 6538.69 753.016   1
   1  -1  -5 8281.64 755.362   2
   0   1  -5 7036.99 835.899   1
   1   0   5 7341.27 709.909   1
  -1   1  -5 6512.69 728.003   1
   0  -1  -5 7381.46 762.989   1
  -1   0  -5 6211.17 660.695   1
   0   1  -5 8247.40 735.671   2
  -1   1  -5 5993.45 534.747   2
   1  -1   5 6950.74 704.700   1
   1  -1  -5 8565.02 863.687   1
  -1   0   5 7272.98 823.450   1
   0  -1  -5 8200.74 729.554   2
   1   0  -5 7360.96 805.577   2
  -1   1  -6 29754.1 1765.43   1
  -1   1  -6 36884.1 1509.02   2
  -1   0   6 34116.8 1923.63   1
  -1   1   6 29422.6 1800.47   1
   1   0   6 33174.0 1691.81   1
  -1   0  -6 32099.1 1728.31   1
   1  -1   6 33637.8 1807.39   1
   0   1   6 29814.5 1707.15   1
   0   1  -6 36494.6 1771.69   2
   0  -1  -6 30538.4 1750.96   1
   1   0  -6 36222.4 1913.32   2
   0  -1  -6 30202.4 1622.50   2
   0  -1   6 31824.9 1885.07   1
   0   1  -6 37326.3 2041.40   1
   1  -1  -6 32737.3 1801.05   2
  -1   0  -6 33802.2 1391.85   2
   1   0  -6 32152.0 1900.46   1
   1  -1  -6 32564.0 1917.72   1
  -1   1  -7 124287. 3559.63   2
  -1   0  -7 128884. 4112.58   1
   1  -1  -7 129353. 4435.88   1
   1   0   7 141239. 4143.14   1
   1   0  -7 121400. 4325.03   1
   0  -1  -7 117269. 4084.18   1
   0  -1  -7 123532. 3819.92   2
  -1   0  -7 127832. 3397.26   2
   1  -1  -7 135456. 4179.71   2
  -1   1   7 112110. 4147.91   1
  -1   1  -7 122764. 4184.51   1
   0  -1   7 132283. 4348.90   1
  -1   0   7 134319. 4464.36   1
   0   1  -7 132974. 4482.07   1
   0   1  -7 130914. 4012.52   2
   1  -1   7 130794. 4170.43   1
   1   0  -7 124293. 4135.50   2
   0   1   7 98015.5 3774.88   1
   1   0  -8 38551.4 2371.23   1
  -1   0   8 36732.7 2284.66   1
   0  -1  -8 39141.5 2044.92   2
   0   1  -8 41934.2 2199.39   2
   0   1  -8 39413.3 2422.16   1
   0   1   8 39497.6 2281.97   1
   1  -1   8 43477.7 2346.78   1
  -1   1  -8 41328.7 2360.38   1
  -1   0  -8 35344.4 1762.68   2
   0  -1  -8 42243.0 2366.81   1
  -1   1  -8 40400.3 1910.91   2
   0  -1   8 41295.8 2396.02   1
   1  -1  -8 45604.1 2553.98   1
  -1   1   8 38884.1 2337.38   1
   1   0   8 37785.0 2125.34   1
  -1   0  -8 40313.0 2275.57   1
   1   0  -8 42111.8 2292.34   2
   1  -1  -8 40242.7 2236.85   2
  -1   1   9 275529. 7334.48   1
   1   0  -9 263758. 6994.66   2
   1  -1   9 246418. 6804.71   1
  -1   0   9 263773. 7313.70   1
  -1   1  -9 216139. 5846.39   2
   1   0  -9 256265. 7360.02   1
  -1   0  -9 215338. 5793.72   2
  -1   0  -9 253154. 6992.98   1
   0  -1  -9 254769. 6518.97   2
   0  -1   9 252661. 7117.44   1
   0   1  -9 245502. 6547.17   2
   1   0   9 217719. 6496.99   1
   0   1   9 234629. 6759.01   1
   1  -1  -9 232311. 6664.45   2
   1  -1  -9 227776. 7102.48   1
   0  -1  -9 263272. 7187.97   1
  -1   1  -9 237011. 6954.41   1
   0   1  -9 246212. 7133.38   1
   0  -1  10 809181. 16836.9   1
   1   0 -10 780650. 16986.6   1
   0  -1 -10 815152. 16836.0   1
   1   0 -11 154398. 5948.20   1
   0   1  11 146640. 5462.17   1
  -1   0 -11 140199. 4708.62   2
  -1   0  11 142667. 5573.29   1
   1  -1 -11 153450. 5443.64   2
  -1   0 -11 153446. 5628.16   1
   0   1 -11 158169. 5876.30   1
  -1   1  11 153330. 5689.34   1
   0  -1 -11 147300. 5156.28   2
  -1   1 -11 155034. 5756.38   1
   1   0 -11 162107. 5522.14   2
   1  -1  11 139446. 5375.61   1
   0   1 -11 153745. 5275.19   2
   1  -1 -11 132634. 5520.47   1
   0  -1  11 151227. 5626.82   1
   1   0  11 154988. 5483.58   1
  -1   1 -11 156545. 4950.11   2
   0  -1 -11 149562. 5533.97   1
   1   0  12 78009.3 3895.17   1
   1   0 -12 64564.7 3889.50   1
   1   0 -12 70524.5 3643.93   2
  -1   1  12 72350.9 3908.38   1
  -1   0 -12 78384.0 4036.54   1
  -1   1 -12 72291.4 3381.83   2
   0   1 -12 74208.0 3669.59   2
   1  -1  12 77798.8 3900.04   1
   0  -1 -12 84571.0 3782.66   2
   0  -1 -12 75588.4 4013.60   1
   1  -1 -12 73282.3 4007.84   1
   0   1  12 71718.1 3826.68   1
  -1   0  12 72440.3 3862.56   1
  -1   1 -12 73303.0 3924.27   1
   0   1 -12 70891.4 3954.60   1
  -1   0 -12 70265.5 3236.85   2
   1  -1 -12 76987.7 3844.10   2
   0  -1  12 80158.2 4017.58   1
   1   0 -13 115278. 4966.13   2
   0   1 -13 115917. 5243.02   1
   0  -1  13 113950. 5101.20   1
   1   0  13 124942. 5233.66   1
   1  -1 -13 101617. 5046.65   1
   0  -1 -13 121321. 5376.77   1
   0   1  13 104464. 4827.62   1
  -1   1 -13 110947. 4446.56   2
   0   1 -13 114707. 4833.02   2
   1  -1 -13 108418. 4877.88   2
  -1   1  13 116386. 5220.92   1
   0  -1 -13 121529. 4917.40   2
   1  -1  13 120100. 5194.96   1
  -1   1 -13 118810. 5260.92   1
  -1   0 -13 107731. 4338.49   2
   1   0 -13 112473. 5331.00   1
  -1   0  13 128653. 5414.83   1
  -1   0 -13 117528. 5230.33   1
   0  -1 -14 289454. 9441.08   1
   0  -1  14 298986. 9207.83   1
   1   0  14 313480. 9249.11   1
   1  -1 -14 283622. 9416.98   1
   1   0 -14 280665. 8841.61   2
  -1   0 -14 286160. 9197.80   1
   0   1 -14 269146. 9205.51   1
   0   1  14 301728. 9237.41   1
  -1   0  14 313053. 9543.22   1
  -1   1  14 296099. 9182.68   1
   0  -1 -14 297466. 8827.48   2
  -1   1 -14 272466. 9152.79   1
   1  -1 -14 315847. 9229.55   2
   0   1 -14 302042. 8892.48   2
   1   0 -14 300530. 9526.87   1
   1  -1  14 296118. 9157.71   1
   1  -1  15 73972.6 4252.59   1
   0  -1 -15 72499.4 3991.31   2
   0  -1 -15 77206.1 4507.36   1
   1   0 -15 71476.8 4403.93   1
   0   1 -15 73195.4 4058.58   2
   1  -1 -15 75875.1 4319.21   2
  -1   0 -15 78669.1 4536.54   1
   1  -1 -15 70585.1 4371.77   1
  -1   0  15 71662.0 4343.13   1
   1   0  15 68728.8 4034.40   1
  -1   1  15 71911.5 4277.79   1
   0   1  15 78651.2 4415.42   1
  -1   1 -15 71875.5 4290.37   1
   0  -1  15 66844.0 4103.28   1
   0   1 -15 68790.5 4285.72   1
   1   0 -15 74712.9 4241.52   2
   0   1 -16 20191.0 2377.89   1
   1  -1 -16 22226.5 2511.37   1
   0  -1 -16 19826.5 2172.31   1
   0  -1  16 17979.1 2174.38   1
   1   0 -16 16874.1 2197.14   1
  -1   0  16 17219.5 2123.34   1
  -1   1  16 17850.9 2117.23   1
   0   1  16 18264.9 2133.74   1
   1  -1 -16 19081.4 2177.48   2
  -1   1 -16 18780.6 2299.90   1
  -1   0 -16 14541.8 2013.62   1
   1  -1  16 20871.2 2226.05   1
   1   0 -16 16444.3 2045.54   2
   1   0  16 22752.8 2387.18   1
   0   1 -17 12855.6 1920.93   1
  -1   0  17 17088.3 2175.06   1
   0  -1  17 16416.6 2089.66   1
   1   0  17 18056.2 2134.69   1
   1   0 -17 15176.4 2049.84   1
   0   1  17 17656.7 2216.31   1
   1  -1 -17 18160.9 2278.46   1
   0  -1 -17 20189.3 2406.64   1
  -1   0 -17 15587.8 2101.69   1
  -1   1  17 16889.0 2090.91   1
   1  -1  17 16324.6 2050.08   1
  -1   1 -17 15601.6 2119.10   1
   1   0 -18 38661.6 3418.21   1
   0   1 -18 33171.1 3233.95   1
  -1   0  18 37986.2 3341.13   1
   1  -1 -18 40130.0 3476.94   1
   0  -1  18 37414.7 3328.28   1
  -1   1  18 41992.8 3491.44   1
  -1   1 -18 40080.8 3559.36   1
   1   0  18 41704.6 3434.94   1
   0   1  18 40902.7 3455.46   1
   0  -1 -18 41020.8 3574.57   1
   1  -1  18 38682.2 3357.36   1
  -1   0 -18 42296.3 3624.07   1
   1   0  19 8094.46 1565.05   1
  -1   0 -19 7017.47 1500.80   1
  -1   1  19 7450.36 1466.78   1
   1  -1  19 8019.10 1508.08   1
   0   1  19 8246.85 1605.46   1
  -1   0  19 8693.00 1629.74   1
   0   1 -19 8161.47 1609.55   1
   1  -1 -19 7018.53 1489.98   1
   1   0 -19 7656.28 1520.41   1
  -1   1 -19 5576.06 1376.38   1
   0  -1  19 7213.75 1467.54   1
   0  -1 -19 6968.45 1554.24   1
  -1   1  20 1252.08 779.112   1
   0  -1 -20 2020.06 876.328   1
   0   1 -20 3351.58 1126.00   1
  -1   0  20 718.411 448.563   1
   0  -1  20 1732.07 844.499   1
   1  -1  20 1392.88 814.783   1
   1   0 -20 825.172 387.532   1
   1  -1 -20 1794.56 822.851   1
   1   0  20 2243.36 903.298   1
  -1   0 -20 1865.33 750.298   1
  -1   1 -20 1150.09 485.173   1
   0   1  20 2321.30 946.298   1
  -1   1 -21 16327.9 2456.26   1
   0   1 -21 16259.3 2384.32   1
   0  -1 -21 16939.8 2461.10   1
   0  -1  21 17144.4 2339.07   1
  -1   0 -21 14866.4 2330.29   1
   1  -1 -21 19093.1 2597.38   1
  -1   0  21 22442.5 2657.88   1
   1   0 -21 19300.3 2462.29   1
   1  -1  21 16457.8 2271.52   1
  -1   1  21 19314.4 2434.07   1
   0   1  21 18495.0 2395.41   1
   0  -1  22 41007.2 3756.23   1
   1  -1 -22 41806.1 3843.57   1
  -1   1 -22 45673.4 4132.16   1
  -1   1  22 41345.4 3766.50   1
   0   1 -22 41938.3 3974.02   1
  -1   2 -22 741.743 617.657   1
   1  -2  22 1735.03 845.960   1
   1  -2  21 142.413 470.252   1
  -1   2 -21 865.502 659.754   1
  -2   1  21-832.583 615.597   1
   2  -1 -21-379.182 499.837   1
   2  -1 -20 136457. 6936.33   1
   1  -2  20 131626. 6815.25   1
  -1   2 -20 128034. 6940.37   1
  -1  -1 -19 620.322 621.899   1
   2  -1 -19-615.616 511.147   1
  -2   1  19-440.893 709.531   1
   1  -2  19 157.547 375.035   1
  -1   2 -19 308.041 588.787   1
  -2   1  18 467.135 578.645   1
   2  -1 -18 468.157 448.866   1
   1  -2  18 1379.91 792.160   1
   1   1  18-293.003 581.502   1
  -1   2 -18-26.4583 361.086   1
   2  -1 -18 311.261 422.263   2
  -1  -1 -18 425.350 396.830   1
   2  -1 -17-189.389 439.722   1
  -2   1  17 578.692 453.007   1
   1   1  17 538.176 626.406   1
  -1   2 -17-407.232 485.634   1
   2  -1 -17 491.569 472.005   2
   1  -2  17-110.238 481.104   1
  -1  -1 -17 420.589 380.329   1
   1  -2  16 157679. 6716.10   1
   2  -1 -16 164273. 7079.77   1
  -1   2 -16 159015. 6953.31   1
  -1  -1 -16 163188. 7097.93   1
   1   1  16 187927. 7303.44   1
   2  -1 -16 163875. 6879.44   2
  -2   1  16 173163. 7153.30   1
   1  -2  15-315.794 350.183   1
   2  -1 -15-64.3786 407.183   2
   1   1  15 12.2446 286.139   1
  -1   2 -15-690.938 615.738   1
   2  -1 -15-769.711 795.961   1
  -2   1  15-260.908 288.108   1
  -1  -1 -15 39.6450 299.213   1
   2  -1 -14 37600.6 3041.32   1
   1   1  14 40475.4 3007.41   1
  -1   2 -14 37566.8 3050.23   1
  -1   2 -14 38390.3 2798.53   2
  -1  -1 -14 35494.7 2900.03   1
   1  -2  14 41446.7 3076.37   1
   2  -1 -14 41734.4 3043.42   2
  -2   1  14 38164.4 3060.95   1
  -1   2 -13 461.689 535.739   1
   2  -1 -13-264.859 376.185   1
  -1   2 -13-73.8408 377.944   2
   2  -1 -13 67.5183 393.134   2
  -2   1  13 241.240 616.321   1
   1  -2  13-527.215 437.042   1
   1   1  13 539.923 615.101   1
  -1  -1 -13 28.5504 201.488   2
  -1  -1 -13 352.226 314.862   1
   2  -1 -12 558515. 13660.1   2
   2  -1 -12 574875. 14011.6   1
   1  -2  12 555925. 13505.6   1
  -1   2 -12 580435. 13109.9   2
  -1  -1 -12 587739. 13816.1   1
  -2   1  12 574473. 13919.6   1
  -1   2 -12 589357. 14132.8   1
  -1   2 -11-310.111 504.036   1
   2  -1 -11 255.949 352.751   2
   2  -1 -11 255.457 413.044   1
  -1  -1 -11 99.4067 341.411   1
  -1  -1 -11 0.61580 291.864   2
  -1   2 -11 4.81178 256.321   2
  -2   1  11-56.4272 466.105   1
   1   1  11 273.096 390.428   1
   1  -2  11 162.693 387.418   1
   1   1  10 122409. 4473.45   1
   2  -1 -10 108563. 4693.59   1
  -1  -1 -10 105127. 3737.69   2
   1  -2  10 112304. 4529.12   1
  -1  -1 -10 114134. 4431.02   1
  -1   2 -10 99343.0 3935.16   2
   2  -1 -10 113095. 4564.24   2
  -2   1  10 109006. 4613.74   1
  -1   2 -10 107326. 4675.09   1
  -1   2  -9 521.049 447.296   1
  -1  -1  -9-14.2933 206.409   1
   2  -1  -9-87.5790 446.661   2
  -1  -1  -9 378.905 268.321   2
   1  -2   9 208.992 301.622   1
  -2   1   9 229.771 300.178   1
  -1   2  -9 93.5439 174.906   2
   2  -1  -9 123.530 283.749   1
   1   1   9-24.7986 193.694   1
   2  -1  -7-121.554 254.487   1
  -1   2  -7-114.375 231.219   1
  -1   2  -7 264.028 190.160   2
   1   1   7 209.707 184.195   1
  -1  -1  -7 65.8357 161.490   2
   1  -2   7 467.099 379.943   1
   2  -1  -7 127.888 205.929   2
  -1  -1  -7-389.310 307.397   1
  -2   1   7 339.318 308.853   1
   2  -1  -6 20329.2 1535.45   2
  -1   2  -6 16741.3 1453.94   1
  -1  -1  -6 18811.0 1261.93   1
  -1  -1  -6 15106.8 1218.51   2
  -1   2  -6 21892.7 1358.55   2
   1  -2   6 21545.0 1570.78   1
   1   1   6 18276.9 1207.23   1
  -2   1   6 19182.3 1495.48   1
   2  -1  -6 19169.5 1557.14   1
  -2   1   5 737.272 315.507   1
  -1  -1  -5 393.050 185.295   1
   1   1   5 228.424 181.486   1
   1  -2   5 957.873 372.203   1
  -1   2  -5 46.0953 187.380   2
   2  -1  -5-111.156 249.783   2
   2  -1  -5-196.132 295.367   1
  -1   2  -3 211.968 202.337   2
   2  -1  -3-69.8527 216.453   1
  -2   1   3 640.359 302.313   1
   2  -1  -3 673.312 336.814   2
   1   1   3-10.6414 126.520   1
  -1  -1  -3-34.6371 118.340   1
   1  -2   3-116.897 231.325   1
  -1   2  -3 466.518 281.413   1
  -1  -1  -1 120.966 134.519   1
  -2   1   1 74.4521 128.623   1
   2  -1  -1 35.8892 179.182   2
   1   1   1-204.232 146.926   2
  -1   2  -1 225.200 250.612   1
   1  -2   1 99.7422 166.488   1
   1   1   1 208.069 118.649   1
   2  -1  -1-36.0265 142.435   1
   1   1  -1 305.940 179.535   1
   1  -2  -1 761.410 327.299   1
  -2   1  -1 196.920 130.840   1
  -1   2   1 473.578 224.752   1
   2  -1   1 96.3319 97.6407   2
   1   1  -1 35.2899 231.998   2
  -1  -1   1 307.638 184.426   1
   2  -1   1-20.7885 125.705   1
   1   1  -3 366.616 222.287   2
   1  -2  -3 135.976 236.903   1
  -1   2   3 388.292 234.477   1
   1   1  -3 386.995 360.265   1
   2  -1   3-149.982 202.431   1
  -1  -1   3 479.662 218.176   1
  -2   1  -3 334.380 130.889   1
   1   1  -5 427.154 309.684   2
   1  -2  -5-111.442 259.381   1
  -2   1  -5-199.570 256.447   1
   2  -1   5 81.5153 186.850   1
   1  -2  -5 335.582 348.946   2
  -1   2   5-4.05213 213.417   1
   1   1  -5 1037.11 440.058   1
  -1  -1   5 1078.67 486.524   1
   2  -1   6 11651.5 993.629   1
  -1   2   6 11714.8 1097.67   1
  -1  -1   6 12669.1 1227.90   1
   1  -2  -6 11054.2 1087.83   2
   1   1  -6 11666.0 1128.98   2
   1   1  -6 11279.1 1198.52   1
   1  -2  -6 10785.8 1085.13   1
  -2   1  -6 10710.8 950.924   1
  -2   1  -7 73.5748 91.6334   2
  -2   1  -7 547.690 404.984   1
   1  -2  -7 23.9112 196.306   2
  -1   2   7 260.592 252.689   1
   1   1  -7-96.0276 352.731   2
   1   1  -7 406.409 276.507   1
  -1  -1   7-128.685 255.174   1
   1  -2  -7-89.0773 359.816   1
   2  -1   7-157.993 214.577   1
   1   1  -9 410.676 329.894   1
   1  -2  -9 273.747 287.239   1
  -1   2   9-359.909 360.299   1
   1   1  -9-414.642 265.322   2
   1  -2  -9-67.3116 377.178   2
   2  -1   9 185.511 212.192   1
  -2   1  -9-215.678 201.663   2
  -1  -1   9-73.9590 387.310   1
  -2   1  -9 55.0997 175.042   1
  -1  -1  10 83756.2 3948.78   1
  -2   1 -10 79112.4 3662.08   1
   1  -2 -10 74969.1 3778.54   1
   1   1 -10 77410.2 3649.12   2
   2  -1  10 74895.0 3429.24   1
  -1   2  10 75457.7 3702.31   1
  -2   1 -10 71106.3 2594.33   2
   1  -2 -10 75259.2 3515.56   2
   1   1 -10 79382.8 3879.29   1
   1   1 -11 19.0917 331.051   2
  -2   1 -11 84.9962 377.668   1
  -2   1 -11-133.940 122.472   2
   1  -2 -11-84.1946 305.536   1
   1   1 -11 144.728 393.762   1
  -1   2  11-310.566 379.834   1
   2  -1  11-28.3235 238.974   1
   1  -2 -11 295.985 412.010   2
  -1  -1  11 613.591 358.138   1
   1  -2 -12 472318. 12665.4   1
   1  -2 -12 487595. 12276.7   2
  -1  -1  12 508217. 12767.2   1
   1   1 -12 525201. 12571.9   2
  -2   1 -12 537188. 12775.8   1
   2  -1  12 557410. 12617.4   1
  -1   2  12 497753. 12546.4   1
   1   1 -12 518342. 13091.6   1
   2  -1  13 439.352 247.123   1
   1  -2 -13-217.400 360.064   2
   1  -2 -13 627.730 379.420   1
   1   1 -13-236.482 494.798   1
   1   1 -13 93.5903 238.280   2
  -1   2  13 615.455 492.469   1
  -1  -1  13-386.227 426.410   1
  -2   1 -13-37.2298 263.392   1
  -2   1 -14 2604.56 658.684   1
  -1   2  14 3270.59 865.256   1
   1   1 -14 4114.55 951.803   1
   1   1 -14 2678.97 721.523   2
   1  -2 -14 2188.24 792.559   1
   1  -2 -14 3204.99 805.848   2
  -1  -1  14 3529.45 961.260   1
   2  -1  14 3616.84 883.849   1
   2  -1  15 1091.01 638.097   1
  -1   2  15 299.072 464.755   1
  -2   1 -15 422.927 241.544   1
   1  -2 -15 219.986 319.452   2
   1   1 -15 542.998 418.596   1
   1   1 -15-648.478 518.339   2
   1  -2 -15 397.988 508.706   1
  -1  -1  15 253.236 450.742   1
   1  -2 -16 217924. 8029.09   2
   2  -1  16 236889. 8265.69   1
  -2   1 -16 210906. 8154.13   1
  -1  -1  16 211905. 8060.40   1
   1  -2 -16 214322. 8279.86   1
  -1   2  16 214928. 8029.12   1
   1   1 -16 205622. 7855.62   2
   1   1 -16 197265. 7903.65   1
   1  -2 -17 273.020 510.752   1
   2  -1  17-106.602 374.473   1
  -2   1 -17-49.4784 615.173   1
  -1   2  17 947.443 811.556   1
   1   1 -17 773.552 593.341   1
  -1  -1  17-416.739 620.355   1
   1   1 -17-513.931 575.624   2
  -1   2  18 7835.37 1549.12   1
  -1  -1  18 6691.58 1338.47   1
  -2   1 -18 6927.48 1443.19   1
   1   1 -18 7490.53 1489.49   1
   1  -2 -18 7485.43 1471.57   1
   2  -1  18 7272.02 1535.23   1
   1   1 -19-602.601 429.920   1
   2  -1  19 334.315 511.927   1
   1  -2 -19-131.699 395.823   1
  -1   2  19 332.314 441.173   1
  -1  -1  19 124.343 270.072   1
  -2   1 -19-138.566 550.307   1
   1   1 -20 103842. 5942.40   1
  -1  -1  20 102681. 5761.32   1
   1  -2 -20 102490. 6053.90   1
  -1  -1  21 937.659 493.545   1
   1   1 -21-861.809 759.013   1
  -1   2  21-421.608 468.430   1
   1  -2 -21 529.759 579.511   1
   1  -2 -22 11781.3 2006.00   1
   2  -2   0 143050. 3599.74   1
  -2   2   0 143677. 3579.14   1
   0   2   0 136424. 3457.72   1
   0   2   1 160031. 3851.05   1
   2  -2  -1 156640. 3995.10   1
  -2   2  -1 152931. 3876.30   1
  -2   2   1 161424. 4041.01   1
   0   2  -1 174627. 4295.11   2
   2   0   1 170200. 3583.32   2
   2  -2   1 149411. 3881.04   1
   0   2  -1 157367. 4025.01   1
   2   0  -1 167437. 3998.36   2
   0  -2   7 85989.1 3574.89   1
  -2   2  -7 88714.0 3484.08   1
   0  -2  -7 88801.1 3399.17   2
  -2   2  -7 81656.5 2629.85   2
   2   0  -7 96012.5 3674.26   2
   2  -2  -7 91510.5 3681.52   1
   2   0  -7 87428.5 3667.47   1
  -2   0  -7 93120.6 3168.16   1
  -2   0   7 91830.7 3690.09   1
   0   2  -7 88876.7 3672.31   1
   2   0   7 79760.3 2890.23   1
   0  -2  -7 81145.0 3266.24   1
   2  -2   7 87427.9 3357.26   1
   0   2  -7 92369.6 3504.26   2
   2  -2  -7 88270.0 3585.95   2
   0   2   7 81165.1 3265.67   1
  -2   2   7 85935.2 3559.10   1
  -2   0  -8 13954.2 1227.17   1
   2   0   8 13955.1 1167.51   1
   0   2  -8 14030.5 1425.24   1
   2   0  -8 13371.2 1375.63   2
  -2   2   8 12838.7 1435.58   1
   0  -2   8 12729.2 1334.87   1
   2  -2  -8 15066.2 1403.86   2
  -2   2  -8 12727.2 1402.40   1
   0   2   8 13222.5 1301.03   1
   2  -2  -8 12350.7 1353.01   1
  -2   0  -8 12150.7 804.089   2
  -2   0   8 12016.8 1350.25   1
  -2   2  -8 13211.5 979.502   2
   2   0  -8 12709.4 1485.27   1
   0  -2  -8 13445.2 1343.50   1
   2  -2   8 12416.2 1277.79   1
   0   2  -8 11527.6 1256.39   2
   0  -2  -8 11983.3 1197.62   2
   0  -2   9 56667.5 3078.33   1
  -2   0   9 57008.3 3142.20   1
   2  -2  -9 59646.9 3061.92   2
   0   2  -9 53740.3 3100.56   1
   2  -2  -9 53311.1 3090.16   1
   2   0   9 46203.5 2496.91   1
   2   0  -9 50978.4 2840.36   2
   0   2   9 45920.2 2656.15   1
   2  -2   9 51777.8 2841.91   1
  -2   2  -9 46291.3 2818.29   1
   0   2  -9 58006.0 2920.66   2
  -2   0  -9 56152.9 2798.36   1
  -2   0  -9 49350.2 1958.26   2
  -2   2   9 53750.6 3034.27   1
   0  -2  -9 58581.0 3029.84   1
   2   0  -9 57622.6 3226.46   1
   0  -2  -9 54190.2 2672.93   2
  -2   2  -9 54206.1 2253.91   2
  -2   0 -10 249472. 7087.36   1
  -2   2 -10 215978. 5866.81   2
   2  -2 -10 216897. 7362.12   1
   2   0  10 228273. 6678.28   1
   0  -2  10 242669. 7409.32   1
  -2   2  10 243953. 7474.94   1
  -2   0 -10 233345. 5620.40   2
   0  -2 -10 250293. 6883.96   2
  -2   2 -10 248430. 7443.66   1
   2  -2  10 232703. 7044.22   1
   0   2  10 256389. 7252.83   1
   2   0 -10 257484. 7364.25   2
   2   0 -10 241820. 7635.48   1
   0   2 -10 250139. 7060.42   2
   0   2 -10 251582. 7613.21   1
   2  -2 -10 238782. 7334.21   2
   0  -2 -10 248518. 7377.01   1
  -2   0  10 244412. 7443.79   1
   2  -2 -11 240931. 7977.07   1
   2  -2 -11 271007. 8022.75   2
  -2   2 -11 261008. 7930.25   1
   0  -2 -11 245012. 7277.99   2
   2   0 -11 255112. 7743.66   2
   2   0  11 260351. 7429.30   1
  -2   0 -11 247871. 7451.12   1
   0  -2 -11 247429. 7855.27   1
  -2   0 -11 208097. 5852.43   2
  -2   2 -11 265411. 6627.54   2
   0  -2  11 268459. 8055.25   1
  -2   0  11 265196. 8097.43   1
   2   0 -11 264251. 8292.67   1
   0   2 -11 276988. 7736.76   2
   0   2 -11 261894. 8090.86   1
   2  -2  11 267134. 7735.61   1
   0   2  11 256980. 7637.19   1
  -2   2  11 287808. 8186.76   1
   0   2  12 78377.3 3964.49   1
  -2   0  12 82313.2 4231.65   1
   2  -2 -12 78501.9 4259.50   1
  -2   2 -12 70549.4 4022.79   1
  -2   0 -12 83157.4 4023.73   1
   0  -2 -12 79744.3 3732.97   2
   2   0  12 77875.5 3829.13   1
   0   2 -12 72374.1 4072.22   1
   0  -2 -12 72107.8 3909.03   1
   0   2 -12 69016.3 3789.78   2
   2  -2  12 76082.5 3907.13   1
   2   0 -12 78549.4 4277.08   1
  -2   2 -12 75314.0 3212.77   2
   2  -2 -12 75355.7 4007.90   2
  -2   2  12 63995.2 3792.90   1
   2   0 -12 73132.3 3895.31   2
   0  -2  12 71539.1 3956.97   1
   0   2  13 72033.4 3959.54   1
   2  -2 -13 71499.5 4183.45   1
   0  -2 -13 83995.1 4125.98   2
   2   0 -13 77031.4 4071.30   2
   0  -2  13 68637.9 3992.76   1
   0   2 -13 73989.8 3941.81   2
   0   2 -13 67445.8 4024.34   1
   2   0  13 70690.4 3752.01   1
  -2   0 -13 73511.9 3959.68   1
  -2   0  13 72416.5 4150.87   1
   0  -2 -13 72971.5 4082.37   1
   2   0 -13 71820.7 4257.88   1
   2  -2  13 67286.3 3824.96   1
  -2   2  13 75089.6 4126.93   1
  -2   2 -13 68334.3 3988.07   1
   2  -2 -13 78123.0 4171.66   2
   0  -2  14 192613. 7240.59   1
   0   2  14 206296. 7341.43   1
   0   2 -14 189201. 6993.98   2
   2   0 -14 180044. 7369.62   1
   2  -2  14 190924. 7031.75   1
  -2   0  14 202405. 7467.05   1
   2  -2 -14 192279. 7324.44   1
   0  -2 -14 186222. 7132.38   1
   0   2 -14 188542. 7417.85   1
  -2   0 -14 198621. 7242.36   1
   2  -2 -14 190097. 7129.31   2
  -2   2 -14 183654. 7211.05   1
  -2   2  14 184759. 7031.51   1
   2   0 -14 196526. 7235.39   2
   0  -2 -14 190730. 6838.93   2
  -2   0  15 1319.97 607.377   1
   2   0 -15 2172.46 837.692   2
  -2   2 -15 2070.61 771.196   1
  -2   0 -15 978.383 610.147   1
   2   0  15 2068.95 756.087   1
   0  -2  15 1256.17 477.416   1
   2   0 -15 1023.37 441.826   1
   0   2  15 2784.62 934.803   1
   0   2 -15 1024.38 424.999   2
   0   2 -15 1660.95 670.343   1
   0  -2 -15 1476.95 668.871   1
   2  -2 -15 1958.90 871.498   1
   2  -2  15 1375.29 623.474   1
   2  -2 -15 1438.58 637.938   2
  -2   2  15 2125.32 731.742   1
   2   0 -16 4956.22 1180.85   1
  -2   2 -16 3159.79 974.395   1
   2   0  16 4183.93 946.677   1
   2  -2 -16 5257.34 1188.55   2
   2  -2  16 4496.90 1117.93   1
   2  -2 -16 3020.84 987.043   1
   0  -2 -16 3447.84 984.141   1
  -2   2  16 6063.25 1351.28   1
   0  -2  16 2596.94 631.825   1
   0   2  16 4556.72 1100.04   1
  -2   0 -16 3434.45 1042.52   1
   0   2 -16 2231.73 943.147   1
   2   0 -16 4965.32 1165.29   2
  -2   0  16 4306.90 1026.51   1
   0  -2 -17 43001.6 3642.01   1
   2   0 -17 39872.5 3403.50   1
   0   2  17 42857.8 3393.34   1
  -2   0 -17 37074.1 3375.80   1
   0   2 -17 34971.9 3296.75   1
   2  -2 -17 42918.0 3405.20   2
   2   0 -17 40012.2 3385.90   2
  -2   2  17 45070.7 3528.83   1
  -2   2 -17 37202.4 3444.83   1
   2  -2  17 46033.3 3551.02   1
  -2   0  17 45247.6 3559.30   1
   2   0  17 45904.7 3528.33   1
   2  -2 -17 35174.2 3336.98   1
   0  -2  17 45100.1 3459.73   1
   2   0 -18 91623.5 5379.30   2
  -2   0 -18 92828.0 5502.49   1
  -2   2  18 97027.7 5467.49   1
   0  -2  18 98543.5 5423.23   1
   0  -2 -18 105313. 5861.70   1
   2  -2  18 96714.6 5437.12   1
  -2   2 -18 90758.1 5513.95   1
   0   2  18 97686.5 5504.39   1
   0   2 -18 89192.3 5352.48   1
   2  -2 -18 94414.7 5522.32   1
   2   0 -18 97028.4 5476.26   1
  -2   0  18 92288.8 5288.10   1
  -2   2 -19 62769.1 4625.92   1
   2   0 -19 69223.8 4726.66   1
   0  -2 -19 66558.7 4752.81   1
   0   2 -19 70542.7 4712.24   1
   2  -2  19 65936.4 4605.38   1
  -2   2  19 65647.0 4504.73   1
  -2   0  19 66554.0 4597.79   1
   0   2  19 68118.5 4703.01   1
   2  -2 -19 67281.7 4766.83   1
   0  -2  19 67156.3 4593.61   1
   2  -2  20 18383.2 2377.67   1
   2  -2 -20 17097.6 2382.40   1
   0   2  20 18162.8 2446.27   1
  -2   0  20 19293.9 2452.09   1
  -2   2 -20 17128.5 2463.02   1
   0  -2  20 18611.4 2448.29   1
   2   0 -20 18170.9 2406.24   1
   0  -2 -20 19007.3 2608.54   1
   0   2 -20 18470.2 2526.72   1
  -2   2  20 16425.4 2297.13   1
  -2   2  21 9495.88 1734.01   1
   0   2 -21 7167.51 1611.46   1
   2   0 -21 11487.5 1930.46   1
  -2   0  21 9750.73 1734.89   1
   0  -2  21 10170.8 1747.47   1
   2  -2 -21 10737.0 1802.19   1
  -2   2 -21 8169.63 1649.99   1
   1  -3  21 34773.1 3338.90   1
  -2   3 -21 30083.4 3224.76   1
   3  -1 -21 35444.1 3448.45   1
   3  -2 -21 29688.6 3221.93   1
  -1   3 -21 28831.9 3237.74   1
   2  -3  21 27697.5 3065.21   1
  -3   1  21 36694.7 3367.23   1
  -3   2  21 31909.0 3294.99   1
   2  -3  20 951.493 703.494   1
   3  -1 -20 1076.56 625.876   1
  -3   2  20 2567.87 1028.06   1
   1  -3  20 2102.53 986.521   1
  -2   3 -20 1064.57 753.839   1
   3  -2 -20 1217.48 659.148   1
  -1   3 -20 1875.46 859.713   1
  -3   1  20 1165.24 620.808   1
   3  -2 -19 27098.9 2973.87   2
  -3   1  19 32225.9 3155.27   1
   3  -2 -19 31800.4 3246.92   1
   3  -1 -19 31354.9 3164.27   2
   2  -3  19 29310.8 2952.87   1
  -3   2  19 32145.8 3182.05   1
   3  -1 -19 30515.9 3132.39   1
   1  -3  19 27767.9 2923.06   1
  -1   3 -19 30038.8 3125.27   1
  -1   3 -18 167301. 7710.96   1
   1  -3  18 186619. 7783.09   1
   3  -2 -18 184662. 7786.77   2
  -3   2  18 173307. 7535.19   1
  -3   1  18 192346. 7875.12   1
   3  -2 -18 199022. 8214.65   1
  -2   3 -18 185356. 8007.76   1
   3  -1 -18 176172. 7801.09   1
   2  -3  18 169719. 7591.88   1
   3  -1 -18 184892. 7817.37   2
  -2   3 -17 20993.6 2522.15   1
  -1   3 -17 19520.2 2357.88   1
  -3   1  17 18882.9 2339.64   1
   1  -3  17 17618.1 2183.03   1
   3  -2 -17 22114.3 2455.99   2
   3  -1 -17 18609.2 2269.24   2
   3  -1 -17 19590.0 2353.05   1
  -3   2  17 20164.2 2289.11   1
   2  -3  17 19972.5 2392.53   1
   3  -2 -17 18795.6 2365.82   1
   1   2  17 16775.1 2176.11   1
  -1  -2 -17 20384.5 2471.76   1
  -3   1  16 107367. 5538.03   1
  -3   2  16 107301. 5531.66   1
   3  -1 -16 104318. 5573.11   1
  -2  -1 -16 97017.5 5260.37   1
  -2   3 -16 97182.6 5426.25   1
   3  -1 -16 97584.8 5193.39   2
  -1   3 -16 100734. 5526.54   1
   1   2  16 97801.2 5221.18   1
   1  -3  16 97422.0 5282.75   1
  -1  -2 -16 100655. 5481.12   1
   3  -2 -16 102190. 5454.78   2
   3  -2 -16 105690. 5508.05   1
   2  -3  16 103504. 5390.54   1
  -3   2  15 29894.6 2772.46   1
  -2  -1 -15 33089.6 2886.85   1
   3  -2 -15 32043.0 2908.48   2
  -1  -2 -15 34517.1 2993.94   1
   3  -1 -15 32249.9 2987.61   1
  -1   3 -15 35044.9 3086.57   1
   1  -3  15 29355.3 2738.97   1
   1   2  15 33969.5 2858.41   1
   3  -1 -15 33386.0 2924.30   2
   3  -2 -15 34051.2 3055.48   1
  -2   3 -15 32072.0 2956.15   1
   2  -3  15 29924.8 2727.96   1
   2   1  15 33274.2 2774.48   1
  -3   1  15 34233.6 2943.87   1
  -1   3 -14 121866. 5849.75   1
   3  -2 -14 119567. 5669.68   2
   2   1  14 122189. 5421.03   1
  -2  -1 -14 138747. 5846.93   1
  -1   3 -14 119022. 5261.96   2
   2  -3  14 121934. 5629.70   1
  -3   2  14 116812. 5569.42   1
  -2   3 -14 112297. 5536.06   1
   3  -1 -14 116845. 5796.51   1
   3  -2 -14 117253. 5681.52   1
  -1  -2 -14 136370. 5885.21   1
   1  -3  14 118773. 5594.32   1
   3  -1 -14 123965. 5566.39   2
   1   2  14 119144. 5401.96   1
  -3   1  14 119373. 5637.50   1
  -2   3 -13 19424.2 2037.91   1
   3  -1 -13 16696.0 2075.26   1
   3  -1 -13 16979.9 2005.94   2
  -1   3 -13 18415.5 2077.65   1
   3  -2 -13 19619.0 2107.96   2
   1  -3  13 16433.9 1922.11   1
  -1  -2 -13 18179.5 1957.15   1
  -3   1  13 17992.9 2057.40   1
  -1   3 -13 17406.5 1758.83   2
  -2  -1 -13 19631.0 2044.66   1
   1   2  13 18641.3 1933.34   1
   2   1  13 17583.7 1853.26   1
   2  -3  13 16937.0 1930.48   1
   3  -2 -13 17711.6 2019.74   1
  -3   2  13 17038.4 1964.98   1
  -2   3 -12 3609.06 1007.99   1
  -2   3 -12 3270.84 714.673   2
   2  -3  12 3532.79 856.167   1
   3  -1 -12 2048.99 727.404   2
  -1   3 -12 3386.06 837.273   2
   3  -1 -12 2547.11 892.499   1
   3  -2 -12 2867.99 823.575   1
  -1  -2 -12 3241.92 794.853   1
  -1  -2 -12 3378.52 700.729   2
  -2  -1 -12 3453.04 764.361   1
  -3   2  12 3860.09 979.425   1
  -3   1  12 4217.90 965.007   1
  -1   3 -12 3177.28 1009.33   1
   3  -2 -12 3412.74 887.137   2
   1  -3  12 4337.53 980.604   1
   1   2  12 2276.43 580.236   1
   2   1  12 3210.96 765.530   1
  -2   3 -11 34242.5 2661.93   1
   1   2  11 26663.5 2078.22   1
   1  -3  11 27877.9 2345.52   1
  -1   3 -11 31574.0 2583.09   1
  -1   3 -11 30099.5 2276.07   2
   2   1  11 34648.1 2289.07   1
   2  -3  11 30319.6 2412.19   1
  -1  -2 -11 28078.5 2036.62   2
  -3   1  11 29506.8 2435.97   1
   3  -2 -11 29114.6 2405.90   2
  -3   2  11 26975.6 2364.37   1
  -2   3 -11 30464.0 2072.48   2
   3  -1 -11 30666.3 2509.65   1
  -2  -1 -11 29604.3 2220.25   1
   3  -1 -11 29039.4 2444.36   2
  -1  -2 -11 28844.8 2269.65   1
   3  -2 -11 30469.0 2521.45   1
  -2  -1 -11 19388.1 1475.07   2
  -3   2  10 162613. 6034.83   1
  -2  -1 -10 168622. 5528.06   1
   3  -2 -10 162854. 6059.16   1
  -1   3 -10 173184. 6328.48   1
  -3   1  10 181760. 6292.64   1
   2  -3  10 183617. 6090.23   1
  -2  -1 -10 161810. 4619.97   2
   1  -3  10 167979. 6033.03   1
   3  -2 -10 181387. 6193.56   2
  -1  -2 -10 124918. 4720.48   2
   2   1  10 154513. 5191.85   1
  -2   3 -10 171389. 6164.56   1
   3  -1 -10 170541. 6076.30   2
  -1  -2 -10 151742. 5494.54   1
  -2   3 -10 163780. 5218.48   2
  -1   3 -10 171251. 5645.84   2
   1   2  10 180041. 5645.94   1
   3  -1 -10 177809. 6298.08   1
   3  -1  -9 444469. 11009.6   1
  -1   3  -9 387029. 10590.5   1
  -1  -2  -9 335654. 9548.31   1
   3  -2  -9 480119. 11410.0   1
   3  -2  -9 461945. 10946.8   2
  -2   3  -9 429523. 9656.64   2
  -3   2   9 445161. 10948.6   1
   1  -3   9 452411. 10887.6   1
  -3   1   9 447354. 10978.8   1
  -1  -2  -9 478428. 10016.4   2
   2   1   9 390084. 9425.52   1
   2  -3   9 453568. 10725.4   1
  -1   3  -9 436632. 10373.2   2
   3  -1  -9 440864. 10954.4   2
  -1  -2  -8 27127.9 1866.29   2
   1  -3   8 28894.0 2134.33   1
   1   2   8 27072.3 1796.57   1
  -3   1   8 28840.1 2192.75   1
   2  -3   8 28780.5 2090.60   1
  -2  -1  -8 20027.2 1293.98   2
  -3   2   8 27579.1 2140.73   1
  -1   3  -8 31481.9 2251.51   1
  -1   3  -8 28523.3 1933.63   2
   3  -1  -8 30737.7 2301.77   1
  -2   3  -8 28076.8 2098.52   1
  -2  -1  -8 28033.7 1749.45   1
   2   1   8 28788.8 1762.71   1
  -1  -2  -8 28717.8 1911.02   1
   3  -2  -8 29613.3 2226.56   1
   3  -1  -8 30312.3 2297.56   2
   3  -2  -8 28190.9 2128.34   2
  -2   3  -8 32113.2 1870.04   2
  -1  -2  -5 296598. 6712.73   1
   3  -2  -5 312743. 7713.98   1
  -1   3  -5 349391. 8032.11   1
  -1   3  -5 314308. 7442.88   2
  -2   3  -5 306962. 7609.89   1
   1  -3   5 291325. 7567.49   1
  -3   1   5 304036. 7569.36   1
   3  -1  -5 302206. 7699.43   2
   3  -2  -5 310478. 7711.12   2
   2  -3   5 334073. 7801.63   1
   3  -1  -5 305363. 7672.56   1
  -3   2   5 311316. 7721.92   1
  -1  -2  -3 56307.0 1951.22   1
  -1   3  -3 49680.1 2313.18   2
   3  -2  -3 52373.9 2357.25   2
   2  -3   3 52134.4 2343.97   1
   1  -3   3 49944.5 2379.20   1
  -3   2   3 52156.5 2343.65   1
   1   2   3 49209.3 1845.33   1
  -3   1   3 46157.2 2136.46   1
   3  -2  -3 50994.5 2297.46   1
   2   1   3 47972.4 1327.54   1
  -2   3  -3 49817.9 2339.48   1
  -2  -1  -3 55498.9 1410.96   1
   3  -1  -3 54054.8 2277.69   1
  -1   3  -3 50540.5 2398.39   1
   3  -1  -3 56269.7 2457.33   2
  -3   2   1 213669. 5146.08   1
   3  -1  -1 240098. 5322.88   2
   1  -3   1 218111. 5510.35   1
   1   2   1 207516. 4752.66   1
   3  -2  -1 205347. 5112.61   1
  -1   3  -1 217566. 5521.02   1
   2  -3   1 221912. 5508.20   1
   2   1   1 232983. 5162.74   2
  -3   1   1 199107. 4766.19   1
   1   2   1 243061. 5679.44   2
  -2   3  -1 220824. 5470.15   1
  -1  -2   0 1234.50 289.005   1
   2   1   0 1375.43 228.480   1
   3  -2   0 1104.91 309.749   1
   1   2   0 990.153 228.210   1
   3  -1   0 969.424 280.138   2
   3  -2   0 991.360 319.037   2
  -2   3   0 1361.90 369.601   1
   2   1   0 1992.56 449.627   2
   1  -3   0 1272.83 350.706   1
  -3   1   0 1732.46 307.150   1
  -3   2   0 1145.00 345.169   1
   2  -3   0 1393.13 397.041   1
  -1   3   0 922.072 322.982   1
  -2  -1   0 1379.66 252.163   1
   1   2   0 468.792 262.158   2
  -1  -2   1 264786. 5972.00   1
  -1   3   1 266796. 6284.76   1
   2  -3  -1 254485. 6340.48   1
   1   2  -1 275434. 6005.28   1
   3  -2   2 118623. 2909.01   2
   2   1  -2 116406. 3334.81   1
  -2  -1   2 110959. 3260.86   1
   1  -3  -2 116380. 3594.39   1
  -1   3   2 117212. 3679.34   1
   3  -1   2 114822. 2708.02   2
   3  -2   2 111820. 3123.64   1
  -3   2  -2 107002. 3136.70   1
   1   2  -2 106478. 3383.52   1
   1   2  -2 127953. 3836.09   2
   2   1  -2 118667. 3682.52   2
   2  -3  -2 115245. 3625.34   1
  -1  -2   2 111061. 3445.56   1
  -2   3   2 118691. 3724.56   1
   1   2  -4 350243. 7979.30   1
  -2  -1   4 314544. 7571.58   1
   2   1  -4 347231. 7939.52   2
   1  -3  -4 322963. 7676.37   1
   2   1  -4 344790. 7821.10   1
   1   2  -4 330528. 7888.48   2
  -2   3   4 325010. 7797.40   1
  -1   3   4 317581. 7541.82   1
   2  -3  -4 341429. 7962.35   1
   2  -3  -7 192443. 5779.57   2
  -2   3   7 186745. 5810.05   1
  -3   2  -7 172209. 5186.77   1
   1   2  -7 168110. 5574.01   2
   2   1  -7 172446. 5826.20   1
   2  -3  -7 175280. 5671.63   1
   3  -1   7 190139. 4897.36   1
  -1  -2   7 171339. 5647.01   1
   1   2  -7 174332. 5821.43   1
   1  -3  -7 167176. 5483.91   1
   2   1  -7 186907. 5796.22   2
  -2  -1   7 184822. 5813.53   1
   3  -2   7 179600. 5168.89   1
   1  -3  -7 210535. 6094.17   2
  -3   1  -7 193985. 5055.55   1
  -1   3   7 173440. 5477.55   1
  -1  -2   9 51961.6 3055.74   1
   2  -3  -9 56064.1 3143.13   1
   1   2  -9 54492.7 3155.29   1
   1  -3  -9 52010.7 2968.15   1
   1  -3  -9 46487.0 2901.94   2
   1   2  -9 58497.9 3054.61   2
   3  -2   9 60116.0 2946.94   1
  -3   2  -9 56329.9 2980.30   1
   2   1  -9 61516.4 3409.70   1
  -3   1  -9 56031.0 2779.69   1
  -1   3   9 53943.5 2951.91   1
   3  -1   9 52818.1 2617.86   1
   2   1  -9 51905.4 3058.88   2
  -2  -1   9 52916.9 3170.61   1
  -2   3   9 55971.3 3114.66   1
   2  -3  -9 58334.5 3112.21   2
  -3   2 -10 419162. 10439.9   1
   2  -3 -10 400508. 10627.5   1
   2   1 -10 422290. 10703.1   2
  -2   3  10 405118. 10565.0   1
   3  -1  10 423452. 9867.76   1
   3  -2  10 405247. 10061.8   1
  -1  -2  10 401488. 10623.4   1
   1  -3 -10 422303. 10638.9   1
  -3   1 -10 421802. 10096.0   1
   1  -3 -10 421474. 10376.1   2
   1   2 -10 397385. 10436.9   2
   2  -3 -10 430523. 10706.1   2
  -2  -1  10 429648. 11030.6   1
   2   1 -10 370322. 10686.1   1
   1   2 -10 413433. 10912.9   1
  -1   3  10 434732. 10579.8   1
   2  -3 -11 1182.26 486.917   1
   1   2 -11 2601.18 788.001   1
   3  -1  11 1505.56 522.894   1
  -3   1 -11 1813.27 518.421   1
  -2  -1  11 1862.76 745.459   1
   1   2 -11 2931.13 691.758   2
   1  -3 -11 2167.00 663.398   2
  -2   3  11 799.992 322.473   1
   2   1 -11 2552.00 813.683   2
   2  -3 -11 1777.69 599.893   2
  -1   3  11 1087.64 362.440   1
  -1  -2  11 2434.55 900.362   1
   2   1 -11 712.446 453.371   1
   1  -3 -11 1721.29 599.233   1
  -3   2 -11 1616.64 614.267   1
   3  -2  11 1790.83 560.531   1
   2   1 -12 2657.83 693.049   2
   1  -3 -12 3946.59 927.890   1
   1   2 -12 3560.42 993.920   1
  -3   1 -12 3635.47 797.280   1
   3  -2  12 4420.67 962.510   1
   2  -3 -12 5183.73 1013.99   2
  -1  -2  12 4102.72 979.723   1
   3  -1  12 3059.50 710.746   1
  -1   3  12 3472.24 820.157   1
   2   1 -12 4238.76 1008.10   1
  -2  -1  12 3362.19 888.724   1
  -3   2 -12 2048.10 579.680   1
   1  -3 -12 2085.82 509.086   2
  -2   3  12 3254.75 896.216   1
   2  -3 -12 4054.77 1017.31   1
   1   2 -12 4019.28 954.076   2
  -1   3  13 27990.7 2400.11   1
   1   2 -13 25456.3 2409.04   1
  -2   3  13 23437.0 2248.94   1
   1  -3 -13 23972.4 2363.50   2
   2   1 -13 22295.5 2281.49   2
   2   1 -13 24632.8 2449.01   1
   1  -3 -13 23980.4 2370.64   1
   3  -2  13 24638.4 2273.60   1
   3  -1  13 25111.5 2127.47   1
  -2  -1  13 22761.6 2334.77   1
  -3   1 -13 21412.2 2166.63   1
   2  -3 -13 25467.2 2378.08   1
  -3   2 -13 26370.6 2377.37   1
   2  -3 -13 20703.8 2232.99   2
   1   2 -13 22587.0 2209.43   2
  -1  -2  13 25430.3 2329.51   1
   2  -3 -14 78303.6 4483.51   2
   1  -3 -14 81396.5 4683.93   1
  -1   3  14 77522.2 4373.42   1
   2   1 -14 70770.5 4221.53   2
  -3   1 -14 74744.5 4215.74   1
   2   1 -14 76509.7 4491.41   1
   1   2 -14 74912.8 4265.58   2
   2  -3 -14 80213.1 4576.79   1
   3  -1  14 73205.7 4049.85   1
   1  -3 -14 68558.6 4128.09   2
   1   2 -14 76423.6 4495.20   1
   3  -2  14 74851.2 4230.92   1
  -3   2 -14 77073.1 4370.43   1
  -2   3  14 87305.5 4611.20   1
  -2  -1  14 75591.3 4398.08   1
  -1  -2  14 75576.2 4363.30   1
  -2  -1  15 147639. 6425.15   1
  -3   2 -15 143505. 6407.82   1
   1  -3 -15 143392. 6536.46   1
   3  -1  15 143853. 6188.57   1
  -2   3  15 162241. 6660.22   1
   2  -3 -15 162133. 6698.91   2
   2   1 -15 148974. 6651.52   1
   1  -3 -15 155327. 6649.29   2
  -1   3  15 136280. 6259.69   1
   1   2 -15 171449. 6867.00   2
   3  -2  15 158669. 6547.02   1
   2  -3 -15 160147. 6809.35   1
  -3   1 -15 155853. 6578.55   1
   2   1 -15 149952. 6452.60   2
  -1  -2  15 141059. 6287.55   1
   1   2 -15 161085. 6835.44   1
  -1  -2  16-156.217 532.496   1
   1   2 -16-624.223 701.121   1
   1  -3 -16-276.707 481.845   1
  -1   3  16 429.812 452.014   1
   2  -3 -16 241.834 330.933   2
   1  -3 -16 659.489 483.026   2
   2   1 -16 553.389 460.229   2
  -2  -1  16 567.850 454.525   1
  -3   2 -16 522.368 630.075   1
  -2   3  16-186.734 571.608   1
   2  -3 -16 364.891 562.674   1
   2   1 -16 108.457 422.469   1
  -3   1 -16 1243.11 793.468   1
   3  -2  16 522.024 660.546   1
   1   2 -16-321.422 625.338   2
   2   1 -17 89247.7 5156.50   1
   3  -2  17 90903.4 5102.97   1
  -1   3  17 99593.8 5420.80   1
   1   2 -17 83463.9 5097.90   2
  -3   2 -17 88146.1 5174.38   1
  -1  -2  17 92763.2 5082.37   1
   2   1 -17 76853.8 4859.56   2
   2  -3 -17 91162.5 5284.75   2
  -2  -1  17 93160.6 5164.89   1
   1  -3 -17 91658.3 5260.53   1
   2  -3 -17 83283.8 5045.25   1
   1   2 -17 79736.7 5011.68   1
  -2   3  17 91119.2 5202.38   1
   2  -3 -18 123356. 6347.53   1
   1  -3 -18 118379. 6286.53   1
  -1  -2  18 120475. 6014.19   1
   1   2 -18 110392. 6000.66   1
   2   1 -18 113642. 6056.88   1
  -2  -1  18 115819. 5988.37   1
   2   1 -18 107621. 5941.81   2
  -1   3  18 129113. 6320.95   1
  -3   2 -18 102083. 5849.93   1
  -2   3  18 119883. 6051.84   1
  -2  -1  19 9056.95 1573.98   1
   2   1 -19 11164.7 1857.50   1
  -2   3  19 7883.24 1544.51   1
  -1  -2  19 9804.79 1734.49   1
  -1   3  19 10922.3 1803.46   1
   1  -3 -19 7757.43 1639.48   1
   2  -3 -19 8203.36 1651.86   1
   1   2 -19 8728.34 1701.82   1
  -1   3  20 34361.2 3356.33   1
  -2   3  20 33250.1 3269.26   1
   2   1 -20 35633.7 3429.07   1
  -1  -2  20 40602.1 3533.83   1
   1   2 -20 35077.2 3436.45   1
   1  -3 -20 31457.0 3310.02   1
   2  -3 -20 33356.3 3427.46   1
  -2  -1  20 35823.7 3355.58   1
   1   2 -21 3808.55 1167.74   1
   1  -3 -21 3473.40 1167.97   1
   2   1 -21 3421.22 1198.76   1
   2  -3 -21 3141.99 1010.76   1
  -1   3  21 3722.59 1059.14   1
  -2   3  21 2894.65 959.724   1
  -2  -1  21 3172.47 955.094   1
  -1  -2  21 3598.65 948.492   1
   3   0  -1 577.007 203.811   1
   0   3   1 89.9348 235.617   1
   3   0  -1 343.648 153.680   2
  -3   3   1 775.130 315.047   1
   0   3  -1 487.145 306.795   1
   3  -3  -1 588.855 225.960   2
   3   0   1 729.920 293.660   2
   0   3  -1 329.656 337.954   2
   3  -3   1 436.834 225.980   1
   0  -3  -1 389.675 238.425   1
   0  -3   1 219.964 275.945   1
   3  -3  -1 638.477 204.961   1
  -3   0  -1 444.452 113.148   1
  -3   0   1 568.656 161.844   1
   3   0   1 624.341 121.067   1
  -3   3  -1 427.398 265.154   1
  -3   0   2 31856.7 1567.66   1
   0   3  -2 33929.5 1942.85   2
  -3   3  -2 30320.8 1700.31   1
   0  -3  -2 31126.1 1661.73   1
   3   0   2 33210.0 1481.55   2
   3  -3  -2 39061.4 2054.29   2
   3  -3  -2 27928.0 1782.85   1
   0   3  -2 33728.2 1902.39   1
   3   0  -2 33218.3 1616.02   1
  -3   3   2 33719.2 1901.03   1
   0  -3   2 28832.8 1799.47   1
   0   3   2 29427.5 1658.36   1
   3   0  -2 33951.2 1844.99   2
   3  -3   2 29375.6 1684.83   1
   0  -3   3 33408.2 1965.52   1
   3   0   3 33968.7 1388.59   2
   0   3   3 33627.0 1810.58   1
  -3   3  -3 33932.3 1874.16   1
   0  -3  -3 35679.4 1852.50   1
   3  -3  -3 40428.7 2202.94   2
   3  -3   3 36634.0 1890.58   1
  -3   3   3 33393.2 1967.02   1
   3  -3  -3 33182.6 1944.78   1
  -3   0   3 32748.2 1770.80   1
   3   0  -3 33356.3 1914.52   2
   0   3  -3 33030.3 1969.54   2
   3   0  -3 33746.5 1791.77   1
   0   3  -3 32617.1 1961.62   1
  -3   0  -5 18126.9 855.416   1
   3   0  -5 20806.2 1602.91   1
  -3   0   5 16613.7 1438.49   1
   3  -3   5 18402.6 1450.19   1
  -3   3  -5 17898.0 1504.38   1
   0  -3  -5 16746.0 1385.03   1
   3  -3  -5 22528.9 1663.14   2
   3   0   5 19760.5 846.184   1
   3  -3  -5 16254.9 1500.60   1
   0   3  -5 17046.0 1542.34   1
   3   0  -5 18752.3 1620.39   2
   0  -3   5 21920.8 1702.95   1
   0   3   5 20166.2 1439.62   1
   0   3  -5 19634.2 1555.38   2
  -3   3   5 16397.6 1502.65   1
  -3   0  -6 20081.8 1164.70   1
   0   3  -6 22628.6 1899.68   1
  -3   3   6 31467.6 2076.45   1
  -3   0   6 26454.2 1899.05   1
   3  -3  -6 23084.6 1831.38   2
   3   0   6 26420.4 1186.79   1
   3   0  -6 23679.9 1792.71   2
   0   3   6 25330.8 1709.50   1
   3  -3  -6 24597.9 1849.97   1
   0  -3   6 23935.4 1881.23   1
   3   0  -6 23863.3 1797.05   1
  -3   3  -6 25066.1 1799.77   1
   0  -3  -6 24678.7 1682.51   1
   3  -3   6 28119.8 1824.03   1
   0   3  -6 21910.8 1739.15   2
   3  -3  -7 10262.5 1193.89   1
   0   3  -7 10620.7 1318.77   1
  -3   0   7 8200.93 1150.07   1
   0   3   7 9111.50 1056.45   1
  -3   3   7 11592.4 1261.47   1
   3   0  -7 10864.1 1259.99   1
  -3   0  -7 8068.62 794.587   1
   3  -3  -7 10362.9 1245.07   2
  -3   3  -7 10443.5 1156.49   1
   3   0  -7 9535.53 1192.34   2
   0  -3  -7 10563.1 1139.68   1
   0   3  -7 8916.56 1114.17   2
   3  -3   7 8998.93 1057.39   1
   3   0   7 8231.18 752.955   1
   0  -3   7 8834.31 1211.25   1
  -3   3  -9 19860.4 1797.32   1
   3  -3  -9 19217.9 1836.56   2
   3  -3   9 20572.7 1760.54   1
   3   0   9 17825.1 1389.22   1
   0  -3  -9 19057.8 1746.36   2
  -3   3   9 16224.1 1751.88   1
   0  -3  -9 18555.1 1665.66   1
   0  -3   9 16471.0 1709.41   1
   3   0  -9 19517.8 1922.34   1
   0   3  -9 19895.0 1812.17   2
   3  -3  -9 18555.1 1804.23   1
  -3   0   9 19971.1 1920.35   1
  -3   0  -9 17916.2 1443.91   1
   0   3  -9 16253.1 1736.37   1
   3   0  -9 18862.0 1756.41   2
   0   3   9 16789.7 1621.29   1
   0   3 -10-393.118 335.350   1
  -3   3 -10 447.043 453.801   1
   0  -3 -10-340.782 410.792   1
   3  -3 -10 597.512 455.658   1
  -3   3 -10 17.2080 147.361   2
   0   3 -10-656.004 461.494   2
   0   3  10-131.195 348.983   1
   3   0  10-113.371 369.758   1
   0  -3 -10 190.298 303.862   2
   0  -3  10-195.206 265.944   1
   3   0 -10-180.337 320.382   1
   3  -3  10 106.798 313.721   1
  -3   0  10-263.956 461.963   1
  -3   3  10 453.453 432.426   1
   3  -3 -10-190.252 299.576   2
   3   0 -10-529.557 584.901   2
  -3   0 -10 226.717 250.309   1
   0  -3 -11 300.450 384.748   1
  -3   0 -11 206.840 333.257   1
  -3   0  11-832.906 474.091   1
   3  -3  11-175.353 508.462   1
   3   0 -11-760.798 408.921   1
   3  -3 -11 176.130 451.569   2
   3   0 -11-631.090 461.492   2
  -3   3  11 636.023 396.692   1
   3   0  11-114.678 340.871   1
  -3   3 -11-308.310 515.738   1
   0   3 -11 422.585 491.476   2
   0   3  11 86.1598 258.875   1
   3  -3 -11-208.808 285.532   1
   0  -3  11-341.777 481.093   1
   0  -3 -11-72.3583 222.544   2
   0   3 -11-363.042 453.290   1
   0   3 -12 355027. 10127.5   2
  -3   3  12 374239. 10434.9   1
   0   3 -12 348551. 10524.8   1
   3  -3  12 390963. 10348.6   1
  -3   0 -12 379326. 9879.69   1
   3   0 -12 349307. 10547.0   1
   0   3  12 336000. 9869.27   1
   3  -3 -12 369800. 10323.0   2
   0  -3 -12 358787. 9742.88   2
   3   0 -12 381518. 10541.1   2
  -3   3 -12 348779. 10085.8   1
   3   0  12 358018. 9455.81   1
   0  -3 -12 379403. 10494.8   1
   3  -3 -12 358271. 10589.6   1
   0  -3  12 367056. 10458.5   1
  -3   0  12 366584. 10491.0   1
  -3   0  13 665.342 414.067   1
   0   3 -13 1726.01 701.832   1
   3  -3 -13 594.715 483.852   1
  -3   0 -13 712.789 399.754   1
  -3   3 -13 219.219 378.275   1
   0  -3  13 712.518 279.795   1
   3   0 -13 749.375 481.438   2
   3   0 -13 429.576 382.704   1
   3   0  13 994.643 518.238   1
  -3   3  13 313.794 342.154   1
   3  -3 -13 480.573 418.640   2
   0  -3 -13 490.075 396.649   1
   3  -3  13 879.893 638.471   1
   0  -3 -13 773.270 592.895   2
   0   3 -13 965.813 567.042   2
   0   3  13 1148.80 503.132   1
   0  -3 -14 419.084 552.774   1
  -3   3 -14-178.773 307.774   1
   3   0 -14 284.863 561.018   1
   3  -3  14 181.066 218.049   1
  -3   0 -14-316.122 380.405   1
   3  -3 -14 77.3307 344.742   1
   0   3 -14-24.7926 492.110   1
  -3   0  14 279.959 352.664   1
   0  -3  14 289.579 337.171   1
   3  -3 -14 291.027 559.366   2
   0   3 -14 205.658 350.719   2
   3   0 -14 819.912 549.672   2
  -3   3  14 41.1389 370.161   1
   0  -3 -14-95.8698 280.945   2
   0   3  14 704.193 493.546   1
   3  -3  15 278.746 534.263   1
   3   0 -15 259.584 428.390   1
   3  -3 -15 1505.89 716.982   1
   3  -3 -15 895.216 620.725   2
  -3   0  15 1101.71 534.242   1
   0  -3 -15 264.695 326.917   1
   0   3  15 221.804 383.890   1
  -3   3  15 542.035 398.228   1
   0  -3  15 1280.32 797.311   1
   0   3 -15 1644.45 730.510   2
  -3   3 -15 1329.91 507.394   1
   3   0 -15 936.161 603.444   2
   0   3 -15 2019.38 738.200   1
   3   0 -16 216547. 8327.21   2
  -3   0  16 219761. 8363.58   1
  -3   3  16 218731. 8309.80   1
   0   3 -16 213174. 8268.44   2
   0  -3  16 217994. 8255.18   1
   3  -3 -16 224269. 8534.76   1
  -3   3 -16 241854. 8715.36   1
   0  -3 -16 246278. 8847.75   1
   3  -3 -16 226200. 8598.30   2
   0   3  16 221264. 8382.85   1
   0   3 -16 199439. 8272.58   1
   3   0 -16 238916. 8675.76   1
   3  -3  16 225533. 8441.95   1
   3  -3  17 831.349 608.432   1
   0  -3 -17 247.498 287.070   1
  -3   3 -17-1116.53 593.323   1
   3  -3 -17 908.300 459.862   1
   0  -3  17 853.995 522.757   1
   3  -3 -17 255.271 530.241   2
  -3   0  17 213.562 444.723   1
   3   0 -17 1276.18 661.715   2
   0   3 -17 1037.49 778.193   1
  -3   3  17 634.431 512.827   1
   3   0 -17 242.835 365.617   1
   0   3  17 1043.88 513.879   1
   0   3 -18 563.520 632.438   1
  -3   3 -18 2223.75 1044.33   1
  -3   0  18 1024.92 600.009   1
   3  -3 -18 1796.00 789.672   2
   0   3  18 1301.86 620.271   1
   3  -3  18 836.136 401.286   1
   0  -3 -18 1531.33 700.874   1
   3   0 -18 1102.71 694.829   1
  -3   3  18 1115.57 626.273   1
   3  -3 -18 2686.90 987.689   1
   3   0 -18 1125.96 463.055   2
   0  -3  18 1166.57 657.672   1
   0  -3  19 633.468 527.762   1
  -3   0  19 1014.82 792.755   1
   0  -3 -19-200.907 407.674   1
   3  -3 -19-26.2794 461.946   1
   3  -3  19 17.0012 237.750   1
  -3   3 -19 525.526 549.944   1
   3   0 -19 337.020 315.050   2
  -3   3  19 135.365 442.518   1
   0   3 -19 182.571 435.326   1
   3   0 -19 97.9822 420.341   1
  -3   0  20 103884. 5890.50   1
  -3   3  20 107244. 6023.89   1
   0  -3  20 95819.1 5700.78   1
   3   0 -20 91630.0 5641.43   1
   3  -3 -20 115941. 6385.03   1
   0   3 -20 96881.8 5884.69   1
  -3   3  21 602.211 358.915   1
   3  -3 -21-300.384 461.283   1
   0   3 -21 441.466 657.691   1
  -2   4 -21 88.4616 431.006   1
   2  -4  21 886.713 700.734   1
  -2   4 -20 66092.5 4725.09   1
   4  -2 -20 64434.7 4713.82   1
   2  -4  20 65245.1 4655.12   1
  -4   2  20 76125.6 4960.43   1
  -2   4 -19 1325.83 590.910   1
  -4   2  19-118.240 627.883   1
   2  -4  19 305.673 403.887   1
   4  -2 -19 236.843 542.092   1
   4  -2 -19-84.4188 466.462   2
   4  -2 -18 4795.47 1251.47   2
   2  -4  18 5189.13 1274.07   1
   4  -2 -18 5916.61 1454.07   1
  -4   2  18 5657.90 1318.05   1
  -2   4 -18 6136.75 1390.83   1
  -4   2  17-517.746 291.509   1
   4  -2 -17 160.850 487.306   2
   4  -2 -17-1.43764 338.329   1
   2  -4  17 749.339 651.308   1
  -2   4 -17-459.989 367.686   1
   4  -2 -16 456446. 12813.7   2
  -2   4 -16 453235. 12878.1   1
  -4   2  16 441678. 12831.4   1
   4  -2 -16 431156. 12914.6   1
  -2   4 -15 139.817 471.863   1
   4  -2 -15 165.766 480.416   2
  -4   2  15-548.155 679.232   1
   4  -2 -15 12.8910 278.168   1
   2  -4  15 12.5889 569.082   1
   4  -2 -14 22221.8 2383.27   2
  -2  -2 -14 22494.3 2272.27   1
  -4   2  14 24515.8 2525.47   1
   2  -4  14 24210.8 2380.72   1
   4  -2 -14 20758.3 2357.54   1
  -2   4 -14 23419.9 2431.66   1
  -2   4 -13-151.282 448.979   1
   4  -2 -13-204.330 488.801   1
  -2  -2 -13 589.307 458.066   1
   4  -2 -13 313.598 322.325   2
  -4   2  13 207.669 394.637   1
   2   2  13 108.034 353.644   1
   2  -4  13-369.088 270.328   1
  -2   4 -12 45296.1 2942.43   2
   4  -2 -12 49604.2 3381.24   1
   2   2  12 45138.2 2884.48   1
  -2   4 -12 37775.2 2976.37   1
   4  -2 -12 45812.8 3266.00   2
  -2  -2 -12 51923.8 3156.58   1
  -4   2  12 46019.4 3160.18   1
   2  -4  12 42603.8 3124.04   1
   2   2  11 674.718 368.697   1
  -2   4 -11-888.871 459.029   1
  -4   2  11 807.396 553.425   1
  -2   4 -11-168.111 398.295   2
   2  -4  11 54.8709 473.554   1
  -2  -2 -11 254.182 349.202   2
   4  -2 -11 954.129 522.931   1
   4  -2 -11-171.509 552.320   2
  -2  -2 -11-97.5455 287.744   1
   2   2  10 81506.6 3420.19   1
  -2   4 -10 75460.8 3511.41   2
  -2  -2 -10 70224.1 3343.81   1
  -2   4 -10 74051.7 3917.15   1
   4  -2 -10 77189.1 3918.93   2
   4  -2 -10 75735.4 3972.51   1
  -4   2  10 78215.9 3929.40   1
   2  -4  10 73078.7 3832.29   1
   4  -2  -9 179.624 490.670   1
  -2  -2  -9-397.145 213.584   1
   2   2   9 248.854 197.001   1
  -2   4  -9 139.552 243.162   2
  -4   2   9 132.275 413.561   1
   2  -4   9 106.887 273.303   1
   4  -2  -9 141.581 348.356   2
  -2   4  -9 507.523 397.705   1
  -2  -2  -9-167.197 296.359   2
  -2  -2  -7 171.923 236.762   1
  -2   4  -7 253.553 247.891   2
   4  -2  -7-124.498 463.160   1
   2  -4   7-44.3112 263.997   1
  -2   4  -7 742.750 532.271   1
   2   2   7-218.995 253.061   1
  -4   2   7-27.3449 329.561   1
   4  -2  -7 47.8973 440.602   2
   4  -2  -6 2365.84 661.483   2
   2   2   6 1840.20 401.830   1
  -2   4  -6 965.624 381.329   1
  -2  -2  -6 2318.91 418.401   1
   4  -2  -6 2962.49 690.552   1
   2  -4   6 1615.20 393.533   1
  -4   2   6 1211.29 459.882   1
   2   2   5 438.531 189.593   1
   4  -2  -5-216.185 315.864   1
  -2  -2  -5 146.076 165.322   1
   2  -4   5 293.740 326.331   1
  -2   4  -5 763.412 441.144   1
   4  -2  -5-38.9995 258.866   2
  -4   2   5 351.104 268.101   1
   2  -4   3-68.6354 250.916   1
   2   2   3-59.3861 122.044   1
  -2  -2  -3-82.1542 148.283   1
  -4   2   3 238.370 241.879   1
   4  -2  -3-200.783 300.592   2
   4  -2  -3-231.134 362.503   1
  -2   4  -3-55.4914 345.204   1
   2   2   1-276.592 373.482   2
   2   2   1-62.4707 110.584   1
   4  -2  -1-68.4742 217.085   1
  -2   4  -1 509.353 357.981   1
  -2  -2  -1 149.751 156.154   1
  -4   2   1 152.428 241.784   1
   4  -2  -1 169.757 213.860   2
   2  -4   1 225.353 344.630   1
   2   2  -1 92.5470 289.379   2
  -2  -2   1 79.7514 169.885   1
  -2   4   1-353.269 402.241   1
   2  -4  -1 89.9526 243.955   1
   4  -2   1 494.562 250.288   1
   4  -2   1 62.5391 146.492   2
   2   2  -1 312.297 283.759   1
  -4   2  -1 245.258 130.286   1
  -2   4   3 611.611 462.448   1
   2  -4  -3 414.469 361.172   1
  -4   2  -3 392.837 194.665   1
  -2  -2   3-56.3028 326.583   1
   2   2  -3-190.615 330.737   2
   4  -2   3-34.7193 85.6666   2
   4  -2   3 408.225 219.212   1
   2   2  -3 516.426 313.924   1
   2   2  -5 147.982 248.841   2
   2  -4  -5-185.655 228.412   1
  -2   4   5 79.9991 243.515   1
  -2  -2   5-61.9830 246.224   1
   2   2  -5 481.317 388.804   1
  -4   2  -5 132.583 139.899   1
   4  -2   5 668.101 246.197   1
   2   2  -6 216.777 369.464   2
   4  -2   6 342.135 285.149   1
   2   2  -6 77.6993 275.493   1
  -2  -2   6 137.667 340.736   1
  -2   4   6 390.588 234.808   1
  -4   2  -6 334.499 274.350   1
   2  -4  -6 684.544 452.538   1
   4  -2   7 51.8983 200.593   1
   2   2  -7 363.364 257.531   1
  -2   4   7 247.363 338.862   1
   2  -4  -7 420.275 483.242   1
   2  -4  -7 1066.39 721.452   2
  -2  -2   7 178.710 471.040   1
   2   2  -7 211.402 304.570   2
  -4   2  -7 283.150 238.437   1
   4  -2   9 56.6291 273.064   1
   2   2  -9 551.882 310.235   1
   2  -4  -9 528.953 521.658   1
  -2   4   9 244.453 308.846   1
   2  -4  -9 708.526 536.231   2
  -2  -2   9 928.645 711.029   1
   2   2  -9 305.131 444.177   2
  -4   2  -9 161.358 263.706   1
   2   2 -10 238627. 7925.08   1
   2  -4 -10 241026. 7839.78   1
  -4   2 -10 272185. 7469.15   1
  -2  -2  10 247714. 7964.02   1
   4  -2  10 295286. 7585.95   1
   2   2 -10 226011. 7657.54   2
  -2   4  10 271098. 8123.10   1
   2  -4 -10 255052. 7881.85   2
  -2  -2  11-26.2790 404.291   1
   2  -4 -11-113.920 334.983   1
  -4   2 -11 1357.64 638.506   1
   4  -2  11 19.4009 181.963   1
   2   2 -11 45.0129 426.377   1
   2   2 -11 466.923 388.305   2
  -2   4  11-177.078 448.252   1
   2  -4 -11-356.387 255.453   2
   2   2 -12 122206. 5426.53   1
  -2   4  12 98994.4 4889.79   1
   2  -4 -12 114173. 5146.29   2
  -4   2 -12 122509. 5013.33   1
  -2  -2  12 114151. 5256.23   1
   4  -2  12 112923. 4803.18   1
   2  -4 -12 118432. 5366.86   1
   2   2 -12 104342. 5082.61   2
   2  -4 -13-165.350 380.527   1
   4  -2  13 343.457 422.823   1
   2   2 -13-107.278 537.546   2
  -2   4  13 431.054 520.286   1
   2  -4 -13-215.673 409.250   2
   2   2 -13-196.702 445.820   1
  -4   2 -13 39.4148 238.179   1
  -2  -2  13-441.571 393.576   1
   4  -2  14 116904. 5256.92   1
   2  -4 -14 114107. 5560.76   1
   2  -4 -14 111576. 5442.21   2
   2   2 -14 105566. 5348.46   2
  -2   4  14 118129. 5522.36   1
  -2  -2  14 107213. 5348.96   1
  -4   2 -14 108356. 5148.82   1
   2   2 -14 97196.1 5242.01   1
   2   2 -15-132.265 482.440   1
  -2  -2  15 23.7534 333.657   1
  -2   4  15-611.175 553.991   1
   2  -4 -15 145.011 487.117   1
   2   2 -15 544.588 592.858   2
   2  -4 -15 59.0437 584.648   2
   2   2 -16 247852. 9099.39   1
   2   2 -16 243025. 9065.08   2
  -2   4  16 240876. 8898.88   1
   2  -4 -16 260318. 9391.41   2
  -2  -2  16 251920. 8947.48   1
   2  -4 -16 235275. 9073.62   1
   2   2 -17 460.193 474.538   2
   2  -4 -17-845.825 657.925   1
   2  -4 -17 144.055 351.861   2
   2   2 -17-219.389 455.706   1
  -2   4  17 253.813 271.265   1
  -2  -2  17-688.628 327.843   1
   2   2 -18 13222.6 2095.26   1
   2   2 -18 10942.3 1902.10   2
  -2   4  18 12907.2 1899.20   1
  -2  -2  18 15265.1 2054.04   1
   2  -4 -18 11510.2 1847.21   1
  -2  -2  19-126.701 422.112   1
   2  -4 -19-281.828 403.749   1
  -2   4  19 1193.23 581.179   1
   2   2 -19 1500.07 952.712   1
   2  -4 -20 90810.0 5743.41   1
   2   2 -20 105929. 6026.41   1
  -2   4  20 96963.3 5784.80   1
  -2   4  21-61.7570 275.767   1
   2  -4 -21 461.602 665.269   1
   1  -4  20 366.587 441.169   1
  -3   4 -20-332.806 363.789   1
   4  -3 -20-532.015 584.175   1
  -1   4 -20-838.932 463.365   1
   4  -3 -20 457.116 635.765   2
  -4   3  20 327.516 479.729   1
  -4   1  20 528.209 509.186   1
   4  -1 -20-331.733 274.462   2
   4  -1 -20 100.108 358.763   1
   3  -4  20 116.347 415.796   1
  -4   1  19 9316.73 1728.46   1
   1  -4  19 9640.71 1786.54   1
   4  -3 -19 6423.47 1588.38   2
   4  -1 -19 8269.75 1615.06   1
  -1   4 -19 9850.89 1742.56   1
  -3   4 -19 7838.04 1581.91   1
   4  -1 -19 9106.32 1730.93   2
  -4   3  19 10111.4 1748.62   1
   4  -3 -19 10850.5 1987.65   1
   3  -4  19 7588.62 1599.91   1
   4  -1 -18 67914.5 4709.75   2
  -4   1  18 80644.6 5023.84   1
   4  -3 -18 84222.2 5128.27   1
  -4   3  18 77286.1 4884.37   1
   3  -4  18 68673.6 4669.69   1
  -1   4 -18 76032.2 4888.59   1
   4  -3 -18 69200.6 4826.12   2
  -3   4 -18 72910.1 4840.08   1
   1  -4  18 80046.4 5032.81   1
   4  -1 -18 76896.4 5009.30   1
   4  -3 -17 62712.8 4395.66   1
   1  -4  17 62463.6 4293.25   1
   3  -4  17 64371.8 4403.55   1
   4  -1 -17 72430.5 4577.22   1
  -4   3  17 73889.6 4636.25   1
   4  -3 -17 65073.1 4558.57   2
  -3   4 -17 60212.2 4233.52   1
   4  -1 -17 67155.5 4463.08   2
  -4   1  17 67743.2 4413.49   1
  -1   4 -17 66665.4 4507.58   1
   3  -4  16 63137.8 4235.56   1
   4  -3 -16 60476.2 4181.28   1
  -1   4 -16 64974.2 4369.16   1
   4  -3 -16 65053.9 4377.73   2
  -4   1  16 77439.8 4570.99   1
  -3   4 -16 67119.0 4425.57   1
   1  -4  16 69109.4 4428.06   1
   4  -1 -16 65336.9 4349.87   1
  -4   3  16 70446.5 4457.22   1
   4  -1 -16 66100.7 4329.02   2
   4  -1 -15 37663.7 3315.40   1
   1   3  15 48055.0 3411.66   1
   4  -3 -15 41075.0 3344.93   1
   1  -4  15 37816.1 3203.78   1
  -3   4 -15 37401.6 3151.41   1
   4  -1 -15 34045.8 3029.26   2
  -1  -3 -15 31359.6 2918.75   1
  -4   3  15 39014.9 3157.00   1
   4  -3 -15 36715.2 3125.88   2
  -4   1  15 36842.9 3191.12   1
   3  -4  15 36654.0 3099.19   1
   4  -3 -14 259699. 9060.42   1
   4  -3 -14 230700. 8547.72   2
  -4   3  14 277534. 9132.92   1
  -3   4 -14 254407. 8844.66   1
   4  -1 -14 261240. 8865.39   2
   4  -1 -14 266242. 9288.45   1
  -1   4 -14 244759. 8411.62   2
   3  -4  14 255562. 8807.92   1
  -1  -3 -14 239889. 8468.83   1
   1  -4  14 276054. 9150.83   1
  -4   1  14 264442. 8961.87   1
   1   3  14 284811. 8875.51   1
   3  -4  13 3707.00 886.157   1
   4  -3 -13 3979.12 967.493   2
   1   3  13 5062.86 1032.30   1
  -1   4 -13 4900.24 919.652   2
  -4   3  13 5382.40 1140.33   1
   4  -1 -13 3828.43 921.791   2
  -4   1  13 4687.75 1052.78   1
   4  -3 -13 3441.42 1000.35   1
  -1  -3 -13 4538.76 991.923   1
   4  -1 -13 5626.16 1217.04   1
  -3   4 -13 4434.96 1034.46   1
   1  -4  13 4609.51 1108.55   1
   3  -4  12 2677.24 757.343   1
   1  -4  12 2430.34 751.039   1
  -1   4 -12 3297.64 863.253   2
   4  -1 -12 1776.62 600.424   1
   4  -3 -12 2591.82 696.003   1
   4  -1 -12 2227.73 802.254   2
  -4   3  12 3329.90 923.257   1
  -4   1  12 2401.48 775.792   1
   1   3  12 4847.83 958.274   1
  -1  -3 -12 2551.26 736.100   2
   4  -3 -12 3293.74 938.823   2
  -1   4 -12 2867.76 715.817   1
  -3   4 -12 2981.75 889.960   1
  -1  -3 -12 4392.57 993.208   1
   4  -3 -11 133276. 5676.16   1
   4  -1 -11 121233. 5305.57   2
   4  -3 -11 125699. 5376.22   2
  -1  -3 -11 98321.5 4585.61   1
  -1   4 -11 119961. 5078.98   2
  -4   1  11 112979. 5220.06   1
  -3   4 -11 120639. 5325.32   1
   1  -4  11 110500. 5149.93   1
  -3  -1 -11 123503. 4658.60   1
  -4   3  11 120159. 5240.64   1
  -1  -3 -11 88237.5 4195.25   2
  -1   4 -11 103095. 4986.29   1
   1   3  11 147674. 5243.57   1
   3  -4  11 104410. 4877.95   1
   4  -1 -11 118307. 5365.98   1
   4  -1 -10 123792. 5333.25   1
  -1  -3 -10 135247. 5075.51   1
  -1   4 -10 124201. 5350.24   1
   1   3  10 139812. 5007.67   1
  -4   1  10 120624. 5269.72   1
   4  -3 -10 130230. 5463.97   2
   4  -1 -10 120101. 5261.40   2
  -4   3  10 131693. 5425.27   1
  -3  -1 -10 118270. 4420.63   1
   1  -4  10 119674. 5251.93   1
   4  -3 -10 122791. 5311.64   1
  -1  -3 -10 112142. 4903.68   2
   3  -4  10 118522. 4993.53   1
  -3   4 -10 131653. 5422.92   1
  -1   4 -10 107138. 4934.78   2
  -4   3   9 369783. 8956.06   1
   4  -1  -9 351170. 8900.80   2
  -4   1   9 348484. 8863.72   1
  -1   4  -9 384303. 8798.32   2
   1   3   9 380010. 8182.39   1
   4  -1  -9 360504. 9001.49   1
   3  -4   9 325282. 8355.32   1
  -1   4  -9 376561. 9144.43   1
   3   1   9 315085. 6784.37   1
   4  -3  -9 366960. 8887.66   2
  -3   4  -9 356903. 8771.78   1
   4  -3  -9 350191. 8872.11   1
   1  -4   9 351346. 8842.74   1
  -1  -3  -9 350415. 7986.26   1
  -1  -3  -8 24013.6 1795.65   1
  -3  -1  -8 23678.7 1508.08   1
  -4   1   8 22810.3 2032.96   1
  -1   4  -8 22205.9 1955.03   2
  -1   4  -8 20843.7 2016.56   1
  -4   3   8 25031.9 2085.69   1
   1   3   8 29608.9 1981.64   1
   1  -4   8 23400.0 2044.02   1
   4  -1  -8 24716.3 2149.59   1
   4  -3  -8 24428.4 2013.47   1
   3  -4   8 22935.7 1944.50   1
   3   1   8 24233.4 1417.57   1
  -3   4  -8 25435.0 2113.47   1
   4  -1  -8 25553.2 2112.61   2
   4  -3  -8 24348.8 2103.47   2
  -1   4  -7 214005. 6548.52   2
   4  -1  -7 218382. 6829.60   2
   3  -4   7 215352. 6597.94   1
   4  -3  -7 218930. 6792.89   2
   3   1   7 225038. 4999.75   1
  -3   4  -7 190691. 6447.06   1
   4  -3  -7 211450. 6694.99   1
  -1  -3  -7 211837. 5953.44   1
  -4   1   7 217869. 6726.88   1
  -4   3   7 218585. 6763.31   1
  -1   4  -7 212679. 6786.39   1
   1  -4   7 188675. 6449.04   1
   4  -1  -7 221025. 6896.17   1
  -3  -1  -7 212205. 5048.01   1
  -1  -3  -6 685459. 13666.1   1
  -3   4  -5 35807.1 2259.12   1
   4  -3  -5 38548.1 2322.88   1
   4  -1  -5 28551.6 2036.38   1
  -1  -3  -5 35710.0 1940.11   1
  -1   4  -5 35416.5 2264.60   1
  -4   1   5 33935.1 2167.46   1
  -3  -1  -5 33095.8 1123.19   1
  -1   4  -5 32207.8 2203.13   2
   4  -3  -5 36893.3 2293.64   2
   3  -4   5 29099.0 2034.13   1
   4  -1  -5 35879.4 2243.94   2
   1  -4   5 32739.2 2240.43   1
   1   3   5 32987.5 1830.26   1
   3   1   5 29742.1 1022.50   1
  -4   3   5 36030.5 2269.49   1
  -1  -3  -4 349418. 7600.51   1
   4  -1  -4 338385. 8121.13   1
   3  -4   4 348145. 8319.49   1
  -4   1   4 350775. 8196.58   1
  -3   4  -4 322139. 8189.53   1
  -1   4  -4 336743. 8524.65   1
   4  -3  -4 330066. 8353.34   2
  -1   4  -4 346742. 8532.53   2
   1  -4   4 305035. 8253.16   1
   1   3   4 337637. 7487.99   1
   4  -1  -4 342130. 8374.36   2
  -4   3   4 343555. 8402.74   1
   4  -3  -4 318874. 8224.33   1
  -4   1   3 44081.1 2222.01   1
   1   3   3 42321.8 2067.15   1
   4  -3  -3 50065.9 2549.69   1
  -1   4  -3 45426.9 2524.59   1
   1  -4   3 48095.4 2570.53   1
   4  -1  -3 53689.2 2442.95   1
   4  -3  -3 51333.8 2578.13   2
   3   1   3 55800.6 2313.10   2
  -1  -3  -3 42912.5 2072.67   1
  -4   3   3 49069.9 2509.35   1
   4  -1  -3 50999.1 2550.90   2
  -3   4  -3 46703.2 2486.85   1
   3  -4   3 44814.3 2409.28   1
   1  -4   1 429243. 9641.33   1
   4  -3  -1 397995. 9104.29   1
  -1   4  -1 420185. 9556.79   1
  -3   4  -1 425464. 9624.37   1
   1   3   0 55212.1 2380.40   1
   3   1   0 61679.1 2621.64   2
   1  -4   0 58735.5 2675.88   1
   3  -4   0 62121.8 2749.53   1
  -1  -3   0 55530.2 2440.24   1
  -4   3   0 61527.1 2604.95   1
  -3   4   0 59739.9 2781.52   1
   4  -1   0 56187.6 1971.77   1
   1   3   0 68007.9 3049.90   2
  -4   1   0 57494.0 2055.11   1
   3   1   0 59966.7 1955.63   1
   4  -1   0 49703.1 2286.18   2
   4  -3   0 56933.0 2440.26   1
  -1   4   0 61098.5 2735.84   1
   4  -3   0 62602.1 2529.79   2
  -3  -1   0 57396.5 1932.00   1
  -3  -1   2 591685. 11599.2   1
  -4   3  -3 168777. 4860.55   1
  -3  -1   3 176303. 4929.46   1
   1   3  -3 185503. 5570.52   2
   3   1  -3 193702. 5570.41   2
  -1   4   3 191306. 5437.61   1
  -1  -3   3 179067. 5273.67   1
   4  -3   3 161259. 4314.24   2
   4  -1   3 192620. 4106.50   2
   4  -3   3 207036. 5085.14   1
   3   1  -3 172779. 4955.72   1
  -3   4   3 179786. 5394.53   1
   1  -4  -3 179148. 5276.75   1
   3  -4  -3 176773. 5391.82   1
   1   3  -3 145845. 4957.96   1
  -4   1  -3 157762. 3463.41   1
   3   1  -4 11704.7 1259.94   2
   3  -4  -4 10482.2 1224.05   1
  -1   4   4 9919.54 1106.14   1
  -3  -1   4 10348.6 1107.45   1
   1   3  -4 11395.8 1235.21   2
   3   1  -4 10962.5 1130.13   1
  -3   4   4 8919.47 1118.15   1
  -1  -3   4 10837.4 1181.20   1
   1   3  -4 11257.0 1203.41   1
   1  -4  -4 10965.9 1141.07   1
   3  -4  -4 13934.8 1478.17   2
   4  -1   4 10938.6 602.679   1
  -4   3  -4 9248.65 1023.04   1
   4  -3   4 12898.1 1078.87   1
   4  -3   4 7099.85 798.990   2
  -4   1  -4 9893.76 608.545   1
   4  -1   4 11307.0 669.591   2
   1   3  -5 292896. 7246.92   2
   3   1  -5 312225. 7089.46   1
   4  -3   5 290488. 6339.80   1
   1  -4  -5 295485. 7046.98   1
  -1  -3   5 306384. 7208.51   1
  -1   4   5 286719. 6847.03   1
  -4   3  -5 283516. 6375.50   1
  -3  -1   5 309170. 7105.13   1
  -3   4   5 294640. 7163.20   1
   3  -4  -5 302246. 7309.74   1
   3   1  -5 310435. 7315.67   2
   1   3  -6 435201. 10353.6   2
  -1   4   6 450239. 10146.2   1
  -4   3  -6 407197. 9524.47   1
   3  -4  -6 464538. 10623.0   2
   4  -3   6 398700. 9382.43   1
  -3   4   6 436338. 10311.8   1
   3  -4  -6 441474. 10402.1   1
  -3  -1   6 408613. 10145.3   1
   1  -4  -6 376762. 9790.46   1
   1   3  -6 441409. 10537.4   1
  -1  -3   6 411765. 10220.6   1
   3   1  -6 433220. 10435.8   2
   3   1  -6 442121. 10344.4   1
  -4   3  -7 311793. 8047.42   1
   1   3  -7 304147. 8562.11   2
   4  -3   7 316620. 8000.61   1
   3  -4  -7 315570. 8572.51   1
   3   1  -7 310184. 8611.62   1
   3   1  -7 304068. 8563.89   2
  -3  -1   7 311826. 8535.77   1
   1  -4  -7 328000. 8526.80   1
  -1  -3   7 310097. 8591.57   1
   1   3  -7 304519. 8667.89   1
   3  -4  -7 340957. 8806.15   2
  -1   4   7 308539. 8257.02   1
  -3   4   7 305302. 8553.18   1
  -4   1  -7 336277. 6989.61   1
   3  -4  -8 276106. 8035.78   1
  -3  -1   8 272584. 7987.06   1
   3  -4  -8 277369. 7937.87   2
  -1   4   8 255031. 7462.59   1
   1  -4  -8 264727. 7644.36   1
   3   1  -8 256765. 7906.28   1
  -1  -3   8 260191. 7822.02   1
   4  -3   8 258436. 7256.33   1
   3   1  -8 261575. 7877.58   2
  -4   1  -8 250989. 6331.93   1
   1   3  -8 270880. 7936.34   2
  -4   3  -8 252754. 7259.27   1
   1  -4  -8 288761. 8256.40   2
   4  -1   8 286363. 6478.51   1
  -3   4   8 280565. 8040.01   1
   1   3  -8 250692. 7926.20   1
   3   1  -9 2690.87 810.822   2
   4  -3   9 3572.57 720.498   1
  -4   3  -9 2503.59 593.115   1
   4  -1   9 3751.83 661.046   1
  -1   4   9 3357.76 756.859   1
   3   1  -9 3870.81 916.624   1
   1   3  -9 3689.01 866.013   2
  -1  -3   9 3014.16 821.466   1
   3  -4  -9 2380.14 628.105   1
  -3   4   9 2699.68 704.143   1
   1   3  -9 2666.08 646.628   1
  -3  -1   9 2575.10 792.679   1
   1  -4  -9 3223.62 789.143   1
   3  -4  -9 3168.46 762.205   2
  -4   1  -9 3192.74 639.720   1
   1  -4  -9 3079.82 771.693   2
  -3   4  10 596793. 14171.1   1
   1   3 -10 599177. 14197.0   2
   3  -4 -10 619687. 14160.9   2
   1   3 -10 606755. 14482.3   1
  -3  -1  10 590576. 14249.7   1
   4  -1  10 562985. 12480.3   1
   3   1 -10 600789. 14384.2   1
  -1  -3  10 616177. 14392.7   1
   1  -4 -10 599665. 14008.9   1
   3  -4 -10 608433. 14223.3   1
   1  -4 -10 598449. 13968.9   2
   3   1 -10 611207. 14323.6   2
   3   1 -11 17516.2 1966.86   1
   1   3 -11 19579.0 2078.71   1
   3  -4 -11 17848.7 1953.80   1
   3  -4 -11 17213.5 1933.61   2
  -3   4  11 18618.9 1963.98   1
   3   1 -11 17388.6 1960.31   2
   4  -3  11 16423.0 1750.83   1
  -4   1 -11 18410.0 1740.32   1
   4  -1  11 19624.4 1715.80   1
  -1  -3  11 14427.7 1772.95   1
  -3  -1  11 20139.5 2049.73   1
  -1   4  11 21551.4 2029.55   1
   1   3 -11 17895.7 1976.54   2
   1  -4 -11 16036.3 1783.61   1
  -4   3 -11 18093.9 1826.01   1
   1  -4 -11 17149.8 1776.48   2
   1   3 -12 20013.4 2164.89   1
   3   1 -12 20793.7 2147.51   1
   1  -4 -12 19359.4 2041.65   2
   3  -4 -12 21997.5 2302.07   1
  -4   3 -12 19899.1 2036.73   1
   1  -4 -12 22322.5 2203.62   1
  -1   4  12 17873.0 1948.26   1
   3   1 -12 19670.0 2061.12   2
   3  -4 -12 20820.8 2138.62   2
  -3  -1  12 20846.1 2135.96   1
   4  -3  12 25994.5 2259.06   1
  -3   4  12 21652.4 2233.64   1
  -4   1 -12 20328.0 1954.34   1
  -1  -3  12 21405.1 2220.88   1
   1   3 -12 17786.0 1993.63   2
   3   1 -13 193554. 7707.27   1
  -4   3 -13 232620. 7855.44   1
   3  -4 -13 201997. 7793.91   1
   1   3 -13 196966. 7752.49   1
   3   1 -13 209850. 7698.68   2
   1  -4 -13 213709. 7587.58   2
   3  -4 -13 236626. 7945.08   2
  -3   4  13 209745. 7613.08   1
   4  -3  13 247267. 7881.12   1
   1  -4 -13 202880. 7735.69   1
  -3  -1  13 220440. 7919.28   1
  -1   4  13 203222. 7478.79   1
   1   3 -13 224843. 7929.07   2
  -1  -3  13 218911. 7833.18   1
   3   1 -14 67192.1 4347.10   1
  -3  -1  14 67794.2 4194.48   1
   3  -4 -14 72222.9 4387.25   1
   1  -4 -14 68062.5 4309.92   1
   1   3 -14 72682.3 4389.11   2
   3   1 -14 67597.1 4200.88   2
   1  -4 -14 71768.2 4232.11   2
  -1  -3  14 69011.7 4195.80   1
  -4   3 -14 76057.0 4376.07   1
   3  -4 -14 72850.1 4309.96   2
  -1   4  14 57244.5 3903.17   1
  -3   4  14 67955.2 4222.03   1
   1   3 -14 70324.8 4335.50   1
   4  -3  14 72060.0 4135.23   1
  -1   4  15 98506.9 5176.28   1
  -4   3 -15 102465. 5238.09   1
   4  -3  15 98386.5 5110.02   1
   1   3 -15 96264.9 5203.15   2
   3   1 -15 87865.2 5096.88   1
   1  -4 -15 104505. 5472.80   1
   1   3 -15 86969.6 5085.57   1
  -1  -3  15 94329.6 5114.76   1
   3  -4 -15 90286.0 5124.87   1
   3   1 -15 90906.5 5092.64   2
   1  -4 -15 95818.8 5127.31   2
  -3  -1  15 82625.6 4912.99   1
   3  -4 -15 93009.3 5155.16   2
  -3   4  15 89593.2 4980.32   1
   3   1 -16 2343.29 831.762   2
   1   3 -16 1113.55 653.643   1
   3   1 -16 1027.92 670.097   1
   1  -4 -16 2299.95 959.868   1
   3  -4 -16 2538.72 803.929   1
   3  -4 -16 814.865 541.635   2
   4  -3  16 1674.83 692.463   1
  -1   4  16 2257.89 901.104   1
   1   3 -16 2111.29 876.192   2
  -1  -3  16 1278.62 622.217   1
  -3  -1  16 1309.89 602.179   1
  -4   3 -16 2432.32 954.083   1
  -3   4  16 2414.99 868.087   1
  -1  -3  17 3603.34 1104.34   1
   1   3 -17 3724.77 1127.48   1
   3   1 -17 3013.43 935.515   1
   1  -4 -17 3728.08 1069.96   1
   3  -4 -17 6717.09 1495.06   1
  -3   4  17 4572.70 1098.32   1
  -3  -1  17 7851.28 1541.16   1
   3  -4 -17 3366.00 1164.03   2
   1   3 -17 3757.44 1025.98   2
   3   1 -17 3844.01 888.182   2
  -1   4  17 5007.68 1211.30   1
   1  -4 -18 105244. 5849.27   1
  -3  -1  18 101878. 5660.95   1
  -3   4  18 97057.8 5565.11   1
   3   1 -18 93229.2 5528.99   2
   3  -4 -18 92094.8 5543.91   1
  -1  -3  18 111334. 5859.28   1
   1   3 -18 93740.1 5653.44   1
   3   1 -18 96215.5 5617.24   1
   3  -4 -18 95499.4 5699.51   2
  -1   4  18 97410.5 5661.82   1
   3   1 -19 6701.82 1611.02   2
   1   3 -19 7523.08 1587.01   1
  -3  -1  19 7713.93 1628.35   1
   1  -4 -19 6142.00 1428.69   1
  -1   4  19 7418.80 1477.65   1
  -1  -3  19 7429.42 1410.00   1
  -3   4  19 9262.39 1702.80   1
   3   1 -19 9737.97 1661.04   1
   3  -4 -19 7341.26 1495.83   1
  -3   4  20 22834.8 2714.90   1
  -3  -1  20 20491.4 2544.05   1
   3   1 -20 20611.0 2587.14   1
   1   3 -20 19221.6 2586.88   1
  -1  -3  20 21491.7 2597.52   1
   1  -4 -20 18858.1 2621.27   1
   3  -4 -20 16800.9 2427.46   1
   4  -4   0 48643.5 2501.03   1
   4   0   0 48069.2 1774.01   1
  -4   4   0 49521.0 2603.91   1
   0  -4   0 48606.8 2478.00   1
   0   4   0 49170.4 2435.00   1
   4   0   0 50531.9 2361.13   2
  -4   0   0 54267.8 1856.45   1
   4   0  -1 402097. 8427.05   1
   4  -4  -1 468341. 10025.1   2
  -4   4  -1 384525. 9372.25   1
   4  -4  -1 436947. 9597.56   1
   0   4   1 399804. 9251.34   1
  -4   4   1 404453. 9555.88   1
   0  -4   1 444748. 9693.67   1
   0   4  -1 430166. 9544.33   1
   0  -4  -1 385829. 9262.94   1
   4  -4  -3 600996. 12675.9   2
   0   4  -3 604008. 12991.5   2
   0   4   4 224532. 6006.23   1
   0   4  -4 208795. 6264.78   1
   4   0  -4 219989. 6065.79   1
   4  -4   4 228115. 6177.97   1
   4   0  -4 193622. 6169.73   2
   0  -4  -4 195746. 5754.55   1
   0   4  -4 214880. 6506.53   2
   4  -4  -4 237479. 6554.72   2
  -4   4   4 194952. 6146.45   1
   4  -4  -4 191739. 6137.51   1
  -4   4  -4 202553. 5968.17   1
   0  -4   4 188476. 6056.86   1
  -4   0   4 200907. 5873.83   1
   4   0   4 204948. 4985.80   2
   0  -4  -5 37651.7 2243.89   1
  -4   4   5 37060.9 2439.23   1
  -4   0   5 34482.3 2268.74   1
   4  -4  -5 37674.2 2421.21   1
   0   4  -5 41272.2 2539.63   1
   0   4  -5 38802.7 2542.55   2
   0   4   5 36385.3 2126.27   1
   4   0  -5 34489.7 2395.43   2
   4  -4   5 33946.1 2169.10   1
   4   0  -5 36389.1 2294.75   1
   4  -4  -5 44833.2 2684.88   2
   0  -4   5 35058.7 2404.45   1
  -4   4  -5 33966.8 2243.13   1
   0   4   6 50460.2 2631.88   1
   4   0  -6 41241.7 2656.76   1
  -4   0   6 46127.8 2723.23   1
   4   0  -6 52166.2 3015.05   2
  -4   4  -6 39902.5 2505.28   1
   0  -4  -6 47169.4 2596.77   1
   0  -4   6 44521.9 2726.75   1
   0   4  -6 48776.7 2906.90   2
   0   4  -6 42907.7 2800.86   1
   4  -4  -6 48641.5 2848.01   2
   4  -4   6 47432.7 2591.06   1
  -4   4   6 43953.1 2763.64   1
   4  -4  -6 48038.3 2891.26   1
   4   0  -7 15789.7 1632.05   1
   0   4  -7 14222.2 1600.00   1
   4  -4   7 16660.3 1558.57   1
   4  -4  -7 17570.2 1752.85   1
   4   0  -7 15252.2 1668.81   2
  -4   4  -7 16698.7 1625.57   1
   0  -4  -7 15351.6 1520.14   1
   0   4  -7 15820.0 1696.92   2
   4   0   7 14045.3 819.421   1
   4  -4  -7 16714.6 1734.90   2
  -4   0  -7 15211.9 887.575   1
  -4   4   7 15352.1 1700.41   1
  -4   0   7 15971.9 1640.86   1
   0   4   7 17721.6 1570.49   1
   0  -4   7 16478.7 1678.91   1
   0  -4   8 7152.49 1181.05   1
   4   0  -8 5626.23 1117.91   1
   0   4  -8 4946.40 977.476   2
   4   0   8 4488.07 549.918   1
   4  -4  -8 6967.75 1106.76   1
  -4   0   8 6920.08 1126.12   1
   4   0  -8 5813.88 1041.20   2
  -4   4  -8 7371.10 1150.91   1
   0   4  -8 5662.63 965.583   1
   0  -4  -8 5901.20 883.915   1
   4  -4   8 7039.79 1028.19   1
   4  -4  -8 7220.18 1163.76   2
   0   4   8 7610.42 1033.39   1
  -4   4   8 7468.84 1133.64   1
   4   0  -9 73225.9 4009.69   1
   4  -4   9 80677.9 3900.12   1
  -4   0   9 74967.8 3915.60   1
   4  -4  -9 74489.2 4053.45   1
   0  -4  -9 72138.8 3631.87   1
   4   0  -9 79579.1 4129.01   2
   4  -4  -9 86405.7 4097.49   2
  -4   4   9 76020.9 3994.67   1
   0   4   9 79722.2 3780.49   1
   0  -4   9 80597.6 4124.12   1
  -4   4  -9 71106.9 3788.16   1
   0   4  -9 71381.9 3925.66   1
   0   4  -9 75770.2 3899.75   2
   0   4 -10 386600. 10786.6   1
   4  -4 -10 374919. 10635.0   1
  -4   4 -10 393585. 10556.8   1
  -4   4  10 414029. 10926.5   1
   0   4 -10 384164. 10618.7   2
   4  -4 -10 424342. 10913.2   2
   0  -4 -10 388469. 10268.8   1
  -4   0  10 396072. 10867.2   1
   4  -4  10 403236. 10504.9   1
   4   0 -10 412914. 11115.6   1
   4   0 -10 381086. 10691.6   2
   0   4  10 379048. 10196.8   1
   0  -4 -10 350018. 10368.4   2
   0  -4  10 406047. 10903.1   1
  -4   4 -11 291668. 8881.64   1
  -4   0  11 290206. 9111.64   1
   0  -4 -11 296998. 8760.10   1
   4   0 -11 300368. 9164.90   2
   0   4  11 274789. 8466.95   1
   4   0 -11 295002. 9357.80   1
  -4   4  11 264203. 8744.09   1
   4  -4 -11 307377. 9160.96   2
   4  -4 -11 321099. 9360.26   1
   4  -4  11 275006. 8579.36   1
   0  -4  11 292756. 9088.72   1
   0   4 -11 295487. 9002.88   2
   0  -4 -11 265120. 8447.31   2
   0  -4 -12 73152.6 4098.15   1
  -4   0  12 69374.6 4124.32   1
  -4   4 -12 71771.8 4138.31   1
  -4   4  12 74977.8 4163.84   1
   4  -4  12 68481.2 3991.28   1
   0   4 -12 73364.3 4263.11   1
   0   4  12 75905.6 4021.61   1
   4   0 -12 69108.6 4138.11   2
   4  -4 -12 72143.7 4108.43   2
   0   4 -12 62808.4 4083.47   2
   0  -4 -12 66748.0 3903.82   2
   4   0 -12 67876.0 4160.70   1
   0  -4  12 73532.7 4175.63   1
   4  -4 -12 74431.4 4299.59   1
   0  -4 -13 131225. 5695.67   2
  -4   0  13 145498. 6179.35   1
   4  -4 -13 143328. 6333.81   1
  -4   4  13 135869. 5987.57   1
   4   0 -13 132851. 6090.67   2
   0   4  13 147312. 6018.09   1
   0   4 -13 132822. 6102.16   1
   0   4 -13 151988. 6344.15   2
   4  -4  13 152791. 6264.39   1
   4   0 -13 134466. 6343.14   1
   0  -4  13 129264. 6034.83   1
   0  -4 -13 147409. 6220.02   1
   4  -4 -13 144490. 6418.67   2
  -4   4 -13 132649. 6024.46   1
   4  -4 -14 273099. 9594.77   1
  -4   0  14 285186. 9580.87   1
  -4   4  14 311813. 9732.48   1
   4   0 -14 285648. 9767.37   1
  -4   4 -14 300737. 9723.13   1
   4   0 -14 288404. 9617.82   2
   4  -4 -14 297174. 9630.82   2
   4  -4  14 313072. 9704.69   1
   0   4 -14 279269. 9617.22   2
   0  -4 -14 300171. 9753.12   1
   0  -4  14 279364. 9415.92   1
   0   4  14 311426. 9560.28   1
   0   4 -14 280100. 9696.15   1
  -4   0  15 18857.6 2209.46   1
   0  -4 -15 20006.0 2361.02   1
   0   4  15 22242.7 2343.26   1
   0  -4  15 20583.0 2382.91   1
  -4   4 -15 20489.8 2368.78   1
   4  -4  15 23544.2 2472.14   1
   4  -4 -15 20697.0 2404.33   1
   4   0 -15 19095.1 2345.16   1
   0   4 -15 22125.6 2379.98   2
  -4   4  15 20810.0 2314.76   1
   4   0 -15 19732.8 2318.44   2
   4  -4 -15 21755.8 2439.40   2
   0   4 -15 20492.9 2403.35   1
  -4   4 -16 9297.08 1616.56   1
   4  -4  16 8631.96 1616.97   1
   4  -4 -16 6840.32 1492.67   1
  -4   0  16 10071.3 1739.83   1
   0  -4  16 8786.06 1589.06   1
  -4   4  16 8410.10 1513.74   1
   4   0 -16 8326.93 1648.90   1
   0   4 -16 5789.79 1272.29   2
   0   4  16 9273.48 1613.92   1
   4  -4 -16 8435.54 1656.67   2
   0  -4 -16 9203.73 1542.22   1
   4   0 -16 7981.01 1542.73   2
   0   4 -16 7743.59 1581.97   1
   4  -4 -17 8403.51 1655.38   1
  -4   4  17 8224.55 1562.13   1
   0  -4 -17 7172.38 1462.73   1
   4   0 -17 3985.60 1095.20   1
   0  -4  17 7560.33 1433.58   1
   4  -4  17 7368.30 1556.43   1
  -4   4 -17 7973.95 1497.16   1
   4   0 -17 6331.95 1341.53   2
  -4   0  17 6764.01 1413.88   1
   4  -4 -17 5262.81 1350.03   2
   4   0 -18 20196.4 2393.11   1
  -4   0  18 19075.0 2298.26   1
   4  -4 -18 15749.7 2238.86   1
  -4   4  18 18569.1 2370.16   1
   4  -4 -18 14913.2 2224.65   2
   4   0 -18 16554.5 2266.95   2
   0  -4  18 19873.2 2453.61   1
  -4   4 -18 17358.3 2344.63   1
  -4   0  19 20565.3 2468.47   1
   4  -4 -19 19795.6 2467.55   1
   0   4 -19 19674.1 2425.52   1
  -4   4  19 15199.4 2212.88   1
   4   0 -19 11398.8 1916.33   2
   4  -4 -19 11231.6 2038.65   2
   0  -4  19 15853.8 2260.11   1
   4   0 -19 18063.4 2402.59   1
   0  -4  20 4014.49 1100.36   1
   4   0 -20 3598.58 1096.59   2
   4  -4 -20 1999.59 570.863   1
  -4   0  20 1629.78 631.522   1
  -4   4  20 5998.68 1438.46   1
   0   4 -20 6159.18 1456.65   1
   4   0 -20 5017.08 1275.75   1
   3  -5  20 6531.17 1512.38   1
  -3   5 -20 5371.48 1389.88   1
   2  -5  20 6532.71 1553.01   1
   5  -3 -20 4934.60 1295.62   2
   5  -2 -20 6530.90 1500.74   2
  -2   5 -20 7763.78 1629.65   1
   5  -2 -19 23449.0 2781.02   1
  -5   2  19 24911.5 2831.97   1
   3  -5  19 21108.8 2576.72   1
  -5   3  19 24642.6 2668.37   1
   2  -5  19 21249.5 2647.34   1
   5  -2 -19 18224.5 2441.71   2
   5  -3 -19 21494.0 2747.55   1
   5  -3 -19 20453.4 2584.76   2
  -2   5 -19 23914.5 2841.96   1
  -3   5 -19 22030.3 2689.72   1
   5  -3 -18 97324.2 5625.56   1
   5  -3 -18 82571.6 5124.55   2
   2  -5  18 86662.5 5273.48   1
  -2   5 -18 96244.3 5638.45   1
  -3   5 -18 89105.1 5474.92   1
  -5   2  18 102069. 5704.51   1
   3  -5  18 81687.4 5170.91   1
   5  -2 -18 95630.2 5647.21   1
  -5   3  18 105878. 5677.83   1
   5  -2 -18 91674.2 5425.63   2
  -5   3  17 23138.9 2655.25   1
   3  -5  17 19756.7 2472.37   1
   5  -2 -17 22260.8 2626.22   1
   5  -3 -17 19601.3 2500.61   1
  -5   2  17 22826.1 2581.23   1
   2  -5  17 25000.6 2658.94   1
  -3   5 -17 22662.9 2575.97   1
   5  -3 -17 22416.7 2630.92   2
  -2   5 -17 24204.9 2750.27   1
   5  -2 -17 20604.8 2425.23   2
   3  -5  16 5429.14 1304.92   1
   5  -3 -16 6262.72 1394.13   1
  -5   3  16 5458.14 1233.93   1
  -5   2  16 6946.86 1415.55   1
  -3   5 -16 7035.45 1427.34   1
   5  -2 -16 6984.01 1529.35   1
   2  -5  16 6790.58 1443.89   1
   5  -3 -16 4929.84 1235.64   2
  -2   5 -16 6260.39 1436.75   1
   5  -2 -16 5834.31 1277.47   2
  -3   5 -15 59322.2 4132.13   1
   5  -2 -15 53977.1 3898.59   1
  -5   3  15 54068.9 3872.52   1
   5  -3 -15 56239.7 3942.53   1
  -2   5 -15 52047.1 3885.68   1
   5  -2 -15 51587.6 3759.35   2
   5  -3 -15 51891.9 3830.56   2
  -5   2  15 53015.1 3896.96   1
   2  -5  15 57512.6 3973.55   1
   3  -5  15 50088.2 3764.79   1
   2  -5  14 103519. 5437.19   1
   5  -3 -14 120390. 5901.96   1
  -5   3  14 113667. 5591.85   1
  -2   5 -14 116797. 5765.49   1
   5  -2 -14 112650. 5646.13   2
   5  -3 -14 113323. 5692.20   2
   3  -5  14 113050. 5669.35   1
   5  -2 -14 126153. 5927.62   1
  -3   5 -14 118176. 5864.47   1
  -5   2  14 122030. 5781.83   1
   5  -3 -13 81317.5 4825.51   1
  -2   5 -13 92100.3 5009.42   1
  -5   2  13 92204.6 4845.84   1
   5  -2 -13 80980.1 4640.15   2
   3  -5  13 79056.5 4577.72   1
   5  -2 -13 78571.1 4596.40   1
  -3   5 -13 86527.9 4760.99   1
  -2   5 -13 83356.6 4536.94   2
  -5   3  13 84797.9 4772.58   1
   5  -3 -13 93883.4 4907.64   2
   2  -5  13 82674.6 4669.34   1
   5  -3 -12 42153.0 3205.32   1
  -5   2  12 43919.7 3264.81   1
   5  -2 -12 41347.5 3248.03   2
   5  -2 -12 42674.3 3230.63   1
  -5   3  12 41214.0 3112.05   1
  -2   5 -12 43335.1 3148.07   2
  -2   5 -12 38717.1 3107.81   1
   2  -5  12 37732.4 2945.04   1
  -3   5 -12 37270.4 3059.94   1
   3  -5  12 40143.4 3150.04   1
   5  -3 -12 41625.5 3158.25   2
   5  -3 -11 15631.0 1965.44   1
   5  -3 -11 17138.2 1966.41   2
   2  -5  11 18798.6 2054.93   1
   5  -2 -11 18769.9 2121.25   2
  -2  -3 -11 18921.9 1827.34   1
  -2   5 -11 17963.8 2087.96   1
   5  -2 -11 15900.5 1882.01   1
  -5   2  11 18471.4 2050.46   1
   3  -5  11 17092.9 1965.68   1
  -2   5 -11 18785.8 1983.67   2
  -5   3  11 17735.2 2024.80   1
  -3   5 -11 17126.9 1939.57   1
  -2   5 -10 205647. 7115.84   1
  -2   5 -10 220278. 7041.19   2
   5  -2 -10 209469. 7215.52   1
   5  -3 -10 201769. 7154.01   1
  -5   2  10 208429. 7133.12   1
  -5   3  10 217706. 7090.93   1
  -2  -3 -10 213634. 6328.62   1
   5  -3 -10 216320. 7180.19   2
   2  -5  10 215739. 7170.94   1
   5  -2 -10 199693. 7010.32   2
   3  -5  10 199843. 6905.25   1
   2   3  10 197642. 5987.95   1
  -3   5 -10 231116. 7395.84   1
   5  -3  -9 21719.7 2084.93   2
  -2  -3  -9 19629.6 1634.61   1
   5  -3  -9 20391.7 2049.86   1
  -3   5  -9 19345.9 2026.28   1
   2   3   9 18427.3 1589.64   1
  -2   5  -9 19218.6 1929.54   2
   5  -2  -9 18690.9 2031.57   2
  -5   3   9 20222.3 1994.15   1
   3  -5   9 18935.1 1918.29   1
  -2   5  -9 20507.4 2005.98   1
   5  -2  -9 17850.1 1929.68   1
   2  -5   9 15022.9 1743.36   1
  -5   2   9 19387.4 2017.32   1
  -2   5  -8 51374.9 3096.76   2
  -3  -2  -8 59704.6 2483.72   1
  -5   2   8 55572.8 3467.97   1
   3  -5   8 56779.7 3348.43   1
  -5   3   8 57801.8 3355.51   1
  -3   5  -8 55138.8 3350.54   1
  -2   5  -8 60802.7 3455.11   1
   5  -3  -8 54394.8 3342.93   1
   2  -5   8 58158.7 3436.70   1
   5  -2  -8 57257.4 3408.22   2
   2   3   8 50616.3 2555.54   1
   5  -3  -8 65256.0 3521.00   2
  -2  -3  -8 57311.6 2736.35   1
   5  -2  -8 52620.4 3256.53   1
  -2  -3  -7 233105. 5980.61   1
   3  -5   7 212340. 6939.63   1
  -3  -2  -7 227927. 5324.02   1
  -5   2   7 208042. 6886.86   1
   5  -2  -7 224704. 7064.08   1
   5  -3  -7 218832. 6952.11   1
   2   3   7 226732. 5890.25   1
  -3   5  -7 216989. 7091.82   1
  -5   3   7 202397. 6814.27   1
  -2   5  -7 216795. 7168.62   1
   2  -5   7 246778. 7490.91   1
   5  -3  -7 222319. 7216.16   2
   3   2   7 202912. 5024.72   1
   5  -2  -7 225420. 7168.58   2
   5  -3  -6 739376. 15571.1   2
  -5   2   6 668057. 15181.1   1
  -3   5  -6 753193. 15700.7   1
   3  -5   6 685374. 15336.6   1
   5  -2  -6 733614. 15568.9   2
  -3   5  -5 382359. 9740.22   1
   5  -2  -5 343512. 9252.51   1
   5  -3  -5 408424. 9811.70   2
   5  -3  -5 383964. 9576.85   1
  -2   5  -5 399326. 9981.74   1
   3  -5   5 392446. 9753.96   1
  -5   2   5 390827. 9551.11   1
  -5   3   5 346095. 9303.97   1
   5  -2  -5 408395. 9904.44   2
   2  -5   5 377384. 9843.97   1
  -5   3   4 51139.7 2807.80   1
  -3  -2  -4 50483.8 1729.44   1
   5  -3  -4 56155.8 2985.82   2
  -2  -3  -4 60061.8 2373.35   1
   3  -5   4 53332.8 2913.38   1
   5  -2  -4 58671.9 3021.74   2
  -2   5  -4 60997.1 3202.10   1
   2  -5   4 53858.4 3011.15   1
   2   3   4 54507.7 2253.71   1
   5  -3  -4 64355.6 3069.23   1
   3   2   4 53745.2 1697.24   1
   5  -2  -4 61658.3 2963.81   1
  -3   5  -4 54026.4 2921.45   1
  -5   2   4 61461.7 3002.40   1
   5  -3  -3 381487. 8804.63   1
  -2   5  -3 372672. 9128.43   1
   5  -2  -3 350348. 8369.78   1
   3  -5   3 371540. 9098.66   1
  -2  -3  -3 379124. 7785.28   1
  -5   2   3 305897. 8201.20   1
  -5   3   3 309070. 8338.13   1
   5  -2  -3 355024. 8758.13   2
  -3   5  -3 348377. 8936.98   1
   2  -5   3 344046. 8942.10   1
  -3   5  -2 620715. 13354.0   1
  -2   5  -2 626233. 13448.0   1
   2  -5   2 614902. 13474.1   1
  -5   2   1 145302. 4489.35   1
   3  -5   1 177426. 5517.57   1
   5  -2  -1 186084. 4844.90   1
   5  -3  -1 153832. 4828.79   1
  -5   3   1 136124. 4632.77   1
  -2  -3  -1 167050. 4572.27   1
   2  -5   1 168621. 5437.92   1
  -3  -2  -1 153709. 4078.98   1
  -3   5  -1 148390. 5250.63   1
   2   3   1 178403. 4623.50   1
  -2   5  -1 160500. 5307.80   1
   2   3   1 171816. 5537.80   2
   3   2   1 178192. 5298.41   2
   5  -2  -1 140796. 4743.84   2
   5  -3  -1 188678. 5285.52   2
   3   2   1 151863. 3944.83   1
   2   3   0 46265.8 2194.60   1
  -5   2   0 48175.2 2168.24   1
   3  -5   0 49466.3 2612.12   1
   5  -3   0 46231.7 2340.38   2
   5  -2   0 48221.1 2101.02   1
   5  -2   0 48045.3 2327.42   2
  -3   5   0 47379.7 2647.13   1
   3   2   0 45731.0 2490.09   2
   3   2   0 46217.6 2026.19   1
   2  -5   0 50234.3 2681.15   1
   2   3   0 48833.3 2751.02   2
  -2  -3   0 43950.6 2205.98   1
  -2   5   0 44146.5 2551.04   1
   5  -3   0 47418.8 2341.59   1
  -3  -2   0 47852.9 2055.67   1
  -5   3   0 50400.8 2391.80   1
  -5   3  -1 26111.5 1694.75   1
   2   3  -1 32716.1 2202.99   2
  -2   5   1 29036.6 2083.18   1
   3   2  -1 30795.1 1714.32   1
   2  -5  -1 28890.7 2035.69   1
   5  -2   1 33678.0 1612.33   1
   5  -3   1 35319.7 1884.06   2
   5  -3   1 24692.4 1614.74   1
  -2  -3   1 27864.6 1827.26   1
   2   3  -1 30521.1 1831.16   1
   3  -5  -1 34784.7 2273.08   1
   5  -2   1 31105.7 1811.61   2
   3   2  -1 30908.6 2090.04   2
  -3  -2   1 27169.8 1632.48   1
  -5   2  -1 31233.8 1607.17   1
  -3   5   1 25025.8 1969.12   1
   2   3  -2 359674. 8940.72   2
  -5   2  -2 345766. 7126.89   1
  -5   3  -2 375704. 8007.26   1
   3   2  -2 333248. 7825.87   1
   2   3  -2 330234. 8078.77   1
  -2   5   2 341171. 8657.87   1
   5  -3   2 309854. 7489.68   1
   3  -5  -2 336993. 8654.04   1
   3   2  -2 355914. 8732.73   2
  -2  -3   2 325007. 8155.69   1
   2  -5  -2 338520. 8706.21   1
   5  -3   2 339768. 7504.40   2
  -3   5   2 345479. 8756.95   1
  -3  -2   2 328042. 7812.12   1
   3  -5  -3 98467.3 4083.61   1
  -3   5   3 102636. 4152.83   1
   5  -3   3 109651. 3566.49   1
  -2   5   3 103809. 4090.91   1
   2  -5  -3 99021.1 4086.32   1
   2   3  -3 96612.5 3815.25   1
  -5   3  -3 98218.3 3469.18   1
  -2  -3   3 100080. 3884.85   1
   5  -2   3 116667. 3086.55   1
  -5   2  -3 99869.6 2982.71   1
   5  -3   3 87285.0 2977.55   2
   5  -2   3 106007. 3095.59   2
   2   3  -3 111334. 4380.72   2
   3   2  -3 108955. 4304.89   2
  -3  -2   3 96846.4 3755.10   1
   3   2  -3 104929. 3864.10   1
  -2   5   4 147237. 5148.04   1
  -5   2  -4 138435. 3848.25   1
   3  -5  -4 152414. 5317.78   1
   2  -5  -4 146676. 5153.26   1
   3   2  -4 154667. 5430.21   2
  -5   3  -4 155568. 4536.89   1
   5  -2   4 152932. 3823.07   1
   2   3  -4 152649. 5051.57   1
  -2  -3   4 146893. 5057.40   1
   5  -3   4 137432. 3694.01   2
   3   2  -4 135475. 4893.51   1
   2   3  -4 155709. 5495.66   2
   5  -3   4 151077. 4352.98   1
  -3  -2   4 152471. 4974.86   1
  -3   5   4 160460. 5381.58   1
   5  -2   4 145172. 3548.88   2
   3  -5  -5 197667. 6265.26   1
  -5   3  -5 194746. 5279.80   1
   2  -5  -5 209985. 6299.82   1
  -5   2  -5 233681. 4892.57   1
   3   2  -5 196372. 6432.60   2
   5  -3   5 219395. 5472.87   1
  -2  -3   5 199391. 6127.51   1
   2   3  -5 203624. 6495.78   2
   5  -2   5 207590. 4591.21   1
  -2   5   5 202320. 6148.79   1
  -3  -2   5 199848. 6013.49   1
  -3   5   5 208327. 6338.27   1
   3   2  -5 204993. 6167.96   1
   5  -3   5 171436. 3968.39   2
   5  -3   7 149300. 4829.54   1
  -5   2  -7 136607. 4229.80   1
  -2   5   7 154797. 5551.92   1
   2   3  -7 142951. 5682.49   2
   2  -5  -7 150999. 5645.65   1
  -5   3  -7 155334. 4963.43   1
  -2  -3   7 153542. 5646.99   1
   5  -2   7 168341. 4461.94   1
   3   2  -7 162338. 5928.83   2
   3   2  -7 150309. 5632.72   1
   3  -5  -7 166432. 6142.57   2
   3  -5  -7 143203. 5552.62   1
  -3   5   7 145139. 5513.10   1
  -3  -2   7 143241. 5435.16   1
   2   3  -7 159373. 5795.84   1
   3  -5  -8 54455.7 3309.82   1
  -5   3  -8 56276.5 2949.12   1
   2  -5  -8 55572.7 3275.21   1
  -5   2  -8 60308.2 2662.38   1
  -3   5   8 56623.2 3312.50   1
  -3  -2   8 60927.8 3396.63   1
  -2   5   8 53287.7 3176.43   1
   5  -2   8 56785.3 2546.20   1
   2   3  -8 57456.7 3405.50   2
   3   2  -8 55951.0 3401.63   2
   5  -3   8 56168.6 2853.96   1
   3  -5  -8 54086.0 3473.03   2
   3   2  -8 56126.9 3283.25   1
   2  -5  -8 68580.9 3775.73   2
  -2  -3   8 56723.8 3404.27   1
   2   3  -8 59746.1 3485.10   1
  -3  -2   9 228530. 7567.78   1
   3   2  -9 227892. 7636.65   1
   2   3  -9 229675. 7720.79   2
   3  -5  -9 223584. 7515.50   1
  -3   5   9 219474. 7369.09   1
  -5   3  -9 234744. 7023.78   1
   2  -5  -9 264129. 8171.13   2
  -2   5   9 228517. 7336.96   1
  -5   2  -9 264742. 6763.08   1
   5  -2   9 230374. 6369.62   1
   3   2  -9 238889. 7690.03   2
   5  -3   9 223427. 6787.09   1
   3  -5  -9 226454. 7518.92   2
   2  -5  -9 218083. 7421.44   1
  -2  -3   9 228444. 7629.31   1
   2   3  -9 234065. 7770.81   1
  -3  -2  10 222647. 7520.17   1
   3   2 -10 212962. 7541.16   1
  -5   3 -10 229096. 7073.85   1
   2   3 -10 202780. 7381.67   2
   3  -5 -10 207918. 7383.56   1
  -3   5  10 229081. 7525.67   1
   3  -5 -10 217124. 7412.28   2
   2  -5 -10 196349. 7154.41   1
  -2   5  10 204178. 7138.83   1
   5  -3  10 212609. 6691.53   1
  -5   2 -10 214935. 6478.26   1
  -2  -3  10 216918. 7378.27   1
   2  -5 -10 235244. 7630.90   2
   2   3 -10 212030. 7563.85   1
   3   2 -10 214500. 7473.19   2
   3   2 -11 134146. 5766.71   2
   3  -5 -11 137191. 5714.39   2
   3  -5 -11 125409. 5669.11   1
   2   3 -11 124349. 5744.14   1
  -3   5  11 138042. 5757.91   1
  -2   5  11 129794. 5620.42   1
   2  -5 -11 145434. 5958.35   2
  -5   3 -11 136660. 5398.19   1
   5  -3  11 131836. 5216.85   1
   2  -5 -11 130444. 5634.68   1
  -3  -2  11 130668. 5756.61   1
   3   2 -11 128634. 5781.96   1
  -2  -3  11 122915. 5568.17   1
   2   3 -11 134576. 5812.73   2
   5  -3  12 6978.95 1138.31   1
   2   3 -12 6135.51 1283.13   1
   3   2 -12 6027.41 1258.93   1
   2   3 -12 5709.97 1173.59   2
   3  -5 -12 4996.23 1157.60   1
  -3  -2  12 7096.91 1372.21   1
   2  -5 -12 5278.12 1083.62   1
  -2   5  12 5264.29 1064.00   1
   3   2 -12 6291.59 1150.94   2
  -2  -3  12 6790.75 1231.81   1
  -5   3 -12 6949.44 1188.17   1
   2  -5 -12 4993.42 1093.66   2
  -3   5  12 6158.07 1128.34   1
   3  -5 -12 7670.91 1389.91   2
  -2  -3  13 7407.54 1363.85   1
   3  -5 -13 10170.0 1531.72   1
   2   3 -13 9965.54 1579.99   2
   3   2 -13 8139.91 1445.90   2
   3  -5 -13 8779.11 1478.33   2
   3   2 -13 10057.7 1617.51   1
  -2   5  13 9612.54 1500.45   1
   2  -5 -13 10618.8 1623.31   1
   2  -5 -13 10660.6 1663.29   2
   2   3 -13 8319.28 1428.61   1
  -3  -2  13 9996.92 1602.66   1
  -3   5  13 9640.78 1471.13   1
   2   3 -14 122597. 5978.76   1
   3   2 -14 108661. 5731.86   1
   3  -5 -14 123201. 5992.64   1
   2  -5 -14 117452. 5877.40   1
   3   2 -14 114397. 5753.94   2
   2   3 -14 120408. 5962.23   2
   3  -5 -14 121424. 5846.15   2
  -2   5  14 125904. 5856.77   1
   2  -5 -14 119683. 5706.21   2
  -3   5  14 119295. 5748.66   1
  -2  -3  14 124588. 5871.57   1
  -3  -2  14 120686. 5875.63   1
   2   3 -15 17976.7 2249.02   1
   3   2 -15 14034.0 2055.85   1
   3   2 -15 14842.6 2081.74   2
   2  -5 -15 16234.1 2064.80   1
   3  -5 -15 13027.3 1903.11   1
  -2   5  15 17172.5 2155.18   1
   3  -5 -15 16419.4 2093.90   2
  -3   5  15 10882.2 1798.09   1
   2  -5 -15 12002.1 1887.40   2
  -2  -3  15 15555.5 1972.00   1
   2   3 -15 15754.4 2115.39   2
  -3  -2  15 15738.4 2105.10   1
   2  -5 -16 28096.0 2938.56   1
  -3   5  16 24285.8 2627.58   1
   2   3 -16 27304.6 2914.12   1
   2   3 -16 29544.3 2892.60   2
   3   2 -16 23427.2 2689.00   2
  -2  -3  16 30766.7 2963.06   1
   2  -5 -16 28572.8 2756.54   2
   3  -5 -16 25057.7 2751.31   2
   3   2 -16 25945.6 2753.00   1
   3  -5 -16 25569.8 2746.98   1
  -2   5  16 26596.0 2789.95   1
  -3  -2  16 28276.3 2724.79   1
  -2   5  17 32522.9 3122.64   1
   3  -5 -17 38847.1 3461.57   1
   3   2 -17 34503.2 3352.78   2
  -2  -3  17 34282.3 3188.03   1
  -3   5  17 36020.6 3266.21   1
  -3  -2  17 39242.9 3311.21   1
   2   3 -17 34543.0 3367.89   2
   2  -5 -17 40681.6 3582.62   1
   3   2 -17 38386.0 3384.51   1
   3  -5 -17 32971.9 3331.04   2
   2   3 -17 33825.0 3289.64   1
   3   2 -18 70591.0 4934.53   2
  -2   5  18 79629.0 5066.31   1
   3  -5 -18 70289.9 4933.62   2
   3  -5 -18 75796.5 5029.79   1
  -3  -2  18 91183.1 5209.38   1
   3   2 -18 86786.1 5254.06   1
  -3   5  18 68496.6 4705.95   1
   2   3 -18 80692.7 5099.39   1
  -2  -3  18 86794.0 5132.18   1
   2   3 -18 70865.3 4870.50   2
   2  -5 -18 71801.6 4979.46   1
   3   2 -19 18931.1 2403.72   1
   2   3 -19 16287.3 2287.54   1
   3  -5 -19 13851.4 2156.78   1
  -3  -2  19 18231.6 2302.92   1
  -3   5  19 19184.1 2417.04   1
  -2  -3  19 18208.4 2377.81   1
   3   2 -19 15675.9 2271.84   2
  -2   5  19 12137.9 1938.71   1
   2  -5 -19 17273.0 2311.72   1
   2  -5 -20 4063.26 1234.84   1
   3  -5 -20 5466.96 1354.31   1
  -2   5  20 6567.86 1552.70   1
  -3   5  20 5902.49 1410.85   1
   5  -4 -20 27396.3 3258.74   2
   5  -1 -20 32285.9 3250.95   2
   5  -4 -19 2016.56 853.130   1
   1  -5  19 2758.41 945.559   1
   5  -1 -19 1621.42 818.328   1
  -1   5 -19 1794.98 768.508   1
  -5   1  19 2145.53 956.801   1
  -5   4  19 2299.95 796.838   1
  -4   5 -19 1852.19 870.509   1
   5  -4 -19 1153.13 776.557   2
   5  -1 -19 2092.15 929.361   2
   4  -5  18 5558.13 1261.00   1
   5  -1 -18 5924.05 1391.58   1
   5  -4 -18 4642.76 1264.08   1
  -5   1  18 6664.42 1476.65   1
  -1   5 -18 4584.82 1136.50   1
  -5   4  18 7092.51 1492.05   1
   1  -5  18 7487.52 1532.92   1
   5  -1 -18 4273.45 1181.87   2
  -4   5 -18 5057.70 1272.73   1
   5  -4 -18 4760.09 1443.22   2
  -5   1  17-253.879 496.887   1
  -4   5 -17 653.492 345.362   1
   1  -5  17 919.740 709.901   1
  -1   5 -17 1069.46 653.946   1
   5  -1 -17 400.462 894.557   1
   5  -4 -17 1357.63 800.711   1
   4  -5  17 10.4278 542.069   1
   5  -4 -17 14.6594 425.771   2
  -5   4  17 704.633 419.322   1
   5  -1 -17 326.886 479.002   2
   5  -4 -16 134520. 6487.49   2
  -4   5 -16 125947. 6358.97   1
   5  -4 -16 129419. 6443.19   1
   4  -5  16 127300. 6344.60   1
  -1   5 -16 143366. 6658.39   1
  -5   1  16 127730. 6311.95   1
   5  -1 -16 121065. 6189.04   2
   1  -5  16 134647. 6383.62   1
  -5   4  16 139718. 6555.05   1
   5  -1 -16 123971. 6418.55   1
   4  -5  15 797.425 488.136   1
   5  -1 -15 125.655 424.365   2
   1  -5  15 237.804 395.193   1
   5  -1 -15 1460.39 662.623   1
  -5   1  15 350.517 378.125   1
   5  -4 -15 24.6948 366.134   1
  -5   4  15 613.857 503.550   1
  -1   5 -15 1037.86 744.613   1
   5  -4 -15 661.409 652.770   2
  -4   5 -15 604.339 528.286   1
   5  -1 -14 17453.9 2260.03   1
  -5   4  14 18549.8 2189.66   1
  -1   5 -14 17670.6 2093.71   2
   5  -4 -14 17321.4 2207.77   1
  -1   5 -14 19998.9 2221.58   1
   5  -1 -14 15838.6 1912.62   2
   5  -4 -14 15700.9 2042.68   2
   4  -5  14 21103.6 2314.96   1
   1  -5  14 18226.2 2224.02   1
  -4   5 -14 21271.3 2397.77   1
  -5   1  14 19419.8 2225.41   1
  -4   5 -13-213.981 468.395   1
   5  -1 -13 660.287 463.677   1
  -1  -4 -13 319.874 364.311   1
  -1   5 -13 983.418 567.597   2
  -5   4  13 1139.30 779.162   1
  -5   1  13 1381.86 645.404   1
   1  -5  13 2861.48 984.940   1
   4  -5  13 597.024 230.635   1
   5  -1 -13 1343.79 729.936   2
  -1   5 -13 515.496 571.980   1
   5  -4 -13 709.994 542.782   1
   5  -4 -13 192.848 353.136   2
   1  -5  12 657736. 15992.4   1
   5  -1 -12 640149. 16121.9   1
  -1   5 -12 690702. 16190.9   2
   4  -5  12 731200. 16412.7   1
  -1   5 -12 662897. 16111.5   1
   5  -1 -12 708662. 16361.3   2
   5  -4 -12 724217. 16434.0   2
  -5   1  12 640761. 16059.6   1
   5  -4 -12 673647. 16350.8   1
  -5   4  12 688548. 16157.0   1
   1   4  12 800234. 16185.1   1
  -4   5 -12 658811. 16109.3   1
  -4   5 -11 6527.65 1210.17   1
   1  -5  11 6693.96 1217.07   1
   5  -1 -11 5108.27 1119.53   2
  -1  -4 -11 3458.23 731.874   2
   5  -1 -11 5707.43 1261.54   1
   4  -5  11 4819.16 1092.75   1
   5  -4 -11 6657.79 1280.58   2
  -5   4  11 4698.05 998.552   1
  -5   1  11 4881.73 1075.14   1
   5  -4 -11 7716.72 1312.52   1
  -1   5 -11 7216.25 1480.53   1
   1   4  11 5546.73 1021.42   1
  -1   5 -11 7871.67 1342.24   2
  -1  -4 -11 7604.81 1209.42   1
   5  -4 -10 9912.10 1436.12   1
   1  -5  10 12682.4 1621.99   1
  -1  -4 -10 12673.6 1486.53   1
   5  -1 -10 9491.25 1386.44   1
  -1   5 -10 12058.2 1630.43   1
   1   4  10 10515.8 1367.94   1
  -4   5 -10 13919.5 1745.12   1
   4  -5  10 10560.4 1499.42   1
   5  -4 -10 12447.6 1605.83   2
  -1   5 -10 13048.5 1634.91   2
   5  -1 -10 9874.29 1417.39   2
  -5   4  10 13611.0 1701.62   1
  -5   1  10 11427.6 1545.98   1
  -1  -4  -9 356.242 401.569   1
  -1   5  -9 449.870 322.065   2
   5  -4  -9 844.242 510.532   1
   5  -1  -9 738.877 600.033   1
   5  -4  -9 80.2886 307.639   2
  -1   5  -9 691.491 674.523   1
   1  -5   9-177.797 319.482   1
  -4   5  -9 164.913 275.865   1
   5  -1  -9-547.502 501.749   2
  -5   4   9 630.127 344.517   1
  -5   1   9 84.0672 272.507   1
   1   4   9 206.579 225.305   1
   4  -5   9-269.846 522.457   1
  -1   5  -8 246802. 7950.76   2
   5  -1  -8 255227. 7953.79   1
   5  -4  -8 254668. 8060.64   1
  -1  -4  -8 263289. 7429.45   1
  -4   5  -8 262482. 7982.25   1
  -5   1   8 259926. 8089.94   1
   1   4   8 269290. 7372.32   1
   5  -4  -8 267285. 8119.68   2
  -5   4   8 243708. 7916.10   1
   4  -5   8 261534. 7940.65   1
   5  -1  -8 254162. 7973.98   2
  -1   5  -8 245386. 7997.07   1
   1  -5   8 264957. 8170.97   1
   1   4   7 37428.8 2292.08   1
  -1  -4  -7 33235.7 2178.16   1
  -1   5  -7 32658.9 2493.67   1
  -4   5  -7 36996.8 2578.77   1
   5  -4  -7 33864.8 2456.91   1
   5  -4  -7 33094.0 2454.82   2
   1  -5   7 35844.8 2657.48   1
  -5   1   7 35781.5 2505.85   1
   4  -5   7 30700.1 2363.75   1
   5  -1  -7 34226.7 2542.23   2
   5  -1  -7 34073.6 2532.72   1
  -1   5  -7 34366.3 2628.24   2
  -5   4   7 36888.3 2613.34   1
  -4   5  -6 47632.9 2870.19   1
   5  -1  -6 50614.9 2877.05   1
  -1   5  -6 49976.6 3131.15   1
   5  -4  -6 43656.1 2816.78   1
   1  -5   6 46169.9 2927.53   1
  -1  -4  -6 44674.4 2501.16   1
  -1   5  -6 42845.7 2923.22   2
   5  -1  -6 46615.2 2896.87   2
  -5   1   6 45021.4 2797.61   1
  -5   4   6 52426.7 3020.78   1
   4  -5   6 43414.0 2682.33   1
   5  -4  -6 47485.6 2909.54   2
   1   4   6 43621.7 2425.22   1
  -5   4   5 3268.07 687.846   1
   5  -1  -5 3569.28 791.099   1
   4  -5   5 4309.07 799.878   1
   5  -4  -5 4884.23 920.879   1
  -4   5  -5 3047.69 722.864   1
   1   4   5 3878.27 655.139   1
  -5   1   5 3460.54 678.339   1
   5  -4  -5 4708.84 822.166   2
   5  -1  -5 4159.75 937.846   2
  -1  -4  -5 2776.45 604.346   1
  -1   5  -5 3494.51 853.096   1
  -1   5  -5 3465.11 810.972   2
   1  -5   5 3585.34 728.180   1
   5  -4  -4 509001. 11910.7   1
   4  -5   4 509522. 11823.0   1
  -1   5  -4 535630. 12276.9   1
  -1  -4  -4 500165. 11119.4   1
   1  -5   4 495265. 11992.2   1
  -5   4   4 525245. 12053.7   1
  -4   5  -4 529089. 12026.3   1
  -1   5  -3 5802.59 950.022   1
   1   4   3 7237.54 957.239   1
   1  -5   3 8509.57 1146.66   1
   5  -1  -3 7726.01 1042.55   1
  -5   1   3 6790.62 888.850   1
  -4   5  -3 6290.23 1010.04   1
   4  -5   3 6706.41 969.811   1
   5  -4  -3 7439.84 1104.58   2
   5  -1  -3 6465.68 977.125   2
   4   1   3 8050.15 924.641   2
  -1  -4  -3 7397.37 938.929   1
  -5   4   3 6103.77 962.353   1
   5  -4  -3 5963.42 901.286   1
   1   4   2 79626.7 3273.06   1
   5  -1  -2 89810.8 3307.22   1
  -5   4   2 82156.6 3568.88   1
   4   1   2 90719.2 3460.23   2
   5  -4  -2 98189.1 3814.10   1
  -5   1   2 81644.8 3172.17   1
   5  -1  -2 93552.8 3729.90   2
  -1  -4  -2 73769.4 3126.06   1
   4  -5   2 72196.1 3424.86   1
  -4   5  -2 86500.3 3778.84   1
   1  -5   2 85761.2 3754.45   1
   5  -4  -2 94596.9 3756.20   2
  -1   5  -2 84527.9 3736.47   1
  -5   4   1 14073.1 1382.73   1
   5  -1  -1 17676.3 1274.98   1
  -4  -1  -1 16853.7 922.688   1
   5  -1  -1 15741.1 1396.42   2
   1   4   1 15029.2 1313.02   1
  -5   1   1 13502.1 1085.00   1
   4   1   1 17586.8 893.026   1
   4  -5   1 15383.9 1488.69   1
   1  -5   1 15148.7 1530.08   1
  -1  -4  -1 14600.7 1321.52   1
   5  -4  -1 18055.7 1566.22   1
   4   1   1 16142.5 1440.26   2
  -1   5  -1 18702.5 1632.83   1
  -4   5  -1 15426.9 1502.71   1
   5  -4  -1 15954.2 1455.86   2
   1   4  -1 1341.96 444.675   1
  -5   1  -1 1787.60 298.524   1
   4   1  -1 1275.19 296.327   1
   1   4  -1 1854.26 610.917   2
  -4  -1   1 1213.01 339.760   1
   5  -1   1 1208.94 258.702   1
  -1   5   1 2588.19 551.488   1
   5  -1   1 2022.02 505.258   2
   4  -5  -1 1234.39 495.585   1
   5  -4   1 1368.08 432.275   1
  -4   5   1 1334.07 531.651   1
   1  -5  -1 1688.78 418.154   1
   4   1  -1 1579.87 585.203   2
  -5   4  -1 1191.25 544.125   1
  -1  -4   1 1358.13 476.697   1
   5  -4   1 1205.49 365.781   2
  -4   5   2 67268.3 3395.12   1
   5  -1   2 73392.3 1999.48   1
   1   4  -2 76725.3 3372.68   1
  -5   4  -2 75321.8 3271.45   1
   5  -4   2 88170.8 3250.82   2
  -5   1  -2 72596.8 2027.12   1
  -1  -4   2 93936.3 3722.54   1
  -4  -1   2 70470.8 2872.82   1
   4  -5  -2 74284.9 3429.58   1
   4   1  -2 76142.6 3458.35   2
   5  -4   2 86075.6 3429.12   1
   1  -5  -2 66183.0 3295.40   1
  -1   5   2 71746.3 3333.80   1
   1   4  -2 84957.3 3891.84   2
   4   1  -2 73190.4 2935.07   1
   5  -1   2 78485.4 2898.35   2
   5  -4   3 5465.40 818.805   1
  -4  -1   3 5219.23 818.718   1
  -4   5   3 4808.37 891.297   1
   1  -5  -3 5274.37 929.713   1
  -5   4  -3 4852.49 821.118   1
  -1   5   3 4481.35 791.543   1
   4  -5  -3 4863.15 870.439   1
  -1  -4   3 4628.23 776.040   1
   4   1  -3 5615.77 925.496   2
   4   1  -3 4778.79 809.043   1
   5  -1   3 5881.24 710.609   2
   5  -4   3 5955.35 759.253   2
   1   4  -3 5373.01 850.901   1
   1   4  -3 4770.00 780.958   2
   4   1  -4 487089. 10843.9   1
   4  -5  -4 510649. 11607.6   1
  -1   5   4 416726. 10668.2   1
   1  -5  -4 512477. 11226.5   1
  -4   5   4 440779. 11081.1   1
   4   1  -4 494384. 11464.1   2
   5  -4   4 474131. 10582.4   1
  -5   4  -4 476690. 10832.0   1
  -1  -4   4 466798. 11294.4   1
   1   4  -4 460951. 11110.9   1
   1   4  -4 525369. 11885.7   2
  -4  -1   5 34207.6 2234.49   1
   4   1  -5 33539.2 2452.42   2
   1   4  -5 34992.1 2436.83   1
   4  -5  -5 42684.5 2828.83   2
   4  -5  -5 36486.8 2523.86   1
   1  -5  -5 35655.6 2371.56   1
  -5   4  -5 29808.8 2047.87   1
   1   4  -5 36310.3 2591.27   2
   5  -4   5 27377.9 1972.52   1
   4   1  -5 31810.8 2238.09   1
  -4   5   5 34191.1 2455.01   1
  -1  -4   5 33152.3 2366.91   1
   5  -4   5 24426.8 1528.24   2
  -1   5   5 32784.0 2257.30   1
   5  -1   5 35744.5 1381.87   2
  -4  -1   6 10969.7 1347.30   1
   4   1  -6 13759.9 1519.89   1
  -1  -4   6 10606.2 1370.18   1
  -1   5   6 10299.5 1280.43   1
  -5   4  -6 9487.35 1170.42   1
   1  -5  -6 11942.6 1337.59   1
   4  -5  -6 12569.7 1433.17   1
  -4   5   6 14800.9 1542.79   1
   4  -5  -6 13944.8 1654.96   2
   5  -4   6 5080.52 769.632   2
   1   4  -6 9779.77 1298.75   1
   5  -4   6 10735.6 1216.82   1
   1   4  -6 11665.9 1419.97   2
   4   1  -6 12244.2 1521.46   2
  -5   4  -7 10839.2 1342.19   1
  -4  -1   7 12305.4 1499.37   1
   4   1  -7 10818.2 1407.78   1
   1   4  -7 12881.2 1564.16   2
   4  -5  -7 11392.9 1537.98   1
  -4   5   7 11884.7 1491.31   1
   1  -5  -7 13084.7 1461.84   1
   4   1  -7 11258.5 1509.27   2
  -1  -4   7 10511.8 1398.87   1
  -1   5   7 10294.6 1328.27   1
   1   4  -7 11550.0 1430.61   1
   4  -5  -7 14079.9 1597.81   2
   5  -4   7 13333.8 1407.34   1
   4   1  -8 222341. 7335.79   1
   1   4  -8 229863. 7494.54   2
  -4  -1   8 211962. 7199.52   1
  -5   4  -8 234069. 7024.14   1
   5  -4   8 223362. 6787.52   1
  -1  -4   8 212607. 7229.40   1
  -1   5   8 233877. 7124.79   1
   1   4  -8 215888. 7288.13   1
   4  -5  -8 237258. 7509.58   2
   4   1  -8 211736. 7338.67   2
   4  -5  -8 203031. 7175.40   1
   1  -5  -8 228723. 7210.37   1
  -4   5   8 223090. 7293.75   1
  -4   5   9 7869.53 1241.15   1
   4   1  -9 5419.20 1070.10   1
   1   4  -9 6346.59 1098.26   2
  -5   4  -9 5784.89 982.968   1
  -4  -1   9 5868.24 1151.65   1
  -1  -4   9 4921.39 990.941   1
   4  -5  -9 4976.58 1036.31   1
   1  -5  -9 5763.56 1023.02   1
   5  -4   9 5595.48 1017.27   1
   4   1  -9 6264.32 1052.20   2
  -1   5   9 5797.98 986.896   1
   4  -5  -9 6787.41 1169.53   2
   1   4  -9 7482.07 1208.91   1
   4  -5 -10 2573.87 798.510   1
  -1   5  10 2783.60 757.676   1
  -1  -4  10 1076.83 474.865   1
   4   1 -10 1651.27 721.932   1
   4  -5 -10 1976.26 708.605   2
   1  -5 -10 2983.58 820.195   1
  -4  -1  10 3176.71 902.606   1
   1   4 -10 2224.38 676.630   2
   4   1 -10 2100.24 652.958   2
  -5   4 -10 2473.08 740.421   1
   5  -4  10 3939.20 856.457   1
   1  -5 -10 1340.08 709.225   2
  -4   5  10 2397.53 706.549   1
   4  -5 -11 3350.64 942.690   1
   1   4 -11 4700.27 1027.42   1
   4   1 -11 4388.22 960.948   1
  -1  -4  11 5376.33 1191.19   1
   1   4 -11 4023.46 1078.24   2
  -4  -1  11 4976.68 1006.10   1
   1  -5 -11 2947.32 829.253   1
   4  -5 -11 4313.06 1121.85   2
  -5   4 -11 3517.85 955.472   1
   4   1 -11 4565.63 1019.94   2
  -4   5  11 4734.98 1085.10   1
  -1   5  11 3955.38 904.894   1
   1  -5 -11 3536.59 1007.51   2
   5  -4  11 4087.07 927.790   1
  -4  -1  12 864940. 19406.0   1
  -4   5  12 866646. 19383.8   1
   4  -5 -12 844722. 19297.0   1
   1   4 -12 798693. 19240.9   2
   4   1 -12 823096. 19234.1   2
   4   1 -12 854845. 19801.3   1
   1   4 -12 859624. 19811.7   1
  -1  -4  12 860875. 19580.3   1
   5  -4  13 188.792 423.222   1
   1   4 -13-393.990 412.308   2
   1  -5 -13 238.240 281.552   1
   1  -5 -13 401.725 269.830   2
  -1  -4  13 895.011 765.715   1
   4   1 -13-363.096 586.055   1
   4  -5 -13 226.990 434.383   1
  -4  -1  13 674.436 662.313   1
   4  -5 -13 770.502 728.560   2
   4   1 -13-142.472 375.069   2
   1   4 -13-235.686 383.949   1
  -5   4 -13 88.1475 473.611   1
  -4   5  13 314.511 459.391   1
  -1   5  13-226.589 334.036   1
   4   1 -14-717.599 651.870   2
   5  -4  14 1095.39 633.169   1
   1   4 -14 735.164 726.974   1
  -5   4 -14 588.501 492.272   1
   4   1 -14 637.106 488.156   1
  -1  -4  14 315.807 433.333   1
   4  -5 -14 595.997 483.124   1
  -1   5  14 61.5488 429.886   1
  -4  -1  14-404.537 645.044   1
   1   4 -14-249.647 476.583   2
  -4   5  14 98.7168 346.936   1
   1  -5 -14-71.1452 305.935   1
   4  -5 -14-491.204 474.145   2
   1  -5 -14-12.1855 500.411   2
   4   1 -15-529.024 499.107   1
  -1   5  15 305.025 428.368   1
   4  -5 -15 40.5957 629.093   2
   1  -5 -15 683.970 644.521   1
   4  -5 -15-87.7037 403.929   1
  -4  -1  15 326.261 423.128   1
   1  -5 -15 735.595 341.862   2
   1   4 -15 367.479 515.384   2
  -4   5  15 519.185 309.414   1
   1   4 -15 103.658 583.648   1
  -5   4 -15 534.624 485.193   1
   4   1 -15-137.865 432.580   2
  -1  -4  15 54.5151 442.301   1
  -4  -1  16 64457.5 4399.73   1
   1  -5 -16 65756.8 4471.47   1
   4  -5 -16 65349.5 4448.34   1
   1   4 -16 61046.2 4410.55   2
  -1   5  16 68789.5 4483.36   1
  -4   5  16 63347.1 4315.76   1
   4  -5 -16 60324.8 4469.91   2
   4   1 -16 67194.1 4386.63   2
  -1  -4  16 68910.2 4492.76   1
   4   1 -16 63772.9 4331.64   1
   1   4 -16 59496.4 4334.72   1
   4   1 -17 706.531 586.200   1
  -1  -4  17 258.830 307.980   1
   1   4 -17 857.470 456.181   2
   1  -5 -17 659.966 539.872   1
   4  -5 -17 979.691 735.431   1
   4  -5 -17 800.158 339.035   2
  -4   5  17 1227.64 575.756   1
  -1   5  17 1116.02 629.020   1
  -4  -1  17 1546.18 801.423   1
   4   1 -17 1164.32 643.076   2
   1   4 -17 1612.93 812.871   1
   4   1 -18 1786.69 899.170   1
  -1  -4  18-42.5794 345.511   1
  -4   5  18 634.857 511.719   1
   1  -5 -18 553.041 534.039   1
  -4  -1  18-684.043 427.965   1
   4   1 -18 1452.71 701.185   2
   4  -5 -18-378.672 536.833   2
   4  -5 -18 680.885 805.103   1
  -1  -4  19 1194.92 782.927   1
   4  -5 -19 504.043 326.624   1
  -4   5  19 106.210 436.108   1
   4  -5 -19 1376.06 872.145   2
   4   1 -19 1439.07 590.209   1
   4   1 -19 945.306 779.289   2
  -4  -1  19 1856.84 759.445   1
   4   1 -20 69845.6 5032.10   2
   5   0   0 214082. 4799.98   1
   5  -5   0 222800. 6573.04   2
   0  -5   0 195262. 6103.26   1
   5  -5   0 201945. 6219.88   1
  -5   5   0 184506. 6087.44   1
   0   5   0 178864. 5876.38   1
  -5   0   0 187909. 4649.56   1
   5   0   0 199408. 5889.56   2
   0  -5   1 510015. 11792.1   1
  -5   5  -1 497926. 11737.6   1
   0  -5  -1 503084. 11618.7   1
   5  -5  -1 474520. 11453.1   1
   0   5   1 538372. 11713.7   1
  -5   5   1 523307. 11977.3   1
   0   5  -1 498905. 11615.3   1
   5   0  -3 273392. 7184.75   1
  -5   0   3 261891. 7042.05   1
   0   5   3 271364. 7511.93   1
   5  -5  -3 261576. 7731.06   1
  -5   5  -3 249542. 7449.60   1
   0  -5  -3 257863. 7506.27   1
   0   5  -3 260459. 7680.94   1
   5   0  -3 266714. 7644.23   2
   5   0   3 286220. 6888.50   2
   0  -5   3 302761. 8132.39   1
   5  -5   3 294339. 7760.09   1
   5  -5  -3 298283. 8086.55   2
  -5   5   3 268476. 7773.42   1
   0   5   4 25177.6 1970.57   1
  -5   0   4 27940.9 2043.37   1
  -5   5  -4 31852.8 2266.91   1
   0   5  -4 30842.8 2307.00   1
   5  -5   4 27636.8 2093.13   1
   5   0   4 34150.0 1854.26   2
   0  -5  -4 32244.1 2229.45   1
   0   5  -4 27699.6 2342.86   2
   0  -5   4 28818.2 2250.49   1
   5  -5  -4 35563.8 2410.89   1
  -5   5   4 28365.9 2248.08   1
   5   0  -4 31906.2 2353.73   2
   5  -5  -4 33610.7 2422.63   2
   5   0  -4 31938.8 2141.97   1
   5   0  -5 10633.5 1423.99   2
  -5   0   5 11504.6 1335.05   1
   5   0  -5 9245.29 1212.16   1
   0  -5  -5 8147.26 1174.47   1
   5  -5  -5 11111.9 1351.39   1
   5  -5   5 10992.2 1301.09   1
   0  -5   5 12888.4 1479.10   1
  -5   5   5 11679.3 1501.16   1
  -5   5  -5 13111.3 1415.59   1
   0   5  -5 10823.8 1434.25   1
   0   5  -5 8621.06 1335.14   2
   5  -5  -5 10159.8 1343.62   2
   0   5   5 11232.9 1267.74   1
   0  -5   6 2122.39 721.033   1
   5   0  -6 1095.23 447.371   1
  -5   5   6 1212.48 586.806   1
   5  -5   6 1303.81 501.425   1
   5  -5  -6 1527.07 626.395   2
  -5   5  -6 953.468 350.039   1
   0   5  -6 1324.04 634.412   2
   0   5   6 632.408 410.620   1
   5  -5  -6 1490.30 668.502   1
  -5   0   6 1821.08 675.784   1
   0  -5  -6 1483.26 477.403   1
   5   0  -6 1547.22 616.561   2
   0   5  -6 2396.63 824.416   1
   0  -5   7 270.727 333.904   1
  -5   5   7 122.960 265.294   1
   0   5  -7 103.826 443.182   1
   5   0  -7 934.253 447.056   1
   5   0  -7 600.800 295.622   2
   5  -5  -7 905.204 445.573   1
   0   5   7 842.648 368.105   1
  -5   0   7 1119.40 627.769   1
   0  -5  -7 451.682 276.136   1
   0   5  -7 198.592 523.572   2
  -5   5  -7 599.152 391.445   1
   5  -5   7 356.039 346.264   1
   5  -5  -7 890.121 481.329   2
  -5   5   8-866.554 550.889   1
   0   5   8 791.056 215.745   1
   5   0  -8 499.822 298.494   1
   5  -5  -8 449.635 524.356   2
   0   5  -8-115.322 376.880   1
   5  -5  -8 1292.02 764.762   1
   0  -5  -8 112.694 201.705   1
  -5   0   8 275.264 396.913   1
   5   0  -8 278.489 453.595   2
   0   5  -8-511.986 598.843   2
   5  -5   8-65.6772 298.857   1
  -5   5  -8-7.28636 238.267   1
   0  -5   8-42.1048 385.953   1
   5   0  -9 89215.7 4663.52   1
   0   5  -9 95301.6 4761.18   1
   0  -5  -9 108799. 4743.14   1
   5  -5   9 93138.4 4423.16   1
  -5   5   9 99336.6 4820.19   1
   0   5   9 104699. 4610.04   1
  -5   0   9 93627.7 4671.17   1
   5   0  -9 93583.3 4741.13   2
   0  -5   9 94884.2 4727.71   1
   5  -5  -9 104321. 4780.66   2
  -5   5  -9 100304. 4681.42   1
   0   5  -9 93528.8 4666.29   2
   5  -5  -9 98616.6 4823.56   1
   5   0 -10 474620. 12624.9   1
   5  -5 -10 450998. 12198.1   1
  -5   5 -10 453515. 12022.8   1
   0  -5 -10 511205. 12293.0   1
   0   5 -10 467544. 12525.6   1
   0   5 -10 421052. 12124.2   2
  -5   5  10 458800. 12324.0   1
   0   5  10 436859. 11542.2   1
   5  -5  10 518573. 12437.6   1
   5   0 -10 465625. 12369.9   2
   5  -5 -10 465126. 12398.1   2
  -5   0  10 428095. 12044.6   1
   0  -5  10 458056. 12349.0   1
   5   0 -11 210774. 7881.53   1
  -5   0  11 226768. 7979.73   1
   5  -5 -11 211140. 7778.98   1
   0  -5 -11 229079. 7656.01   1
   5  -5  11 237479. 7836.21   1
  -5   5 -11 245504. 8031.95   1
   0   5 -11 210605. 7813.04   1
  -5   5  11 213515. 7653.71   1
   0   5  11 222047. 7626.01   1
   5   0 -11 221338. 7863.04   2
   5  -5 -11 217608. 7779.90   2
   0  -5  11 220939. 7845.67   1
   0   5 -11 208183. 7746.76   2
   5   0 -12 95785.5 5211.56   1
  -5   0  12 108013. 5387.07   1
   5  -5 -12 103672. 5282.78   1
   0  -5 -12 109933. 5172.54   1
  -5   5 -12 104179. 5236.32   1
   0   5 -12 100574. 5222.12   1
   0   5  12 104383. 4987.61   1
   5  -5  12 111180. 5273.99   1
  -5   5  12 114140. 5429.82   1
   5  -5 -12 103966. 5192.71   2
   0   5 -12 99432.8 5086.60   2
   5   0 -12 103570. 5297.76   2
   0  -5  12 102168. 5238.87   1
   5  -5  13 107615. 5326.58   1
  -5   0  13 102321. 5378.11   1
   5  -5 -13 100122. 5359.97   1
  -5   5  13 94306.6 5079.28   1
   0   5 -13 98235.8 5247.85   2
  -5   5 -13 106267. 5447.14   1
   0   5 -13 95690.3 5149.01   1
   0  -5 -13 93122.8 5116.96   1
   5   0 -13 100266. 5372.05   1
   5   0 -13 94022.4 5059.18   2
   0  -5 -13 85264.9 4752.07   2
   0  -5  13 94952.8 5126.01   1
   5  -5 -13 97617.2 5056.52   2
   5   0 -14 240469. 9166.15   1
  -5   0  14 262107. 9258.08   1
   0  -5 -14 262708. 9268.29   1
   5  -5 -14 244234. 9105.53   1
  -5   5  14 270206. 9226.86   1
   0   5  14 282893. 9319.39   1
   0   5 -14 249640. 9178.84   2
  -5   5 -14 267204. 9453.11   1
   0  -5  14 268190. 9232.22   1
   5  -5 -14 259891. 9234.60   2
   5   0 -14 244680. 9043.22   2
   0   5 -14 258023. 9196.72   1
   5  -5  14 258830. 9132.23   1
  -5   0  15 16182.5 2150.53   1
   0   5 -15 17100.2 2153.54   2
   0  -5 -15 17506.1 2293.57   1
   5  -5 -15 17439.6 2245.55   1
  -5   5  15 16197.0 2151.03   1
   5  -5 -15 16147.9 2150.59   2
   5   0 -15 16239.2 2143.00   2
   0   5 -15 18436.8 2317.43   1
  -5   5 -15 18657.0 2314.03   1
   5   0 -15 14717.9 2039.81   1
   5  -5  15 16104.4 2150.21   1
   0  -5  15 19434.0 2286.68   1
   0   5 -16 6720.61 1495.20   2
   0  -5  16 5797.52 1334.23   1
   5   0 -16 5502.52 1310.12   1
   5  -5 -16 5370.77 1221.31   2
   5  -5 -16 5806.89 1354.29   1
  -5   0  16 6143.14 1367.01   1
  -5   5  16 6036.10 1357.07   1
   0   5 -16 6183.53 1308.22   1
  -5   5 -16 5225.43 1261.15   1
   5   0 -16 6341.15 1346.52   2
   0  -5  17 7500.59 1550.42   1
   5   0 -17 7583.72 1620.57   1
   5  -5 -17 7097.97 1543.91   1
   0   5 -17 5221.75 1310.10   1
  -5   0  17 6588.55 1463.88   1
  -5   5  17 4695.21 1193.71   1
   5   0 -17 6760.81 1451.33   2
   5  -5 -17 5709.72 1523.24   2
   0  -5  18 8983.92 1605.55   1
   0   5 -18 9362.03 1719.23   1
   5  -5 -18 8075.54 1673.65   1
  -5   0  18 8413.40 1582.27   1
  -5   5  18 8072.60 1561.06   1
   5   0 -18 8272.70 1598.22   2
   5  -5 -18 7779.00 1650.86   2
   5   0 -18 7205.87 1388.45   1
   5   0 -19 10394.7 1857.50   1
   0   5 -19 10177.6 1902.95   1
   5  -5 -19 8463.38 1678.67   1
   5   0 -19 7630.63 1590.12   2
  -5   0  19 9632.66 1775.62   1
  -5   5  19 9221.68 1670.83   1
   5  -5 -19 6417.75 1754.38   2
   0  -5  19 9004.55 1635.12   1
   5  -5 -20 1540.12 980.260   2
   5   0 -20 553.735 549.641   2
   6  -3 -19 32.6954 334.846   2
   3  -6  19 690.503 419.342   1
  -3   6 -19 81.4405 344.378   1
  -3   6 -18-696.245 692.732   1
   3  -6  18-646.718 525.744   1
   6  -3 -18-164.634 377.525   1
   6  -3 -18-834.279 787.590   2
  -6   3  18-550.884 604.460   1
   3  -6  17-13.5433 567.674   1
   6  -3 -17-438.705 564.009   2
   6  -3 -17 1362.93 891.850   1
  -6   3  17 135.770 724.763   1
  -3   6 -17 943.892 546.962   1
   6  -3 -16 87585.7 5268.08   1
  -6   3  16 101332. 5479.99   1
   6  -3 -16 89507.5 5187.82   2
   3  -6  16 93707.2 5408.21   1
   3  -6  15-437.115 518.658   1
   6  -3 -15-180.879 499.031   1
  -6   3  15 1133.47 670.254   1
   6  -3 -15 814.826 677.635   2
  -3   6 -15 343.556 338.593   1
   6  -3 -14 63313.5 4392.95   1
  -6   3  14 82067.2 4681.45   1
   3  -6  14 73368.1 4587.48   1
   6  -3 -14 69419.2 4436.91   2
  -3   6 -14 72624.7 4543.04   1
  -6   3  13-53.6297 446.110   1
   6  -3 -13 588.675 356.288   2
   6  -3 -13-82.7243 426.850   1
  -3   6 -13 43.8810 352.435   1
   3  -6  13-330.649 387.251   1
   6  -3 -12 288011. 9787.66   1
  -6   3  12 298031. 9672.95   1
   3  -6  12 293850. 9624.40   1
  -3   6 -12 301624. 9822.04   1
   6  -3 -12 298308. 9773.22   2
   6  -3 -11 362.847 417.149   1
  -3   6 -11 743.748 440.104   1
  -6   3  11 1042.93 727.348   1
   6  -3 -11 930.776 711.956   2
   3  -6  11-192.674 397.482   1
   6  -3 -10 332043. 10028.3   1
  -3   6 -10 313280. 9900.59   1
   6  -3 -10 318355. 9811.76   2
   3  -6  10 331364. 9921.08   1
  -6   3  10 318991. 9808.85   1
   6  -3  -9-288.286 381.571   1
  -3   6  -9 517.742 553.512   1
  -6   3   9 130.461 268.617   1
   3  -6   9 323.912 404.612   1
   6  -3  -9 273.850 506.269   2
   6  -3  -8 395419. 10984.9   1
  -3   6  -8 404132. 11192.7   1
  -6   3   8 439513. 11318.6   1
   6  -3  -8 424620. 11178.0   2
   3  -6   8 410246. 11128.4   1
  -3   6  -7 477.291 485.224   1
   6  -3  -7 299.202 327.105   1
   3  -6   7-675.034 549.220   1
   6  -3  -7 434.715 362.501   2
  -6   3   7 1414.88 499.826   1
   6  -3  -6 51897.9 3088.43   1
  -6   3   6 45902.8 2951.90   1
  -3   6  -6 43586.7 2956.03   1
   6  -3  -6 52784.2 3185.43   2
   3  -6   6 49005.1 3092.02   1
   3   3   5 94.1610 132.096   1
  -3  -3  -5 55.3688 139.416   1
   6  -3  -5 343.879 516.110   1
   6  -3  -5 320.248 362.870   2
  -3   6  -5 345.791 465.219   1
   3  -6   5 642.988 519.512   1
  -6   3   5-202.438 328.726   1
  -3  -3  -3-5.11089 121.573   1
   3  -6   3 792.616 483.785   1
  -3   6  -3 446.337 429.218   1
   6  -3  -3-123.083 283.094   1
  -6   3   3 386.290 352.335   1
   3   3   3 498.632 251.009   1
   6  -3  -3-200.505 335.299   2
   3   3   2 214819. 5362.08   1
   6  -3  -2 203786. 6106.33   1
   3  -6   2 228223. 7005.97   1
  -3  -3  -2 217615. 5424.86   1
  -6   3   2 218322. 6360.19   1
  -3   6  -2 210357. 6800.41   1
   6  -3  -2 217923. 6570.49   2
  -6   3   1 837.758 399.690   1
   3   3   1-92.0661 193.134   1
   3  -6   1-71.9415 246.591   1
  -3  -3  -1 382.462 263.580   1
  -3   6  -1-114.815 427.676   1
   3   3   1 272.913 456.196   2
   6  -3  -1 287.179 233.385   1
   6  -3  -1 114.051 182.355   2
   3   3   0 87960.3 3359.85   1
   6  -3   0 91796.9 3594.17   1
  -3  -3   0 94224.4 3469.24   1
  -3   6   0 99461.7 4242.07   1
  -6   3   0 102081. 3764.44   1
   3  -6   0 95210.1 4149.10   1
   6  -3   0 102734. 3894.11   2
   3   3   0 105073. 4376.45   2
  -3   6   1 640.390 517.631   1
  -6   3  -1 73.9308 205.213   1
   3   3  -1-316.204 241.183   1
   6  -3   1 43.7851 242.122   1
   6  -3   1 490.586 324.612   2
  -3  -3   1 104.814 249.300   1
   3  -6  -1-45.3585 362.773   1
  -3   6   2 231066. 7250.10   1
   3  -6  -2 236519. 7232.59   1
   3   3  -2 242616. 7345.13   2
  -6   3  -2 225915. 6032.62   1
   6  -3   2 223707. 5977.95   1
   6  -3   2 236822. 6255.20   2
  -3  -3   2 240155. 6679.24   1
  -3  -3   3-209.587 251.523   1
   3  -6  -3-59.3498 384.279   1
   6  -3   3 64.2759 152.740   1
   3   3  -3 65.8130 293.616   2
  -3   6   3-597.934 454.349   1
  -6   3  -3-18.6874 196.226   1
   3   3  -3 447.200 341.828   1
   6  -3   3 127.792 189.200   2
  -3  -3   5-45.9315 253.908   1
   3   3  -5-155.225 442.200   2
  -6   3  -5-55.4929 190.340   1
  -3   6   5 708.709 453.792   1
   3  -6  -5-303.116 360.981   1
   6  -3   5 74.7689 162.959   1
   6  -3   6 86726.4 3276.56   1
   3  -6  -6 94926.4 4451.54   1
  -6   3  -6 98110.4 3506.74   1
   3   3  -6 83928.3 4309.38   2
  -3   6   6 99605.2 4421.02   1
  -3  -3   6 88008.6 4222.16   1
   3   3  -6 83916.7 4077.02   1
   3   3  -7 179.160 428.874   2
   3  -6  -7-179.466 394.210   1
  -3   6   7-113.997 263.244   1
   3   3  -7-43.0670 352.896   1
   6  -3   7 64.3882 244.516   1
  -3  -3   7-382.401 488.073   1
  -6   3  -7 275.470 183.713   1
  -3   6   8 768744. 17266.3   1
   3  -6  -8 759418. 17358.0   1
   3   3  -8 763258. 17618.6   2
   3   3  -8 767982. 17547.4   1
   3   3  -9 649.793 351.083   1
  -3   6   9 391.160 346.865   1
  -3  -3   9 742.769 529.628   1
   3  -6  -9 362.218 447.249   1
   3  -6  -9-526.922 407.348   2
   3   3  -9 188.642 308.013   2
   3  -6 -10 306678. 9593.03   1
   3   3 -10 322712. 9901.52   2
  -3   6  10 296838. 9419.49   1
  -3  -3  10 303439. 9565.24   1
   3   3 -10 320969. 9947.80   1
  -3   6  11 902.200 636.962   1
  -3  -3  11-435.969 331.350   1
   3   3 -11 441.835 452.626   1
   3  -6 -11 188.282 505.576   1
   3   3 -11 345.786 308.621   2
   3  -6 -11 360.870 484.395   2
   3   3 -12 95906.3 5111.44   1
   3  -6 -12 101739. 5074.04   2
   3  -6 -12 88414.9 4866.56   1
  -3   6  12 96304.5 4943.54   1
   3   3 -12 97971.2 5192.94   2
   3   3 -13-119.484 531.976   1
  -3  -3  13 532.501 510.324   1
   3  -6 -13 341.506 302.638   2
   3  -6 -13 610.142 613.924   1
   3   3 -13 383.466 450.652   2
  -3   6  13-57.5569 241.580   1
   3  -6 -14 133086. 6353.52   1
   3   3 -14 146965. 6646.01   2
  -3   6  14 125496. 6153.94   1
   3   3 -14 139168. 6623.18   1
   3  -6 -14 142440. 6455.82   2
  -3  -3  14 138988. 6449.41   1
   3   3 -15 348.348 529.504   1
  -3  -3  15-322.269 607.022   1
  -3   6  15 219.962 262.265   1
   3  -6 -15 1234.81 632.164   1
   3   3 -15 736.926 671.621   2
   3  -6 -15 240.268 307.703   2
   3  -6 -16 230793. 8934.22   1
  -3   6  16 228832. 8745.01   1
   3  -6 -16 199187. 8405.00   2
   3   3 -16 199648. 8579.14   2
  -3  -3  16 241917. 8950.06   1
   3   3 -16 223321. 8962.02   1
   3   3 -17-166.192 487.817   1
   3   3 -17 43.3424 565.224   2
  -3  -3  17 637.352 830.796   1
   3  -6 -17 213.041 596.657   2
   3  -6 -17 235.955 386.859   1
  -3   6  17 388.274 466.948   1
   3   3 -18 4760.44 1226.21   1
  -3  -3  18 3591.08 1108.37   1
   3  -6 -18 2796.38 951.251   1
   3   3 -18 1407.48 565.010   2
  -3   6  18 3195.79 947.311   1
   3  -6 -19 631.083 548.302   1
  -3   6  19-110.359 292.659   1
   3   3 -19 440.169 556.018   2
   4  -6  19 11900.0 2030.83   1
   6  -4 -19 15336.6 2326.24   2
   6  -2 -19 16369.4 2342.93   2
  -4   6 -19 13501.9 2256.18   1
  -2   6 -19 17913.3 2443.93   1
   2  -6  19 16883.2 2323.53   1
   6  -2 -18 42619.0 3761.34   1
   6  -4 -18 44813.0 3783.92   1
  -6   2  18 43377.3 3584.89   1
  -4   6 -18 36366.2 3606.21   1
  -6   4  18 50188.2 3910.37   1
   6  -4 -18 42832.9 3845.79   2
   6  -2 -18 40849.7 3653.15   2
   2  -6  18 45752.4 3835.94   1
  -2   6 -18 49569.4 4011.10   1
   4  -6  18 43120.9 3718.10   1
   6  -2 -17 29365.0 3095.19   1
   4  -6  17 21770.7 2606.78   1
  -6   2  17 35037.5 3230.58   1
  -2   6 -17 28875.9 2996.22   1
   2  -6  17 31509.3 3134.25   1
   6  -2 -17 29359.6 3005.67   2
   6  -4 -17 27244.2 2948.92   1
   6  -4 -17 24370.7 2916.65   2
  -6   4  17 32125.5 3138.51   1
  -4   6 -17 28530.6 3057.61   1
   2  -6  16 489.454 588.519   1
   6  -4 -16-502.770 658.315   1
  -2   6 -16-92.6709 555.285   1
  -6   2  16-44.6713 485.169   1
  -6   4  16-442.698 402.286   1
   6  -2 -16 682.805 581.278   1
   6  -2 -16 886.034 808.608   2
  -4   6 -16 36.2518 342.828   1
   6  -4 -16-146.157 588.029   2
   4  -6  16 216.550 450.415   1
   6  -2 -15 41421.6 3497.80   1
   6  -4 -15 44520.5 3583.63   1
  -6   2  15 38822.1 3416.22   1
   6  -2 -15 36638.9 3250.53   2
  -6   4  15 44088.1 3425.82   1
  -4   6 -15 43754.9 3529.48   1
   2  -6  15 42119.7 3523.03   1
   4  -6  15 45538.4 3628.20   1
   6  -4 -15 37678.1 3408.43   2
  -2   6 -15 42937.3 3528.51   1
   4  -6  14 104896. 5502.14   1
   6  -2 -14 91381.3 5265.57   1
   6  -4 -14 87605.9 5214.67   1
  -6   2  14 102544. 5425.32   1
   2  -6  14 92685.3 5316.56   1
  -4   6 -14 110096. 5725.15   1
   6  -2 -14 95430.4 5246.85   2
   6  -4 -14 94258.8 5318.50   2
  -6   4  14 101019. 5426.22   1
  -2   6 -14 95121.6 5258.09   1
   6  -2 -13 26233.5 2675.09   1
   6  -4 -13 25556.7 2668.11   1
  -6   2  13 28353.7 2696.27   1
  -6   4  13 27621.5 2717.44   1
   2  -6  13 25326.8 2603.05   1
  -4   6 -13 26902.2 2652.94   1
   6  -2 -13 23370.0 2469.90   2
   4  -6  13 26155.8 2627.35   1
   6  -4 -13 25384.2 2636.43   2
  -2   6 -13 24160.2 2560.70   1
  -2   6 -13 23795.6 2528.49   2
   6  -2 -12 23414.1 2499.70   1
  -6   2  12 30170.0 2769.69   1
   6  -2 -12 27595.7 2624.23   2
  -4   6 -12 27287.5 2705.15   1
   4  -6  12 27079.8 2598.87   1
   2  -6  12 29491.9 2762.22   1
   6  -4 -12 25807.1 2631.90   2
  -6   4  12 29277.2 2726.84   1
  -2   6 -12 24236.6 2493.45   1
   6  -4 -12 27577.4 2744.07   1
  -2   6 -12 25755.2 2580.10   2
  -6   4  11 69268.7 4144.85   1
   6  -2 -11 64391.8 3997.79   2
  -6   2  11 67811.0 4156.82   1
  -4   6 -11 68598.8 4182.33   1
  -2   6 -11 69894.4 4224.38   1
   6  -4 -11 67167.8 4084.95   1
   2  -6  11 66409.4 4144.03   1
   6  -4 -11 64520.0 3940.38   2
   4  -6  11 66902.8 4103.00   1
   6  -2 -11 59394.5 3969.72   1
  -2   6 -11 56801.8 3788.40   2
   2  -6  10 336965. 9960.69   1
  -6   4  10 295574. 9511.60   1
   6  -2 -10 319042. 9770.84   1
   6  -4 -10 321251. 9766.59   1
   4  -6  10 313795. 9568.54   1
  -4   6 -10 298074. 9480.50   1
  -6   2  10 303667. 9617.23   1
   6  -2 -10 290085. 9396.18   2
  -2   6 -10 296578. 9642.73   1
   6  -4 -10 332697. 9950.65   2
   6  -2  -9 34455.0 2844.53   1
   4  -6   9 39641.0 2942.26   1
   6  -4  -9 38944.6 3029.52   2
  -4   6  -9 36178.1 2843.00   1
  -6   2   9 37031.5 2877.38   1
   2  -6   9 40168.7 3017.38   1
  -6   4   9 36786.6 2807.05   1
  -2   6  -9 39630.6 3055.84   1
   6  -4  -9 36736.6 2866.33   1
   6  -2  -9 40761.0 2985.71   2
   6  -2  -8 130732. 5580.92   1
   6  -4  -8 130649. 5522.22   1
  -6   2   8 128780. 5515.49   1
   4  -6   8 136285. 5547.04   1
  -6   4   8 137641. 5613.85   1
  -2   6  -8 140515. 5888.81   1
  -4   6  -8 138793. 5720.56   1
   2   4   8 123719. 4590.57   1
   6  -2  -8 130781. 5551.12   2
   6  -4  -8 141504. 5746.89   2
  -2  -4  -8 137573. 4832.92   1
   2  -6   8 141162. 5799.52   1
  -4   6  -7 20912.2 2062.27   1
   6  -2  -7 21558.8 2121.63   1
   6  -4  -7 16736.8 1795.24   1
  -2  -4  -7 25296.0 1788.03   1
  -6   2   7 19520.4 1926.33   1
  -2   6  -7 19265.3 2036.65   1
   2   4   7 21986.7 1697.08   1
  -6   4   7 21330.3 2047.27   1
   4  -6   7 20854.2 2039.85   1
   2  -6   7 18949.3 1977.92   1
   6  -2  -7 22811.3 2160.03   2
   6  -4  -7 21185.8 2020.61   2
  -4   6  -6 316168. 9245.79   1
   6  -2  -6 338725. 9311.14   1
  -2   6  -6 323045. 9452.32   1
  -2  -4  -6 345004. 8339.52   1
   2   4   6 303124. 7852.51   1
  -6   4   6 340597. 9431.53   1
   6  -2  -6 347867. 9505.82   2
   2  -6   6 335154. 9545.31   1
   6  -4  -6 359717. 9518.44   2
   4  -6   6 326808. 9264.18   1
   6  -4  -6 304774. 9015.41   1
  -6   2   6 327135. 9222.79   1
  -2   6  -5 479370. 11682.3   1
   6  -4  -5 480315. 11365.0   1
   2  -6   5 406252. 11040.8   1
  -6   2   5 474175. 11218.0   1
  -2  -4  -5 491006. 10310.7   1
   4  -6   5 387534. 10785.7   1
  -6   4   5 432491. 11124.1   1
   6  -2  -5 430214. 11142.9   2
   6  -4  -5 455862. 11259.0   2
  -4   6  -5 457312. 11389.7   1
   6  -2  -5 424267. 10848.1   1
  -6   4   4 785.974 392.357   1
  -4   6  -4 440.033 250.834   1
  -2  -4  -4 338.502 258.578   1
   6  -2  -4 261.970 282.778   1
  -2   6  -4 295.601 436.423   1
  -6   2   4 180.218 321.985   1
   2   4   4 170.892 208.528   1
   6  -2  -4-904.628 570.875   2
   4  -6   4-79.4566 264.370   1
   2  -6   4 101.507 334.656   1
   6  -4  -4 383.175 458.192   2
   6  -4  -4 726.525 433.706   1
   6  -2  -3 505654. 11401.9   1
   6  -4  -3 507727. 11870.9   2
   4   2   3 597474. 12263.4   2
  -6   2   3 475700. 11332.7   1
   2  -6   3 546181. 12485.0   1
   6  -2  -3 516156. 11976.0   2
  -2  -4  -3 461819. 10793.8   1
  -4   6  -3 516142. 12288.3   1
  -6   4   3 464811. 11589.3   1
  -2   6  -3 538048. 12411.2   1
  -2  -4  -2 499880. 10151.9   1
   2  -6   2 438636. 10922.5   1
  -6   2   2 392691. 9716.24   1
  -2   6  -2 404549. 10642.2   1
  -4   6  -2 433531. 10896.0   1
   4  -6   2 456601. 10980.5   1
   4   2   2 444364. 10627.1   2
   6  -4  -2 471497. 10673.1   2
   6  -4  -2 411388. 10263.4   1
  -6   4   2 429038. 10472.2   1
   6  -2  -2 432173. 10449.6   2
   4   2   1 3933.43 502.245   1
   6  -2  -1 2554.05 504.817   1
  -6   4   1 3512.12 719.388   1
  -6   2   1 3590.86 660.888   1
  -4   6  -1 3908.65 796.843   1
  -2   6  -1 3256.32 679.757   1
   6  -4  -1 2615.18 564.957   1
   4   2   1 3752.87 827.803   2
  -2  -4  -1 3656.34 678.929   1
   4  -6   1 3736.09 793.957   1
   2  -6   1 3474.21 820.357   1
   6  -2  -1 3230.55 677.606   2
  -4  -2  -1 3736.13 497.871   1
   2   4   1 4019.34 672.458   1
   6  -4  -1 4118.68 739.145   2
   6  -2   0 10275.1 1193.85   2
   6  -2   0 8648.27 917.201   1
   6  -4   0 10800.6 1177.85   1
   2   4   0 8923.55 1074.32   1
   4   2   0 7930.62 869.456   1
   4   2   0 9848.92 1255.08   2
  -6   2   0 9175.70 923.830   1
  -6   4   0 7679.95 1027.31   1
   4  -6   0 7626.56 1142.47   1
   2   4   0 10342.5 1433.31   2
   2  -6   0 8229.85 1193.21   1
  -2  -4   0 7548.62 993.613   1
  -4  -2   0 8869.19 919.419   1
  -4   6   0 7056.26 1124.75   1
   6  -4   0 8273.87 1081.66   2
  -2   6   0 10083.9 1268.24   1
   4   2  -1 38632.2 2112.30   1
   2   4  -1 43463.1 2424.75   1
  -2   6   1 42149.7 2687.76   1
   6  -2   1 40827.6 1918.55   1
  -4   6   1 42962.1 2808.86   1
   4   2  -1 44509.6 2785.88   2
   6  -4   1 32985.6 2122.47   1
   4  -6  -1 41299.2 2702.88   1
   2  -6  -1 40104.9 2666.06   1
  -6   2  -1 42745.6 1978.89   1
  -2  -4   1 40002.7 2423.96   1
   6  -2   1 40593.9 2262.02   2
  -4  -2   1 39631.7 2120.38   1
   2   4  -1 44134.7 2890.06   2
  -6   4  -1 46447.8 2548.84   1
   6  -4   1 43647.2 2391.17   2
  -4   6   2 527940. 12565.3   1
   4   2  -2 572602. 12694.9   2
  -2   6   2 497534. 12315.2   1
   2   4  -2 536822. 12034.5   1
   4  -6  -2 539596. 12632.0   1
   2  -6  -2 513196. 12523.8   1
   4   2  -2 549084. 11459.5   1
  -2  -4   2 535296. 12111.5   1
   2   4  -2 550870. 12896.7   2
  -4   6   3 246232. 7409.42   1
  -2   6   3 199444. 6862.16   1
   2   4  -3 244995. 7616.51   2
  -6   4  -3 245430. 6743.40   1
   6  -2   3 240329. 5226.64   1
   2   4  -3 230375. 6938.82   1
  -6   2  -3 244907. 5339.00   1
   4  -6  -3 238054. 7253.41   1
   4   2  -3 234192. 7294.23   2
   2  -6  -3 248687. 7377.06   1
   6  -4   3 211740. 6259.41   1
   6  -4   3 207483. 6125.18   2
   6  -2   3 257771. 6152.38   2
  -2  -4   3 229874. 7030.25   1
  -4  -2   3 238476. 6714.64   1
   4   2  -3 237314. 6750.54   1
   2   4  -4 430200. 10951.7   2
  -2   6   4 434312. 10628.2   1
  -6   4  -4 455053. 9982.55   1
   4  -6  -4 391467. 10426.1   1
   2  -6  -4 381757. 10204.9   1
   4   2  -4 415906. 10657.9   2
   2   4  -4 401586. 10181.0   1
  -2  -4   4 388941. 10227.4   1
  -4  -2   4 402720. 10036.3   1
  -4   6   4 393181. 10538.6   1
   4   2  -4 409966. 10104.0   1
   4   2  -5 85401.8 3939.90   1
   2   4  -5 88050.9 4103.15   1
  -2   6   5 94544.9 4264.05   1
   4  -6  -5 81885.9 4131.20   1
   4   2  -5 85222.9 4229.78   2
   2  -6  -5 76461.6 3881.93   1
  -6   4  -5 87587.0 3641.84   1
   6  -4   5 90551.9 3606.23   1
   2   4  -5 85869.5 4231.11   2
   6  -4   5 69321.3 2649.23   2
  -2  -4   5 82774.5 3992.64   1
  -4   6   5 83623.0 4076.29   1
  -4  -2   5 85372.0 3894.79   1
   4   2  -6 464762. 11564.6   1
  -4  -2   6 449774. 11422.7   1
   2   4  -6 481725. 12086.6   2
   2   4  -6 453777. 11589.4   1
   4  -6  -6 446806. 11732.3   1
   2  -6  -6 458484. 11734.2   1
  -6   4  -6 479125. 11021.4   1
   4   2  -6 470801. 12017.3   2
   6  -4   6 471871. 10732.2   1
  -4   6   6 450563. 11730.3   1
  -2  -4   6 425923. 11480.0   1
  -2   6   6 479081. 11648.1   1
   4   2  -7 173040. 6381.05   1
  -2  -4   7 182847. 6593.02   1
   2   4  -7 167935. 6309.61   1
   4  -6  -7 174148. 6506.55   1
   2  -6  -7 169050. 6324.32   1
  -6   4  -7 171680. 5777.33   1
   4   2  -7 178173. 6608.33   2
  -4   6   7 177121. 6480.11   1
  -2   6   7 186522. 6538.10   1
   4  -6  -7 201974. 7161.43   2
   2   4  -7 177103. 6679.56   2
  -4  -2   7 173463. 6351.68   1
   4   2  -8 8998.40 1374.00   1
  -2  -4   8 9966.66 1468.08   1
  -4   6   8 9254.88 1483.69   1
  -2   6   8 7730.06 1247.09   1
  -4  -2   8 8463.75 1329.90   1
   4  -6  -8 11526.9 1570.22   2
   4  -6  -8 8119.60 1344.70   1
   2   4  -8 8240.78 1345.97   1
   2  -6  -8 9281.48 1381.65   1
   2   4  -8 8336.70 1381.80   2
   4   2  -8 7480.19 1361.50   2
  -6   4  -8 10776.0 1326.37   1
   6  -4   8 10030.5 1254.15   1
  -2  -4   9 168637. 6729.66   1
   4   2  -9 187467. 7051.66   2
   4  -6  -9 171955. 6741.52   1
   2  -6  -9 188533. 6913.70   1
   4  -6  -9 202039. 7110.38   2
   6  -4   9 185106. 6264.26   1
   2   4  -9 177475. 6936.51   2
   2  -6  -9 190142. 7306.86   2
  -4   6   9 174378. 6720.02   1
   2   4  -9 192690. 7012.83   1
  -2   6   9 205126. 7001.86   1
  -6   4  -9 193414. 6485.65   1
   4   2  -9 186257. 6968.57   1
  -4  -2   9 184232. 6820.89   1
  -2   6  10 186002. 6736.49   1
   2  -6 -10 185552. 7136.61   2
   2  -6 -10 167485. 6553.08   1
   4  -6 -10 153022. 6362.08   1
   2   4 -10 162794. 6674.85   2
   4   2 -10 164406. 6597.28   2
  -6   4 -10 180145. 6326.20   1
  -2  -4  10 159884. 6582.42   1
   6  -4  10 159078. 5883.06   1
   4   2 -10 157645. 6600.25   1
  -4   6  10 151577. 6306.29   1
   4  -6 -10 157127. 6499.03   2
  -4  -2  10 160721. 6544.70   1
   4   2 -11 39231.4 3084.46   1
   4  -6 -11 37383.3 3081.94   1
   2  -6 -11 38359.5 3006.65   1
  -4   6  11 42788.8 3096.61   1
  -2   6  11 41448.6 3143.07   1
   2   4 -11 35652.3 3053.72   2
   4  -6 -11 34785.7 2908.06   2
  -2  -4  11 38449.7 3015.95   1
   2  -6 -11 40460.7 3240.30   2
   4   2 -11 41803.3 3183.94   2
   2   4 -11 37486.8 3126.00   1
  -4  -2  11 38240.4 3053.50   1
   4  -6 -12 24664.9 2498.90   1
   2  -6 -12 26960.7 2533.07   1
  -4   6  12 25922.2 2575.38   1
   2   4 -12 24744.1 2630.59   2
  -2   6  12 27111.9 2557.45   1
   4   2 -12 26257.1 2606.06   2
   2   4 -12 22792.9 2499.49   1
   4  -6 -12 20137.4 2270.22   2
   4   2 -12 23472.3 2490.06   1
   2  -6 -12 24052.4 2441.48   2
  -2  -4  12 26212.8 2578.10   1
  -4  -2  12 24536.5 2443.37   1
   4   2 -13 25925.0 2702.25   1
   4  -6 -13 26966.4 2549.36   2
   4  -6 -13 24004.0 2545.44   1
   2  -6 -13 28355.7 2746.77   1
   4   2 -13 24127.9 2600.06   2
  -4   6  13 24514.8 2432.98   1
  -2   6  13 23338.5 2440.13   1
   2  -6 -13 25193.1 2543.76   2
   2   4 -13 23326.3 2570.68   2
  -2  -4  13 25925.9 2615.73   1
  -4  -2  13 24961.6 2504.55   1
   2   4 -13 25243.7 2691.04   1
   4   2 -14 129234. 6207.74   1
   4  -6 -14 124779. 6137.59   1
   2  -6 -14 122381. 6024.42   1
  -2  -4  14 132837. 6215.93   1
  -4   6  14 114602. 5860.99   1
  -2   6  14 147989. 6451.47   1
   2   4 -14 124384. 6252.98   2
   4   2 -14 110124. 5900.67   2
   2  -6 -14 122529. 5985.68   2
   4  -6 -14 122290. 5941.10   2
  -4  -2  14 121229. 6017.79   1
   2   4 -14 133488. 6413.47   1
   4   2 -15 14842.2 2158.89   1
   2   4 -15 14872.3 2124.20   1
  -2  -4  15 14039.2 2049.93   1
   4  -6 -15 16207.8 2200.30   1
  -4   6  15 15891.5 2154.29   1
   2   4 -15 17066.3 2288.84   2
   4   2 -15 14513.7 2114.86   2
  -2   6  15 14216.8 1940.83   1
   2  -6 -15 13513.4 1973.72   2
   4  -6 -15 13205.7 1998.73   2
   2  -6 -15 14383.7 2068.86   1
  -4  -2  15 17078.1 2224.98   1
   4   2 -16 33305.6 3214.47   1
   2  -6 -16 36219.9 3360.80   1
   4  -6 -16 37715.0 3422.78   1
  -2   6  16 38506.9 3335.53   1
  -4   6  16 38937.4 3324.69   1
   2   4 -16 36330.3 3421.34   2
   4  -6 -16 31993.6 3170.74   2
   4   2 -16 30371.6 3121.51   2
   2  -6 -16 32150.4 3088.25   2
  -2  -4  16 38152.6 3393.42   1
  -4  -2  16 38503.7 3283.99   1
   2   4 -16 34347.4 3291.49   1
   4   2 -17 11784.8 1896.86   1
  -2  -4  17 13170.6 2039.47   1
   2  -6 -17 9568.12 1772.23   1
  -4  -2  17 11562.0 1801.86   1
   4  -6 -17 11481.7 1953.31   1
   4  -6 -17 9418.91 1799.18   2
   2   4 -17 12809.9 2002.52   1
  -4   6  17 10811.9 1795.96   1
  -2   6  17 11196.7 1843.43   1
   4   2 -17 12478.1 2015.62   2
   2   4 -17 10210.5 1939.95   2
   4   2 -18 68117.7 4805.44   1
  -2  -4  18 73935.0 4884.40   1
   2  -6 -18 61123.9 4688.40   1
   4  -6 -18 68080.1 4865.12   1
  -2   6  18 59146.8 4428.73   1
  -4   6  18 68415.6 4683.64   1
   2   4 -18 58929.7 4521.99   2
   4  -6 -18 54668.8 4448.28   2
  -4  -2  18 77379.5 4858.50   1
   4   2 -18 60129.5 4571.14   2
   2  -6 -19 35341.5 3591.09   1
   4  -6 -19 40091.3 3684.04   1
  -4   6  19 34317.4 3456.03   1
   4   2 -19 33511.6 3420.97   2
   4  -6 -19 35155.0 3544.35   2
   6  -1 -19 9455.28 1757.71   2
   6  -5 -19 7415.76 1707.97   2
   6  -1 -18 28418.8 3087.35   1
  -6   1  18 30254.6 3119.16   1
   6  -5 -18 28107.1 2993.04   1
  -1   6 -18 29973.0 3119.89   1
  -6   5  18 31279.6 3091.93   1
   6  -1 -18 25479.4 2843.42   2
  -5   6 -18 26033.4 3002.77   1
   1  -6  18 32618.8 3146.53   1
   6  -5 -18 21647.6 2833.21   2
   6  -1 -17 24081.7 2708.68   1
  -6   1  17 24344.4 2673.87   1
   6  -5 -17 19564.2 2553.01   1
  -6   5  17 25053.9 2783.89   1
  -5   6 -17 18097.9 2345.62   1
  -1   6 -17 21682.2 2607.12   1
   6  -5 -17 15176.0 2386.81   2
   6  -1 -17 21972.1 2626.77   2
   5  -6  17 17326.9 2410.15   1
   1  -6  17 25794.2 2751.41   1
  -1   6 -16 22992.2 2622.97   1
   6  -1 -16 16359.7 2331.88   1
  -6   1  16 22043.9 2616.96   1
   6  -5 -16 19220.9 2480.49   1
   5  -6  16 17992.9 2360.29   1
  -6   5  16 22676.6 2563.75   1
  -5   6 -16 19821.2 2528.08   1
   6  -5 -16 17673.8 2303.73   2
   1  -6  16 20720.9 2404.64   1
   6  -1 -16 19445.7 2474.67   2
   6  -1 -15 24636.5 2703.04   1
  -6   1  15 25843.4 2723.61   1
   6  -5 -15 25184.0 2691.80   1
  -1   6 -15 24961.1 2747.52   1
  -6   5  15 27513.0 2733.19   1
  -5   6 -15 30683.3 2981.24   1
   6  -1 -15 25429.9 2576.29   2
   5  -6  15 25462.8 2746.16   1
   6  -5 -15 23458.7 2623.91   2
   1  -6  15 21716.2 2520.73   1
  -1   6 -14 138369. 6670.53   2
   6  -1 -14 125937. 6233.66   2
  -6   1  14 139089. 6543.89   1
   6  -1 -14 130370. 6533.96   1
   6  -5 -14 139727. 6628.21   1
  -6   5  14 131189. 6341.12   1
  -5   6 -14 158818. 6991.62   1
   5  -6  14 158524. 6926.72   1
   6  -5 -14 137788. 6514.42   2
  -1   6 -14 136774. 6518.58   1
   1  -6  14 155278. 6844.69   1
   6  -5 -13 29989.7 2848.11   1
  -1   6 -13 23407.3 2538.89   2
   6  -1 -13 27960.7 2798.19   1
  -6   1  13 28471.6 2699.79   1
  -5   6 -13 24660.8 2623.95   1
  -6   5  13 25696.7 2599.59   1
   5  -6  13 25535.8 2631.99   1
   1  -6  13 23796.2 2513.65   1
   6  -1 -13 19446.6 2293.01   2
   6  -5 -13 24082.3 2560.03   2
  -1   6 -13 25056.7 2603.28   1
  -6   1  12 30185.4 2861.32   1
   6  -5 -12 33510.4 2962.43   1
   5  -6  12 33283.6 2926.86   1
  -5   6 -12 37473.9 3069.47   1
  -6   5  12 29863.8 2817.01   1
  -1   6 -12 30771.5 2807.47   2
   6  -1 -12 33841.0 2861.47   2
   1  -6  12 33313.1 2956.71   1
   6  -5 -12 28965.4 2828.61   2
  -1   6 -12 29741.4 2786.19   1
   6  -1 -12 30836.5 2907.73   1
   6  -1 -11 58608.9 3997.46   1
   6  -5 -11 65314.1 4003.29   1
  -1  -5 -11 59276.4 3602.58   1
  -6   1  11 60734.1 3894.43   1
  -5   6 -11 57048.9 3833.31   1
   1  -6  11 63640.4 4058.86   1
  -1   6 -11 54542.0 3816.67   2
  -6   5  11 63741.7 3970.71   1
  -1   6 -11 60014.8 3990.20   1
   6  -1 -11 65609.1 4100.18   2
   6  -5 -11 59511.8 3880.99   2
   5  -6  11 50293.4 3521.66   1
   6  -1 -10 275530. 9215.45   1
  -5   6 -10 284950. 9219.48   1
  -6   1  10 304179. 9496.79   1
   6  -5 -10 298578. 9300.11   1
  -1  -5 -10 308246. 8945.64   1
   5  -6  10 313083. 9406.49   1
   6  -5 -10 305625. 9447.75   2
  -6   5  10 277287. 9151.24   1
   1   5  10 301898. 8722.38   1
  -1   6 -10 280706. 9313.96   1
  -1   6 -10 262875. 9191.11   2
   6  -1 -10 290008. 9346.16   2
   1  -6  10 283783. 9346.84   1
  -5   6  -9 229319. 7930.38   1
   6  -1  -9 229662. 8069.41   1
  -6   1   9 248607. 8352.67   1
   6  -5  -9 205881. 7694.48   1
   1  -6   9 236979. 8188.79   1
  -1  -5  -9 242638. 7641.59   1
  -1   6  -9 246511. 8376.54   1
  -6   5   9 232112. 7954.13   1
   1   5   9 261144. 7796.16   1
   5  -6   9 280595. 8478.01   1
   6  -1  -9 247727. 8198.94   2
   6  -5  -9 230859. 7975.33   2
  -1   6  -9 222841. 8145.34   2
   6  -1  -8 24539.8 2319.10   1
   1   5   8 27048.4 2193.66   1
  -6   1   8 23929.0 2329.50   1
   6  -1  -8 23132.5 2271.81   2
   6  -5  -8 22059.0 2175.58   1
  -1  -5  -8 29385.6 2311.57   1
  -5   6  -8 23123.5 2182.59   1
   1  -6   8 28458.5 2473.43   1
   5  -6   8 22677.7 2159.39   1
  -6   5   8 26905.3 2390.86   1
  -1   6  -8 25101.8 2370.15   2
  -1   6  -8 27231.6 2429.60   1
   6  -5  -8 22994.5 2250.67   2
   6  -1  -7 101303. 4805.87   1
  -6   1   7 122275. 5171.22   1
   6  -5  -7 105617. 4915.69   1
  -1  -5  -7 124539. 4863.91   1
  -5   6  -7 117844. 5158.58   1
  -1   6  -7 119103. 5369.13   1
   6  -5  -7 117197. 5161.83   2
   6  -1  -7 103622. 4860.01   2
   5  -6   7 125284. 5203.16   1
  -6   5   7 111555. 5069.08   1
   1  -6   7 119396. 5313.10   1
   6  -5  -6 159448. 6071.20   1
  -6   5   6 158159. 6114.61   1
   6  -1  -6 181276. 6212.73   1
  -6   1   6 157769. 5889.97   1
  -1   6  -6 177042. 6436.56   1
  -1  -5  -6 183584. 5949.84   1
   5  -6   6 166090. 6106.67   1
   6  -1  -6 153920. 6111.02   2
   6  -5  -6 180100. 6390.52   2
  -5   6  -6 146599. 5838.46   1
   1   5   6 183719. 5821.24   1
   1  -6   6 151389. 6123.94   1
  -5   6  -5 5818.74 1072.84   1
  -1   6  -5 6883.82 1129.43   1
   6  -1  -5 6278.76 1115.28   2
   6  -1  -5 5650.75 962.379   1
  -1  -5  -5 6865.73 989.347   1
   5  -6   5 5735.77 1025.82   1
   6  -5  -5 7095.87 1125.46   1
  -6   1   5 5711.78 982.531   1
   1   5   5 7143.46 1037.69   1
   6  -5  -5 4983.41 924.785   2
  -6   5   5 5453.39 1033.38   1
   1  -6   5 4882.81 1039.96   1
   6  -1  -4 14714.6 1492.20   1
   6  -5  -4 18013.9 1756.99   2
   1   5   4 17564.1 1642.15   1
  -1   6  -4 16345.6 1810.23   1
  -6   1   4 17372.9 1656.40   1
   6  -5  -4 16200.0 1729.74   1
  -1  -5  -4 16403.4 1582.88   1
   5   1   4 20014.9 1636.86   2
   5  -6   4 17726.7 1741.68   1
   1  -6   4 14122.2 1698.11   1
   6  -1  -4 17932.1 1783.03   2
  -6   5   4 16071.0 1752.78   1
  -5   6  -4 15496.5 1715.21   1
   6  -1  -3 70279.6 3247.42   1
   1   5   3 85973.3 3665.33   1
   6  -5  -3 74753.0 3755.14   1
  -1  -5  -3 79902.0 3712.47   1
  -5   6  -3 75307.6 3764.14   1
   5  -6   3 75422.0 3673.37   1
   5   1   3 77297.1 3482.09   2
   1  -6   3 72156.2 3816.52   1
   6  -1  -3 79950.7 3812.99   2
  -6   5   3 60163.2 3437.81   1
  -6   1   3 81085.2 3477.83   1
   6  -5  -3 75627.8 3747.13   2
  -1   6  -3 77504.7 3903.39   1
   6  -5  -2 344615. 9001.64   2
   6  -1  -2 366886. 8327.00   1
  -6   1   2 340801. 8194.17   1
   5   1   2 366486. 8839.11   2
   6  -5  -2 343737. 9042.71   1
   1  -6   2 326593. 9121.57   1
   1   5   2 274202. 8151.69   1
  -5   6  -2 356394. 9346.10   1
   5  -6   2 329697. 9017.84   1
  -1  -5  -2 314264. 8544.89   1
   6  -1  -2 356899. 9062.08   2
  -1   6  -2 338856. 9141.19   1
  -6   5   2 313527. 8847.44   1
   6  -1  -1 501938. 11818.9   2
  -5   6  -1 522869. 12354.3   1
   6  -5  -1 499978. 11889.7   1
   1  -6   1 493736. 12191.6   1
   5  -6   1 486200. 12093.1   1
   1   5   1 504927. 11691.4   1
  -1  -5  -1 493023. 11800.6   1
   5   1   1 543675. 11983.7   2
   6  -1  -1 528607. 10791.2   1
  -1   6  -1 547232. 12445.1   1
  -6   5   1 551126. 12310.5   1
   6  -5  -1 518209. 11920.7   2
   6  -1   0 312972. 6787.88   1
   5   1   0 319046. 8392.09   2
   6  -1   0 319095. 8063.13   2
   5   1   0 293324. 6479.68   1
  -6   1   0 268015. 6574.73   1
  -5   6   0 295312. 8544.15   1
   6  -5   0 284634. 7935.75   1
   5  -6   0 302853. 8406.43   1
   1  -6   0 291690. 8453.52   1
   1   5   0 294237. 7995.25   1
  -1   6   0 317192. 8687.35   1
  -1  -5   0 287308. 8069.30   1
  -5  -1   0 309928. 6653.28   1
   6  -5   0 287326. 8048.04   2
  -6   5   0 302309. 8292.09   1
   6  -1   1 82186.7 2570.73   1
  -6   5  -1 84490.3 3867.05   1
  -5   6   1 76474.7 3837.47   1
  -6   1  -1 73501.4 2497.70   1
   6  -1   1 83908.4 3510.77   2
   6  -5   1 89815.5 3847.70   1
   5  -6  -1 79668.6 3936.91   1
  -1   6   1 88326.6 4024.14   1
   1  -6  -1 78714.9 3816.79   1
   5   1  -1 86823.8 3970.02   2
  -1  -5   1 78419.0 3797.92   1
  -5  -1   1 82338.3 3090.37   1
   6  -5   1 87041.0 3718.37   2
   1   5  -1 88177.2 3863.62   1
   5   1  -1 93898.4 3253.51   1
   5   1  -3 21548.4 1743.15   1
  -1   6   3 25914.8 2115.73   1
   1   5  -3 22372.9 1918.28   1
  -6   5  -3 20857.3 1809.20   1
   1   5  -3 21930.2 2184.96   2
   5  -6  -3 22109.3 2042.60   1
   1  -6  -3 25276.7 2137.69   1
   6  -5   3 21569.6 1839.21   1
  -1  -5   3 24391.4 2089.49   1
   5   1  -3 20358.8 1958.04   2
   6  -5   3 17151.2 1589.51   2
   5  -6  -3 25319.4 2254.95   2
  -5   6   3 19205.9 1897.18   1
   6  -1   3 22348.8 1592.02   2
  -5  -1   3 20907.2 1699.91   1
  -6   5  -4 5524.08 936.294   1
   5   1  -4 4494.16 841.300   1
  -5  -1   4 5807.94 868.674   1
  -5   6   4 4389.29 898.909   1
   1   5  -4 6967.30 1127.14   1
   5  -6  -4 7078.75 1042.75   1
   1  -6  -4 5033.24 1025.39   1
   1   5  -4 6132.64 1150.26   2
   6  -1   4 4874.02 688.120   2
  -1   6   4 4885.22 880.596   1
   6  -5   4 4996.17 899.432   1
   5  -6  -4 5005.41 1096.51   2
   5   1  -4 5209.44 994.259   2
   6  -5   4 3591.32 784.596   2
  -1  -5   4 5064.37 998.495   1
  -5  -1   5 236257. 7312.21   1
   5   1  -5 282198. 7777.89   1
   5  -6  -5 256736. 7944.37   1
   1  -6  -5 254847. 7671.07   1
   1   5  -5 254469. 7883.69   1
  -6   5  -5 252973. 7434.67   1
   5  -6  -5 262928. 8199.39   2
   6  -5   5 284327. 7623.00   1
   5   1  -5 248177. 7842.55   2
  -5   6   5 257077. 7908.90   1
  -1  -5   5 227095. 7630.87   1
  -1   6   5 285759. 7934.06   1
   1   5  -5 267169. 8287.33   2
  -5  -1   6 32994.7 2453.87   1
   1   5  -6 32177.9 2584.72   1
   5   1  -6 39283.5 2788.23   2
  -1  -5   6 26162.1 2436.90   1
  -6   5  -6 34766.3 2522.60   1
   5  -6  -6 29910.8 2503.41   1
   1   5  -6 37124.0 2812.84   2
   1  -6  -6 30329.2 2436.06   1
   6  -5   6 38698.1 2526.03   1
  -5   6   6 37014.0 2683.46   1
   5  -6  -6 33593.7 2625.90   2
  -1   6   6 30301.4 2362.75   1
   5   1  -6 37091.2 2676.94   1
   5   1  -7 137136. 5580.89   1
  -5  -1   7 139049. 5631.29   1
   5  -6  -7 137272. 5760.22   2
   5  -6  -7 135756. 5676.00   1
   1  -6  -7 145053. 5699.47   1
   6  -5   7 156366. 5581.00   1
   1   5  -7 132685. 5862.99   2
  -5   6   7 133676. 5653.91   1
   5   1  -7 140398. 5781.48   2
  -6   5  -7 143790. 5489.33   1
  -1   6   7 138067. 5466.09   1
  -1  -5   7 140109. 5842.53   1
   1   5  -7 136023. 5664.41   1
   1   5  -8 25253.1 2394.30   1
   5   1  -8 24558.6 2309.86   1
  -5  -1   8 21380.1 2185.54   1
   5  -6  -8 20023.9 2152.79   1
   1  -6  -8 24926.8 2245.22   1
  -1   6   8 26029.1 2280.07   1
   1   5  -8 26176.7 2495.51   2
  -5   6   8 24626.5 2327.68   1
   6  -5   8 28504.5 2260.11   1
   5   1  -8 24438.7 2339.78   2
   5  -6  -8 26793.4 2347.28   2
  -6   5  -8 27404.0 2284.76   1
  -1  -5   8 25167.5 2358.60   1
   5   1  -9 21850.2 2217.08   1
  -5  -1   9 17073.5 1993.75   1
   6  -5   9 23478.4 2119.93   1
   1   5  -9 20231.5 2125.80   1
   5  -6  -9 20404.4 2116.33   1
   1  -6  -9 22520.4 2209.82   1
  -5   6   9 21666.3 2171.37   1
  -1   6   9 21045.3 2115.29   1
  -6   5  -9 21624.0 2131.14   1
   5  -6  -9 21621.0 2181.72   2
  -1  -5   9 22570.6 2254.99   1
   1   5  -9 19650.2 2102.96   2
   5   1  -9 18395.0 2040.29   2
   5   1 -10 344089. 10648.5   1
  -5  -1  10 350812. 10535.8   1
   5  -6 -10 338494. 10485.0   1
   1  -6 -10 379271. 10688.7   1
   6  -5  10 389371. 10426.5   1
   1   5 -10 374550. 10890.0   1
  -5   6  10 349583. 10536.3   1
   5   1 -10 329599. 10383.8   2
  -1   6  10 363044. 10395.1   1
   1   5 -10 332234. 10523.3   2
  -1  -5  10 356228. 10684.8   1
   5  -6 -10 368227. 10656.6   2
  -6   5 -10 410438. 10790.8   1
   5   1 -11 39430.7 3092.29   1
  -5  -1  11 37482.1 3084.90   1
  -6   5 -11 44107.4 3161.05   1
   1   5 -11 36001.9 3036.79   2
   5  -6 -11 42027.5 3149.99   1
   1  -6 -11 38946.1 3047.16   1
   1   5 -11 39966.2 3155.65   1
   6  -5  11 40131.4 3042.84   1
   1  -6 -11 28372.3 2885.46   2
   5   1 -11 33996.5 2962.89   2
  -5   6  11 40962.3 3162.65   1
  -1   6  11 43395.1 3164.34   1
   5  -6 -11 42499.2 3181.19   2
  -1  -5  11 39531.3 3218.87   1
   5   1 -12 60115.3 4077.28   1
  -5  -1  12 60650.3 4006.21   1
  -6   5 -12 64159.4 3981.61   1
   5  -6 -12 65186.0 4109.41   1
   6  -5  12 58892.1 3758.57   1
  -5   6  12 64855.1 4115.12   1
   1   5 -12 62950.8 4128.00   1
  -1   6  12 66222.1 4067.04   1
   5  -6 -12 63103.7 3963.82   2
  -1  -5  12 57214.5 3912.02   1
   1   5 -12 57923.4 3943.31   2
   5   1 -12 62757.6 4002.38   2
   1  -6 -12 59822.7 3922.69   1
   1  -6 -12 58329.9 3971.18   2
  -5  -1  13 63241.2 4147.26   1
   5  -6 -13 58456.2 4021.70   1
   1  -6 -13 65753.3 4189.45   1
   5   1 -13 62552.3 4111.28   2
  -5   6  13 64223.9 4176.61   1
  -1   6  13 59908.9 4019.33   1
  -6   5 -13 70732.0 4280.23   1
   1   5 -13 59991.7 4125.33   2
   5  -6 -13 59366.4 3996.31   2
   1  -6 -13 53928.0 3859.58   2
   5   1 -13 52354.2 3945.01   1
  -1  -5  13 63844.8 4220.33   1
   1   5 -13 66211.0 4293.28   1
  -5  -1  14 118736. 5950.29   1
   5   1 -14 116454. 5989.12   1
   5  -6 -14 113461. 5939.81   1
   1   5 -14 119010. 5929.99   1
  -5   6  14 125328. 6074.47   1
   1   5 -14 109856. 5879.35   2
  -1   6  14 117282. 5862.79   1
   5   1 -14 117067. 5883.51   2
   5  -6 -14 115916. 5887.03   2
  -1  -5  14 115843. 5881.20   1
   1  -6 -14 99349.6 5510.54   2
   1  -6 -14 126152. 6184.18   1
  -5  -1  15 41241.7 3518.32   1
   5   1 -15 38041.7 3456.40   1
  -1  -5  15 42429.2 3412.29   1
   1  -6 -15 42487.3 3633.90   1
   5  -6 -15 39787.7 3446.08   1
   5   1 -15 42157.5 3463.94   2
  -1   6  15 39867.1 3435.98   1
  -5   6  15 40837.7 3419.57   1
   1   5 -15 40611.9 3413.83   1
   1   5 -15 38095.9 3384.06   2
   5  -6 -15 40380.1 3462.48   2
   1  -6 -15 28313.2 2836.19   2
  -1  -5  16 3088.59 998.072   1
   5   1 -16 3042.93 988.992   1
   1  -6 -16 3288.71 1089.89   1
  -5  -1  16 2783.29 909.047   1
   1   5 -16 3812.98 1070.77   1
   1   5 -16 3178.63 1030.06   2
   5  -6 -16 3876.35 1171.00   1
   5  -6 -16 2930.95 1091.02   2
   5   1 -16 3872.48 1081.39   2
  -5   6  16 1896.46 718.145   1
  -5  -1  17 12106.8 1945.92   1
  -1  -5  17 9507.17 1734.37   1
   5   1 -17 9933.09 1832.78   1
   5  -6 -17 11056.2 1888.75   1
   5   1 -17 9878.80 1768.28   2
   1   5 -17 11532.3 1945.73   2
  -5   6  17 10725.8 1827.21   1
   1   5 -17 9267.50 1677.99   1
   5  -6 -17 9233.31 1818.42   2
   5   1 -18 46979.1 4027.76   1
  -5  -1  18 53695.0 4152.48   1
  -5   6  18 47299.3 3862.93   1
   1   5 -18 51112.5 4030.25   1
   5   1 -18 48046.4 3958.41   2
   5  -6 -18 41768.0 3821.01   2
  -1  -5  18 48905.3 3921.35   1
   5  -6 -18 46365.5 3943.12   1
   5   1 -19 5579.23 1429.87   2
   5  -6 -19 5159.79 1294.49   2
   6   0  -1 4560.93 675.423   1
   6   0  -1 4819.33 910.940   2
   0   6  -1 5181.62 921.716   1
   6  -6  -1 3796.31 866.222   1
  -6   6   1 4541.28 933.773   1
  -6   0   1 5261.44 735.875   1
   0   6   1 5406.87 947.844   1
   6  -6   1 4693.05 898.204   1
   0  -6  -1 3338.51 766.316   1
   0  -6   1 5348.83 992.430   1
   6   0   1 4757.12 866.259   2
   6  -6  -1 3925.50 869.872   2
  -6   6  -1 4359.67 950.451   1
   6  -6   1 5223.29 1047.04   2
   0  -6   2 11050.0 1456.88   1
   6   0  -2 14308.2 1322.55   1
  -6   0   2 13184.5 1264.12   1
   6   0   2 14025.1 1446.42   2
  -6   6  -2 12646.6 1531.02   1
   0   6   2 13890.4 1579.59   1
   6  -6  -2 13125.7 1549.03   1
   6  -6  -2 16064.2 1692.19   2
   6  -6   2 12373.3 1523.76   1
   0  -6  -2 14153.4 1576.61   1
   6  -6   2 14088.1 1616.59   2
   6   0  -2 11070.2 1315.49   2
   0   6  -2 14666.8 1652.49   1
  -6   6   2 15164.6 1685.17   1
   0   6   3 8618.28 1227.71   1
   6   0  -3 7641.78 1113.04   1
   6  -6  -3 6709.01 1110.46   2
   6  -6   3 7043.87 1148.13   1
  -6   0   3 6468.90 980.464   1
  -6   6   3 6563.88 1115.84   1
   6  -6  -3 6204.33 1103.94   1
   6   0  -3 6821.82 1142.46   2
   6   0   3 7353.01 1028.28   2
   0  -6  -3 6151.52 1093.31   1
   0  -6   3 8619.76 1323.40   1
   0   6  -3 7742.53 1232.91   1
  -6   6  -3 7458.19 1166.03   1
   6   0  -4 265677. 7881.35   1
  -6   0   4 289419. 8077.28   1
   0   6  -4 276862. 8384.50   1
   6  -6  -4 316993. 8771.74   2
   6   0   4 274443. 7291.99   2
   6  -6  -4 246961. 8124.61   1
   0  -6  -4 264654. 7990.90   1
  -6   6  -4 264944. 8165.00   1
   6  -6   4 291690. 8248.87   1
  -6   6   4 272257. 8342.38   1
   6   0  -4 279104. 8405.07   2
   0  -6   4 258600. 8235.20   1
   0   6   4 285211. 8138.61   1
   6  -6  -5 6031.22 1138.93   2
   6   0  -5 3300.57 782.813   1
  -6   6   5 4907.56 1001.17   1
   0   6  -5 4615.42 964.832   1
  -6   0   5 5129.63 1000.94   1
   6  -6  -5 4139.11 882.348   1
   0  -6  -5 4488.64 914.965   1
   0   6   5 4633.84 894.526   1
  -6   6  -5 4305.05 912.334   1
   6  -6   5 4667.60 924.529   1
   6   0  -5 4962.63 1054.68   2
   0  -6   5 5229.38 1068.25   1
   6   0  -6 18689.2 1937.26   1
  -6   0   6 15962.1 1779.15   1
   6  -6  -6 15971.1 1933.70   1
   0  -6  -6 16590.3 1813.36   1
   0   6  -6 15555.0 1835.86   1
   6   0  -6 17332.3 1941.58   2
   0   6  -6 19373.7 2184.29   2
   6  -6   6 20026.2 1925.95   1
  -6   6   6 17429.9 1844.13   1
   0  -6   6 16822.1 1996.51   1
   6  -6  -6 18561.7 1928.67   2
   0   6   6 14941.4 1616.56   1
  -6   6  -6 15193.0 1751.57   1
   0  -6   7 3505.52 853.338   1
   6  -6   7 2961.27 852.595   1
  -6   6  -7 2580.29 803.090   1
  -6   6   7 2502.43 791.569   1
   6   0  -7 2146.74 657.222   1
   0   6   7 3514.59 894.049   1
   0   6  -7 4454.95 1050.22   2
  -6   0   7 2665.90 847.359   1
   6  -6  -7 1914.48 538.281   1
   6   0  -7 1919.75 705.268   2
   0  -6  -7 2475.51 748.138   1
   0   6  -7 3438.70 900.666   1
   6  -6  -7 3554.45 965.695   2
   6   0  -8 433916. 11802.6   1
  -6   0   8 434569. 11746.9   1
   0   6   8 456698. 11513.8   1
   6  -6  -8 402997. 11512.0   1
   0  -6  -8 451974. 11579.9   1
   0   6  -8 424820. 12090.1   2
   0   6  -8 415281. 11773.2   1
   6  -6   8 452259. 11557.2   1
   6   0  -8 388446. 11371.3   2
   0  -6   8 411142. 11636.6   1
  -6   6  -8 422198. 11425.9   1
   6  -6  -8 439538. 11729.0   2
  -6   6   8 402439. 11475.8   1
   0  -6   9 5914.61 1283.91   1
  -6   6   9 4651.09 1065.11   1
   6  -6   9 5860.25 1106.54   1
   6   0  -9 5976.28 1064.14   1
   0   6   9 5371.28 1002.50   1
  -6   6  -9 3789.80 997.372   1
   6  -6  -9 5250.99 1220.32   1
  -6   0   9 6307.36 1272.91   1
   0  -6  -9 5268.29 1104.53   1
   0   6  -9 6948.09 1404.89   2
   6   0  -9 6092.34 1226.49   2
   6  -6  -9 5473.70 1168.73   2
   0   6  -9 5618.16 1070.90   1
   0  -6  10 4655.04 1093.86   1
   0   6  10 4716.42 1064.35   1
   6   0 -10 3023.09 883.647   1
   6  -6  10 4026.94 1018.96   1
   6  -6 -10 3067.08 798.573   1
   0  -6 -10 4902.47 958.801   1
  -6   0  10 3965.15 1055.94   1
   0   6 -10 3928.92 1029.73   1
   0   6 -10 3245.37 909.859   2
   6   0 -10 3586.90 897.699   2
  -6   6 -10 4826.40 1105.35   1
   6  -6 -10 4068.11 1064.73   2
  -6   6  10 3958.70 1059.98   1
   0  -6  11 818.445 572.453   1
   6   0 -11 257.380 425.036   1
   0   6 -11-175.548 351.024   1
   6  -6 -11 827.158 658.933   1
   0  -6 -11 83.5000 310.186   1
  -6   0  11 1327.95 794.371   1
   0   6 -11-168.191 321.280   2
   6  -6  11 1306.67 629.503   1
   6   0 -11 259.147 425.098   2
  -6   6 -11 805.740 640.483   1
   6  -6 -11 432.680 371.940   2
  -6   6  11 92.3764 470.571   1
   0   6  11 839.590 578.665   1
   0   6 -12 317760. 10400.3   2
   6   0 -12 315862. 10330.4   1
  -6   6 -12 362758. 10736.1   1
  -6   0  12 309742. 10257.2   1
   6  -6 -12 335000. 10357.8   1
   0  -6 -12 330043. 10104.0   1
  -6   6  12 342303. 10377.9   1
   0   6  12 357536. 10477.0   1
   0   6 -12 321887. 10402.5   1
   6  -6 -12 311750. 10115.7   2
   6  -6  12 318014. 10139.6   1
   6   0 -12 319061. 10146.9   2
   0  -6  12 315139. 10231.3   1
  -6   6 -13-724.632 591.078   1
   0  -6  13 318.946 515.013   1
   6   0 -13 322.504 480.851   1
   6  -6 -13 250.404 553.668   1
   0   6 -13 469.933 494.150   1
  -6   0  13-152.405 372.984   1
   0   6 -13 398.113 302.553   2
   0  -6 -13-174.847 485.434   2
  -6   6  13 389.761 633.445   1
   6   0 -13-127.184 469.167   2
   6  -6  13-7.71475 674.137   1
   6  -6 -13 286.758 390.754   2
   0  -6  14 3241.17 984.083   1
  -6   6 -14 3681.35 1006.01   1
   6   0 -14 3879.54 1144.43   1
   6  -6 -14 4619.14 1139.91   1
  -6   0  14 5056.80 1218.72   1
   0   6 -14 3870.44 1127.70   1
   6  -6 -14 3809.28 1213.15   2
   0   6 -14 3959.39 1081.51   2
   6   0 -14 4183.32 1070.39   2
  -6   6  14 4290.72 1106.49   1
   6  -6  14 5307.28 1255.69   1
   0  -6  15-175.963 428.308   1
   6   0 -15-583.151 700.278   1
   6  -6 -15 178.370 447.482   1
  -6   0  15-780.109 698.426   1
   0   6 -15 14.4524 378.371   1
  -6   6  15-287.831 463.646   1
   0   6 -15 581.106 742.998   2
   6   0 -15-349.747 476.280   2
   6  -6 -15 542.487 797.694   2
   6   0 -16 103721. 5906.28   1
  -6   0  16 115891. 6057.14   1
   0   6 -16 116295. 6188.56   1
   6  -6 -16 116105. 6179.75   1
  -6   6  16 121405. 6155.97   1
   0   6 -16 99139.4 5947.42   2
   6  -6 -16 95593.1 5774.57   2
   0  -6  16 98774.7 5690.86   1
   6   0 -16 107131. 5883.24   2
   0  -6  17 858.951 368.472   1
   6   0 -17 1041.52 769.650   1
   6  -6 -17 627.955 610.048   1
  -6   0  17 1030.19 627.908   1
   0   6 -17 169.203 437.976   1
  -6   6  17 1244.09 765.195   1
   6  -6 -17 1067.95 884.127   2
   6   0 -17 76.1380 531.355   2
   0  -6  18 784.746 514.278   1
   6   0 -18-525.758 600.819   1
  -6   6  18 551.597 639.462   1
   6  -6 -18 659.197 575.985   1
  -6   0  18 1486.22 806.020   1
   0   6 -18 777.154 522.925   1
   6   0 -18 371.034 336.649   2
   6  -6 -18 1544.27 852.801   2
   7  -3 -18 94968.1 5798.58   1
  -7   3  18 103225. 5778.51   1
   4  -7  18 88589.0 5632.52   1
  -4   7 -18 89365.1 5629.60   1
   3  -7  18 100090. 5788.86   1
  -3   7 -18 108332. 6164.50   1
   7  -3 -18 90959.5 5535.92   2
   7  -4 -18 94436.1 5591.31   2
   7  -4 -17 14796.9 2221.11   1
  -7   3  17 20892.0 2503.12   1
  -7   4  17 18353.4 2417.49   1
   7  -3 -17 16477.3 2378.47   1
  -4   7 -17 18553.3 2406.25   1
   4  -7  17 17952.8 2452.14   1
  -3   7 -17 19493.2 2566.54   1
   7  -3 -17 18198.1 2353.79   2
   7  -4 -17 16635.8 2346.63   2
   3  -7  17 24349.9 2695.34   1
   3  -7  16 236.874 364.684   1
  -7   4  16 586.005 487.686   1
   7  -3 -16 1227.75 657.763   1
  -4   7 -16 1769.09 781.761   1
  -7   3  16 943.845 590.504   1
  -3   7 -16 149.235 532.249   1
   7  -3 -16 883.842 571.563   2
   7  -4 -16 1277.29 688.266   1
   7  -4 -16 2147.43 905.541   2
   4  -7  16 1087.23 705.016   1
   7  -3 -15 32276.0 3167.78   1
   7  -4 -15 33615.6 3152.94   1
  -7   3  15 37093.7 3325.37   1
  -7   4  15 34330.8 3209.78   1
  -4   7 -15 33907.5 3194.88   1
  -3   7 -15 32377.7 3107.90   1
   7  -3 -15 32134.7 3064.62   2
   7  -4 -15 33312.0 3131.51   2
   4  -7  15 30910.6 3072.60   1
   3  -7  15 32358.5 3125.73   1
   7  -3 -14 32833.5 3131.56   1
   7  -4 -14 31873.7 3123.88   1
  -7   3  14 34675.9 3168.17   1
  -7   4  14 35315.4 3112.92   1
  -4   7 -14 36658.7 3279.83   1
  -3   7 -14 32991.5 3133.24   1
   7  -4 -14 34696.1 3169.52   2
   7  -3 -14 32806.2 3084.31   2
   4  -7  14 33658.5 3185.23   1
   3  -7  14 37846.2 3267.90   1
   7  -3 -13 80696.8 4912.04   1
   7  -4 -13 73317.8 4737.50   1
  -7   3  13 80621.1 4854.23   1
  -7   4  13 79280.6 4785.18   1
  -4   7 -13 79006.6 4772.66   1
  -3   7 -13 83600.6 4993.51   1
   4  -7  13 72933.6 4644.81   1
   3  -7  13 76728.6 4785.24   1
   7  -3 -13 75191.4 4662.95   2
   7  -4 -13 73498.6 4764.79   2
   4  -7  12 10222.1 1688.22   1
   7  -3 -12 11697.7 1845.31   1
   7  -4 -12 11715.2 1823.14   1
  -4   7 -12 12244.2 1779.96   1
  -3   7 -12 10579.5 1730.17   1
  -7   3  12 11281.1 1754.44   1
  -7   4  12 8909.35 1555.05   1
   7  -4 -12 10405.3 1761.96   2
   7  -3 -12 10954.2 1737.41   2
   3  -7  12 10240.6 1656.39   1
   7  -3 -11 27036.8 2724.09   1
   7  -4 -11 25968.2 2583.09   1
  -4   7 -11 28439.1 2707.49   1
  -7   3  11 25106.0 2583.41   1
  -7   4  11 28997.2 2679.19   1
  -3   7 -11 28630.2 2742.39   1
   7  -3 -11 26444.4 2559.58   2
   4  -7  11 28468.2 2622.86   1
   3  -7  11 26834.7 2665.97   1
   7  -4 -11 25746.5 2654.85   2
   3  -7  10 248592. 8509.44   1
   7  -3 -10 204844. 7985.72   1
   7  -4 -10 238266. 8421.72   1
  -4   7 -10 205546. 7830.39   1
  -3   7 -10 228118. 8228.03   1
  -7   3  10 244002. 8446.50   1
   7  -3 -10 230899. 8186.03   2
  -7   4  10 210963. 7933.09   1
   4  -7  10 227185. 8096.97   1
   7  -4 -10 222370. 8019.51   2
  -4   7  -9 1965.16 661.006   1
  -3   7  -9 1235.48 791.999   1
   7  -3  -9 2364.16 766.842   1
   7  -4  -9 2405.70 760.182   1
  -7   4   9 2348.53 863.966   1
  -7   3   9 1811.74 720.761   1
   7  -3  -9 2526.93 746.118   2
   7  -4  -9 1765.25 681.370   2
   4  -7   9 1641.93 723.172   1
   3  -7   9 2594.20 868.564   1
  -4   7  -8 196374. 7270.47   1
   7  -3  -8 197832. 7349.22   1
  -3   7  -8 202301. 7368.76   1
   7  -4  -8 175483. 6959.32   1
  -7   3   8 191444. 7174.87   1
   7  -4  -8 194841. 7123.41   2
  -7   4   8 202430. 7313.46   1
   3  -7   8 202701. 7309.22   1
   4  -7   8 203831. 7331.29   1
   7  -3  -8 204777. 7407.20   2
  -3   7  -7 86857.4 4502.04   1
   7  -3  -7 92606.4 4627.17   1
   7  -4  -7 95653.3 4615.56   1
  -7   3   7 76038.6 4272.65   1
   7  -4  -7 89270.9 4544.07   2
  -7   4   7 88531.2 4533.16   1
   4  -7   7 90632.8 4603.81   1
   7  -3  -7 95436.2 4722.88   2
   3  -7   7 92065.3 4639.72   1
  -4   7  -7 89627.6 4648.72   1
   7  -3  -6 544950. 12664.7   1
   7  -4  -6 485263. 12429.1   2
   7  -4  -6 488380. 12209.7   1
  -7   3   6 472963. 12201.8   1
  -7   4   6 439040. 12067.6   1
  -4   7  -6 456634. 12274.3   1
   4  -7   6 431379. 12014.4   1
   3  -7   6 510889. 12613.5   1
  -3   7  -6 475729. 12400.8   1
   7  -3  -6 496930. 12522.0   2
   7  -3  -5 271488. 8178.92   1
   7  -4  -5 252681. 7983.57   1
   7  -3  -5 267556. 8350.11   2
  -7   3   5 282739. 8369.65   1
  -7   4   5 271965. 8318.98   1
   3  -7   5 268772. 8381.00   1
  -4   7  -5 253934. 8290.42   1
   4  -7   5 285922. 8646.80   1
   7  -4  -5 265906. 8303.77   2
  -3   7  -5 271208. 8536.54   1
  -4   7  -4 2452.29 729.271   1
  -3   7  -4 2164.62 607.592   1
   7  -4  -4 2302.74 666.909   1
  -7   3   4 2267.58 603.338   1
  -7   4   4 2541.81 793.139   1
   7  -3  -4 2405.64 705.568   1
   4  -7   4 2404.19 812.640   1
   3  -7   4 1792.88 424.284   1
   7  -3  -4 1836.23 737.161   2
   7  -4  -4 2092.78 608.950   2
   3   4   3 141506. 4598.18   1
   7  -3  -3 149635. 5262.43   1
   7  -4  -3 147135. 5401.37   1
  -3  -4  -3 168275. 4943.61   1
  -7   3   3 118036. 4971.86   1
   4  -7   3 141463. 5690.25   1
   3  -7   3 143491. 5699.85   1
  -3   7  -3 150470. 5774.45   1
   7  -3  -3 135055. 5433.35   2
   7  -4  -3 146464. 5511.62   2
  -4   7  -3 135363. 5617.20   1
  -7   4   3 136950. 5322.15   1
  -7   4   2 151106. 5429.37   1
   7  -3  -2 132569. 4910.73   1
   7  -4  -2 148969. 5297.96   1
   3   4   2 156131. 4791.29   1
  -7   3   2 136498. 5118.40   1
   4   3   2 149450. 5775.72   2
  -4   7  -2 140284. 5652.74   1
  -3  -4  -2 133860. 4586.49   1
   4  -7   2 140850. 5609.35   1
  -3   7  -2 143822. 5654.00   1
   7  -3  -2 142304. 5368.74   2
   7  -4  -2 144520. 5451.15   2
   3  -7   2 143291. 5672.20   1
   7  -4  -1 90056.1 3897.19   1
   7  -3  -1 80476.4 3508.57   1
   4   3   1 79048.4 3002.68   1
  -4   7  -1 83575.5 4137.62   1
   7  -3  -1 75811.8 3744.04   2
  -3   7  -1 77706.5 4025.97   1
  -4  -3  -1 82465.4 3130.01   1
   4  -7   1 70313.8 3829.67   1
  -7   3   1 88437.1 3718.69   1
   3  -7   1 73791.0 4002.43   1
   4   3   1 81149.9 4104.16   2
  -7   4   1 71565.5 3530.67   1
   3   4   1 85106.6 3463.54   1
   7  -4  -1 87805.1 3958.25   2
  -3  -4  -1 71808.1 3303.51   1
   4   3   0 7408.02 940.796   1
   7  -3   0 7505.77 997.791   1
  -4   7   0 7861.19 1222.32   1
   7  -4   0 9920.31 1206.18   1
  -3   7   0 9980.04 1465.25   1
  -7   3   0 7834.15 1006.98   1
   3  -7   0 7931.53 1234.31   1
  -3  -4   0 10344.1 1170.80   1
   7  -4   0 7221.62 1101.45   2
   3   4   0 9867.04 1455.00   2
   4   3   0 8473.88 1333.93   2
   4  -7   0 7596.29 1130.87   1
  -7   4   0 9712.77 1193.97   1
   3   4   0 10112.3 1130.89   1
   7  -3   0 7753.24 1153.25   2
  -4  -3   0 9627.04 1065.38   1
   3   4  -1 50065.4 2763.29   1
  -4   7   1 45096.2 3071.44   1
   7  -3   1 45297.6 2365.21   1
  -3   7   1 50335.7 3128.13   1
   7  -4   1 64687.7 3031.10   1
   4   3  -1 45298.9 2522.17   1
  -7   3  -1 46846.0 2445.25   1
   4  -7  -1 48287.6 3163.74   1
   3  -7  -1 49458.0 3156.21   1
   4   3  -1 49203.2 3128.02   2
   7  -4   1 42687.0 2670.08   2
  -3  -4   1 52262.6 2877.78   1
  -4  -3   1 51369.3 2712.09   1
   7  -3   1 49971.2 2849.51   2
  -7   4  -1 56910.4 2913.50   1
   3   4  -1 48369.9 3201.84   2
  -4   7   2 307970. 9012.63   1
  -3   7   2 267247. 8683.29   1
   7  -3   2 302015. 7370.39   1
   3   4  -2 274102. 8123.67   1
   7  -4   2 304107. 7963.37   1
   4  -7  -2 309726. 8984.52   1
   3  -7  -2 324563. 9195.88   1
   4   3  -2 289547. 8831.24   2
   3   4  -2 309292. 9166.82   2
   7  -4   2 298945. 7893.01   2
  -7   3  -2 324682. 7656.26   1
   7  -3   2 337134. 8145.23   2
   4   3  -2 331330. 8351.92   1
  -3  -4   2 289737. 8362.77   1
  -4  -3   2 339879. 8533.69   1
  -7   4  -2 320615. 8093.23   1
  -4   7   3 50197.5 3116.47   1
   4   3  -3 48409.3 2817.78   1
  -3   7   3 42252.4 2880.51   1
   7  -4   3 53179.9 2690.51   1
   4  -7  -3 47554.1 3071.07   1
   3  -7  -3 46127.8 3066.25   1
   4   3  -3 42284.4 3002.33   2
   3   4  -3 47889.9 2883.85   1
   7  -4   3 47217.3 2452.91   2
   3   4  -3 45282.3 3138.72   2
  -7   3  -3 44990.1 2247.80   1
  -3  -4   3 40410.3 2760.02   1
  -7   4  -3 42674.4 2534.32   1
   7  -3   3 44026.5 2374.31   2
  -4  -3   3 46096.5 2747.82   1
  -3   7   4 314894. 9245.12   1
  -7   4  -4 322864. 8238.28   1
   3   4  -4 326463. 9032.45   1
   4  -7  -4 304613. 9146.64   1
   3  -7  -4 314938. 9240.02   1
   4   3  -4 319975. 8817.63   1
   3   4  -4 308504. 9437.45   2
   4   3  -4 292319. 9212.26   2
  -3  -4   4 310818. 8982.79   1
  -4  -3   4 318283. 8869.12   1
  -4   7   4 299374. 9095.68   1
  -7   4  -5 129143. 4659.32   1
   4  -7  -5 118658. 5183.60   1
   3  -7  -5 112021. 5104.59   1
   4   3  -5 119387. 4937.82   1
   7  -4   5 121765. 4369.59   1
   3   4  -5 111558. 5221.91   2
  -3  -4   5 131308. 5351.76   1
  -4  -3   5 119018. 5066.52   1
   3   4  -5 121992. 5162.65   1
   4   3  -5 125681. 5424.17   2
  -4   7   5 111699. 5091.62   1
  -3   7   5 128727. 5409.77   1
  -3   7   6 681165. 15425.7   1
  -7   4  -6 677793. 14162.4   1
   3   4  -6 649663. 15271.9   1
   4  -7  -6 666101. 15591.6   1
   3  -7  -6 613575. 15267.0   1
   3   4  -6 692991. 15900.7   2
   4   3  -6 673705. 15805.2   2
  -3  -4   6 670597. 15501.0   1
  -4   7   6 627582. 15260.1   1
  -4  -3   6 645869. 15256.0   1
   4  -7  -7 132539. 5746.78   1
   3  -7  -7 128620. 5654.60   1
   3   4  -7 126331. 5701.94   2
   3   4  -7 134206. 5601.88   1
  -3  -4   7 138868. 5853.40   1
   4   3  -7 128608. 5724.38   2
  -4   7   7 131343. 5619.18   1
  -3   7   7 137093. 5656.23   1
  -4  -3   7 124242. 5517.48   1
   4  -7  -7 151532. 6350.62   2
   4   3  -7 129645. 5669.29   1
   3   4  -8 364.260 517.002   1
   4   3  -8-286.300 496.325   1
  -3  -4   8 109.018 491.672   1
   3   4  -8 896.232 812.088   2
  -4  -3   8 564.266 391.802   1
  -4   7   8 1164.40 654.985   1
  -3   7   8 812.401 577.171   1
   4  -7  -8 600.735 453.948   1
   3  -7  -8 1163.58 612.988   1
   4   3  -8-734.010 558.918   2
   4  -7  -8 229.264 500.919   2
   4   3  -9 102499. 5283.10   1
   4  -7  -9 113728. 5358.69   1
   3  -7  -9 111109. 5320.95   1
  -3   7   9 116680. 5362.13   1
   4   3  -9 103164. 5306.06   2
  -4   7   9 108580. 5242.33   1
   4  -7  -9 113369. 5551.80   2
   3  -7  -9 126275. 5876.62   2
  -4  -3   9 103485. 5202.30   1
   3   4  -9 113262. 5537.52   2
   3   4  -9 108436. 5269.98   1
  -3  -4   9 105239. 5272.94   1
   4  -7 -10 31976.3 2800.54   1
   3  -7 -10 32737.2 2855.78   1
  -4  -3  10 33115.6 2802.73   1
  -4   7  10 30797.9 2712.95   1
  -3   7  10 32104.6 2733.37   1
   4   3 -10 33754.6 2935.46   2
   3   4 -10 32727.2 2887.51   1
   4   3 -10 32634.7 2921.95   1
  -3  -4  10 29622.6 2748.19   1
   4  -7 -10 36350.0 3021.19   2
   3  -7 -10 37396.7 3144.40   2
   3   4 -10 31008.2 2895.80   2
  -4  -3  11 58967.5 4001.03   1
   4  -7 -11 59754.0 3985.43   1
   3  -7 -11 58730.4 3975.84   1
   4   3 -11 56949.0 4010.51   2
  -3   7  11 65313.5 4052.49   1
  -4   7  11 62813.2 4027.34   1
   4  -7 -11 62326.8 4068.83   2
  -3  -4  11 61493.4 4075.56   1
   3  -7 -11 65405.9 4123.72   2
   3   4 -11 63326.6 4232.60   2
   4   3 -11 58427.1 4042.45   1
  -3   7  12 8258.33 1475.13   1
   3   4 -12 9171.69 1645.37   1
   4   3 -12 7497.82 1511.44   1
  -3  -4  12 7656.88 1430.51   1
  -4  -3  12 7762.63 1426.30   1
   4  -7 -12 7570.49 1293.60   1
   3  -7 -12 9384.58 1638.91   1
   3   4 -12 6518.98 1380.32   2
   4   3 -12 6689.19 1367.21   2
   4  -7 -12 6336.99 1296.09   2
   3  -7 -12 8574.17 1392.39   2
  -4   7  12 7744.59 1439.30   1
   3   4 -13 3799.37 1114.87   1
   4   3 -13 5766.84 1352.53   1
  -3  -4  13 5455.47 1211.57   1
  -4  -3  13 5345.25 1236.01   1
   3  -7 -13 5886.79 1209.54   2
   4  -7 -13 6375.15 1376.97   1
   3  -7 -13 6211.35 1362.93   1
   3   4 -13 5884.04 1272.13   2
   4   3 -13 5668.39 1276.99   2
  -4   7  13 5616.73 1187.24   1
   4  -7 -13 5424.74 1125.85   2
  -3   7  13 5562.89 1277.52   1
   4  -7 -14 123388. 6142.20   1
   3  -7 -14 116190. 6013.11   1
  -4   7  14 125219. 6149.06   1
  -3   7  14 130106. 6270.14   1
   3   4 -14 121995. 6268.65   2
   4   3 -14 125426. 6283.84   2
   4  -7 -14 112804. 5959.56   2
   3  -7 -14 121552. 6081.68   2
  -3  -4  14 130191. 6277.83   1
  -4  -3  14 120079. 6130.05   1
   3   4 -14 123162. 6288.53   1
   4   3 -14 122052. 6288.04   1
   3   4 -15 7818.55 1627.56   1
   4   3 -15 9384.93 1710.43   1
  -3  -4  15 8612.36 1648.70   1
  -4  -3  15 10321.3 1769.93   1
   4  -7 -15 8112.50 1599.49   1
   3  -7 -15 9344.68 1724.37   1
   3   4 -15 8994.15 1685.14   2
   3  -7 -15 8910.14 1575.57   2
  -3   7  15 8329.45 1569.55   1
   4  -7 -15 8148.01 1644.67   2
   4   3 -15 10055.8 1805.26   2
  -4   7  15 7455.72 1526.49   1
   4  -7 -16 34972.1 3385.49   1
   3  -7 -16 35591.1 3438.94   1
  -3   7  16 40916.8 3464.38   1
  -4   7  16 42598.6 3561.04   1
   4  -7 -16 33652.7 3328.59   2
   4   3 -16 37096.2 3441.11   2
   3   4 -16 26982.7 2980.61   2
   3  -7 -16 32847.5 3214.11   2
  -3  -4  16 39023.9 3451.79   1
  -4  -3  16 41716.5 3511.59   1
   3   4 -16 37881.8 3511.31   1
   4   3 -16 37184.8 3514.74   1
   4  -7 -17 49421.0 4025.63   1
   3  -7 -17 51421.0 4179.10   1
   3   4 -17 41956.1 3785.36   2
   4   3 -17 45826.8 3950.96   2
  -4  -3  17 53826.7 4088.22   1
  -3   7  17 40833.0 3527.71   1
  -4   7  17 42419.4 3667.81   1
   3  -7 -17 45554.0 3859.23   2
  -3  -4  17 48709.7 3922.30   1
   4  -7 -17 37581.1 3605.84   2
   4   3 -17 49202.9 4040.81   1
   3  -7 -18 82833.8 5480.35   1
   4  -7 -18 91420.3 5656.23   1
  -3   7  18 76553.7 5148.74   1
  -4   7  18 87275.2 5446.82   1
  -4  -3  18 95962.9 5612.57   1
   3   4 -18 81818.6 5459.93   2
   4  -7 -18 72672.1 5184.35   2
   4   3 -18 81529.2 5376.25   2
   4   3 -18 86718.0 5540.61   1
   3  -7 -19 37.0119 608.364   1
   7  -2 -18 3226.39 951.270   2
   5  -7  18 2495.12 907.439   1
  -5   7 -18 2570.10 757.541   1
   7  -5 -18 2285.45 1023.04   2
   2  -7  17 1278.82 824.670   1
   7  -2 -17 586.610 553.845   1
   7  -5 -17-758.887 707.211   1
  -5   7 -17 1042.09 766.841   1
  -7   2  17 2301.94 891.112   1
  -7   5  17 508.772 484.841   1
  -2   7 -17 1009.27 517.450   1
   7  -2 -17 1270.49 673.715   2
   7  -5 -17 1725.24 829.776   2
   5  -7  17 368.434 380.063   1
   7  -2 -16 131809. 6765.57   1
   7  -5 -16 135151. 6808.65   1
  -7   2  16 136569. 6737.52   1
  -2   7 -16 146866. 7083.12   1
  -5   7 -16 112248. 6260.41   1
  -7   5  16 148361. 6877.03   1
   7  -2 -16 142563. 6868.73   2
   5  -7  16 132448. 6705.15   1
   7  -5 -16 136631. 6825.58   2
   2  -7  16 138599. 6776.48   1
   2  -7  15 405.591 324.317   1
   7  -2 -15 1584.71 801.061   1
  -5   7 -15-396.333 591.638   1
   7  -5 -15 756.351 541.319   1
  -7   2  15 880.347 465.350   1
  -7   5  15-2.76611 403.813   1
  -2   7 -15 817.683 616.249   1
   7  -2 -15 1358.87 660.959   2
   5  -7  15 446.967 410.335   1
   7  -5 -15-7.04187 545.683   2
   2  -7  14 1139.41 719.615   1
  -5   7 -14-93.7131 324.505   1
   7  -2 -14 711.233 422.963   1
  -2   7 -14 847.535 437.378   1
   7  -5 -14 1632.59 806.345   1
  -7   2  14 212.579 564.132   1
  -7   5  14-82.1523 353.820   1
   7  -2 -14-813.539 454.773   2
   7  -5 -14 537.484 612.862   2
   5  -7  14 790.656 592.275   1
   2  -7  13 1588.15 827.436   1
  -5   7 -13 435.680 383.795   1
   7  -2 -13-19.7720 446.211   1
   7  -5 -13 424.610 609.538   1
  -7   2  13 1186.22 857.787   1
  -2   7 -13 1234.06 619.529   1
  -7   5  13-161.843 707.010   1
   7  -2 -13 1055.30 723.503   2
   7  -5 -13 813.763 608.850   2
   5  -7  13 162.830 407.825   1
   7  -2 -12 104525. 5675.17   1
   7  -5 -12 115134. 5746.05   1
  -5   7 -12 117781. 5829.47   1
  -7   2  12 113985. 5833.72   1
  -7   5  12 111345. 5641.12   1
  -2   7 -12 112102. 5817.54   1
   5  -7  12 107260. 5571.34   1
   7  -2 -12 109834. 5588.51   2
   2  -7  12 110946. 5691.52   1
   7  -5 -12 109598. 5675.64   2
  -5   7 -11 1212.88 518.821   1
   7  -2 -11 639.499 564.498   1
   5  -7  11 975.601 686.245   1
   7  -5 -11 1779.28 828.912   1
  -2   7 -11 1357.94 572.427   1
  -7   2  11 1658.72 630.748   1
   7  -2 -11 820.448 594.076   2
  -7   5  11 1288.01 670.105   1
   7  -5 -11 1773.21 667.932   2
   2  -7  11 1790.86 770.151   1
   7  -2 -10 1152.56 593.924   1
   7  -5 -10 433.161 490.093   1
  -2   7 -10 711.119 480.470   1
   7  -2 -10 964.952 673.800   2
  -7   5  10 277.893 291.218   1
   5  -7  10 680.632 597.331   1
   7  -5 -10 1485.50 695.372   2
  -7   2  10 186.812 390.113   1
  -5   7 -10 1112.21 796.408   1
   2  -7  10 974.844 337.112   1
   7  -2  -9 5725.83 1233.15   1
  -7   2   9 5917.80 1221.59   1
   7  -5  -9 5940.06 1207.31   1
  -2   7  -9 6045.35 1247.93   1
   7  -5  -9 5609.05 1216.79   2
   7  -2  -9 6681.74 1287.55   2
  -5   7  -9 5837.72 1069.68   1
   5  -7   9 4763.71 1055.60   1
  -7   5   9 5810.43 1221.60   1
   2  -7   9 6451.21 1308.60   1
   7  -2  -8 741964. 17509.1   1
  -2   7  -8 767686. 17841.2   1
  -7   2   8 772752. 17858.7   1
  -7   5   8 728709. 17536.4   1
   5  -7   8 763299. 17519.3   1
  -5   7  -8 748945. 17638.7   1
   2  -7   8 768352. 17794.5   1
   7  -2  -8 790747. 17700.0   2
   7  -5  -8 750741. 17584.8   2
   7  -2  -7 11309.0 1616.78   1
  -2   7  -7 11997.5 1658.43   1
  -7   2   7 12842.2 1663.09   1
   7  -5  -7 11051.1 1512.60   1
   7  -5  -7 12649.8 1633.32   2
  -5   7  -7 12450.0 1688.07   1
  -7   5   7 13638.3 1734.21   1
   5  -7   7 13822.1 1714.34   1
   7  -2  -7 12790.0 1681.80   2
   2  -7   7 11185.6 1608.41   1
  -7   5   6 1136.92 631.058   1
  -5   7  -6-39.5000 337.766   1
   7  -2  -6 639.887 270.289   1
   7  -5  -6 424.072 336.482   1
  -2  -5  -6 1248.06 581.432   1
   7  -5  -6 1047.71 499.972   2
  -7   2   6 766.689 615.657   1
  -2   7  -6-313.584 286.421   1
   5  -7   6 745.269 599.626   1
   7  -2  -6 811.113 338.880   2
   2  -7   6 687.559 515.294   1
  -7   5   5 3428.90 808.401   1
   7  -2  -5 3207.51 829.987   1
  -2   7  -5 3902.89 944.456   1
   2  -7   5 2778.16 756.431   1
   2   5   5 2915.76 606.337   1
   7  -5  -5 4182.18 912.255   1
   7  -5  -5 3166.22 775.497   2
  -7   2   5 4137.65 888.138   1
   5  -7   5 3721.22 953.694   1
   7  -2  -5 4919.98 1012.87   2
  -2  -5  -5 4551.23 893.857   1
  -5   7  -5 2662.12 797.262   1
   7  -2  -4 352486. 9285.09   1
   7  -5  -4 319150. 9248.32   1
  -7   2   4 316067. 8977.38   1
  -2  -5  -4 350441. 8810.46   1
   5  -7   4 321915. 9433.20   1
   2  -7   4 310351. 9421.97   1
  -7   5   4 299296. 9154.17   1
   7  -5  -4 333825. 9424.99   2
   7  -2  -4 300846. 9070.49   2
  -2   7  -4 327076. 9637.92   1
  -5   7  -4 324757. 9563.08   1
   2   5   3 6413.01 964.811   1
  -7   5   3 5169.56 973.995   1
   7  -2  -3 5109.76 886.524   1
  -2   7  -3 4382.36 956.342   1
  -5   7  -3 4750.17 946.088   1
   7  -5  -3 5370.50 1047.58   1
  -2  -5  -3 6554.72 999.163   1
  -7   2   3 3717.39 727.590   1
   5  -7   3 3948.83 928.693   1
   5   2   3 6131.40 1073.99   2
   7  -2  -3 4941.70 943.900   2
   2  -7   3 5467.06 1029.74   1
   7  -5  -3 5261.90 976.490   2
   7  -2  -2 9553.94 1175.40   1
   5  -7   2 7809.12 1209.98   1
  -7   5   2 9931.61 1333.58   1
  -7   2   2 11169.3 1269.87   1
   2   5   2 12128.7 1328.06   1
  -5   7  -2 10191.7 1413.12   1
   7  -5  -2 8766.17 1250.63   1
   5   2   2 9176.27 1247.78   2
   7  -2  -2 10148.0 1323.21   2
  -2  -5  -2 11683.8 1305.88   1
   2  -7   2 10995.3 1492.60   1
   7  -5  -2 11465.4 1372.28   2
  -2   7  -2 7552.18 1237.09   1
   2   5   1 8699.11 1176.50   1
   7  -2  -1 7408.99 949.734   1
  -5   7  -1 8998.79 1316.21   1
  -7   2   1 8466.66 1001.51   1
  -7   5   1 7664.56 1130.18   1
   7  -5  -1 9386.82 1264.61   1
  -2  -5  -1 9119.24 1249.73   1
   7  -5  -1 8524.37 1198.04   2
   5   2   1 7245.92 1209.84   2
  -2   7  -1 7562.01 1224.08   1
   2  -7   1 8028.77 1267.62   1
   5  -7   1 8804.64 1313.67   1
   7  -2  -1 7414.38 1159.29   2
   7  -2   0 605546. 11985.2   1
   5   2   0 567650. 13293.2   2
  -5   7   0 561184. 13663.4   1
   7  -5   0 543619. 12863.5   1
  -2  -5   0 556211. 12932.0   1
  -2   7   0 553223. 13387.1   1
   5  -7   0 552249. 13568.9   1
   2  -7   0 498214. 13098.0   1
   2   5   0 579592. 12919.7   1
  -7   5   0 639273. 13453.3   1
   5   2  -1 46.7740 160.444   1
  -5  -2   1 106.366 145.060   1
  -2   7   1-67.3678 307.805   1
   7  -5   1 798.843 514.303   1
   5  -7  -1 316.879 274.040   1
   5   2  -1 817.134 503.791   2
   2  -7  -1-92.9185 341.482   1
   2   5  -1 1040.71 436.308   1
   7  -5   1-44.8142 305.543   2
   7  -2   1 311.875 261.055   2
  -7   5  -1 276.151 428.661   1
  -2  -5   1 247.687 280.526   1
  -5   7   1-619.937 652.550   1
   2   5  -2-674.133 439.875   1
  -2   7   2 1126.38 426.087   1
  -5  -2   2 318.854 348.761   1
   7  -5   2 76.5470 315.492   1
   2  -7  -2-336.168 323.274   1
   5   2  -2 459.486 374.010   2
   2   5  -2 601.288 412.496   2
  -7   5  -2-273.661 319.921   1
   7  -2   2 183.811 203.369   2
  -5   7   2 330.801 381.620   1
   5   2  -2-121.279 261.764   1
  -2  -5   2-768.688 494.461   1
   5  -7  -2 330.401 307.764   1
   7  -5   2-196.960 297.979   2
  -5  -2   3 7734.88 1059.20   1
  -5   7   3 5669.64 1075.54   1
   2   5  -3 5813.50 972.958   1
   5  -7  -3 5737.39 1066.43   1
   2  -7  -3 7678.33 1195.96   1
   2   5  -3 7893.46 1385.39   2
   7  -2   3 7353.65 987.973   2
   7  -5   3 7282.27 1054.08   1
   5   2  -3 5813.28 1072.58   2
  -2   7   3 6536.66 1162.58   1
  -7   5  -3 7353.92 1103.78   1
   7  -5   3 7170.91 986.424   2
  -2  -5   3 7714.87 1214.44   1
  -2   7   4 689688. 15371.8   1
  -7   5  -4 588176. 14262.4   1
   5  -7  -4 657865. 15340.0   1
   2  -7  -4 675755. 15323.8   1
   7  -5   4 691263. 14624.5   1
   2   5  -4 625382. 14977.7   1
   2   5  -4 654715. 15797.4   2
   5   2  -4 664101. 15477.1   2
  -5   7   4 640755. 15176.9   1
  -2  -5   4 691275. 15452.1   1
  -5  -2   4 653710. 14735.9   1
   5   2  -4 719918. 15012.2   1
   5  -7  -5 26683.6 2440.83   2
  -7   5  -5 20781.5 1985.91   1
   5  -7  -5 20066.2 2047.57   1
   2  -7  -5 19390.9 1984.97   1
   7  -5   5 25184.9 2058.02   1
   2   5  -5 19949.7 2224.32   2
   5   2  -5 20979.1 2203.43   2
  -2  -5   5 18974.4 2024.78   1
   2   5  -5 22565.8 2191.43   1
  -5   7   5 22931.3 2131.60   1
  -5  -2   5 22830.3 2073.66   1
  -2   7   5 20178.3 2008.21   1
   5   2  -5 23841.1 2114.71   1
   5   2  -6 17178.3 1856.66   1
   5  -7  -6 14801.7 1792.76   1
   2  -7  -6 15925.1 1881.55   1
  -7   5  -6 13077.2 1570.10   1
   7  -5   6 18033.2 1743.67   1
   2   5  -6 13385.4 1700.02   1
   2   5  -6 16054.0 1919.22   2
   5   2  -6 17590.9 1953.40   2
   5  -7  -6 19510.8 2189.54   2
  -2  -5   6 15242.4 1808.25   1
  -5   7   6 14195.2 1687.43   1
  -2   7   6 15345.0 1778.54   1
  -5  -2   6 15847.9 1715.72   1
  -2  -5   7 1264.22 525.875   1
   5   2  -7 2196.79 585.901   1
   2   5  -7 4029.71 1121.48   1
  -5  -2   7 1060.10 264.886   1
  -5   7   7 2023.91 635.765   1
   2   5  -7 1719.30 765.845   2
  -2   7   7 1738.51 705.356   1
   5   2  -7 2384.36 973.290   2
   5  -7  -7 1208.49 518.423   1
   2  -7  -7 1115.42 337.413   1
  -7   5  -7 1351.80 466.434   1
   7  -5   7 1748.69 638.996   1
   5  -7  -7 2131.64 702.814   2
   2   5  -8 459505. 12588.0   1
   5   2  -8 497077. 12858.1   1
   5  -7  -8 471538. 12585.4   1
   2  -7  -8 466919. 12556.7   1
   5   2  -8 455819. 12737.3   2
  -5  -2   8 463893. 12470.4   1
   7  -5   8 471380. 11761.1   1
  -7   5  -8 432500. 11704.6   1
   2   5  -8 473329. 12915.0   2
  -5   7   8 475047. 12672.2   1
  -2   7   8 507536. 12719.6   1
  -2  -5   8 475180. 12749.2   1
   5  -7  -8 501011. 12912.8   2
  -2  -5   9 6314.36 1255.47   1
  -5   7   9 5968.96 1199.09   1
  -2   7   9 8667.34 1367.05   1
  -5  -2   9 4800.01 1071.60   1
   5  -7  -9 5406.64 1214.53   1
   2  -7  -9 6901.13 1290.20   1
   2   5  -9 6704.97 1359.84   2
   2   5  -9 6877.25 1299.16   1
   5   2  -9 5645.50 1205.20   2
   5   2  -9 4774.41 1118.15   1
   5  -7  -9 7051.71 1283.79   2
   5   2 -10 30379.2 2777.45   1
   5  -7 -10 33066.9 2903.29   1
   2  -7 -10 36744.4 2951.60   1
   2   5 -10 29386.2 2771.81   1
   2  -7 -10 35218.6 3091.15   2
   2   5 -10 34023.8 2966.63   2
  -5   7  10 33813.8 2895.74   1
   5   2 -10 36500.3 3037.45   2
  -2  -5  10 32871.9 2876.13   1
   5  -7 -10 32781.5 2838.88   2
  -2   7  10 33640.1 2852.49   1
  -5  -2  10 32850.6 2908.61   1
  -5   7  11 717.185 651.799   1
  -2   7  11 1489.55 747.104   1
  -2  -5  11-503.755 780.071   1
   5   2 -11 180.830 347.304   1
   2   5 -11 411.741 529.852   1
  -5  -2  11 1213.56 605.428   1
   2   5 -11 1316.54 730.116   2
   5  -7 -11 1672.48 880.439   1
   2  -7 -11 818.941 581.414   1
   2  -7 -11 898.391 498.697   2
   5   2 -11 502.269 634.808   2
   5  -7 -11 896.615 509.087   2
   5   2 -12 101359. 5650.13   1
   5  -7 -12 106175. 5523.64   1
   2  -7 -12 106141. 5472.02   1
   2   5 -12 102485. 5475.43   1
  -5   7  12 109988. 5521.71   1
  -2   7  12 102736. 5355.99   1
   2   5 -12 97795.4 5361.35   2
   5   2 -12 98950.6 5453.67   2
  -2  -5  12 106214. 5551.80   1
   5  -7 -12 109390. 5393.56   2
   2  -7 -12 102674. 5564.22   2
  -5  -2  12 104118. 5526.65   1
   5   2 -13-246.868 384.950   1
  -2  -5  13 1045.83 491.808   1
  -2   7  13 590.598 546.584   1
  -5  -2  13 1358.01 713.099   1
   5  -7 -13 471.831 520.639   1
   2  -7 -13 1190.85 577.931   1
   2   5 -13 165.851 427.623   1
   2   5 -13 240.772 338.116   2
   5   2 -13 1283.40 799.925   2
  -5   7  13 700.669 492.254   1
   5  -7 -13 688.357 571.914   2
   2  -7 -13 625.619 486.270   2
   5   2 -14 3273.03 986.025   1
  -2  -5  14 3747.44 1135.89   1
  -5  -2  14 2635.57 866.189   1
   5  -7 -14 3766.80 1174.59   1
   2  -7 -14 3631.74 999.378   1
   2   5 -14 3756.44 1115.19   1
   2   5 -14 3493.74 1199.65   2
  -5   7  14 3813.90 1152.08   1
  -2   7  14 2247.79 952.305   1
   5  -7 -14 2233.70 888.194   2
   2  -7 -14 2005.65 841.464   2
   5   2 -14 3872.85 1154.78   2
   5   2 -15 1341.73 538.371   1
  -2  -5  15 1002.88 659.123   1
   5  -7 -15 849.621 736.482   2
  -5  -2  15 2052.82 721.136   1
   2   5 -15 592.113 476.961   1
   5  -7 -15 1999.41 921.670   1
   2  -7 -15 1189.11 701.440   1
   2   5 -15 1548.43 861.000   2
   5   2 -15 291.705 361.868   2
  -5   7  15 956.089 643.948   1
  -2   7  15 1552.24 799.072   1
   2  -7 -15 1506.94 679.400   2
   5   2 -16 174445. 7902.70   1
   2  -7 -16 182011. 8065.14   1
   5  -7 -16 188991. 8045.72   1
  -2   7  16 165699. 7627.40   1
  -5   7  16 210173. 8336.11   1
   2   5 -16 196709. 8197.03   1
   5  -7 -16 157721. 7598.05   2
   2   5 -16 176934. 7977.54   2
   5   2 -16 182930. 8045.25   2
   2  -7 -16 129725. 6927.51   2
  -2  -5  16 185957. 7935.53   1
  -5  -2  16 189919. 7984.28   1
   5   2 -17 3636.09 1116.99   1
  -2  -5  17 5311.25 1255.39   1
  -5  -2  17 3363.43 944.694   1
   5  -7 -17 3816.71 1245.17   2
   2  -7 -17 3710.02 1122.28   1
   5  -7 -17 3931.12 1101.69   1
   2   5 -17 3856.08 1033.07   1
   2   5 -17 3636.75 1168.19   2
   5   2 -17 5388.72 1292.24   2
  -5   7  17 4577.52 1218.39   1
   5  -7 -18-38.3334 433.108   1
   2   5 -18 785.360 744.019   2
  -5   7  18-747.622 671.985   1
   5   2 -18-1229.90 893.093   2
   5  -7 -18 319.542 551.234   2
   1  -7  17 5990.26 1479.92   1
   7  -1 -17 7262.42 1433.18   1
   7  -6 -17 6092.82 1366.29   1
  -7   1  17 6617.82 1380.48   1
   7  -6 -17 4784.94 1374.43   2
  -7   6  17 7053.75 1364.88   1
   7  -1 -17 5153.28 1247.54   2
  -1   7 -17 7531.35 1532.42   1
   7  -1 -16 19508.0 2532.14   1
  -7   1  16 22336.0 2677.37   1
  -6   7 -16 16763.9 2366.55   1
   7  -6 -16 21640.5 2601.32   1
   7  -6 -16 18021.6 2489.18   2
  -7   6  16 22663.3 2589.07   1
   7  -1 -16 20231.5 2494.26   2
  -1   7 -16 23030.9 2660.23   1
   1  -7  16 23693.1 2670.32   1
  -6   7 -15 8550.28 1707.46   1
   1  -7  15 8874.10 1595.30   1
   7  -1 -15 9134.57 1724.86   1
   7  -6 -15 10320.6 1779.67   1
  -7   1  15 11543.0 1820.21   1
   6  -7  15 10999.0 1789.10   1
  -7   6  15 10393.3 1789.85   1
   7  -1 -15 10324.2 1813.07   2
  -1   7 -15 9239.77 1770.95   1
   7  -6 -15 8517.95 1718.66   2
   7  -1 -14 56856.9 4228.42   1
  -6   7 -14 62612.1 4370.34   1
  -7   1  14 57754.7 4185.36   1
  -1   7 -14 57499.5 4417.07   2
   7  -6 -14 62716.5 4425.36   1
  -7   6  14 65302.8 4365.81   1
  -1   7 -14 69040.8 4600.48   1
   1  -7  14 64422.0 4410.16   1
   6  -7  14 54131.7 4099.52   1
   7  -1 -14 60848.6 4252.79   2
   7  -6 -14 54473.9 4261.47   2
  -6   7 -13 22593.2 2551.10   1
   7  -1 -13 22949.3 2728.97   1
  -7   1  13 24186.3 2693.77   1
   7  -6 -13 23588.0 2665.50   2
   7  -6 -13 22135.8 2542.92   1
  -7   6  13 22340.3 2486.75   1
  -1   7 -13 23672.9 2601.09   1
   6  -7  13 20557.0 2430.45   1
   7  -1 -13 21868.1 2483.55   2
  -1   7 -13 21325.3 2607.86   2
   1  -7  13 22861.7 2461.71   1
   7  -1 -12 16865.1 2224.24   1
  -7   1  12 14911.9 2073.52   1
   7  -6 -12 15289.8 2055.00   1
  -7   6  12 17054.2 2115.53   1
  -1   7 -12 12814.6 1957.61   2
  -1   7 -12 20032.9 2315.05   1
   1  -7  12 19377.1 2230.26   1
   7  -6 -12 16006.1 2027.61   2
   6  -7  12 15355.7 2040.68   1
   7  -1 -12 12773.9 1861.79   2
  -6   7 -12 16038.3 2039.57   1
   7  -1 -11 44122.6 3597.23   1
  -7   1  11 43427.4 3489.00   1
   7  -6 -11 38141.0 3136.37   1
  -7   6  11 42092.6 3338.91   1
  -1   7 -11 39250.5 3351.08   1
   6  -7  11 44782.6 3407.03   1
   1  -7  11 45484.0 3500.04   1
   7  -6 -11 41856.6 3356.33   2
   7  -1 -11 48556.8 3552.02   2
  -6   7 -11 51504.4 3741.17   1
   7  -1 -10 153155. 6761.27   1
  -7   1  10 159014. 6816.43   1
   7  -6 -10 151815. 6549.28   1
  -1   7 -10 151541. 6746.08   1
  -7   6  10 146889. 6524.45   1
   7  -6 -10 153942. 6525.90   2
   6  -7  10 148328. 6425.40   1
   7  -1 -10 152740. 6584.92   2
   1  -7  10 166616. 6898.55   1
  -6   7 -10 155048. 6587.63   1
   7  -1  -9 83747.7 4706.45   1
  -7   1   9 90065.8 4854.21   1
   7  -6  -9 91882.9 4830.23   1
  -1   7  -9 87299.5 4775.97   1
  -7   6   9 86214.9 4734.01   1
   7  -1  -9 80988.7 4651.68   2
   1  -7   9 84383.7 4727.06   1
  -6   7  -9 89104.4 4773.89   1
   7  -6  -9 82541.5 4659.67   2
   6  -7   9 96656.0 4884.99   1
  -7   6   8 29.1623 350.154   1
   7  -1  -8 670.290 547.685   1
  -6   7  -8 1023.65 655.663   1
  -1   7  -8 557.162 305.691   1
   7  -6  -8 586.354 525.109   1
  -1  -6  -8 521.321 235.199   1
  -7   1   8 25.5423 288.080   1
   7  -1  -8 406.889 314.661   2
   6  -7   8 358.074 363.294   1
   7  -6  -8 1143.69 625.099   2
   1  -7   8 1059.24 552.082   1
   7  -1  -7 254792. 8405.31   1
  -7   1   7 243722. 8205.62   1
  -1   7  -7 237980. 8281.68   1
   7  -6  -7 248462. 8255.76   1
  -1  -6  -7 271165. 8171.41   1
   7  -1  -7 245997. 8372.67   2
  -7   6   7 242568. 8301.20   1
  -6   7  -7 266438. 8560.26   1
   1  -7   7 260133. 8623.71   1
   6  -7   7 243086. 8210.37   1
   7  -6  -7 252694. 8378.26   2
   7  -1  -6 343530. 9722.29   1
  -1   7  -6 306626. 9630.18   1
  -7   1   6 293306. 9140.97   1
   7  -6  -6 323119. 9680.59   1
  -1  -6  -6 344994. 9449.43   1
   6  -7   6 300955. 9359.95   1
  -6   7  -6 325263. 9765.83   1
  -7   6   6 328562. 9797.78   1
   7  -1  -6 325345. 9693.50   2
   1  -7   6 318748. 9766.79   1
   7  -6  -6 342477. 9886.31   2
   1   6   6 324509. 9118.66   1
  -1   7  -5 155496. 6252.83   1
   7  -1  -5 156318. 6077.61   1
  -7   1   5 171739. 6159.70   1
   7  -6  -5 165021. 6344.71   1
  -1  -6  -5 166309. 5964.75   1
  -7   6   5 159144. 6295.24   1
  -6   7  -5 167320. 6443.60   1
   6  -7   5 127014. 5623.61   1
   1  -7   5 148674. 6153.51   1
   7  -1  -5 156076. 6222.31   2
   7  -6  -5 147090. 5989.40   2
   1   6   5 204034. 6495.51   1
   7  -1  -4 117430. 4887.79   1
   1   6   4 99516.8 4590.35   1
  -7   1   4 111886. 4769.03   1
   6   1   4 130674. 4974.14   2
   7  -6  -4 111554. 5027.13   1
  -1  -6  -4 114741. 4843.89   1
  -6   7  -4 114426. 5082.31   1
   6  -7   4 126818. 5243.77   1
   1  -7   4 111934. 5149.89   1
   7  -1  -4 108246. 4982.83   2
  -7   6   4 94895.1 4792.55   1
   7  -6  -4 121619. 5185.44   2
  -1   7  -4 105478. 5037.17   1
   1   6   3 4244.73 881.617   1
   7  -1  -3 3269.44 759.392   1
  -6   7  -3 3245.85 789.339   1
  -7   6   3 3215.79 767.469   1
  -1   7  -3 3986.22 966.164   1
   7  -6  -3 3025.47 738.155   1
  -7   1   3 3174.59 700.738   1
  -1  -6  -3 3547.01 868.648   1
   6  -7   3 4886.13 1009.97   1
   7  -1  -3 3325.46 772.146   2
   1  -7   3 4438.73 1050.93   1
   6   1   3 2871.90 660.082   2
   7  -6  -3 3234.16 773.159   2
   7  -1  -2 362057. 9328.63   1
  -7   1   2 424107. 9622.00   1
  -6   7  -2 369703. 10387.8   1
   7  -6  -2 359072. 10133.7   1
   1   6   2 373859. 10023.4   1
   6  -7   2 367962. 10381.4   1
  -1  -6  -2 375222. 10082.4   1
  -1   7  -2 365574. 10434.8   1
   6   1   2 384767. 10068.1   2
   7  -1  -2 413995. 10514.2   2
   1  -7   2 401398. 10728.1   1
   7  -6  -2 399190. 10381.6   2
  -7   6   2 368316. 10253.8   1
  -6   7  -1 1056.33 585.952   1
   6  -7   1 1023.17 685.684   1
   1  -7   1 628.059 423.730   1
  -7   6   1 692.530 454.728   1
   1   6   1 979.275 441.198   1
   7  -6  -1 268.696 341.818   1
   6   1   1 649.003 396.780   2
  -1  -6  -1 477.168 267.436   1
   7  -1  -1 1241.99 637.140   2
  -1   7  -1 664.773 490.279   1
   7  -6  -1 1039.87 506.207   2
  -6   7   0 56105.6 3473.73   1
   7  -6   0 51811.1 3175.26   1
   6  -7   0 56683.9 3390.89   1
  -1   7   0 49715.8 3197.51   1
   7  -1   0 57562.0 3201.86   2
   1  -7   0 59145.3 3514.23   1
  -1  -6   0 53974.8 3291.62   1
   6   1   0 56987.8 3290.38   2
   1   6   0 50390.3 3091.13   1
   7  -6   0 59212.9 3259.83   2
  -7   6   0 53771.9 3302.59   1
  -7   6  -1 247196. 7862.82   1
  -1  -6   1 211683. 7424.14   1
  -6   7   1 244540. 7959.00   1
  -1   7   1 251746. 7938.98   1
   7  -6   1 241193. 7544.10   1
   6  -7  -1 256780. 7946.88   1
   1  -7  -1 253981. 8013.57   1
   7  -1   1 249099. 7658.59   2
   6   1  -1 268059. 8057.11   2
   1   6  -1 266949. 7927.05   1
   7  -6   1 254469. 7527.83   2
   6  -7  -1 278094. 8638.35   2
  -1  -6   2 181375. 6546.76   1
  -6   7   2 172312. 6490.31   1
   6   1  -2 184357. 6719.31   2
  -7   6  -2 165707. 6267.05   1
  -6  -1   2 189884. 5741.74   1
  -1   7   2 193767. 6704.20   1
   6  -7  -2 178650. 6579.68   1
   7  -6   2 174820. 6298.02   1
   1  -7  -2 174316. 6543.15   1
   7  -1   2 188017. 6112.00   2
   7  -6   2 199762. 6334.04   2
   1   6  -2 177554. 6425.94   1
   6   1  -3 301997. 8104.24   1
   1   6  -3 266206. 8487.55   1
  -1   7   3 270255. 8562.73   1
  -7   6  -3 318549. 9081.37   1
  -6   7   3 277369. 8706.56   1
   6   1  -3 280819. 8778.93   2
   6  -7  -3 305813. 9069.28   1
   7  -6   3 298792. 8584.06   1
   1  -7  -3 290869. 8779.56   1
  -1  -6   3 277021. 8657.09   1
   6  -7  -3 370685. 9980.20   2
   7  -6   3 249614. 7779.04   2
  -6  -1   3 313595. 8196.60   1
   6   1  -4 10728.6 1391.62   1
   1   6  -4 10729.2 1500.74   1
  -7   6  -4 10864.9 1465.61   1
  -6   7   4 9667.49 1404.84   1
   7  -6   4 13344.7 1541.62   1
   6  -7  -4 10189.3 1449.49   1
   1   6  -4 12993.4 1792.84   2
  -6  -1   4 11455.4 1437.81   1
   1  -7  -4 11737.0 1459.64   1
   6   1  -4 11354.8 1495.06   2
  -1   7   4 10583.5 1460.91   1
   7  -6   4 10964.9 1283.84   2
  -1  -6   4 9273.89 1468.65   1
   6  -7  -4 10926.9 1444.47   2
   6   1  -5 122074. 5122.61   1
  -1   7   5 116972. 5205.13   1
   1   6  -5 123732. 5476.41   1
   6  -7  -5 112027. 5272.63   1
  -7   6  -5 135205. 5482.16   1
   1  -7  -5 139213. 5605.35   1
   7  -6   5 142647. 5495.19   1
   6   1  -5 127653. 5581.73   2
  -1  -6   5 125624. 5554.71   1
   1   6  -5 115154. 5521.22   2
  -6   7   5 124638. 5419.63   1
   6  -7  -5 121698. 5458.48   2
  -6  -1   5 115068. 5034.42   1
  -6  -1   6 443969. 11492.4   1
   6   1  -6 436756. 11487.1   1
   6  -7  -6 440411. 11813.9   1
   1  -7  -6 448548. 11757.5   1
  -7   6  -6 422212. 11248.0   1
   1   6  -6 443438. 11837.8   1
   1   6  -6 439045. 12343.2   2
   7  -6   6 472892. 11408.5   1
   6   1  -6 399490. 11444.6   2
  -1  -6   6 406666. 11562.0   1
  -6   7   6 395157. 11381.1   1
   6  -7  -6 438953. 11801.5   2
  -1   7   6 360493. 10828.0   1
  -6  -1   7 89465.7 4588.00   1
   6   1  -7 98833.6 4834.34   1
   6   1  -7 78322.0 4540.27   2
  -1  -6   7 83711.6 4650.06   1
   6  -7  -7 80740.1 4553.83   1
   1  -7  -7 98770.1 4846.44   1
  -7   6  -7 98210.4 4707.08   1
   1   6  -7 94942.9 4923.71   1
   7  -6   7 89327.5 4364.85   1
   1   6  -7 92099.1 5022.07   2
  -6   7   7 86813.5 4602.20   1
  -1   7   7 82706.5 4378.84   1
   6  -7  -7 95023.6 4744.16   2
  -6  -1   8 120922. 5487.51   1
   6   1  -8 111020. 5329.31   1
  -1   7   8 117248. 5314.02   1
   6  -7  -8 114860. 5356.07   1
   1  -7  -8 110950. 5326.62   1
   1   6  -8 113298. 5611.01   2
   7  -6   8 116309. 5193.40   1
  -6   7   8 113275. 5375.42   1
  -7   6  -8 131173. 5608.11   1
   6   1  -8 111264. 5418.24   2
   1   6  -8 105311. 5370.74   1
  -1  -6   8 119622. 5613.19   1
   6  -7  -8 118994. 5486.17   2
   6   1  -9 34300.1 2988.40   2
  -6  -1   9 33956.3 2881.60   1
   6   1  -9 36269.6 3061.79   1
   6  -7  -9 33565.7 2965.36   1
   1   6  -9 30855.4 2797.07   1
   1  -7  -9 36240.3 2950.52   1
   7  -6   9 38149.9 2885.32   1
   1   6  -9 32142.5 2880.79   2
  -6   7   9 31453.3 2829.52   1
  -7   6  -9 34902.4 2884.48   1
  -1   7   9 35489.7 2917.60   1
   6  -7  -9 36546.0 2963.77   2
  -1  -6   9 33602.9 2962.69   1
  -6  -1  10 120677. 5862.93   1
   6   1 -10 122997. 6014.83   1
   1   6 -10 109114. 5772.38   2
   6  -7 -10 115036. 5706.49   1
   1  -7 -10 135710. 5992.31   1
  -1   7  10 143398. 6171.53   1
  -6   7  10 134196. 6050.05   1
   7  -6  10 128348. 5726.83   1
  -7   6 -10 111119. 5440.92   1
   6   1 -10 118901. 5787.43   2
  -1  -6  10 129281. 6023.49   1
   1   6 -10 124372. 5990.02   1
   6  -7 -10 132924. 5982.49   2
  -1  -6  11 7151.98 1407.83   1
  -1   7  11 9985.92 1558.55   1
   6   1 -11 8141.13 1505.63   1
   1   6 -11 9600.11 1662.63   1
  -6  -1  11 10166.5 1620.45   1
  -7   6 -11 8335.82 1442.02   1
   6  -7 -11 7735.78 1484.04   1
   1  -7 -11 9485.83 1584.16   1
   1   6 -11 7282.60 1456.14   2
   6   1 -11 9365.44 1647.28   2
   6  -7 -11 9068.95 1572.72   2
   1  -7 -11 3659.70 915.531   2
  -6   7  11 8519.05 1487.41   1
  -6  -1  12 21259.5 2480.37   1
   6   1 -12 19689.5 2349.10   1
   6  -7 -12 18101.5 2229.08   1
   1  -7 -12 24263.8 2540.09   1
   1   6 -12 19463.0 2361.24   2
  -6   7  12 22367.7 2456.45   1
  -1   7  12 22031.0 2428.19   1
   6   1 -12 21812.7 2462.72   2
  -1  -6  12 21446.0 2363.85   1
   6  -7 -12 23431.4 2472.94   2
   1   6 -12 20775.9 2424.79   1
   1   6 -13 14624.3 2065.71   1
   6   1 -13 14525.2 2147.49   1
   1   6 -13 14966.3 2155.79   2
   6  -7 -13 15241.8 2048.96   1
   1  -7 -13 14838.1 2036.45   1
  -6  -1  13 12525.1 1901.59   1
  -6   7  13 15529.9 2030.99   1
  -1   7  13 17417.9 2210.78   1
   6   1 -13 16830.2 2121.66   2
  -1  -6  13 13140.6 1994.14   1
   6  -7 -13 12904.4 1914.14   2
   1  -7 -13 8488.64 1522.66   2
  -6  -1  14 76492.3 4832.63   1
   6   1 -14 62943.2 4602.79   1
   1   6 -14 89445.9 5186.82   1
   6  -7 -14 79035.6 4844.82   1
   1  -7 -14 73489.8 4789.18   1
   1   6 -14 73422.3 4904.70   2
  -6   7  14 87985.6 5105.13   1
   6   1 -14 79471.7 4902.08   2
  -1  -6  14 77454.8 4884.44   1
   6  -7 -14 73159.3 4821.96   2
  -6  -1  15 43238.1 3672.91   1
   6   1 -15 39348.2 3583.37   1
   1   6 -15 46465.8 3768.34   1
   6  -7 -15 44804.2 3757.38   1
  -6   7  15 47488.4 3780.26   1
   1   6 -15 34954.7 3417.93   2
   6  -7 -15 44405.4 3702.35   2
   6   1 -15 37564.9 3424.16   2
  -1  -6  15 44523.6 3635.65   1
  -1  -6  16 1841.32 841.798   1
   6   1 -16 1022.20 551.038   1
  -6  -1  16 1644.64 786.170   1
   6  -7 -16 1206.41 558.411   1
   6   1 -16 1529.53 746.376   2
   1   6 -16-33.7800 517.316   1
   1   6 -16 1237.00 834.834   2
  -6   7  16 1377.10 666.674   1
   6  -7 -16 898.829 913.099   2
   6   1 -17 44648.0 3925.28   1
   1   6 -17 55251.5 4231.08   1
   6  -7 -17 47895.3 3953.65   1
  -6   7  17 45268.0 3834.61   1
   1   6 -17 37383.4 3690.57   2
   6   1 -17 44600.4 3848.44   2
   6  -7 -17 44574.0 3893.11   2
  -1  -6  17 48480.1 3912.84   1
  -6  -1  17 45161.1 3780.40   1
   0   7   0 331.880 410.170   1
   7  -7   0 567.724 371.116   1
   7   0   0-206.781 238.271   2
  -7   7   0 258.556 563.596   1
   0  -7   0 243.735 281.362   1
   7  -7   0 1067.91 468.599   2
   7  -7   1 1399.88 528.460   1
   0   7   1 3024.63 793.838   1
   7  -7  -1 2558.44 766.715   1
   7   0  -1 2560.52 739.116   2
   7   0   1 2725.53 787.294   2
   0  -7  -1 4063.40 936.094   1
   0  -7   1 1478.30 506.976   1
  -7   7  -1 1971.06 794.268   1
   0   7  -1 2781.63 672.502   1
   7  -7  -1 2991.65 818.056   2
   7  -7   1 2765.37 755.094   2
  -7   7   1 3285.58 853.548   1
  -7   7  -2 202643. 7210.91   1
   0   7   2 174625. 6631.25   1
   7  -7  -2 170956. 6576.76   1
   0  -7   2 194707. 7110.78   1
   7  -7   2 165458. 6467.93   1
   0  -7  -2 207709. 7177.15   1
   7   0   2 210218. 6773.25   2
   7   0  -2 194993. 6940.45   2
   0   7  -2 176357. 6680.70   1
   7  -7  -2 201206. 7022.14   2
   7  -7   2 201355. 6992.61   2
  -7   7   2 178685. 6731.81   1
   0   7   3 341670. 9557.16   1
  -7   7  -3 312538. 9287.31   1
   7  -7  -3 260811. 8761.91   1
   0  -7  -3 285783. 8941.00   1
   7  -7   3 309348. 9206.83   1
   0  -7   3 307472. 9329.64   1
   7   0  -3 297077. 9055.32   2
   0   7  -3 285758. 9069.46   1
  -7   7   3 303683. 9180.78   1
   7  -7  -3 312611. 9260.32   2
   7  -7   3 254305. 8468.96   2
  -7   0   4 120632. 4900.59   1
   0   7   4 123318. 5334.24   1
   7  -7  -4 116523. 5284.37   1
  -7   7  -4 112911. 5189.41   1
   0  -7  -4 122281. 5342.41   1
   7  -7   4 114855. 5182.24   1
   0  -7   4 106482. 5136.75   1
   7   0  -4 105992. 5043.36   2
   7  -7  -4 105673. 5044.37   2
  -7   7   4 106620. 5143.25   1
   7  -7   4 90384.3 4716.25   2
   0   7  -4 116290. 5377.62   1
   0   7   5 133750. 5771.11   1
   7   0  -5 159039. 6037.67   1
  -7   0   5 157667. 5998.17   1
   0   7  -5 135869. 6004.58   1
   7  -7  -5 154965. 6327.69   1
  -7   7  -5 147181. 6131.92   1
   0  -7  -5 155062. 6163.29   1
   7  -7   5 168694. 6372.70   1
   0  -7   5 162998. 6508.31   1
  -7   7   5 147882. 6221.68   1
   7  -7  -5 169466. 6373.00   2
   7   0  -5 148776. 6194.86   2
   7   0  -6 273631. 8700.49   1
  -7   0   6 296586. 9000.08   1
   0   7  -6 266758. 8971.79   1
   7  -7  -6 254833. 8697.59   1
   0  -7  -6 296761. 9056.03   1
  -7   7  -6 256021. 8666.72   1
   0   7   6 315175. 9085.61   1
   7  -7   6 266800. 8584.81   1
   7   0  -6 279436. 9060.36   2
   0  -7   6 258574. 8828.91   1
  -7   7   6 287620. 9133.24   1
   7  -7  -6 288854. 9016.72   2
   7   0  -7 22943.2 2382.28   1
  -7   0   7 26004.0 2479.86   1
   0   7  -7 21868.3 2397.03   1
   7  -7  -7 27433.2 2572.05   1
   0  -7  -7 26569.2 2407.43   1
  -7   7  -7 28061.7 2598.94   1
   7  -7   7 26083.1 2368.48   1
  -7   7   7 23486.4 2320.63   1
   7   0  -7 22741.9 2305.63   2
   0  -7   7 24209.0 2451.24   1
   0   7   7 26552.2 2401.43   1
   7  -7  -7 27100.8 2531.35   2
   7   0  -8 25264.5 2450.31   1
  -7   0   8 23360.9 2389.91   1
   0   7   8 21444.8 2236.62   1
  -7   7   8 19375.5 2189.70   1
   7  -7  -8 19643.3 2180.52   1
   0  -7  -8 21217.3 2196.89   1
   0   7  -8 24212.5 2452.97   1
   7  -7   8 22109.9 2286.80   1
  -7   7  -8 23125.7 2323.76   1
   7   0  -8 20085.7 2359.52   2
   7  -7  -8 20683.5 2283.14   2
   0  -7   8 22275.8 2408.67   1
   7   0  -9 66345.9 4318.13   1
  -7   0   9 73749.4 4483.12   1
   7  -7  -9 64447.3 4123.67   1
   0  -7  -9 84675.7 4599.83   1
   0  -7   9 75525.7 4433.16   1
   7  -7   9 74592.8 4370.59   1
   0   7  -9 67858.6 4398.73   1
   0   7   9 67458.5 4100.95   1
  -7   7   9 67164.3 4268.36   1
   0   7  -9 70725.5 4654.87   2
  -7   7  -9 69511.5 4296.45   1
   7  -7  -9 71848.5 4433.32   2
   7   0  -9 76794.6 4430.50   2
   7   0 -10 124359. 6116.53   1
  -7   0  10 115331. 5815.67   1
   0   7 -10 107948. 5870.01   2
   7  -7 -10 118958. 5826.69   1
   0  -7 -10 132621. 6038.72   1
   7  -7 -10 131002. 6038.92   2
  -7   7 -10 141235. 6251.40   1
   0   7 -10 122049. 6109.01   1
  -7   7  10 125933. 5910.20   1
   7  -7  10 134646. 6123.44   1
   7   0 -10 122428. 5949.12   2
   0  -7  10 119496. 5992.19   1
   7   0 -11 20018.2 2425.58   1
  -7   0  11 23334.7 2501.66   1
   7  -7 -11 18883.9 2326.13   1
  -7   7  11 26624.5 2611.92   1
   7  -7  11 21683.2 2364.08   1
   0   7 -11 22983.6 2523.90   1
   0   7 -11 23009.4 2685.46   2
   7  -7 -11 19874.8 2301.50   2
   7   0 -11 19802.3 2381.06   2
   0  -7  11 22148.0 2427.48   1
  -7   7 -11 22044.8 2387.55   1
   0  -7  12 10026.5 1645.63   1
   7   0 -12 7125.75 1529.02   1
   0   7 -12 9670.59 1858.85   2
   7  -7 -12 9999.58 1581.42   1
  -7   0  12 7143.41 1420.30   1
  -7   7 -12 11458.7 1816.46   1
   0   7 -12 6963.73 1336.64   1
   7   0 -12 7820.45 1495.43   2
   7  -7  12 8962.01 1543.21   1
  -7   7  12 9999.27 1649.78   1
   7  -7 -12 9884.76 1697.47   2
   0  -7  13 9892.68 1798.30   1
   7   0 -13 10600.7 1795.20   1
   7  -7 -13 12903.3 1977.30   1
  -7   0  13 10936.9 1890.90   1
   0   7 -13 12944.2 1957.55   1
  -7   7  13 11389.6 1837.43   1
   7   0 -13 10955.8 1719.80   2
   7  -7 -13 12015.1 1973.82   2
   0   7 -13 10157.1 1745.04   2
   7   0 -14 65992.0 4631.97   1
  -7   0  14 73820.2 4862.07   1
   7  -7 -14 82306.0 5064.28   1
   7   0 -14 78821.9 4860.91   2
  -7   7  14 86679.8 5105.03   1
   0   7 -14 62580.9 4650.34   2
   0   7 -14 89459.4 5257.98   1
   0  -7  14 81672.6 5064.32   1
   7  -7 -14 70909.0 4863.63   2
   7   0 -15 28380.4 2995.57   1
  -7   0  15 27269.5 2947.33   1
   7  -7 -15 29433.4 3035.26   1
  -7   7  15 30849.1 3046.77   1
   7   0 -15 31467.6 3114.48   2
   0   7 -15 27916.5 3012.63   1
   0  -7  15 28335.3 2942.52   1
   7  -7 -15 23123.5 2924.68   2
   0   7 -15 24718.6 2868.67   2
   0  -7  16 11723.3 1818.67   1
   7   0 -16 8920.20 1688.11   1
   7  -7 -16 10331.5 1864.09   1
  -7   0  16 8190.92 1601.62   1
   0   7 -16 7085.88 1619.06   2
   7   0 -16 10921.9 1776.33   2
  -7   7  16 11568.7 1868.62   1
   7  -7 -16 8723.08 1702.75   2
   0   7 -16 9789.44 1668.64   1
  -7   0  17 18948.4 2519.24   1
   7   0 -17 17429.4 2381.42   1
  -4   8 -17 1396.54 864.410   1
   4  -8  17-32.0075 461.817   1
   8  -4 -16 161628. 7465.69   1
  -8   4  16 144493. 7033.40   1
  -4   8 -16 154029. 7305.90   1
   4  -8  16 145750. 7147.84   1
   8  -4 -16 140000. 6812.01   2
  -4   8 -15-631.280 637.467   1
   8  -4 -15-1095.00 577.454   1
  -8   4  15 664.536 756.206   1
   8  -4 -15 749.197 672.885   2
   4  -8  15-89.9557 330.929   1
  -4   8 -14 5516.16 1259.08   1
   8  -4 -14 6793.13 1397.12   1
  -8   4  14 4541.14 1265.56   1
   8  -4 -14 4365.86 1168.73   2
   4  -8  14 4877.85 1272.43   1
  -4   8 -13-308.026 580.059   1
   8  -4 -13 892.138 632.838   1
  -8   4  13 229.243 599.233   1
   8  -4 -13-382.462 552.042   2
   4  -8  13 540.765 324.039   1
   4  -8  12 194188. 7872.18   1
   8  -4 -12 198441. 8156.80   1
  -4   8 -12 208590. 8113.26   1
  -8   4  12 180633. 7722.27   1
   8  -4 -12 198871. 7908.20   2
  -4   8 -11 498.100 584.882   1
   8  -4 -11 180.375 476.708   1
  -8   4  11-155.152 325.421   1
   8  -4 -11 392.270 332.970   2
   4  -8  11 151.452 424.735   1
   8  -4 -10 153.185 363.724   1
  -8   4  10 626.558 552.608   1
   8  -4 -10-200.427 345.490   2
   4  -8  10-43.0637 295.594   1
  -4   8 -10 673.193 416.795   1
   8  -4  -9 193.214 448.707   1
  -8   4   9-27.9024 423.030   1
  -4   8  -9-37.3449 327.215   1
   8  -4  -9-240.587 450.692   2
   4  -8   9-646.895 478.826   1
  -8   4   8 333586. 10236.3   1
   4  -8   8 334984. 10224.4   1
   8  -4  -8 331218. 10244.3   2
  -4   8  -8 331856. 10289.4   1
   8  -4  -7 890.363 547.992   1
  -4   8  -7 870.166 603.872   1
  -8   4   7-325.362 359.864   1
   4  -8   7 1140.59 732.296   1
   8  -4  -7 191.787 424.293   2
   8  -4  -6 59681.8 3727.78   1
  -8   4   6 70960.0 4006.70   1
   4  -8   6 61609.4 3889.98   1
   8  -4  -6 53556.5 3681.18   2
  -4   8  -6 59639.7 3839.04   1
  -4   8  -5-499.212 581.348   1
   8  -4  -5 295.991 307.092   2
   8  -4  -5 276.932 344.397   1
   4  -8   5 151.648 315.841   1
  -8   4   5-19.2893 357.837   1
   4  -8   4 288754. 9234.64   1
  -4   8  -4 281396. 9131.43   1
   8  -4  -4 273515. 8976.73   2
   8  -4  -3-92.2007 332.200   1
  -4   8  -3 324.080 432.719   1
   4  -8   3-53.0178 323.341   1
   8  -4  -3-130.342 490.374   2
  -8   4   3 524.172 606.490   1
   8  -4  -2 112217. 4723.69   1
  -4   8  -2 105801. 5016.92   1
  -8   4   2 105593. 4691.31   1
   4  -8   2 108419. 5053.60   1
   8  -4  -2 121668. 5149.80   2
  -8   4   1-313.684 259.064   1
  -4   8  -1 169.912 496.107   1
   8  -4  -1-165.579 410.212   1
   4   4   1 23.0702 348.495   2
   4  -8   1 380.880 507.156   1
   8  -4  -1 139.828 240.508   2
  -4   8   0 762616. 17758.9   1
   4  -8   0 760258. 17733.7   1
   4   4   0 810689. 18287.8   2
  -4   8   1 599.120 450.249   1
  -8   4  -1-165.091 296.934   1
   8  -4   1 413.620 361.285   1
   4   4  -1-131.324 421.045   2
   4  -8  -1-178.755 337.987   1
   8  -4   1-120.502 314.459   2
  -4  -4   1 44.3976 222.715   1
   4   4  -1 533.744 455.430   1
  -4   8   2 23888.9 2263.67   1
   4   4  -2 24134.0 1998.49   1
  -4  -4   2 25188.3 2115.86   1
   4  -8  -2 21218.1 2121.65   1
   4   4  -2 20111.1 2067.14   2
   8  -4   2 21346.0 1888.33   2
  -4  -4   3-213.399 275.736   1
   4   4  -3 325.891 500.870   2
   4  -8  -3 184.275 322.226   1
  -4   8   3 288.123 323.554   1
   4   4  -3 9.24045 272.244   1
  -4   8   4 467891. 12214.5   1
   4   4  -4 438918. 12289.4   2
   4  -8  -4 432815. 11987.4   1
   4   4  -4 491653. 12050.5   1
  -4  -4   4 461794. 11964.7   1
   4  -8  -5 743.134 655.484   1
  -4  -4   5-355.891 323.908   1
   4   4  -5-177.534 318.256   1
  -4   8   5-652.505 361.813   1
   4   4  -5-85.5602 411.136   2
  -4  -4   6 7585.31 1257.44   1
  -4   8   6 8761.93 1448.47   1
   4  -8  -6 8274.75 1466.16   1
   4   4  -6 5236.47 1214.12   2
   4   4  -6 11443.2 1601.74   1
  -4  -4   7 195.005 467.973   1
  -4   8   7-544.395 508.665   1
   4  -8  -7-447.072 555.457   1
   4   4  -7 238.692 397.332   2
   4   4  -7 644.044 485.693   1
   4  -8  -8 165593. 7003.69   1
   4   4  -8 189569. 7295.62   1
   4   4  -8 178818. 7285.26   2
   4  -8  -8 194071. 7906.14   2
  -4   8   8 187652. 7270.35   1
  -4  -4   8 188945. 7332.15   1
  -4  -4   9 371.492 401.677   1
  -4   8   9 34.5454 342.323   1
   4  -8  -9 170.250 511.318   1
   4   4  -9 957.690 550.566   2
   4   4  -9-34.3621 370.830   1
   4  -8  -9 107.776 485.755   2
   4   4 -10 1801.21 712.592   1
  -4  -4  10 1772.32 557.696   1
  -4   8  10 1561.39 663.982   1
   4  -8 -10 2461.14 834.417   1
   4   4 -10 2977.60 962.588   2
   4  -8 -10 3500.68 1023.77   2
  -4   8  11 59.9646 336.742   1
  -4  -4  11-482.404 728.452   1
   4  -8 -11 801.693 717.081   1
   4   4 -11 752.901 729.988   2
   4   4 -11-593.513 399.174   1
   4  -8 -11-373.623 476.301   2
   4  -8 -12 233421. 8797.56   1
   4   4 -12 227190. 8774.29   1
  -4   8  12 247096. 8801.90   1
   4   4 -12 223091. 8731.27   2
   4  -8 -12 228226. 8612.15   2
  -4  -4  12 245075. 9077.15   1
  -4  -4  13-541.612 580.359   1
   4  -8 -13 646.548 523.590   1
   4   4 -13 614.571 716.640   2
   4  -8 -13-1067.56 468.152   2
  -4   8  13-193.386 336.465   1
  -4  -4  14 669.146 639.754   1
   4  -8 -14 498.243 538.187   1
   4   4 -14-542.724 502.263   2
  -4   8  14 398.757 552.590   1
   4  -8 -14 361.745 389.191   2
  -4  -4  15-33.1285 421.303   1
   4  -8 -15 61.3332 343.084   1
   4   4 -15 609.844 611.611   2
  -4   8  15 314.080 397.032   1
   4  -8 -15-318.978 494.862   2
   4  -8 -16 142035. 7024.31   1
  -4   8  16 133458. 6745.53   1
   4   4 -16 153892. 7272.31   1
   4   4 -16 131717. 6720.05   2
  -4  -4  16 144269. 6951.35   1
  -4  -4  17-580.258 662.102   1
   4  -8 -17-161.301 413.545   1
   4   4 -17-284.077 445.544   2
  -4   8  17 761.969 627.401   1
   4  -8 -17-544.203 374.441   2
  -5   8 -17 21826.0 2658.28   1
   5  -8  17 23898.6 2779.69   1
   8  -3 -16 48884.2 3987.72   1
   8  -5 -16 44013.6 3807.38   1
  -8   3  16 43634.1 3689.83   1
  -5   8 -16 38613.9 3554.13   1
  -8   5  16 48726.1 3973.21   1
  -3   8 -16 50727.5 4022.92   1
   3  -8  16 50320.0 4027.71   1
   5  -8  16 36687.4 3513.07   1
   8  -5 -16 46633.3 3823.64   2
   8  -3 -16 47435.4 3783.56   2
   8  -3 -15 59421.9 4480.97   1
   8  -5 -15 61910.4 4485.70   1
  -5   8 -15 49648.8 4000.74   1
  -8   3  15 61655.2 4309.03   1
  -8   5  15 61724.6 4356.70   1
  -3   8 -15 63107.8 4528.80   1
   5  -8  15 57726.0 4297.32   1
   8  -3 -15 62208.8 4333.62   2
   3  -8  15 65771.3 4556.72   1
   8  -5 -15 60960.9 4371.29   2
   8  -3 -14 65170.5 4629.26   1
  -5   8 -14 71368.0 4726.70   1
   8  -5 -14 79218.4 5080.03   1
  -8   3  14 71823.1 4794.62   1
  -3   8 -14 72315.8 4732.66   1
  -8   5  14 73620.0 4830.80   1
   5  -8  14 56243.9 4293.93   1
   8  -3 -14 74190.4 4739.46   2
   8  -5 -14 76814.3 4909.09   2
   3  -8  14 83071.6 5003.49   1
   8  -3 -13 5915.85 1380.35   1
   8  -5 -13 3841.69 1117.95   1
  -3   8 -13 3522.72 942.191   1
  -8   3  13 4844.31 1110.30   1
  -8   5  13 6074.67 1341.63   1
   8  -3 -13 3982.42 1104.73   2
   8  -5 -13 3866.31 1199.80   2
   5  -8  13 4406.81 1117.78   1
   3  -8  13 5415.34 1248.68   1
  -5   8 -13 4712.32 1185.76   1
  -3   8 -12 1757.95 727.996   1
   8  -3 -12-84.1761 425.747   1
   8  -5 -12 689.001 457.988   1
  -8   5  12 455.060 493.801   1
  -8   3  12 450.335 459.966   1
   3  -8  12 604.314 365.968   1
   8  -3 -12 225.019 379.741   2
   8  -5 -12-364.006 656.701   2
   5  -8  12 657.387 565.872   1
  -5   8 -12 258.773 337.463   1
  -3   8 -11 9802.25 1536.18   1
   8  -3 -11 10730.0 1788.63   1
   8  -5 -11 8600.46 1563.70   1
  -8   5  11 11194.4 1721.81   1
   8  -3 -11 11413.4 1783.31   2
  -5   8 -11 11935.7 1804.47   1
   8  -5 -11 10979.1 1772.52   2
   5  -8  11 8151.87 1512.31   1
   3  -8  11 9368.98 1559.06   1
  -8   3  11 12830.8 1866.07   1
   8  -3 -10 110775. 5706.34   1
  -3   8 -10 127067. 6041.37   1
   8  -5 -10 109851. 5710.20   1
  -8   3  10 112087. 5808.35   1
  -8   5  10 121568. 5915.38   1
   5  -8  10 122703. 5910.46   1
   3  -8  10 130713. 6105.38   1
   8  -3 -10 128070. 5958.23   2
   8  -5 -10 124125. 5940.12   2
  -5   8 -10 114628. 5786.13   1
  -3   8  -9 198263. 7650.18   1
   8  -3  -9 201747. 7767.07   1
   8  -5  -9 185415. 7396.71   1
  -8   3   9 200656. 7744.76   1
  -8   5   9 202827. 7729.59   1
   5  -8   9 192060. 7518.99   1
   3  -8   9 197714. 7569.71   1
   8  -3  -9 178375. 7212.27   2
   8  -5  -9 182315. 7374.30   2
  -5   8  -9 179734. 7340.42   1
  -3   8  -8 38776.3 3141.41   1
   8  -3  -8 41715.4 3291.39   1
   8  -5  -8 39164.4 3107.14   1
   8  -3  -8 35303.7 3026.46   2
  -8   3   8 42263.8 3185.47   1
  -8   5   8 38356.4 3065.30   1
   5  -8   8 38573.0 3119.20   1
   3  -8   8 36104.4 3057.61   1
   8  -5  -8 39251.9 3198.98   2
  -5   8  -8 39797.9 3137.66   1
   8  -3  -7 56890.5 3762.93   1
   8  -5  -7 50618.0 3539.26   1
  -8   3   7 53695.2 3571.39   1
  -8   5   7 58687.6 3791.32   1
   3  -8   7 59007.3 3785.94   1
   8  -3  -7 60481.4 3779.88   2
  -5   8  -7 51246.9 3598.99   1
   8  -5  -7 57503.5 3735.21   2
   5  -8   7 52757.5 3639.28   1
  -3   8  -7 59777.2 3823.82   1
   8  -3  -6 322721. 9920.34   1
   8  -5  -6 326310. 9839.31   1
  -8   3   6 348103. 10164.9   1
  -8   5   6 340604. 10157.8   1
   3  -8   6 329714. 10055.3   1
   5  -8   6 318477. 9947.31   1
  -5   8  -6 324115. 10052.2   1
   8  -5  -6 345973. 10200.6   2
  -3   8  -6 349997. 10364.8   1
   8  -3  -6 297172. 9802.99   2
  -8   5   5 705.420 413.893   1
   8  -3  -5 1309.39 600.790   1
  -3   8  -5 1286.96 581.580   1
   8  -5  -5 652.907 245.417   1
  -8   3   5 137.611 424.871   1
   5  -8   5 1931.89 784.392   1
   3  -8   5 1279.84 581.970   1
   8  -3  -5 349.001 270.405   2
  -5   8  -5 901.532 354.465   1
   8  -5  -5 302.590 282.730   2
   8  -3  -4 65098.7 3670.48   1
   8  -5  -4 67131.7 3815.81   1
  -8   3   4 53174.6 3385.33   1
  -5   8  -4 62506.8 3816.82   1
   5  -8   4 64173.5 3855.28   1
   8  -5  -4 64718.6 3872.06   2
  -8   5   4 65322.3 3829.67   1
   3  -8   4 57093.4 3723.55   1
  -3   8  -4 61212.2 3851.98   1
   8  -3  -4 62442.5 3722.35   2
   8  -3  -3 161081. 5869.33   1
   8  -5  -3 157768. 5948.26   1
  -8   3   3 162397. 5926.62   1
  -5   8  -3 148188. 6078.37   1
   5  -8   3 139737. 5949.40   1
  -8   5   3 141850. 5776.95   1
  -3   8  -3 151109. 6206.42   1
   3  -8   3 140605. 6069.24   1
   8  -3  -3 161807. 6164.20   2
   8  -5  -3 153769. 6047.65   2
   8  -3  -2 139211. 5304.28   1
   8  -5  -2 152691. 5738.29   1
  -8   3   2 144411. 5408.74   1
  -5   8  -2 134733. 5834.26   1
  -3  -5  -2 148427. 5319.45   1
   5  -8   2 137977. 5840.25   1
  -3   8  -2 141993. 5922.20   1
   3  -8   2 143318. 5942.58   1
   5   3   2 152131. 6159.67   2
  -8   5   2 135111. 5507.85   1
   8  -3  -2 128632. 5448.54   2
   8  -5  -2 148216. 5859.86   2
   8  -5  -1 190698. 6514.59   1
  -5   8  -1 177920. 6803.65   1
  -8   3   1 178857. 6005.58   1
  -3   8  -1 164331. 6561.47   1
   5  -8   1 201295. 7112.41   1
   3   5   1 174639. 6030.63   1
   3  -8   1 183164. 6819.44   1
  -3  -5  -1 214428. 6604.80   1
  -8   5   1 189331. 6594.26   1
   8  -3  -1 213813. 6790.66   2
   8  -5  -1 163379. 6415.15   2
   5   3   1 178476. 6928.88   2
   3   5   0 6468.85 1048.84   1
  -5   8   0 7499.74 1278.41   1
  -8   5   0 6045.01 1017.65   1
  -3   8   0 7952.26 1322.67   1
   8  -5   0 6599.75 1078.53   1
   8  -3   0 6685.39 1122.02   2
   5   3   0 7015.29 1299.01   2
   3  -8   0 5592.87 1096.75   1
   5  -8   0 7722.85 1300.63   1
  -3  -5   0 6904.56 1142.53   1
   8  -5   0 6739.98 1185.22   2
  -3   8   1 14431.2 1740.56   1
  -5   8   1 15592.6 1935.09   1
   8  -5   1 16019.8 1804.53   2
   8  -5   1 17495.4 1703.96   1
   5  -8  -1 16075.9 1862.84   1
   3  -8  -1 16363.9 1871.14   1
   3   5  -1 18328.6 2126.57   2
   5   3  -1 15095.6 1894.09   2
  -3  -5   1 15296.0 1680.08   1
   8  -3   1 12841.6 1739.78   2
  -8   5  -1 18477.1 1801.20   1
   3   5  -1 17194.1 1729.86   1
   3   5  -2 476638. 11664.3   1
  -5   8   2 417012. 11889.3   1
  -3   8   2 456362. 12168.7   1
   8  -5   2 454707. 11168.5   1
   5  -8  -2 424409. 11873.8   1
   3  -8  -2 471791. 12202.7   1
   5   3  -2 426521. 11899.6   2
   3   5  -2 458468. 12622.3   2
  -3  -5   2 460057. 11658.5   1
   8  -5   2 458645. 11211.4   2
  -8   5  -2 472514. 11404.9   1
  -5   8   3 68823.5 4063.60   1
  -3   8   3 73550.0 4111.83   1
   3   5  -3 81571.4 4093.58   1
   3   5  -3 79534.6 4431.04   2
   8  -5   3 72551.6 3616.62   1
   5  -8  -3 60211.5 3803.16   1
   3  -8  -3 72020.5 4094.52   1
   5   3  -3 64649.3 4058.37   2
  -3  -5   3 77096.0 4109.86   1
  -5  -3   3 81465.6 3976.17   1
   5   3  -3 74083.6 3742.15   1
  -8   5  -3 75269.5 3779.40   1
  -8   5  -4 17918.2 1762.19   1
  -3   8   4 14875.5 1814.38   1
   3   5  -4 14406.9 1891.65   2
   5   3  -4 19344.3 1853.80   1
   3   5  -4 17168.9 1915.53   1
   3  -8  -4 15398.1 1873.65   1
   5  -8  -4 12744.9 1764.71   1
   5   3  -4 16257.5 1909.50   2
  -3  -5   4 14824.3 1822.26   1
  -5  -3   4 17506.8 1833.66   1
  -5   8   4 15355.7 1829.46   1
   5  -8  -5 135603. 5970.29   1
   3  -8  -5 159852. 6351.09   1
   5   3  -5 154709. 5946.30   1
   3   5  -5 171262. 6523.59   1
   5   3  -5 150738. 6372.44   2
   3   5  -5 150479. 6505.50   2
  -3  -5   5 139812. 5997.47   1
  -5  -3   5 157480. 6130.11   1
  -5   8   5 140865. 6005.89   1
  -3   8   5 143601. 6062.78   1
   5   3  -6 107058. 5476.24   2
   5  -8  -6 132374. 5739.32   1
   3  -8  -6 126115. 5728.44   1
   5   3  -6 126983. 5544.71   1
   3   5  -6 129124. 5743.20   1
  -3  -5   6 125384. 5694.29   1
  -5   8   6 115814. 5460.55   1
  -5  -3   6 123008. 5558.24   1
  -3   8   6 132875. 5652.68   1
   5  -8  -6 138250. 6239.75   2
   3   5  -6 126824. 5894.59   2
   5   3  -7 80643.0 4706.66   2
   5  -8  -7 80879.3 4617.71   1
   3  -8  -7 94212.4 4865.07   1
   3   5  -7 78793.5 4710.92   2
  -5   8   7 90844.4 4740.13   1
  -3  -5   7 89299.0 4885.65   1
  -3   8   7 93474.1 4746.90   1
   3   5  -7 90191.1 4747.91   1
  -5  -3   7 89192.9 4754.86   1
   5  -8  -7 106392. 5523.92   2
   5  -8  -8 72696.1 4361.08   1
   3  -8  -8 75801.3 4418.87   1
   5  -8  -8 79746.8 4789.43   2
   3   5  -8 63821.1 4244.60   2
   5   3  -8 67244.9 4392.57   2
  -3  -5   8 72898.1 4409.35   1
  -5   8   8 69846.1 4271.99   1
  -3   8   8 72647.6 4306.70   1
  -5  -3   8 74179.5 4362.73   1
   3   5  -8 80287.0 4533.18   1
   5   3  -8 77922.4 4612.86   1
   3   5  -9 23546.5 2435.76   1
   5  -8  -9 23180.9 2386.41   1
   3  -8  -9 23753.1 2443.73   1
   3   5  -9 21296.9 2424.69   2
   5   3  -9 22887.3 2458.79   2
  -5   8   9 23329.8 2417.57   1
  -3   8   9 22359.0 2355.61   1
  -3  -5   9 23010.0 2407.21   1
   5  -8  -9 27368.3 2612.51   2
  -5  -3   9 25048.5 2591.77   1
   5   3  -9 25935.9 2598.72   1
  -5  -3  10 173798. 7256.18   1
   3   5 -10 187521. 7534.47   1
   5  -8 -10 168823. 7097.91   1
   3  -8 -10 170585. 7202.68   1
   5   3 -10 171880. 7367.99   2
   3   5 -10 174036. 7433.54   2
  -5   8  10 168062. 7057.62   1
  -3   8  10 178617. 7281.09   1
  -3  -5  10 186411. 7562.29   1
   5  -8 -10 183289. 7333.94   2
   3  -8 -10 171359. 7529.09   2
   5   3 -10 175995. 7468.09   1
   5   3 -11 1952.65 906.413   1
  -5   8  11 1953.11 773.063   1
  -3  -5  11 753.510 311.644   1
  -3   8  11 1480.02 660.707   1
  -5  -3  11 707.736 533.639   1
   5  -8 -11 1092.50 655.207   1
   3  -8 -11 1338.49 770.859   1
   3   5 -11 2161.81 839.146   2
   5   3 -11 226.766 330.690   2
   3   5 -11 1947.18 863.660   1
   5  -8 -11 1749.23 716.899   2
   3  -8 -11 408.939 337.851   2
  -5   8  12 2746.83 881.158   1
  -3   8  12 2942.44 905.321   1
   5   3 -12 1193.67 537.386   1
   3   5 -12 1371.63 641.911   1
  -3  -5  12 3043.72 934.653   1
  -5  -3  12 1369.30 547.930   1
   5  -8 -12 1227.89 719.823   1
   3  -8 -12 2210.94 642.536   1
   3   5 -12 1898.55 802.983   2
   5   3 -12 1489.09 781.733   2
   5  -8 -12 2172.13 743.520   2
   3  -8 -12 4131.85 1229.37   2
   5  -8 -13 45549.0 3633.56   1
   3  -8 -13 43020.5 3600.81   1
   3   5 -13 44983.2 3673.83   1
  -5   8  13 44834.8 3604.08   1
  -3   8  13 45526.7 3530.15   1
   5   3 -13 43609.5 3652.73   2
   3   5 -13 40941.0 3546.57   2
  -3  -5  13 42688.2 3575.43   1
   5  -8 -13 50552.5 3740.33   2
   3  -8 -13 37460.8 3303.33   2
  -5  -3  13 42142.9 3627.09   1
   5   3 -13 39313.7 3559.25   1
   5   3 -14 69522.4 4631.99   2
   5  -8 -14 64907.5 4476.05   1
   3  -8 -14 65750.5 4537.84   1
  -5   8  14 68327.2 4582.60   1
   3   5 -14 66681.1 4582.08   1
  -3   8  14 62015.4 4379.81   1
   3   5 -14 63101.1 4521.95   2
   5  -8 -14 65966.8 4419.05   2
  -3  -5  14 72131.9 4703.03   1
   3  -8 -14 58769.7 4256.44   2
  -5  -3  14 67979.1 4564.21   1
   5   3 -14 61679.0 4548.91   1
   5  -8 -15 91857.5 5423.30   1
   3  -8 -15 93570.6 5517.04   1
  -5   8  15 96980.1 5491.55   1
  -3   8  15 81147.2 5132.53   1
   3   5 -15 96163.9 5531.93   1
   3   5 -15 90963.9 5447.60   2
   5   3 -15 95084.0 5596.90   2
   5  -8 -15 98086.4 5581.35   2
   3  -8 -15 73552.7 4811.65   2
  -3  -5  15 89979.1 5411.27   1
  -5  -3  15 96540.9 5608.44   1
   5   3 -15 86286.1 5506.10   1
   5   3 -16 6410.01 1587.91   1
  -3  -5  16 6359.43 1442.23   1
  -5  -3  16 5719.00 1290.38   1
   3   5 -16 8565.51 1649.27   1
   5  -8 -16 6949.44 1498.82   1
   3  -8 -16 6549.65 1525.99   1
   3   5 -16 7331.48 1592.63   2
  -5   8  16 8968.75 1642.24   1
  -3   8  16 4582.50 1174.91   1
   5  -8 -16 5538.88 1397.17   2
   5   3 -16 6626.74 1475.76   2
   3  -8 -16 4974.35 1219.40   2
  -5  -3  17 4614.10 1271.06   1
   3  -8 -17 3672.21 1124.87   1
   5  -8 -17 3392.90 1135.29   1
   5   3 -17 3709.93 1108.12   2
   3   5 -17 5810.44 1460.93   2
  -3   8  17 4521.90 1160.62   1
  -5   8  17 4317.67 1161.06   1
   5  -8 -17 4070.78 1173.00   2
  -6   8 -17 9557.58 1897.22   1
  -6   8 -16 29925.1 3143.50   1
   8  -2 -16 26071.4 3022.73   1
  -8   2  16 32764.1 3300.92   1
   8  -6 -16 33033.2 3262.12   1
  -8   6  16 35587.8 3325.37   1
  -2   8 -16 35710.3 3436.52   1
   2  -8  16 33222.3 3255.70   1
   6  -8  16 30373.2 3213.81   1
   8  -2 -16 35019.5 3296.20   2
   8  -6 -16 28148.0 3145.23   2
   8  -2 -15 2443.39 970.413   1
   8  -6 -15 1071.61 521.315   1
  -2   8 -15 1679.14 796.371   1
  -8   2  15 1135.03 742.456   1
  -8   6  15 1686.22 827.615   1
   8  -2 -15 681.580 569.453   2
  -6   8 -15 1271.14 718.752   1
   8  -6 -15 763.486 475.719   2
   6  -8  15 546.237 491.773   1
   2  -8  15 2450.59 955.770   1
   8  -2 -14 68534.1 4709.20   1
  -8   2  14 66403.6 4637.95   1
   8  -6 -14 70940.7 4710.20   1
  -8   6  14 74237.7 4760.41   1
  -2   8 -14 73545.0 4886.52   1
   6  -8  14 61555.4 4513.04   1
   8  -2 -14 79743.9 4936.01   2
   2  -8  14 73079.5 4832.05   1
   8  -6 -14 72075.0 4661.30   2
  -6   8 -14 63813.7 4531.31   1
   8  -2 -13 11549.6 1973.39   1
   8  -6 -13 12640.9 1945.48   1
  -8   6  13 12416.8 1913.93   1
  -2   8 -13 13364.5 1931.93   1
  -8   2  13 11424.5 1819.64   1
   6  -8  13 14068.6 2033.85   1
   8  -6 -13 11731.8 1977.29   2
   8  -2 -13 14441.6 2056.25   2
  -6   8 -13 13484.9 1932.73   1
   2  -8  13 14975.0 2092.12   1
   8  -2 -12 6578.35 1386.57   1
   8  -6 -12 6466.85 1363.68   1
  -2   8 -12 5810.24 1229.18   1
  -8   2  12 4148.64 1051.51   1
  -6   8 -12 6306.98 1389.19   1
  -8   6  12 6834.53 1402.38   1
   8  -2 -12 8453.26 1542.74   2
   6  -8  12 5254.74 1248.88   1
   8  -6 -12 5540.43 1349.29   2
   2  -8  12 5175.41 1193.62   1
   8  -2 -11 48725.2 3793.46   1
  -8   2  11 44947.2 3653.38   1
   8  -6 -11 43996.5 3558.93   1
  -2   8 -11 43294.7 3524.64   1
  -8   6  11 43068.7 3484.15   1
   8  -2 -11 43216.3 3462.37   2
   6  -8  11 52076.1 3778.57   1
   2  -8  11 43938.3 3473.76   1
   8  -6 -11 43425.7 3616.32   2
  -6   8 -11 43226.8 3467.34   1
   8  -2 -10 53579.3 3940.55   1
  -8   2  10 54511.9 3891.15   1
   8  -6 -10 51180.6 3677.80   1
  -2   8 -10 48698.0 3678.78   1
  -8   6  10 53420.1 3823.08   1
   6  -8  10 50342.7 3679.08   1
   2  -8  10 52670.0 3808.05   1
   8  -2 -10 49923.9 3690.93   2
   8  -6 -10 53468.8 3886.88   2
  -6   8 -10 53345.2 3790.86   1
   8  -2  -9 73209.9 4559.67   1
  -2   8  -9 72002.2 4449.80   1
  -8   2   9 74364.9 4502.65   1
   8  -6  -9 70163.0 4231.28   1
  -8   6   9 80387.9 4600.37   1
   6  -8   9 63652.5 4192.69   1
   2  -8   9 71213.2 4347.80   1
   8  -2  -9 71481.4 4463.04   2
  -6   8  -9 67732.2 4285.27   1
   8  -6  -9 69948.8 4430.75   2
  -2   8  -8 1119.12 693.401   1
  -6   8  -8 105.776 424.911   1
   8  -2  -8 96.6138 464.142   1
   8  -6  -8 209.555 271.149   1
  -8   2   8-64.8686 311.838   1
   6  -8   8 1194.38 611.033   1
   8  -2  -8 232.885 500.542   2
   2  -8   8 432.802 407.216   1
   8  -6  -8 716.894 665.320   2
  -8   6   8 40.8596 272.209   1
  -2   8  -7 170183. 6882.81   1
   8  -2  -7 148042. 6394.90   1
  -8   2   7 174348. 6878.94   1
   8  -6  -7 162715. 6707.98   1
   6  -8   7 134354. 6157.94   1
  -8   6   7 174785. 6914.41   1
  -6   8  -7 174389. 6946.53   1
   2  -8   7 174946. 6906.71   1
   8  -6  -7 155521. 6423.52   2
   8  -2  -7 170754. 6804.09   2
   8  -2  -6 398534. 11011.1   1
  -8   2   6 418453. 11316.1   1
   8  -6  -6 433648. 11546.8   1
   6  -8   6 387211. 11093.2   1
  -8   6   6 340408. 10704.6   1
  -6   8  -6 373848. 11105.1   1
   2  -8   6 349011. 10844.7   1
   8  -2  -6 376545. 11011.0   2
   8  -6  -6 382373. 10929.0   2
  -2   8  -6 357837. 10954.3   1
   8  -2  -5 124967. 5332.04   1
  -8   2   5 134618. 5605.29   1
   8  -6  -5 109805. 5229.11   1
   2  -8   5 109788. 5327.03   1
  -6   8  -5 120384. 5534.91   1
   6  -8   5 98581.3 5025.16   1
  -8   6   5 123870. 5541.54   1
   8  -2  -5 108001. 5185.76   2
   8  -6  -5 109181. 5265.62   2
  -2   8  -5 118653. 5504.72   1
   8  -2  -4 223198. 7303.00   1
  -8   2   4 236628. 7641.05   1
   8  -6  -4 186528. 7144.03   1
  -2  -6  -4 215493. 7095.82   1
  -6   8  -4 222134. 7813.05   1
   6  -8   4 241743. 7938.64   1
   2  -8   4 225061. 7895.27   1
   8  -2  -4 206983. 7473.49   2
  -2   8  -4 233815. 7993.37   1
   8  -6  -4 199487. 7357.95   2
  -8   6   4 227534. 7838.54   1
   2   6   3 1116.26 498.837   1
  -2   8  -3 1422.78 774.780   1
  -8   6   3 562.652 367.510   1
  -6   8  -3 1405.20 694.195   1
   8  -6  -3 840.701 634.783   1
   6   2   3 721.951 518.923   2
  -2  -6  -3 581.091 240.424   1
   8  -2  -3 1590.02 675.274   2
   2  -8   3 291.068 277.973   1
   6  -8   3 816.726 559.124   1
   8  -6  -3 1141.16 660.196   2
   8  -6  -2 254300. 8189.89   1
  -6   8  -2 239365. 8303.52   1
   2   6   2 284276. 8229.80   1
   6  -8   2 255901. 8415.13   1
  -2  -6  -2 270787. 8120.36   1
   2  -8   2 261541. 8519.34   1
   6   2   2 262775. 8439.73   2
  -2   8  -2 239980. 8275.75   1
   8  -2  -2 245495. 8085.48   2
  -8   6   2 255566. 8267.52   1
   8  -6  -2 241391. 7994.96   2
  -6   8  -1 393.266 283.754   1
  -8   6   1 1206.19 657.313   1
   8  -6  -1-38.7333 279.874   1
   2   6   1-19.8112 299.009   1
  -2   8  -1 1096.53 665.048   1
   6  -8   1 541.116 352.518   1
   6   2   1 6.12446 407.375   2
  -2  -6  -1 38.0545 453.533   1
   2  -8   1 359.214 261.178   1
   8  -2  -1 150.316 337.424   2
   8  -6  -1 239.837 339.117   2
  -6   8   0 15940.4 1897.13   1
   8  -6   0 13392.4 1661.56   1
  -2   8   0 16805.1 1919.30   1
   6  -8   0 15847.2 1866.32   1
   2  -8   0 17052.1 1931.91   1
  -2  -6   0 18032.2 1963.32   1
   6   2   0 15352.8 1856.92   2
   8  -2   0 17250.3 1816.91   2
   8  -6   0 17037.0 1851.02   2
  -8   6   0 15867.9 1770.54   1
   2   6   0 16492.6 1787.60   1
  -6   8   1 113741. 5375.10   1
  -2   8   1 121328. 5376.48   1
   6  -8  -1 119629. 5288.33   1
   2  -8  -1 119072. 5338.85   1
   6   2  -1 127278. 5549.88   2
  -2  -6   1 120012. 5309.19   1
   8  -2   1 115585. 4922.20   2
   2   6  -1 128526. 5289.36   1
   8  -6   1 120808. 5083.10   2
  -8   6  -1 111545. 5056.94   1
  -6   8   2 56643.0 3611.69   1
  -2   8   2 61499.9 3806.20   1
   8  -6   2 61813.7 3543.70   1
   6  -8  -2 64165.5 3715.32   1
   2  -8  -2 63825.1 3870.62   1
   6   2  -2 63808.6 3933.58   2
   8  -6   2 59754.8 3418.26   2
   2   6  -2 73881.6 3975.41   1
  -2  -6   2 67479.4 3866.44   1
  -8   6  -2 64246.6 3661.11   1
   2   6  -3 194821. 7179.35   1
  -8   6  -3 226389. 7440.90   1
  -2   8   3 186807. 7168.13   1
   6  -8  -3 194533. 7269.50   1
   8  -6   3 237457. 7342.59   1
   2  -8  -3 215243. 7586.48   1
   6   2  -3 209045. 7609.76   2
  -2  -6   3 194329. 7232.27   1
   6  -8  -3 241025. 8287.32   2
   2   6  -3 207947. 7894.17   2
  -6   8   3 204724. 7492.74   1
   2   6  -4 4647.99 989.069   1
  -6  -2   4 4013.94 872.511   1
  -6   8   4 4223.94 1025.21   1
   6  -8  -4 2312.74 758.043   1
   8  -6   4 3888.85 886.571   1
   2  -8  -4 3709.27 978.515   1
   2   6  -4 3423.38 957.013   2
   6   2  -4 3804.75 999.052   2
  -2   8   4 3748.32 873.025   1
  -8   6  -4 3468.04 907.874   1
  -2  -6   4 4514.17 933.762   1
   6  -8  -4 4614.12 1100.55   2
  -2   8   5 162579. 6503.21   1
  -8   6  -5 178196. 6557.90   1
   2   6  -5 163052. 6619.94   1
   6  -8  -5 169496. 6664.92   1
   2  -8  -5 155850. 6408.48   1
   8  -6   5 169917. 6204.60   1
   2   6  -5 157231. 6840.88   2
   6   2  -5 151937. 6531.97   2
  -6   8   5 157070. 6415.98   1
  -2  -6   5 180388. 6879.31   1
  -6  -2   5 160026. 6204.94   1
   6  -8  -5 171635. 6989.77   2
   6   2  -5 151829. 6173.80   1
  -8   6  -6 425774. 11164.1   1
   6  -8  -6 373578. 10965.9   1
   2  -8  -6 362885. 10939.4   1
   2   6  -6 372035. 11145.7   1
   8  -6   6 405592. 10749.3   1
   2   6  -6 352988. 11160.4   2
   6   2  -6 366162. 11100.8   2
  -2  -6   6 368596. 11173.7   1
  -6   8   6 374203. 11028.4   1
   6  -8  -6 419234. 11732.5   2
  -2   8   6 381649. 10993.7   1
  -6  -2   6 395050. 11013.5   1
   6   2  -6 380734. 10949.4   1
   6  -8  -7 49291.9 3541.37   1
   2  -8  -7 48430.0 3508.28   1
   2   6  -7 53624.9 3778.16   2
   2   6  -7 48641.7 3563.17   1
   6   2  -7 50004.0 3558.57   2
  -6   8   7 45871.2 3413.22   1
  -2  -6   7 53095.7 3743.29   1
  -2   8   7 57798.9 3760.37   1
   6  -8  -7 53360.8 3664.44   2
  -6  -2   7 52932.5 3567.62   1
   6   2  -7 48745.9 3555.30   1
   6  -8  -8 132155. 6074.86   1
   2  -8  -8 131371. 6085.43   1
  -6   8   8 134405. 6110.00   1
   2   6  -8 141872. 6371.90   2
   6   2  -8 125875. 6093.04   2
   2   6  -8 144601. 6356.19   1
  -2  -6   8 123089. 5999.85   1
  -2   8   8 142345. 6216.81   1
   6  -8  -8 154220. 6438.22   2
  -6  -2   8 134481. 6086.20   1
   6   2  -8 135377. 6260.11   1
  -2  -6   9 3316.26 957.350   1
   6   2  -9 3804.62 1146.55   1
  -6   8   9 4036.19 1124.12   1
  -6  -2   9 3587.11 1055.48   1
  -2   8   9 2514.52 518.290   1
   6  -8  -9 3099.48 876.297   1
   2  -8  -9 4303.59 1063.40   1
   2   6  -9 3171.72 876.298   2
   6   2  -9 4408.92 1115.36   2
   2   6  -9 3202.36 874.187   1
   6  -8  -9 3784.32 1004.28   2
   6   2 -10 121127. 6074.39   1
  -6  -2  10 123688. 6054.76   1
   6  -8 -10 127167. 5981.14   1
   2  -8 -10 123580. 6012.18   1
   2   6 -10 107558. 5828.90   2
  -6   8  10 125208. 5936.37   1
   6   2 -10 123525. 6171.23   2
  -2   8  10 129262. 6077.66   1
  -2  -6  10 126234. 6153.35   1
   2   6 -10 126768. 6191.51   1
   6  -8 -10 119772. 5870.10   2
  -6   8  11 11213.6 1751.21   1
  -2  -6  11 13181.3 1986.36   1
   6   2 -11 10999.1 1817.06   1
   2   6 -11 10854.8 1792.29   1
  -6  -2  11 13002.4 1813.38   1
   6  -8 -11 13846.8 1887.87   1
   2  -8 -11 12553.9 1740.69   1
  -2   8  11 12488.7 1842.92   1
   2   6 -11 9949.81 1763.44   2
   6   2 -11 10409.9 1714.12   2
   6  -8 -11 11071.9 1724.38   2
   2  -8 -11 5311.51 1262.60   2
  -2   8  12 9711.69 1647.98   1
   6   2 -12 11566.2 1883.75   1
  -6  -2  12 10283.1 1668.95   1
   2   6 -12 10489.0 1754.06   1
   6  -8 -12 10513.9 1754.09   1
   2  -8 -12 10515.6 1629.95   1
  -6   8  12 11800.4 1796.78   1
   2   6 -12 8660.77 1588.17   2
   6   2 -12 11931.9 1909.34   2
  -2  -6  12 13342.7 1994.10   1
   6  -8 -12 10551.6 1704.99   2
   2  -8 -12 9634.01 1710.35   2
   6   2 -13 34823.3 3385.49   1
   6  -8 -13 37427.2 3269.31   1
   2  -8 -13 40513.0 3472.05   1
  -6   8  13 43555.2 3589.18   1
  -2   8  13 39554.4 3436.70   1
   2   6 -13 34733.9 3354.38   2
   6   2 -13 40438.1 3522.97   2
  -2  -6  13 39891.6 3433.17   1
   6  -8 -13 39677.9 3489.21   2
   2  -8 -13 28117.2 2950.47   2
   2   6 -13 34340.0 3280.25   1
  -6  -2  13 38205.2 3343.36   1
   6   2 -14 43796.9 3743.28   1
   2   6 -14 46103.3 3837.10   1
   6  -8 -14 48524.8 3779.86   1
   2  -8 -14 43658.7 3639.96   1
  -6   8  14 47027.8 3697.26   1
  -2   8  14 37459.1 3430.89   1
   2   6 -14 41424.8 3791.32   2
   6   2 -14 50925.6 3949.11   2
  -2  -6  14 48443.1 3877.79   1
   6  -8 -14 49282.5 3861.98   2
  -6  -2  14 47723.6 3851.72   1
   6   2 -15 32701.8 3371.00   1
   2   6 -15 38197.4 3466.55   1
   6  -8 -15 34874.7 3233.85   1
   2  -8 -15 31882.4 3220.02   1
  -6   8  15 38745.0 3417.70   1
   2   6 -15 30214.3 3112.70   2
  -2  -6  15 36250.3 3351.62   1
   6  -8 -15 29549.6 3136.61   2
   6   2 -15 34486.3 3272.08   2
  -6  -2  15 30832.0 3152.93   1
  -2  -6  16 76.8950 361.679   1
   6   2 -16 913.937 588.240   1
  -6  -2  16 285.281 532.445   1
   6  -8 -16 770.063 739.963   1
   2   6 -16-827.084 834.998   2
   2   6 -16 345.945 474.179   1
   6   2 -16-223.290 551.117   2
  -6   8  16-16.3692 466.813   1
   6  -8 -16 31.3062 400.939   2
   2   6 -17 24286.7 2981.37   2
   8  -1 -16 83771.1 5563.28   1
  -8   1  16 96447.5 5814.51   1
   8  -1 -15-117.360 461.629   1
   8  -7 -15-60.2766 556.899   1
  -8   1  15-443.879 615.159   1
  -1   8 -15 862.275 751.436   1
  -8   7  15 147.197 379.607   1
   8  -1 -15 563.395 653.176   2
   8  -7 -15 199.588 303.070   2
   1  -8  15-309.330 541.540   1
   8  -1 -14 1897.38 816.809   1
   8  -7 -14 4285.93 1151.13   1
  -8   1  14 3752.59 1240.96   1
  -7   8 -14 4079.79 1186.20   1
  -1   8 -14 5476.38 1314.19   1
   8  -1 -14 3565.28 1022.99   2
  -8   7  14 4246.83 1149.16   1
   8  -7 -14 2597.87 993.956   2
   1  -8  14 4876.73 1238.17   1
   8  -1 -13 142.605 313.600   1
   8  -7 -13-500.157 502.956   1
  -7   8 -13 602.043 448.865   1
  -8   1  13 712.745 570.537   1
  -1   8 -13 552.817 437.753   1
   8  -1 -13 354.375 574.995   2
  -8   7  13 118.695 466.554   1
   7  -8  13 659.974 528.529   1
   8  -7 -13 461.668 628.198   2
   1  -8  13 84.6886 579.919   1
   8  -1 -12 130078. 6680.04   1
  -8   1  12 124008. 6544.25   1
   8  -7 -12 137428. 6497.80   1
  -1   8 -12 129936. 6422.67   1
  -8   7  12 139653. 6540.55   1
   7  -8  12 122541. 6293.33   1
   8  -1 -12 126107. 6301.14   2
   1  -8  12 131356. 6475.80   1
  -7   8 -12 131119. 6451.63   1
   8  -7 -12 129432. 6417.83   2
  -7   8 -11 687.031 732.827   1
   8  -1 -11-69.2114 251.923   1
  -1   8 -11-149.134 363.979   1
   8  -7 -11 653.828 465.682   1
  -8   1  11 159.284 314.198   1
   8  -1 -11 143.090 410.165   2
   7  -8  11-236.570 513.913   1
  -8   7  11 1030.19 410.578   1
   8  -7 -11 244.147 455.927   2
   1  -8  11 1309.85 814.984   1
  -7   8 -10 9398.07 1675.51   1
   8  -1 -10 8953.87 1577.65   1
  -1   8 -10 11715.5 1844.56   1
   8  -7 -10 8135.45 1462.80   1
  -8   1  10 11429.3 1922.23   1
   8  -1 -10 8540.23 1513.71   2
   7  -8  10 9373.46 1599.42   1
   8  -7 -10 8457.13 1461.39   2
   1  -8  10 8572.41 1513.12   1
  -8   7  10 11795.1 1719.63   1
  -1   8  -9 7627.02 1389.06   1
   8  -1  -9 9296.11 1562.07   1
   8  -7  -9 7774.48 1410.61   1
  -8   1   9 8702.40 1487.24   1
   8  -1  -9 8020.46 1513.80   2
   7  -8   9 7619.04 1378.69   1
  -7   8  -9 9577.93 1579.80   1
   8  -7  -9 8976.75 1631.05   2
   1  -8   9 6450.55 1334.67   1
  -8   7   9 8652.90 1436.63   1
   8  -1  -8 216278. 8183.00   1
  -8   1   8 209333. 7967.28   1
  -1   8  -8 204800. 7864.09   1
   8  -7  -8 199279. 7762.37   1
   8  -1  -8 197461. 7810.20   2
   7  -8   8 216785. 8043.99   1
  -8   7   8 209398. 7896.32   1
  -7   8  -8 202315. 7938.76   1
   1  -8   8 202804. 7856.48   1
   8  -7  -8 217384. 7975.83   2
  -8   7   7 148.189 481.689   1
   8  -1  -7 620.576 586.417   1
   8  -7  -7 640.014 426.952   1
  -8   1   7 186.698 494.995   1
  -7   8  -7 146.131 435.096   1
   7  -8   7 218.359 436.349   1
   8  -1  -7 801.562 574.166   2
   1  -8   7-55.9157 537.965   1
   8  -7  -7 559.753 344.734   2
  -1   8  -7 501.270 490.690   1
  -8   7   6 388.341 297.572   1
   8  -7  -6 1165.14 533.618   1
  -8   1   6 898.216 577.039   1
  -7   8  -6 681.089 374.068   1
  -1  -7  -6 778.388 529.227   1
   7  -8   6 722.636 595.938   1
   8  -1  -6 796.635 558.223   2
  -1   8  -6 1728.06 710.083   1
   1  -8   6 817.269 438.917   1
   8  -7  -6 876.356 654.037   2
  -8   7   5 5335.87 1075.77   1
  -7   8  -5 5388.50 1174.11   1
   8  -7  -5 5376.43 1075.67   1
  -1  -7  -5 6160.35 1181.31   1
  -1   8  -5 6296.00 1296.37   1
   1   7   5 7322.12 1302.09   1
   7  -8   5 5011.17 1094.21   1
   8  -1  -5 5924.41 1227.53   2
   1  -8   5 6159.39 1117.88   1
   8  -7  -5 6016.56 1144.53   2
   1   7   4 653778. 15521.0   1
   8  -7  -4 643224. 15763.5   1
  -7   8  -4 672719. 16116.2   1
  -1  -7  -4 711674. 15996.3   1
   7  -8   4 647724. 15814.5   1
   1  -8   4 649420. 15972.8   1
   8  -1  -4 688982. 16150.4   2
  -8   7   4 627093. 15766.5   1
  -1   8  -4 649820. 16030.5   1
   8  -7  -4 649801. 15788.2   2
  -7   8  -3 4484.72 1025.65   1
  -1   8  -3 3262.73 839.062   1
  -8   7   3 3614.90 959.493   1
   8  -7  -3 4005.47 908.634   1
  -1  -7  -3 5808.47 1087.50   1
   7  -8   3 5229.43 1116.82   1
   8  -1  -3 4726.82 1154.70   2
   1  -8   3 4334.65 983.107   1
   8  -7  -3 6402.54 1206.83   2
   1   7   3 5275.57 1029.78   1
  -7   8  -2 172216. 6863.16   1
   1   7   2 193033. 6863.34   1
   8  -7  -2 171697. 6691.65   1
   7  -8   2 163330. 6538.63   1
  -1  -7  -2 175281. 6715.56   1
   1  -8   2 161562. 6645.04   1
   7   1   2 164354. 6526.88   2
  -1   8  -2 169283. 6651.19   1
   8  -1  -2 168488. 6534.86   2
  -8   7   2 164608. 6563.25   1
   8  -7  -2 175082. 6609.61   2
   7  -8   2 146605. 6432.19   2
   1   7   1 772.734 468.804   1
  -8   7   1-76.9084 291.166   1
   8  -7  -1 299.969 654.484   1
   7  -8   1 467.906 456.931   1
   7   1   1 777.782 461.583   2
  -1  -7  -1 469.660 248.293   1
   8  -1  -1 437.892 627.916   2
   1  -8   1 715.279 563.694   1
  -7   8  -1 1229.77 717.332   1
  -1   8  -1 211.504 301.896   1
   8  -7  -1 496.749 464.159   2
   7  -8   1 1025.15 614.116   2
  -7   8   0 126460. 5793.09   1
   8  -7   0 143062. 5951.96   1
   7  -8   0 131667. 5747.78   1
  -1   8   0 145421. 6026.41   1
   1   7   0 131324. 5660.39   1
   1  -8   0 138378. 5934.35   1
  -1  -7   0 140442. 5925.63   1
   7   1   0 147926. 6082.09   2
   8  -1   0 142907. 5805.17   2
   8  -7   0 146126. 5826.58   2
   7  -8   0 157884. 6554.22   2
  -8   7   0 140993. 5954.29   1
  -1   8   1 625.118 429.705   1
   8  -7   1-57.0053 296.309   1
  -8   7  -1 84.5953 394.006   1
  -7   8   1 1687.17 667.380   1
   1  -8  -1 510.396 366.935   1
   7   1  -1-208.075 246.054   2
   7  -8  -1 191.381 424.049   1
   8  -1   1-47.6057 214.484   2
  -1  -7   1 412.008 525.660   1
   1   7  -1 343.635 388.263   1
   8  -7   1-35.0654 559.771   2
   7  -8  -1 734.689 503.302   2
  -8   7  -2 205795. 7629.71   1
  -1   8   2 230794. 8031.70   1
   7  -8  -2 231404. 8025.34   1
   8  -7   2 233993. 7830.09   1
   1  -8  -2 242365. 8334.64   1
  -1  -7   2 229916. 8004.68   1
   7   1  -2 228209. 7987.09   2
   1   7  -2 268310. 8418.07   1
   8  -7   2 245448. 7721.47   2
   7  -8  -2 213694. 8027.81   2
  -7   8   2 220398. 7889.81   1
   7   1  -3 12704.7 1665.58   2
  -7   8   3 12031.6 1683.90   1
   7  -8  -3 9449.18 1466.94   1
   1   7  -3 10352.7 1489.88   1
   8  -7   3 8551.97 1347.80   1
   1  -8  -3 10549.1 1615.56   1
   8  -7   3 8808.99 1359.18   2
  -1  -7   3 10240.2 1564.97   1
  -8   7  -3 11305.8 1608.24   1
  -1   8   3 11699.9 1592.19   1
   7  -8  -3 10926.4 1636.97   2
  -1   8   4 493394. 12916.6   1
  -8   7  -4 505519. 13054.7   1
   7  -8  -4 491823. 13025.6   1
   1  -8  -4 437900. 12503.8   1
   8  -7   4 499434. 12712.0   1
   7   1  -4 489520. 13121.7   2
  -1  -7   4 439070. 12573.3   1
  -7   8   4 498582. 13033.3   1
   7  -8  -4 473883. 12858.2   2
   1   7  -4 496600. 13047.0   1
  -8   7  -5 1642.74 782.575   1
   1  -8  -5 1739.11 452.539   1
  -7   8   5 873.206 385.718   1
   7  -8  -5 1631.75 723.054   1
   8  -7   5 1132.97 548.732   1
  -1   8   5 1478.78 723.135   1
   7   1  -5 1484.19 636.289   2
  -1  -7   5 1462.23 668.781   1
   7  -8  -5 1612.28 748.622   2
   1   7  -5 939.300 491.325   1
   1   7  -6 56089.9 3824.62   1
  -8   7  -6 54564.1 3693.60   1
   7  -8  -6 46992.4 3499.87   1
   1  -8  -6 43985.0 3416.94   1
   8  -7   6 60111.3 3757.31   1
   7   1  -6 52745.1 3786.02   2
  -1  -7   6 56113.1 3825.55   1
  -7   8   6 53200.2 3662.22   1
   7  -8  -6 59479.7 3799.90   2
  -1   8   6 57920.0 3773.93   1
  -7  -1   6 53598.6 3619.92   1
   7   1  -7 4626.21 1120.21   1
  -7   8   7 4900.70 1111.88   1
  -7  -1   7 5519.54 1182.78   1
   1   7  -7 4287.18 1078.94   1
  -8   7  -7 4349.94 1089.25   1
  -1   8   7 5313.39 1128.78   1
   7  -8  -7 5783.60 1147.49   1
   1  -8  -7 5850.76 1221.43   1
   1   7  -7 5533.01 1322.75   2
   8  -7   7 4061.10 959.713   1
   7   1  -7 5487.46 1185.56   2
   7  -8  -7 4804.66 1102.60   2
  -1  -7   7 3670.07 987.260   1
   7   1  -8 291442. 9712.61   1
   7  -8  -8 295587. 9650.40   1
   1  -8  -8 315682. 9951.62   1
   7   1  -8 271176. 9414.40   2
   1   7  -8 289065. 9779.44   1
  -8   7  -8 300981. 9632.89   1
   8  -7   8 309876. 9529.63   1
   1   7  -8 253030. 9599.89   2
  -7   8   8 256377. 9248.65   1
  -1  -7   8 279794. 9675.78   1
  -1   8   8 287362. 9581.88   1
   7  -8  -8 265122. 9195.69   2
  -7  -1   8 289275. 9697.40   1
  -7   8   9 3238.28 857.870   1
   7   1  -9 3794.72 1030.53   1
  -1   8   9 3423.48 994.547   1
  -7  -1   9 3536.73 1136.40   1
   7  -8  -9 3669.97 1098.19   1
   1  -8  -9 2110.40 814.022   1
   1   7  -9 2570.55 946.736   1
  -8   7  -9 3596.27 944.170   1
   1   7  -9 2608.47 897.998   2
   7   1  -9 3021.51 852.438   2
   7  -8  -9 3582.36 921.848   2
  -1  -7   9 3342.28 981.489   1
  -1  -7  10 7524.10 1419.73   1
  -7   8  10 7271.27 1430.47   1
   7   1 -10 8036.26 1511.54   1
  -1   8  10 6619.46 1262.79   1
  -7  -1  10 7748.75 1399.83   1
   7  -8 -10 9165.40 1658.23   1
   1  -8 -10 7997.22 1553.19   1
   1   7 -10 8078.29 1517.84   1
   1   7 -10 6863.60 1500.54   2
   7   1 -10 6964.13 1385.78   2
   7  -8 -10 8904.13 1595.88   2
  -7   8  11 124.590 367.880   1
  -1  -7  11-1248.77 770.954   1
  -1   8  11 343.129 265.514   1
   7   1 -11-989.735 748.681   1
  -7  -1  11 1552.50 878.765   1
   7  -8 -11 230.217 381.431   1
   1  -8 -11 180.201 444.240   1
   1   7 -11-336.611 461.164   1
   1   7 -11 186.464 497.303   2
   7   1 -11-449.409 327.754   2
   7  -8 -11 73.8032 513.600   2
   7   1 -12 104953. 5925.89   1
   7  -8 -12 124860. 6115.61   1
  -7   8  12 129644. 6186.82   1
   1   7 -12 106180. 6005.27   2
   7   1 -12 125020. 6239.73   2
   1   7 -12 120801. 6174.12   1
  -1  -7  12 117394. 6097.32   1
   7  -8 -12 125318. 6159.92   2
  -7  -1  12 118209. 6161.51   1
  -1  -7  13 673.019 704.313   1
   7   1 -13-415.573 476.939   1
  -7  -1  13-227.160 564.450   1
   7  -8 -13-634.878 459.006   1
   1   7 -13 390.065 544.897   2
   7   1 -13-913.727 702.342   2
   1   7 -13 525.956 345.466   1
  -7   8  13 794.381 573.060   1
   7  -8 -13 203.276 509.611   2
   1  -8 -13 74.1319 538.616   2
  -1  -7  14 2496.98 886.423   1
   7   1 -14 2385.94 942.449   1
  -7  -1  14 3531.04 1028.35   1
   7  -8 -14 3619.79 1089.49   1
   1   7 -14 4103.88 1287.60   2
   7   1 -14 4640.32 1209.98   2
   1   7 -14 3501.90 1101.11   1
  -7   8  14 3470.59 1067.93   1
   7  -8 -14 4051.64 1033.07   2
   1  -8 -14 1680.53 743.521   2
  -1  -7  15 2475.68 833.976   1
   7   1 -15 1795.93 900.044   1
  -7  -1  15 2824.89 940.072   1
   7  -8 -15 2756.97 958.576   1
   1   7 -15 1735.00 782.243   2
   7   1 -15 1904.43 797.786   2
  -7   8  15 1896.87 695.025   1
   1   7 -15 2394.23 838.633   1
   7  -8 -15 1816.54 890.099   2
   7   1 -16 87453.9 5618.73   1
   1   7 -16 73770.4 5379.66   2
   0   8   0 1984.27 612.107   1
   8   0   0 2332.83 680.969   2
   0  -8   0 2363.41 586.909   1
   8  -8   0 2596.33 777.288   1
  -8   8   0 2130.11 798.466   1
   8  -8   0 3717.85 891.697   2
  -8   8  -1 135355. 5984.15   1
   0   8   1 141504. 6081.14   1
   8  -8  -1 131230. 5863.87   1
   8  -8   1 119446. 5558.44   1
   0  -8  -1 121855. 5683.24   1
   0   8  -1 133105. 5890.43   1
   0  -8   1 120427. 5731.55   1
   8   0   1 131224. 5767.72   2
   8   0  -1 133149. 5893.78   2
   8  -8  -1 133214. 5877.06   2
   8  -8   1 122009. 5550.76   2
  -8   8   1 129021. 5814.36   1
  -8   8  -2 192862. 7271.92   1
   0   8   2 169310. 6887.74   1
   8  -8  -2 194154. 7326.76   1
   8  -8   2 168715. 6720.56   1
   0  -8  -2 199240. 7422.33   1
   0  -8   2 165702. 6842.90   1
   8   0  -2 170854. 7018.95   2
   0   8  -2 193726. 7264.31   1
   8  -8  -2 197981. 7262.99   2
   8  -8   2 140237. 6233.17   2
  -8   8   2 174538. 6921.08   1
  -8   8  -3 17871.6 2113.02   1
   0   8   3 21481.3 2253.73   1
   8  -8  -3 16834.6 2097.27   1
   8  -8   3 16052.5 1967.76   1
   0  -8  -3 19352.5 2152.12   1
   0  -8   3 17816.7 2081.00   1
   8   0  -3 15908.4 2081.49   2
   0   8  -3 14957.6 1909.48   1
  -8   8   3 16807.7 2046.87   1
   8  -8  -3 19005.2 2004.96   2
   8  -8   3 13844.1 1694.51   2
   0   8   4 28141.5 2635.48   1
  -8   8  -4 32969.9 2934.36   1
   8  -8  -4 23851.0 2456.67   1
   0  -8  -4 27094.6 2589.09   1
   8  -8   4 29472.0 2676.80   1
   0  -8   4 23926.6 2485.75   1
   8   0  -4 27504.3 2669.68   2
  -8   8   4 30507.2 2764.31   1
   0   8  -4 30473.9 2771.38   1
   8  -8  -4 27516.7 2598.75   2
   0   8   5 63691.4 3982.67   1
   8   0  -5 53736.4 3808.64   2
  -8   8  -5 61028.5 4024.28   1
   8  -8  -5 54999.6 3761.81   1
   0  -8  -5 62742.9 3952.68   1
   8  -8   5 56706.5 3826.04   1
   0  -8   5 53892.4 3715.23   1
  -8   8   5 53917.7 3768.95   1
   8  -8  -5 55155.9 3644.18   2
   0   8  -5 49452.9 3662.20   1
   8  -8  -6 193622. 7574.88   1
  -8   8  -6 190537. 7569.37   1
   0  -8  -6 209444. 7795.36   1
   8  -8   6 214903. 7878.87   1
   8   0  -6 185519. 7525.14   2
   0  -8   6 196493. 7777.42   1
  -8   8   6 187358. 7442.36   1
   8  -8  -6 197702. 7616.55   2
   0   8   6 207573. 7639.98   1
   0   8  -6 188538. 7523.15   1
   0   8  -7 40867.1 3350.86   1
  -8   8   7 44370.5 3419.59   1
   8  -8  -7 45892.2 3488.18   1
   0  -8  -7 44144.9 3433.84   1
  -8   8  -7 47914.6 3615.86   1
   8  -8   7 40209.9 3233.65   1
   8   0  -7 43073.4 3469.84   2
   0  -8   7 46766.0 3523.16   1
   0   8   7 38250.4 3102.30   1
   8  -8  -7 38612.8 3196.12   2
   0   8  -8 34536.8 3124.29   1
   8  -8  -8 35054.0 3077.74   1
  -8   8  -8 36905.7 3197.07   1
   8  -8   8 40241.5 3218.65   1
  -8   8   8 35005.9 3056.67   1
   8   0  -8 37585.2 3164.20   2
   0  -8   8 38796.0 3245.88   1
   8  -8  -8 37933.7 3230.34   2
  -8   8   9 6081.04 1319.47   1
   0   8  -9 4659.46 1105.64   1
  -8   0   9 6110.50 1278.20   1
   8  -8  -9 4125.71 1036.21   1
  -8   8  -9 6896.97 1403.44   1
   8  -8   9 4958.41 1130.68   1
   8   0  -9 5498.46 1298.15   2
   8  -8  -9 6382.53 1262.59   2
   0  -8   9 4497.96 1088.66   1
  -8   0  10 76435.1 4810.27   1
   8   0 -10 80684.3 5043.90   1
   8  -8 -10 79710.0 4817.88   1
   0   8 -10 73960.2 4725.74   1
  -8   8 -10 79001.4 4932.74   1
  -8   8  10 75743.9 4667.05   1
   8  -8  10 71571.5 4631.69   1
   8   0 -10 71542.2 4689.15   2
   0  -8  10 76988.3 4777.06   1
   8  -8 -10 76289.0 4698.54   2
  -8   0  11 49141.7 3951.25   1
   8   0 -11 48796.7 3978.11   1
   8  -8 -11 53949.8 3995.01   1
   0   8 -11 52457.1 3940.88   1
  -8   8  11 52310.2 3888.10   1
   8   0 -11 49500.4 3852.36   2
   0  -8  11 56322.0 4119.47   1
   8  -8 -11 49313.2 3898.98   2
   8   0 -12 3785.15 1214.97   1
  -8   0  12 4525.67 1156.09   1
   8  -8 -12 3277.70 872.569   1
   0   8 -12 3402.20 1065.75   1
   8   0 -12 2037.97 775.750   2
  -8   8  12 4989.51 1170.63   1
   8  -8 -12 2282.09 831.606   2
   0  -8  12 3664.25 1109.76   1
  -8   0  13 42953.9 3799.92   1
   8   0 -13 40404.9 3718.08   1
   8  -8 -13 50919.0 3902.26   1
   0   8 -13 54209.9 4105.13   1
  -8   8  13 46736.0 3743.44   1
   8   0 -13 50001.7 3916.45   2
   0  -8  13 51368.8 3975.69   1
   8  -8 -13 49544.3 3874.25   2
  -8   0  14 60398.1 4520.53   1
   8   0 -14 55131.8 4338.11   1
   8  -8 -14 76787.8 4858.97   1
  -8   8  14 65839.7 4540.99   1
   0   8 -14 78006.4 4979.66   1
   8   0 -14 66339.3 4518.49   2
   0  -8  14 66978.1 4675.36   1
   8  -8 -14 65312.4 4705.23   2
   8   0 -15 9139.65 1718.01   1
  -8   0  15 7708.99 1640.32   1
  -4   9 -15 9388.19 1804.16   1
   9  -4 -15 9026.84 1704.59   1
   9  -5 -15 6527.06 1555.82   1
  -9   4  15 7660.12 1544.66   1
  -9   5  15 8690.38 1576.08   1
   9  -4 -15 6847.23 1411.39   2
   9  -5 -15 9304.93 1718.89   2
   5  -9  15 9115.41 1720.24   1
  -5   9 -15 8084.66 1523.71   1
   4  -9  15 9006.20 1664.95   1
  -4   9 -14 165241. 7485.89   1
   9  -4 -14 132805. 6899.94   1
   9  -5 -14 141876. 7119.27   1
  -9   4  14 133667. 6954.93   1
  -9   5  14 152966. 7258.35   1
   5  -9  14 144366. 7093.89   1
   9  -4 -14 142255. 6856.72   2
   4  -9  14 163221. 7400.47   1
   9  -5 -14 166989. 7397.37   2
  -5   9 -14 165298. 7423.30   1
  -4   9 -13 50594.4 3929.08   1
   9  -4 -13 41029.6 3685.65   1
   9  -5 -13 48713.1 3914.21   1
  -9   4  13 46833.1 3783.20   1
  -9   5  13 46472.4 3804.21   1
   5  -9  13 49816.4 3825.45   1
   4  -9  13 46805.0 3769.40   1
   9  -4 -13 54229.0 3869.89   2
   9  -5 -13 46975.7 3824.86   2
  -5   9 -13 44664.2 3728.01   1
  -4   9 -12 23121.4 2533.80   1
   9  -4 -12 18191.8 2492.11   1
   9  -5 -12 26557.7 2826.95   1
  -9   4  12 22723.8 2583.85   1
  -9   5  12 21422.5 2530.22   1
   5  -9  12 20002.7 2443.31   1
   4  -9  12 25029.5 2639.94   1
   9  -4 -12 23188.5 2585.11   2
   9  -5 -12 25499.7 2674.46   2
  -5   9 -12 19349.8 2421.60   1
   9  -4 -11 103664. 5780.74   1
   9  -5 -11 94682.5 5570.24   1
  -9   4  11 107147. 5831.31   1
  -9   5  11 102664. 5652.81   1
   5  -9  11 121490. 6031.50   1
   4  -9  11 116417. 5930.93   1
   9  -4 -11 111462. 5801.78   2
   9  -5 -11 114806. 5890.24   2
  -5   9 -11 97730.3 5538.13   1
  -4   9 -11 120406. 6105.60   1
   9  -4 -10 116690. 6061.09   1
   9  -5 -10 111299. 5981.00   1
  -9   4  10 127509. 6282.80   1
  -9   5  10 119746. 6009.00   1
   5  -9  10 110716. 5788.25   1
   9  -4 -10 114638. 5816.82   2
   9  -5 -10 125481. 6111.77   2
  -5   9 -10 125304. 6131.20   1
   4  -9  10 126480. 6060.00   1
  -4   9 -10 110786. 5809.32   1
   9  -4  -9 19114.2 2374.77   1
   9  -5  -9 19509.9 2361.89   1
  -9   4   9 19395.5 2302.69   1
  -9   5   9 17006.3 2216.71   1
   4  -9   9 19063.8 2334.13   1
   5  -9   9 18341.3 2267.62   1
   9  -4  -9 19278.5 2327.47   2
   9  -5  -9 21267.4 2388.31   2
  -5   9  -9 15839.6 2043.23   1
  -4   9  -9 18271.6 2259.74   1
  -5   9  -8 8348.34 1478.56   1
   9  -4  -8 6906.45 1421.90   1
   9  -5  -8 7362.38 1376.58   1
  -4   9  -8 8654.95 1558.05   1
  -9   4   8 9204.71 1615.30   1
  -9   5   8 5951.41 1218.02   1
   5  -9   8 6917.41 1386.01   1
   9  -4  -8 7244.46 1444.03   2
   4  -9   8 6230.87 1285.87   1
   9  -5  -8 9117.43 1571.27   2
  -5   9  -7 2002.34 988.416   1
  -4   9  -7 1703.79 727.330   1
   9  -4  -7 582.522 428.754   1
   9  -5  -7 883.194 531.602   1
  -9   4   7 1092.56 582.031   1
   5  -9   7 832.128 424.985   1
   4  -9   7 1681.68 808.166   1
  -9   5   7 327.761 278.345   1
   9  -4  -7 65.4899 414.585   2
   9  -5  -7 1218.21 772.796   2
   9  -4  -6 45259.0 3379.76   1
   9  -5  -6 42206.1 3252.05   1
  -9   4   6 42923.5 3279.35   1
  -9   5   6 37512.4 3167.18   1
   4  -9   6 41960.2 3297.05   1
  -5   9  -6 44396.7 3414.77   1
  -4   9  -6 40660.7 3254.91   1
   9  -4  -6 45202.1 3389.31   2
   9  -5  -6 41767.8 3364.39   2
   5  -9   6 41631.2 3266.78   1
   9  -4  -5 45538.6 3304.56   1
   9  -5  -5 45637.3 3274.29   1
  -9   4   5 40039.7 3094.22   1
  -9   5   5 44463.8 3325.23   1
   5  -9   5 42789.7 3283.96   1
  -5   9  -5 44129.6 3340.60   1
  -4   9  -5 43483.7 3293.45   1
   4  -9   5 35516.4 3003.86   1
   9  -4  -5 41041.5 3206.95   2
   9  -5  -5 44469.2 3344.92   2
   9  -4  -4 31439.1 2766.12   1
   9  -5  -4 34605.6 2800.35   1
  -9   4   4 40364.1 3038.23   1
  -9   5   4 31517.6 2751.07   1
  -5   9  -4 33372.7 2873.54   1
   5  -9   4 31290.9 2690.78   1
   4  -9   4 32566.3 2784.41   1
  -4   9  -4 34698.5 2904.03   1
   9  -4  -4 36061.7 2939.27   2
   9  -5  -4 33469.8 2881.97   2
   9  -5  -3 44362.0 3096.86   1
  -9   4   3 40971.0 3000.43   1
  -5   9  -3 44314.8 3297.73   1
  -4   9  -3 45892.7 3352.19   1
  -9   5   3 49479.0 3349.33   1
   5  -9   3 42870.7 3175.81   1
   4  -9   3 42431.3 3237.68   1
   9  -4  -3 43165.7 3224.12   2
   9  -5  -3 47447.1 3271.74   2
   9  -5  -2 340608. 10229.8   1
  -5   9  -2 399362. 11362.4   1
  -4   9  -2 362782. 11027.4   1
   5  -9   2 371882. 11036.7   1
   4  -9   2 357953. 10825.7   1
  -9   5   2 433836. 11263.9   1
   9  -4  -2 433330. 11410.0   2
   9  -5  -2 382429. 11044.8   2
   5   4   1 58213.4 3946.38   2
   9  -5  -1 55474.6 3381.23   1
  -5   9  -1 58283.0 3782.88   1
  -4   9  -1 56882.1 3813.64   1
   5  -9   1 61346.6 3901.92   1
   4  -9   1 64978.5 3947.17   1
  -9   5   1 59899.1 3587.75   1
   9  -4  -1 57187.6 3581.53   2
   9  -5  -1 59520.0 3690.29   2
  -5   9   0 16073.5 1999.59   1
  -4   9   0 16223.3 1952.20   1
   5  -9   0 17713.1 1991.61   1
   4  -9   0 18792.8 2100.42   1
   5   4   0 20246.7 2241.00   2
   9  -4   0 18257.9 1923.23   2
   9  -5   0 15630.4 1823.28   2
  -5   9   1 183574. 7178.70   1
  -4   9   1 195433. 7442.61   1
   5  -9  -1 178263. 6992.58   1
   4  -9  -1 202194. 7457.48   1
   4   5  -1 179436. 7347.76   2
   5   4  -1 184465. 7428.36   2
  -5   9   2 253193. 8643.58   1
  -4   9   2 253413. 8587.83   1
   5  -9  -2 245870. 8481.80   1
   4  -9  -2 265757. 8732.19   1
   4   5  -2 236675. 8786.96   2
   5   4  -2 236277. 8609.74   2
  -5   9   3 85716.7 4672.88   1
  -4   9   3 88941.4 4785.53   1
   4   5  -3 98818.6 4734.33   1
   5  -9  -3 82734.7 4586.82   1
   4  -9  -3 94109.7 4813.02   1
   4   5  -3 82923.4 4804.81   2
   5   4  -3 78120.3 4650.65   2
  -4  -5   3 92817.6 4687.15   1
  -4   9   4 34625.6 2875.15   1
   4   5  -4 29611.1 2913.42   2
   4   5  -4 37248.9 2966.45   1
   5  -9  -4 34752.9 2883.03   1
   4  -9  -4 35103.6 2963.11   1
   5   4  -4 38230.6 3061.10   2
  -4  -5   4 37874.6 2984.91   1
  -5   9   4 40441.7 3087.13   1
  -4  -5   5 6499.23 1284.08   1
  -5  -4   5 7436.00 1395.65   1
  -5   9   5 7005.22 1297.70   1
   5  -9  -5 7020.79 1293.38   1
   4   5  -5 6173.58 1288.98   1
   4  -9  -5 6303.44 1284.10   1
  -4   9   5 6672.06 1248.39   1
   4   5  -5 4889.30 1144.42   2
   5   4  -5 5568.95 1194.39   2
   5  -9  -6 52186.6 3732.91   1
   4  -9  -6 57592.4 3908.76   1
   4   5  -6 57827.5 3974.14   2
   4   5  -6 62151.9 4078.72   1
  -4  -5   6 60015.8 4015.41   1
  -5  -4   6 55265.4 3815.71   1
   5   4  -6 57733.8 4016.79   2
  -5   9   6 54104.7 3715.90   1
  -4   9   6 55801.0 3742.37   1
   5   4  -6 59578.8 3911.48   1
  -4  -5   7 3047.04 986.969   1
  -5  -4   7 2668.68 840.617   1
  -5   9   7 3071.25 745.339   1
  -4   9   7 2428.58 822.873   1
   5  -9  -7 3347.89 896.797   1
   4  -9  -7 3682.24 1091.00   1
   5   4  -7 3677.13 1034.76   1
   4   5  -7 2336.50 785.628   2
   5   4  -7 3758.72 1049.57   2
   5  -9  -7 3367.72 1005.29   2
   4   5  -7 3238.96 957.630   1
  -4  -5   8 4944.51 1216.41   1
  -5  -4   8 4874.83 1180.33   1
   4   5  -8 4503.90 1220.39   2
   4   5  -8 3798.04 1169.87   1
  -5   9   8 4591.82 1098.55   1
  -4   9   8 5116.35 1163.87   1
   5  -9  -8 3846.57 1114.66   1
   4  -9  -8 6282.90 1233.05   1
   5   4  -8 3635.53 1133.78   2
   5   4  -8 4552.13 1136.09   1
   5  -9  -8 6702.63 1419.67   2
   5  -9  -9 14343.2 1965.33   1
   4  -9  -9 19024.4 2276.29   1
   5   4  -9 18674.3 2280.51   1
   4   5  -9 19001.4 2263.44   2
   5   4  -9 19062.3 2326.24   2
  -5   9   9 18703.7 2257.68   1
  -4  -5   9 17675.2 2237.84   1
  -5  -4   9 15767.2 2018.29   1
   5  -9  -9 17639.2 2243.57   2
   4  -9  -9 20813.2 2485.82   2
  -4   9   9 15909.2 2025.64   1
   4   5  -9 19404.1 2277.20   1
  -4   9  10 152768. 6748.57   1
   4   5 -10 140956. 6795.18   1
   5  -9 -10 152253. 6786.86   1
   4  -9 -10 151756. 6851.09   1
   5   4 -10 148750. 6854.94   1
   4   5 -10 149732. 6841.40   2
   5   4 -10 148440. 6856.67   2
  -5   9  10 154648. 6875.14   1
  -4  -5  10 145069. 6854.88   1
  -5  -4  10 153649. 7031.06   1
   5  -9 -10 153837. 6820.50   2
   4  -9 -10 146513. 6923.26   2
   4   5 -11 92783.5 5436.19   1
   5  -9 -11 92684.6 5303.59   1
   4  -9 -11 84290.9 5086.03   1
   4   5 -11 97352.3 5512.86   2
   5   4 -11 89926.5 5314.88   2
   5   4 -11 87455.5 5235.22   1
  -4   9  11 97364.5 5368.73   1
  -5   9  11 85716.9 5078.06   1
  -4  -5  11 89194.8 5341.85   1
  -5  -4  11 95537.1 5456.07   1
   5  -9 -11 89585.5 5085.75   2
   4  -9 -11 89434.8 5258.24   2
   5  -9 -12 20479.2 2400.73   1
   4  -9 -12 21482.2 2476.97   1
   4   5 -12 16690.7 2323.37   1
  -5   9  12 20763.4 2361.73   1
  -4   9  12 21757.6 2417.18   1
   5   4 -12 18064.7 2324.39   2
   5   4 -12 17731.1 2324.93   1
  -4  -5  12 21485.3 2578.31   1
   5  -9 -12 18050.3 2286.87   2
  -5  -4  12 20479.0 2558.75   1
   4  -9 -12 17816.1 2308.74   2
   4   5 -12 19531.0 2475.50   2
   5  -9 -13 82116.1 5059.61   1
   4  -9 -13 83828.4 5167.89   1
   4   5 -13 70494.8 4830.74   1
  -5   9  13 91418.1 5256.81   1
  -4   9  13 71995.8 4743.55   1
   5   4 -13 81541.9 5132.17   2
   5   4 -13 69881.9 4775.58   1
  -4  -5  13 82669.6 5152.93   1
   5  -9 -13 77831.3 4868.53   2
  -5  -4  13 80862.3 5169.13   1
   4  -9 -13 77557.9 4954.06   2
   4   5 -13 83850.2 5168.77   2
   5  -9 -14 119921. 6228.58   1
   4  -9 -14 103176. 5856.01   1
   4   5 -14 101756. 5940.37   1
  -5   9  14 106934. 5944.61   1
  -4   9  14 100627. 5728.05   1
   4   5 -14 108899. 6031.08   2
   5   4 -14 101607. 5904.55   2
   5   4 -14 98267.2 5775.40   1
  -4  -5  14 112478. 6160.87   1
   5  -9 -14 102922. 5769.70   2
   4  -9 -14 94462.4 5551.16   2
  -5  -4  14 115154. 6249.44   1
  -4  -5  15 5658.91 1402.37   1
  -5  -4  15 6327.50 1384.73   1
   5  -9 -15 5825.96 1404.39   1
   4  -9 -15 7213.08 1495.78   1
   4   5 -15 5349.75 1331.42   2
   5   4 -15 4545.00 1226.03   1
   5   4 -15 5230.35 1375.29   2
  -5   9  15 5490.61 1340.88   1
  -4   9  15 3374.39 1044.54   1
   5  -9 -15 4859.47 1223.44   2
   4  -9 -15 5550.94 1289.97   2
   4   5 -15 5041.83 1373.56   1
   4  -9 -16 8786.64 1727.63   1
  -4   9  16 10004.1 1772.66   1
   5  -9 -16 7165.74 1498.84   2
   4  -9 -16 6740.12 1505.02   2
   6  -9  16 107201. 6268.41   1
  -6   9 -16 106633. 6192.83   1
  -3   9 -15 215.315 529.110   1
   9  -3 -15 1050.58 764.845   1
   9  -6 -15-350.507 599.161   1
  -9   3  15 481.655 470.667   1
  -9   6  15 1006.97 684.548   1
  -6   9 -15 277.806 549.729   1
   6  -9  15 449.882 383.834   1
   3  -9  15-603.473 753.684   1
   9  -3 -14 17605.3 2387.57   1
   9  -6 -14 17627.3 2358.83   1
  -3   9 -14 17598.3 2409.64   1
  -9   3  14 20465.1 2523.90   1
  -9   6  14 18756.1 2428.63   1
  -6   9 -14 15120.9 2187.40   1
   3  -9  14 19476.5 2441.06   1
   9  -3 -14 18218.4 2367.64   2
   9  -6 -14 18684.8 2468.62   2
   6  -9  14 17228.6 2376.96   1
  -3   9 -13-495.253 647.172   1
   9  -3 -13 190.253 402.226   1
   9  -6 -13 366.000 590.499   1
  -9   3  13-499.339 565.396   1
  -6   9 -13 566.099 695.428   1
  -9   6  13-501.447 429.903   1
   9  -3 -13 793.245 581.460   2
   6  -9  13-449.358 731.922   1
   9  -6 -13-537.550 766.381   2
   3  -9  13 829.816 935.027   1
   9  -3 -12 109747. 6088.09   1
  -3   9 -12 124283. 6252.39   1
   9  -6 -12 122033. 6396.91   1
  -9   3  12 122125. 6413.62   1
  -9   6  12 116791. 6127.43   1
   6  -9  12 119353. 6217.79   1
   3  -9  12 120535. 6114.58   1
   9  -3 -12 122456. 6100.51   2
   9  -6 -12 129363. 6439.70   2
  -6   9 -12 120607. 6211.27   1
   9  -3 -11 2417.86 955.003   1
   9  -6 -11 2419.53 843.857   1
  -6   9 -11 3703.90 1063.19   1
  -9   3  11 1842.13 693.786   1
  -9   6  11 2970.43 995.373   1
   9  -3 -11 3307.32 897.346   2
   6  -9  11 3180.39 1029.76   1
   9  -6 -11 2937.48 1150.76   2
   3  -9  11 3333.06 1046.76   1
  -3   9 -11 4007.16 1087.56   1
  -6   9 -10 13236.7 1925.24   1
   9  -3 -10 11295.5 1839.65   1
   9  -6 -10 13490.1 1884.70   1
  -9   6  10 13269.9 1939.76   1
  -9   3  10 13082.4 1874.84   1
   9  -3 -10 14897.9 2095.34   2
   6  -9  10 13940.8 2003.47   1
  -3   9 -10 12683.3 1867.31   1
   3  -9  10 13278.2 1894.76   1
   9  -6 -10 13277.1 1932.12   2
  -6   9  -9 11301.4 1769.83   1
  -9   3   9 12621.3 1918.50   1
   9  -3  -9 12979.4 1952.77   1
   9  -6  -9 10456.9 1720.50   1
  -3   9  -9 12904.0 1881.53   1
   6  -9   9 13179.5 1944.05   1
   9  -3  -9 10172.6 1667.74   2
  -9   6   9 11279.3 1730.44   1
   3  -9   9 11126.0 1825.51   1
   9  -6  -9 12275.6 1799.74   2
   9  -3  -8 197929. 7902.60   1
   9  -6  -8 180258. 7460.05   1
  -9   3   8 187087. 7727.06   1
  -9   6   8 214692. 8062.62   1
   6  -9   8 184901. 7538.06   1
   3  -9   8 199919. 7811.88   1
  -6   9  -8 189495. 7684.39   1
   9  -3  -8 191283. 7622.53   2
   9  -6  -8 178074. 7538.81   2
  -3   9  -8 197567. 7759.55   1
   9  -3  -7 4229.65 1047.67   1
   9  -6  -7 3768.87 1064.91   1
  -3   9  -7 4890.15 1115.32   1
  -9   3   7 3581.44 997.466   1
   6  -9   7 3848.09 1059.97   1
  -6   9  -7 4414.99 1096.61   1
   9  -3  -7 4232.51 1152.08   2
   3  -9   7 5002.66 1113.91   1
   9  -6  -7 3340.63 1001.16   2
  -9   6   7 4867.25 1124.62   1
   9  -3  -6 2955.00 836.969   1
  -3   9  -6 3168.67 925.642   1
   9  -6  -6 2879.78 808.250   1
  -9   3   6 2627.75 814.151   1
  -6   9  -6 2824.40 804.037   1
   6  -9   6 2639.12 909.404   1
   9  -3  -6 3041.74 908.829   2
   3  -9   6 2322.25 810.202   1
   9  -6  -6 2798.83 932.642   2
  -9   6   6 2583.10 737.286   1
   9  -6  -5 24915.5 2456.97   1
  -6   9  -5 26405.5 2567.71   1
   6  -9   5 27971.2 2563.12   1
  -9   6   5 27430.1 2643.09   1
   3  -9   5 26123.3 2512.47   1
  -3   9  -5 23391.0 2401.87   1
   9  -3  -5 26298.2 2523.17   2
   9  -6  -5 28250.3 2693.34   2
   9  -6  -4 351339. 10734.2   1
  -6   9  -4 397705. 11451.6   1
   6  -9   4 370508. 10961.9   1
   3  -9   4 386960. 11381.7   1
  -3   9  -4 407709. 11564.1   1
   9  -3  -4 361483. 11051.5   2
   9  -6  -4 381076. 11210.1   2
  -9   6   4 382151. 11203.5   1
  -9   6   3 467.137 419.659   1
  -6   9  -3-22.9743 350.251   1
   9  -6  -3 436.867 342.827   1
  -3   9  -3-234.306 400.718   1
   6  -9   3-210.658 442.532   1
   3  -9   3 223.623 430.809   1
   9  -3  -3-273.916 485.171   2
   9  -6  -3-216.815 549.085   2
  -9   6   2 8065.20 1381.96   1
  -6   9  -2 6134.89 1368.91   1
   9  -6  -2 6308.36 1131.62   1
  -3   9  -2 6296.33 1191.80   1
   6   3   2 6268.48 1318.27   2
   6  -9   2 5273.54 1215.85   1
   3  -9   2 4987.32 1021.87   1
   9  -3  -2 6112.32 1185.65   2
   9  -6  -2 5787.18 1362.47   2
  -6   9  -1 636.504 337.210   1
  -9   6   1 842.609 535.609   1
  -3   9  -1 1758.69 659.923   1
   9  -6  -1 1125.90 481.015   1
   6   3   1 1510.71 668.408   2
   6  -9   1 150.941 525.009   1
   3  -9   1 630.715 466.713   1
   9  -3  -1 1752.97 575.110   2
   9  -6  -1 930.658 579.719   2
  -6   9   0 383112. 11477.1   1
   9  -6   0 400830. 11077.1   1
  -3   9   0 389543. 11451.3   1
   6  -9   0 400657. 11496.3   1
   3  -9   0 423615. 11803.0   1
   6   3   0 443164. 12184.1   2
   9  -3   0 404482. 11183.8   2
  -9   6   0 414908. 11349.6   1
   9  -6   0 383339. 11214.7   2
  -3   9   1 6706.61 1367.63   1
  -9   6  -1 8438.49 1352.49   1
   9  -6   1 7926.26 1240.37   1
   6   3  -1 7175.17 1434.53   2
   3  -9  -1 7418.99 1396.39   1
  -3  -6   1 7078.75 1315.46   1
   6  -9  -1 5259.41 1114.41   1
  -6   9   1 7602.32 1381.35   1
   9  -6   1 6218.49 1169.51   2
  -9   6  -2 6901.39 1210.75   1
   3   6  -2 4806.34 966.360   1
   6  -9  -2 5840.11 1099.40   1
   3  -9  -2 7260.02 1443.18   1
   6   3  -2 5469.77 1142.04   2
  -6   9   2 4479.43 1028.72   1
  -3  -6   2 4913.70 1097.64   1
  -3   9   2 6125.64 1213.53   1
  -6   9   3 13350.2 1906.71   1
  -3   9   3 15843.8 1968.62   1
   6  -9  -3 13147.9 1765.78   1
   3   6  -3 13744.0 2058.19   2
   3  -9  -3 13305.6 1829.96   1
  -3  -6   3 16464.2 1981.78   1
   6   3  -3 12523.1 1830.39   2
   3   6  -3 14608.1 1789.29   1
  -3   9   4 192181. 7417.72   1
   3   6  -4 193931. 7330.93   1
   6  -9  -4 182720. 7250.03   1
   3  -9  -4 195367. 7443.53   1
   3   6  -4 171802. 7526.95   2
   6   3  -4 193099. 7687.61   2
  -3  -6   4 204849. 7642.64   1
  -6   9   4 191513. 7351.59   1
   6  -9  -4 211977. 8283.00   2
   3   6  -5 1604.31 588.072   1
  -6   9   5 905.945 513.012   1
   6  -9  -5 1390.75 579.937   1
   3  -9  -5 1264.75 544.150   1
  -3   9   5 1167.13 635.025   1
   3   6  -5 1256.94 560.440   2
   6   3  -5 2511.68 946.473   2
  -3  -6   5 2111.87 844.142   1
   6  -9  -5 1907.50 705.660   2
   3   6  -6-370.000 295.832   1
  -6   9   6 23.0418 325.334   1
   6  -9  -6 334.983 469.580   1
  -3   9   6-294.911 461.993   1
   3  -9  -6-56.5989 345.406   1
   3   6  -6-54.4277 382.414   2
   6   3  -6-143.375 422.034   2
   6  -9  -6 114.032 449.465   2
  -3  -6   6 1144.51 690.305   1
   6  -9  -7 21548.1 2427.53   1
   3  -9  -7 22812.4 2405.48   1
   3   6  -7 21667.4 2423.07   1
   3   6  -7 19365.6 2358.44   2
   6   3  -7 22340.8 2557.80   2
  -3  -6   7 22255.0 2488.38   1
  -6   9   7 22154.7 2439.38   1
  -3   9   7 18669.7 2226.62   1
  -6  -3   7 22427.6 2462.92   1
   6  -9  -7 23438.9 2540.25   2
   3   6  -8 265569. 9630.97   2
   6  -9  -8 275114. 9383.83   1
   3  -9  -8 271483. 9409.80   1
   3   6  -8 278279. 9710.01   1
   6   3  -8 257098. 9394.42   2
  -6   9   8 245778. 8998.38   1
   6   3  -8 263750. 9359.19   1
  -3  -6   8 275861. 9660.49   1
  -3   9   8 253950. 9176.42   1
  -6  -3   8 283316. 9589.99   1
   6  -9  -8 253973. 9307.38   2
  -3  -6   9 1989.52 821.706   1
  -6  -3   9 900.440 461.788   1
  -6   9   9 1679.51 718.083   1
  -3   9   9 1936.24 739.957   1
   6  -9  -9 678.697 509.824   1
   3  -9  -9 3034.13 1001.08   1
   3   6  -9 242.233 320.265   2
   6   3  -9 1157.97 619.155   2
   3   6  -9 1894.09 862.843   1
   6  -9  -9 1409.75 471.296   2
   6   3 -10 14848.3 2072.46   1
  -6   9  10 13270.1 1886.92   1
  -3   9  10 12795.0 1898.18   1
   6  -9 -10 12592.2 1897.57   1
   3  -9 -10 12139.5 1922.87   1
   3   6 -10 11821.6 1831.11   2
   6   3 -10 12326.7 1937.29   2
  -3  -6  10 14069.2 2091.52   1
  -6  -3  10 14442.4 2133.10   1
   3   6 -10 13802.0 1961.28   1
   6  -9 -10 14796.1 1931.02   2
   3  -9 -10 9174.67 1657.42   2
  -3  -6  11 1857.16 668.288   1
   6   3 -11 808.908 658.344   1
  -6   9  11-197.799 422.516   1
   3   6 -11 1642.51 787.837   1
  -3   9  11 1767.06 911.242   1
  -6  -3  11 1712.07 826.826   1
   6  -9 -11 1497.82 680.853   1
   3  -9 -11 1965.46 827.447   1
   3   6 -11 245.775 411.689   2
   6   3 -11 2190.54 867.522   2
   6  -9 -11 762.846 333.231   2
   3  -9 -11 631.370 571.082   2
  -3   9  12 174279. 7758.55   1
   6  -9 -12 210982. 8271.89   1
   3  -9 -12 196647. 8249.76   1
  -6   9  12 225624. 8531.03   1
   3   6 -12 205806. 8473.76   2
   6   3 -12 200097. 8272.62   2
  -3  -6  12 208775. 8545.72   1
   6  -9 -12 211491. 8264.87   2
   3   6 -12 172156. 7805.09   1
   3  -9 -12 158115. 7860.72   2
  -6  -3  12 195830. 8286.64   1
   6   3 -12 171785. 8077.03   1
  -3   9  13 2330.73 897.489   1
  -3  -6  13 2403.40 779.748   1
   6   3 -13 2908.30 959.339   1
  -6  -3  13 3122.96 1011.23   1
   3   6 -13 2412.91 1053.33   1
   6  -9 -13 3189.41 964.787   1
   3  -9 -13 3381.19 1010.62   1
   3   6 -13 3759.60 1106.17   2
   6   3 -13 3419.31 1151.50   2
   6  -9 -13 3110.88 871.178   2
   3  -9 -13 2774.96 924.194   2
  -6   9  13 3328.50 982.969   1
  -3  -6  14 5393.26 1322.37   1
   6   3 -14 6586.77 1459.50   1
  -6  -3  14 6021.79 1387.57   1
   3   6 -14 7768.39 1617.23   1
   6  -9 -14 7889.92 1592.25   1
   3  -9 -14 5091.76 1171.00   1
   3   6 -14 7070.31 1509.68   2
   6   3 -14 7425.13 1565.61   2
  -6   9  14 7990.31 1582.69   1
   6  -9 -14 8445.46 1580.21   2
  -3   9  14 6321.28 1448.48   1
   3  -9 -14 4565.45 1328.57   2
  -3  -6  15 5454.91 1264.98   1
   6   3 -15 4700.49 1220.04   1
  -6  -3  15 3906.44 1151.21   1
   3   6 -15 4888.57 1253.36   1
   6  -9 -15 5987.03 1367.32   1
   3  -9 -15 4053.84 1183.12   1
   3   6 -15 5613.93 1545.04   2
   6   3 -15 5878.13 1365.14   2
  -6   9  15 5556.33 1300.28   1
  -3   9  15 4867.47 1207.83   1
   6  -9 -15 4942.66 1367.25   2
   3  -9 -15 1792.06 631.918   2
   9  -2 -15 3334.44 1096.31   1
  -7   9 -15 3495.54 1099.68   1
  -9   2  15 3822.06 1140.80   1
   9  -2 -14 68911.7 5032.53   1
  -9   2  14 82446.8 5440.17   1
   9  -7 -14 87932.5 5480.80   1
  -2   9 -14 99100.7 5641.04   1
  -9   7  14 93852.6 5402.80   1
   7  -9  14 74018.7 5118.25   1
   9  -2 -14 85963.9 5251.13   2
   2  -9  14 96298.7 5580.72   1
  -7   9 -14 68301.2 4911.17   1
   9  -7 -14 80067.1 5292.20   2
  -2   9 -13 8662.26 1682.59   1
   9  -2 -13 6096.38 1412.59   1
  -7   9 -13 6397.61 1500.58   1
   9  -7 -13 6977.27 1473.76   1
  -9   2  13 9118.53 1625.37   1
  -9   7  13 7354.12 1591.04   1
   9  -2 -13 7746.74 1525.74   2
   7  -9  13 6108.69 1349.40   1
   9  -7 -13 7519.93 1608.13   2
   2  -9  13 7213.35 1423.92   1
  -2   9 -12 10684.5 1806.06   1
  -9   2  12 14017.8 2160.56   1
  -7   9 -12 11384.8 1857.94   1
   9  -2 -12 12520.1 1938.14   1
   9  -7 -12 13442.0 1964.11   1
   2  -9  12 15511.3 2200.14   1
   9  -2 -12 14684.6 2121.47   2
   7  -9  12 9955.12 1801.30   1
  -9   7  12 14298.1 2053.62   1
   9  -7 -12 11403.7 1996.34   2
   9  -2 -11 31299.9 3129.53   1
  -2   9 -11 33195.9 3135.68   1
  -9   2  11 30910.6 3123.66   1
   9  -7 -11 28069.7 2905.22   1
  -9   7  11 30714.4 3044.81   1
   7  -9  11 25573.4 2805.79   1
  -7   9 -11 33880.7 3196.62   1
   2  -9  11 35650.9 3146.63   1
   9  -2 -11 30288.2 3004.50   2
   9  -7 -11 31937.7 3179.92   2
  -2   9 -10 28101.9 2912.72   1
   9  -2 -10 28258.9 2936.13   1
  -9   2  10 30052.1 3029.64   1
   9  -7 -10 24745.4 2750.06   1
  -9   7  10 28662.8 2845.70   1
   7  -9  10 24694.9 2755.19   1
  -7   9 -10 31664.2 2992.61   1
   2  -9  10 26724.5 2826.05   1
   9  -2 -10 28993.4 2916.28   2
   9  -7 -10 28246.3 2951.11   2
  -9   2   9 38749.6 3383.86   1
   9  -7  -9 34998.8 3158.80   1
  -9   7   9 37148.1 3219.12   1
   7  -9   9 33403.8 3140.55   1
  -7   9  -9 31808.9 3041.43   1
   2  -9   9 39873.4 3402.22   1
   9  -2  -9 35595.2 3193.97   2
   9  -7  -9 36727.4 3273.23   2
  -2   9  -9 39942.1 3284.58   1
   9  -7  -8 895.300 511.925   1
  -9   2   8 93.4301 251.175   1
  -7   9  -8 1429.89 630.189   1
   7  -9   8 254.864 301.229   1
  -2   9  -8 1684.79 582.547   1
   9  -2  -8 738.192 555.093   2
   2  -9   8 1032.88 580.436   1
   9  -7  -8-205.364 563.637   2
  -9   7   8 879.454 639.318   1
   9  -7  -7 34690.6 3119.34   1
   9  -2  -7 35662.4 3100.65   2
  -7   9  -7 36783.2 3166.18   1
   7  -9   7 34693.6 3092.21   1
  -9   7   7 38666.3 3225.17   1
   2  -9   7 35388.7 3144.31   1
   9  -7  -7 35562.9 3064.55   2
  -2   9  -7 38176.1 3194.68   1
   9  -7  -6 242309. 8604.37   1
  -7   9  -6 231265. 8547.08   1
   7  -9   6 213778. 8179.29   1
  -9   7   6 239526. 8594.65   1
   2  -9   6 244578. 8709.42   1
   9  -2  -6 230941. 8531.06   2
  -2   9  -6 255345. 8862.11   1
   9  -7  -6 233659. 8513.85   2
   9  -7  -5 94716.3 5144.10   1
  -7   9  -5 109120. 5575.85   1
   7  -9   5 102088. 5321.28   1
   2  -9   5 109613. 5549.80   1
  -9   7   5 120555. 5701.36   1
   9  -2  -5 115957. 5614.59   2
  -2   9  -5 106935. 5485.78   1
   9  -7  -5 103737. 5302.22   2
   9  -7  -4 157333. 6577.94   1
  -7   9  -4 152056. 6572.68   1
   7  -9   4 138864. 6400.65   1
   2  -9   4 138476. 6368.42   1
  -9   7   4 161573. 6741.68   1
  -2   9  -4 147244. 6455.76   1
   9  -2  -4 140018. 6274.52   2
   9  -7  -4 159336. 6639.69   2
  -7   9  -3 97485.5 5159.17   1
   9  -7  -3 103695. 5221.48   1
   7  -9   3 101984. 5192.54   1
   2  -9   3 99845.3 5159.54   1
  -2   9  -3 96645.5 5149.55   1
   9  -2  -3 105452. 5270.04   2
  -9   7   3 90578.3 4876.81   1
   9  -7  -3 109886. 5396.87   2
  -7   9  -2 265267. 9120.20   1
   9  -7  -2 264767. 8858.84   1
   7  -9   2 250480. 8743.45   1
  -2   9  -2 252986. 8864.67   1
   2  -9   2 256651. 8972.02   1
   7   2   2 289856. 9366.01   2
   9  -2  -2 284379. 9112.43   2
  -9   7   2 259687. 8829.28   1
   9  -7  -2 269908. 8895.01   2
  -9   7   1 1441.85 658.431   1
   2   7   1 1250.24 592.829   1
  -2   9  -1 852.494 438.114   1
   9  -7  -1 977.384 520.646   1
   7  -9   1 1613.53 671.861   1
   7   2   1 331.381 409.082   2
  -2  -7  -1 1235.71 457.254   1
   2  -9   1 744.180 551.987   1
   9  -2  -1 1692.96 736.795   2
  -7   9  -1 2248.92 856.013   1
   9  -7  -1 1579.22 626.164   2
  -2   9   0 568.842 274.242   1
  -9   7   0 1289.54 739.848   1
   9  -7   0 431.132 380.339   1
   2   7   0 495.989 290.700   1
   7  -9   0 539.392 477.737   1
   7   2   0 1674.78 702.359   2
   2  -9   0 1280.69 647.561   1
  -2  -7   0 291.025 447.257   1
  -7   9   0-8.45572 483.508   1
   9  -7   0 297.877 432.412   2
  -2   9   1 5026.48 1097.94   1
  -9   7  -1 5790.78 1159.22   1
   9  -7   1 5862.94 1116.28   1
   7  -9  -1 5136.60 1131.53   1
   7   2  -1 5788.92 1280.30   2
   2  -9  -1 5016.27 1039.60   1
  -7   9   1 5106.61 1193.14   1
  -2  -7   1 4193.58 1063.42   1
   2   7  -1 4906.96 1061.49   1
   9  -7   1 4636.75 1041.29   2
   7  -9  -1 5267.50 1257.37   2
  -2   9   2 54981.0 3748.13   1
   9  -7   2 59591.4 3753.33   1
   7  -9  -2 49123.6 3513.72   1
   2  -9  -2 54030.7 3690.73   1
  -2  -7   2 53973.5 3633.07   1
   7   2  -2 53133.9 3708.99   2
   2   7  -2 52843.7 3665.32   1
   7  -9  -2 46160.5 3659.41   2
  -9   7  -2 49050.9 3483.04   1
  -7   9   2 49958.5 3586.40   1
  -2   9   3 179741. 7057.63   1
   7  -9  -3 165923. 6814.50   1
   9  -7   3 151841. 6307.69   1
   2  -9  -3 147378. 6506.15   1
   7   2  -3 159677. 6905.26   2
  -2  -7   3 186645. 7164.41   1
   2   7  -3 157477. 6629.69   1
   7  -9  -3 166111. 7130.22   2
  -7   9   3 157387. 6590.30   1
  -9   7  -3 143221. 6319.38   1
  -9   7  -4 13695.2 1856.86   1
  -2   9   4 14507.5 1957.49   1
   7  -9  -4 12870.1 1801.58   1
   2  -9  -4 9905.95 1573.81   1
  -2  -7   4 14101.8 1958.46   1
   7   2  -4 12638.0 1939.58   2
   2   7  -4 15116.8 1870.27   1
  -7   9   4 14794.9 1965.71   1
   7  -9  -4 14865.9 1958.13   2
   2   7  -5 122146. 5791.80   1
   7  -9  -5 112049. 5526.30   1
   2  -9  -5 105197. 5322.66   1
   7   2  -5 103353. 5404.77   2
  -2  -7   5 101715. 5388.34   1
  -7   9   5 106741. 5427.36   1
   7  -9  -5 110338. 5520.41   2
  -2   9   5 111092. 5517.19   1
   2   7  -6 170100. 7650.97   2
   2   7  -6 215215. 8119.70   1
   7  -9  -6 208962. 8064.67   1
   2  -9  -6 206471. 7946.03   1
   7   2  -6 202626. 7907.16   2
  -2  -7   6 185735. 7685.41   1
  -7   9   6 193045. 7714.67   1
   7  -9  -6 221949. 8085.73   2
  -2   9   6 205819. 7818.09   1
   2   7  -7 7088.43 1389.79   1
  -7   9   7 10227.9 1684.78   1
  -2   9   7 6542.70 1369.02   1
   7  -9  -7 9490.02 1582.24   1
   2  -9  -7 9904.19 1651.14   1
   2   7  -7 8097.44 1528.64   2
   7   2  -7 7264.68 1518.16   2
  -2  -7   7 6868.14 1345.83   1
   7  -9  -7 8309.54 1514.49   2
   7  -9  -8 48676.7 3625.46   1
   2  -9  -8 50945.0 3737.54   1
   2   7  -8 44298.5 3599.07   1
   2   7  -8 46263.2 3779.48   2
   7   2  -8 39444.8 3471.40   2
  -7   9   8 51374.6 3708.35   1
  -2  -7   8 41795.8 3559.86   1
  -2   9   8 52084.2 3810.44   1
   7  -9  -8 47838.3 3620.06   2
   7  -9  -9 19790.0 2371.31   1
   2  -9  -9 20415.2 2389.32   1
   2   7  -9 18761.7 2370.84   1
   2   7  -9 18823.1 2455.98   2
   7   2  -9 18288.4 2340.34   2
  -7   9   9 19488.2 2287.01   1
  -2   9   9 21945.0 2470.36   1
  -2  -7   9 18374.5 2301.86   1
   7  -9  -9 18016.7 2222.98   2
  -7  -2   9 20192.4 2402.83   1
   7  -9 -10 150430. 6694.62   1
   2  -9 -10 129451. 6500.08   1
   2   7 -10 133318. 6682.81   1
   2   7 -10 141973. 6958.92   2
  -7   9  10 156576. 6771.68   1
   7   2 -10 123647. 6411.89   2
  -2   9  10 138375. 6614.84   1
  -2  -7  10 147521. 6888.27   1
   7  -9 -10 140377. 6510.22   2
  -7  -2  10 142715. 6841.81   1
   7   2 -10 118223. 6435.46   1
   7  -9 -11 48445.8 3791.63   1
   2  -9 -11 45587.5 3716.27   1
   2   7 -11 47010.4 3824.90   1
  -7   9  11 54584.9 3963.21   1
   2   7 -11 39679.4 3641.86   2
   7   2 -11 49950.6 3902.14   2
  -2   9  11 51316.0 3936.03   1
  -2  -7  11 50522.0 3976.12   1
   7  -9 -11 53123.1 3844.20   2
  -7  -2  11 53160.3 4084.42   1
   7   2 -11 47737.4 3930.05   1
  -7   9  12 10408.9 1802.51   1
  -2  -7  12 7009.37 1489.95   1
  -2   9  12 9032.54 1665.37   1
   7   2 -12 6442.99 1540.90   1
  -7  -2  12 9236.41 1643.53   1
   7  -9 -12 8763.86 1607.91   1
   2  -9 -12 7684.06 1591.33   1
   2   7 -12 9169.97 1733.76   2
   2   7 -12 8664.95 1630.07   1
   7   2 -12 8392.96 1573.16   2
   7  -9 -12 8516.13 1541.67   2
   2  -9 -12 4529.36 1316.56   2
   7  -9 -13 22739.1 2612.06   1
   2  -9 -13 22676.4 2639.60   1
  -7   9  13 24526.2 2639.39   1
   2   7 -13 20778.2 2698.25   2
   7   2 -13 22660.7 2579.07   2
   2   7 -13 20872.2 2602.18   1
  -2  -7  13 22569.6 2651.16   1
   7  -9 -13 21500.9 2581.46   2
  -7  -2  13 21548.9 2602.20   1
   7   2 -13 17184.2 2477.97   1
   7  -9 -14 30588.8 3128.17   1
  -7   9  14 34277.3 3220.71   1
   2   7 -14 31169.5 3388.91   2
   7   2 -14 36800.3 3391.46   2
   2   7 -14 33823.3 3351.95   1
  -2  -7  14 38936.8 3445.89   1
   7  -9 -14 35637.1 3314.68   2
  -7  -2  14 32575.9 3347.51   1
   7   2 -14 28914.8 3189.56   1
   7   2 -15 8257.57 1767.02   1
  -7  -2  15 9076.16 1784.46   1
   2   7 -15 9350.81 1882.24   2
  -9   1  15 10959.4 1918.98   1
   9  -1 -14 40300.6 3842.05   1
  -9   1  14 42228.6 3820.28   1
  -9   1  13 42512.4 3805.63   1
   9  -8 -13 44899.6 3645.10   1
  -1   9 -13 48536.9 3943.83   1
  -9   8  13 51667.6 3956.06   1
   9  -1 -13 40998.0 3630.69   2
   1  -9  13 51809.7 3984.61   1
   9  -8 -13 50519.4 4086.57   2
  -1   9 -12 7035.93 1416.23   1
   9  -8 -12 6068.89 1448.74   1
  -9   1  12 4125.94 1125.28   1
   9  -1 -12 6515.91 1430.08   2
  -8   9 -12 6141.88 1264.86   1
  -9   8  12 7591.47 1311.06   1
   9  -8 -12 5885.18 1430.78   2
   1  -9  12 6313.13 1406.15   1
  -1   9 -11 8628.71 1569.57   1
   9  -8 -11 8505.87 1558.17   1
  -8   9 -11 7214.60 1518.84   1
   8  -9  11 6499.48 1422.91   1
   9  -1 -11 6221.58 1436.44   2
   1  -9  11 9882.05 1723.65   1
   9  -8 -11 5859.68 1372.51   2
  -9   8  11 6765.25 1442.04   1
  -1   9 -10 92027.5 5407.36   1
   9  -8 -10 84266.7 5137.04   1
  -9   8  10 95079.4 5335.95   1
  -8   9 -10 87088.7 5245.86   1
   8  -9  10 92299.4 5405.07   1
   9  -1 -10 93084.4 5285.45   2
   1  -9  10 93284.4 5357.06   1
   9  -8 -10 83587.2 5184.27   2
  -1   9  -9 23812.1 2559.27   1
   9  -8  -9 25130.7 2695.79   1
  -8   9  -9 21443.4 2535.91   1
  -9   8   9 24675.7 2614.16   1
   8  -9   9 23485.9 2623.89   1
   9  -1  -9 23780.1 2583.45   2
   1  -9   9 26343.4 2764.19   1
   9  -8  -9 25569.0 2728.35   2
  -9   8   8 3098.97 997.711   1
   9  -8  -8 3490.52 1048.16   1
  -8   9  -8 3347.66 1077.47   1
   8  -9   8 2916.65 918.251   1
   9  -1  -8 2459.54 847.395   2
  -1   9  -8 3962.65 986.139   1
   1  -9   8 3045.80 809.505   1
   9  -8  -8 3420.93 1045.73   2
   9  -8  -7 42104.3 3456.06   1
  -8   9  -7 42303.1 3452.31   1
   8  -9   7 50047.4 3734.49   1
  -9   8   7 43565.9 3476.64   1
   1  -9   7 42371.5 3487.79   1
   9  -1  -7 41588.2 3491.52   2
   9  -8  -7 44278.5 3525.21   2
  -1   9  -7 50651.7 3712.70   1
   9  -8  -6 94286.0 5118.28   1
  -8   9  -6 89012.3 5141.35   1
   8  -9   6 92223.8 5164.43   1
   1  -9   6 84849.4 4908.37   1
  -9   8   6 92243.9 5171.29   1
   9  -1  -6 95409.0 5154.98   2
  -1   9  -6 88265.1 5010.63   1
   9  -8  -6 97075.5 5200.36   2
   9  -8  -5 19226.2 2192.76   1
  -8   9  -5 18546.1 2250.63   1
   8  -9   5 19611.6 2286.92   1
   1  -9   5 19568.8 2314.03   1
   9  -1  -5 18685.0 2186.87   2
  -9   8   5 19090.0 2232.07   1
  -1   9  -5 15839.4 2123.03   1
   9  -8  -5 18984.2 2163.24   2
  -8   9  -4 65515.0 4255.81   1
   9  -8  -4 60589.2 4118.47   1
   8  -9   4 71649.5 4382.55   1
   1  -9   4 67845.9 4397.69   1
   9  -1  -4 72111.1 4406.28   2
  -1   9  -4 66148.2 4271.87   1
  -9   8   4 70468.7 4385.13   1
   9  -8  -4 73732.6 4441.14   2
  -8   9  -3 45928.1 3511.25   1
   9  -8  -3 38563.7 3208.33   1
   9  -1  -3 42857.0 3368.68   2
  -1  -8  -3 43664.8 3311.37   1
   8  -9   3 49873.0 3530.79   1
   1  -9   3 38223.5 3282.70   1
  -1   9  -3 41397.9 3327.30   1
  -9   8   3 39810.0 3269.86   1
   9  -8  -3 45297.0 3406.87   2
  -8   9  -2 211211. 8089.11   1
   1   8   2 256451. 8700.57   1
   9  -8  -2 198114. 7810.75   1
   8  -9   2 200231. 7847.38   1
  -1  -8  -2 214813. 8143.01   1
  -1   9  -2 247358. 8652.07   1
   1  -9   2 230908. 8362.61   1
   9  -1  -2 223466. 8297.37   2
  -9   8   2 229206. 8280.40   1
   9  -8  -2 236944. 8318.53   2
   8  -9   2 184592. 7765.59   2
  -8   9  -1 71087.1 4371.12   1
   9  -8  -1 72341.3 4333.10   1
   8  -9   1 69121.0 4270.98   1
  -1   9  -1 74825.9 4495.89   1
  -1  -8  -1 86231.6 4782.45   1
   1  -9   1 62433.3 4140.77   1
   9  -1  -1 75398.2 4520.97   2
   9  -8  -1 74942.4 4397.49   2
  -9   8   1 68976.9 4291.83   1
   8  -9   1 70588.4 4482.45   2
  -1   9   0 10724.7 1646.85   1
   1   8   0 11287.1 1693.48   1
  -9   8   0 8900.24 1456.12   1
   9  -8   0 9945.47 1495.57   1
   8  -9   0 9711.74 1673.02   1
   8   1   0 7239.86 1510.94   2
  -8   9   0 9787.12 1584.12   1
   1  -9   0 10329.6 1586.83   1
  -1  -8   0 12462.2 1669.66   1
   9  -8   0 9222.80 1483.19   2
   8  -9   0 10006.4 1594.99   2
  -1   9   1 55899.8 3856.27   1
   9  -8   1 61601.7 3926.92   1
   8  -9  -1 59969.9 3869.66   1
   1  -9  -1 58781.6 3974.39   1
   1   8  -1 64239.1 4123.04   1
  -1  -8   1 57499.3 3901.74   1
   8   1  -1 50102.4 3863.65   2
   9  -8   1 49698.8 3502.37   2
   8  -9  -1 64379.8 4146.94   2
  -9   8  -1 56108.5 3810.46   1
  -8   9   1 56154.1 3858.78   1
  -9   8  -2 122570. 5775.79   1
  -1   9   2 126690. 5975.96   1
   8  -9  -2 118521. 5726.48   1
   9  -8   2 107344. 5373.19   1
   1  -9  -2 120263. 5803.94   1
  -1  -8   2 111442. 5675.56   1
   8   1  -2 116254. 5839.32   2
   1   8  -2 112508. 5629.55   1
   8  -9  -2 113147. 5596.20   2
  -8   9   2 115657. 5641.90   1
  -9   8  -3 72984.9 4367.46   1
  -1   9   3 71421.6 4299.98   1
   8  -9  -3 62167.1 4043.89   1
   9  -8   3 73147.3 4261.80   1
   1  -9  -3 68249.5 4334.17   1
  -1  -8   3 64068.6 4206.67   1
   8   1  -3 61542.1 4265.03   2
   1   8  -3 66037.3 4224.69   1
  -8   9   3 56427.0 3893.70   1
   8  -9  -3 72760.2 4427.10   2
   1   8  -4 2983.99 833.004   1
  -8   9   4 2824.08 901.339   1
   8  -9  -4 3654.47 1096.76   1
   1  -9  -4 1648.47 611.185   1
   9  -8   4 3487.59 881.527   1
   8   1  -4 2761.68 983.532   2
  -1   9   4 1845.17 831.330   1
  -9   8  -4 1940.39 858.942   1
  -1  -8   4 3181.85 991.526   1
   8  -9  -4 1080.93 528.220   2
  -9   8  -5 15750.9 2062.79   1
   8  -9  -5 13564.9 1939.49   1
   1  -9  -5 13676.2 1943.61   1
   9  -8   5 13550.6 1846.33   1
  -1  -8   5 14359.9 1966.07   1
   1   8  -5 12700.1 1870.85   1
   8   1  -5 14060.2 1984.17   2
  -8   9   5 14763.6 1990.00   1
   8  -9  -5 15432.2 2001.63   2
  -1   9   5 13817.3 1884.44   1
  -9   8  -6 120879. 6021.24   1
   8  -9  -6 109308. 5706.57   1
   1  -9  -6 109626. 5730.94   1
   8   1  -6 123768. 6133.69   2
  -1  -8   6 130203. 6234.88   1
  -8   9   6 120872. 5930.26   1
   8  -9  -6 116460. 5760.56   2
  -1   9   6 119273. 5893.34   1
   1   8  -6 112822. 5870.76   1
  -8   9   7 7315.19 1445.10   1
  -1   9   7 8113.00 1551.44   1
   8  -9  -7 7502.87 1499.21   1
   1  -9  -7 8005.88 1439.76   1
   8   1  -7 4653.54 1140.17   2
  -1  -8   7 7948.73 1573.34   1
   8  -9  -7 6085.37 1256.66   2
   1   8  -7 6260.64 1377.97   1
   1   8  -8 65770.9 4442.42   1
   8  -9  -8 76485.3 4654.94   1
   1  -9  -8 66481.7 4414.96   1
   8   1  -8 66232.1 4471.54   2
  -8   9   8 69150.2 4471.37   1
  -1  -8   8 76601.4 4814.65   1
  -1   9   8 77855.2 4725.83   1
   8  -9  -8 63122.6 4252.33   2
   1   8  -9 72547.1 4673.83   1
   8  -9  -9 69842.3 4512.47   1
   1  -9  -9 75248.4 4803.00   1
  -8   9   9 74291.5 4710.91   1
   8   1  -9 73849.6 4825.18   2
  -1  -8   9 69448.6 4644.00   1
   8  -9  -9 80664.8 4774.42   2
   1   8 -10 93243.2 5498.42   1
   8  -9 -10 97194.7 5384.77   1
  -8   9  10 94113.9 5369.52   1
   8   1 -10 98254.1 5626.71   2
  -1  -8  10 83790.5 5207.60   1
   8  -9 -10 97793.5 5441.58   2
   8  -9 -11 40173.6 3435.45   1
   1   8 -11 36112.4 3388.95   1
  -8   9  11 40057.6 3437.08   1
   8   1 -11 36001.4 3320.18   2
  -1  -8  11 40080.6 3485.89   1
   8  -9 -11 39829.4 3409.90   2
  -8  -1  12 1482.51 799.296   1
   8  -9 -12 88.2683 396.753   1
   1   8 -12 1972.49 890.653   1
   8   1 -12 1282.46 886.739   2
   8  -9 -12 1719.13 783.366   2
  -1  -8  12 1539.10 883.074   1
  -8   9  12 1208.09 597.140   1
   1  -9 -12 29.2582 344.379   2
  -8  -1  13 6377.77 1497.40   1
   8  -9 -13 8641.81 1657.15   1
   1   8 -13 7996.10 1633.86   1
   8   1 -13 6459.69 1460.18   2
   1   8 -13 4876.68 1284.85   2
  -8   9  13 8782.31 1573.89   1
   8  -9 -13 7192.36 1560.57   2
   1  -9 -13 1213.17 632.016   2
  -1  -8  13 8053.44 1515.50   1
   1   8 -14 48110.7 4163.94   2
  -8  -1  14 57873.3 4492.19   1
   9  -9   0 912861. 20802.9   1
   0   9   0 926141. 21086.8   1
   0  -9   0 863321. 20622.6   1
  -9   9   0 916176. 20786.1   1
   0   9   1 1088.16 699.808   1
  -9   9  -1 525.012 617.889   1
   0   9  -1-502.966 314.742   1
  -9   9   1 1132.52 610.114   1
   9  -9  -1 321.951 503.309   1
   9  -9   1 834.186 508.770   1
   0  -9  -1 21.4821 571.084   1
   9   0  -1 1750.14 773.244   2
   0  -9   1 932.048 471.502   1
   9  -9  -1 103.679 433.669   2
   9  -9   1 265.916 453.412   2
   0   9   2 1635.37 691.257   1
  -9   9   2 653.626 468.706   1
   9  -9  -2 888.553 657.443   1
   9  -9   2-44.0485 331.035   1
   0   9  -2-160.098 460.701   1
   0  -9  -2 158.142 536.473   1
   9   0  -2 386.275 533.045   2
  -9   9  -2 1095.36 619.034   1
   0  -9   2-115.026 501.494   1
   9  -9  -2 379.078 343.398   2
  -9   9   3 2085.49 666.929   1
   9  -9  -3 1079.18 659.369   1
   9  -9   3 464.412 457.442   1
   0  -9  -3 1652.23 605.424   1
   9   0  -3 1489.06 780.101   2
   0  -9   3 1577.30 707.120   1
  -9   9  -3 1851.95 751.413   1
   0   9  -3 281.153 532.270   1
   0   9   3 660.462 316.468   1
   9  -9  -3 1276.73 722.678   2
   0   9   4 33349.0 3017.77   1
  -9   9  -4 31958.6 3050.67   1
   9  -9  -4 34335.6 3088.90   1
   0  -9  -4 31034.8 2883.29   1
   9  -9   4 34107.8 3042.54   1
   0  -9   4 33136.4 3038.56   1
   9   0  -4 33055.3 3099.29   2
   0   9  -4 33264.5 2987.84   1
  -9   9   4 32187.3 2971.43   1
   9  -9  -4 35140.4 2995.47   2
  -9   9   5 206.396 385.413   1
   0   9  -5-4.14155 407.093   1
   9  -9  -5 480.289 587.871   1
   0  -9  -5 269.706 475.913   1
   9  -9   5 183.185 335.542   1
   9   0  -5 73.3328 334.523   2
   0  -9   5 45.9707 467.323   1
   9  -9  -5 601.870 477.676   2
  -9   9  -5 321.057 450.576   1
  -9   9  -6 3555.39 1026.92   1
  -9   9   6 5076.29 1163.04   1
   9  -9  -6 5181.14 1229.21   1
   0   9  -6 8174.13 1553.76   1
   9  -9   6 3817.16 970.218   1
   9   0  -6 5344.18 1238.45   2
   0  -9   6 4898.59 1175.18   1
   9  -9  -6 5422.79 1209.83   2
  -9   9  -7 1520.05 724.857   1
  -9   9   7 1980.32 579.347   1
   9  -9  -7 821.984 742.195   1
   0   9  -7 123.890 445.370   1
   9  -9   7 716.045 544.609   1
   9   0  -7 253.194 424.857   2
   0  -9   7 1086.24 534.919   1
   9  -9  -7 218.641 543.689   2
   9  -9  -8 164011. 7142.64   1
  -9   9  -8 151753. 7126.09   1
  -9   9   8 155433. 6979.45   1
   9   0  -8 142215. 6955.94   2
   0  -9   8 155081. 7134.15   1
   9  -9  -8 153029. 6963.01   2
   0   9  -8 136559. 6750.57   1
  -9   9   9 738.304 492.171   1
   9  -9  -9 625.752 451.780   1
   9   0  -9 1887.99 866.253   2
   0  -9   9 296.690 511.943   1
   0   9  -9 529.976 556.880   1
   9  -9  -9 336.285 423.680   2
  -9   9  10 1277.32 806.696   1
   9  -9 -10 946.426 608.372   1
   9   0 -10 938.756 577.906   2
   0  -9  10 1035.15 396.395   1
   9  -9 -10 1306.56 787.476   2
   0   9 -10 891.762 509.558   1
   0   9 -11 312.501 435.154   1
   9  -9 -11-54.7779 350.490   1
   9   0 -11-249.839 379.135   2
   0  -9  11 1043.34 712.150   1
   9  -9 -11-45.3952 518.111   2
  -9   9  11 701.026 559.863   1
   0   9 -12 176833. 7968.67   1
   9  -9 -12 188035. 7815.34   1
  -9   9  12 189492. 7959.48   1
   9   0 -12 171066. 7787.00   2
   0  -9  12 167760. 7651.45   1
   9  -9 -12 161819. 7563.14   2
  10  -5 -14 553.285 574.120   1
 -10   5  14 1506.92 803.549   1
  10  -5 -13-90.5339 475.931   1
  -5  10 -13 512.439 520.052   1
 -10   5  13 140.129 363.808   1
  10  -5 -13 606.336 505.761   2
   5 -10  13 199.708 335.459   1
  10  -5 -12 376099. 13011.9   1
 -10   5  12 382927. 12845.8   1
   5 -10  12 479524. 13754.1   1
  10  -5 -12 456095. 13324.6   2
  -5  10 -12 478067. 13709.0   1
  10  -5 -11 9.44344 361.764   1
  -5  10 -11 378.810 307.254   1
 -10   5  11-161.908 432.477   1
   5 -10  11-1058.03 804.026   1
  10  -5 -11 263.285 377.568   2
  -5  10 -10 5925.18 1429.06   1
  10  -5 -10 5286.20 1333.59   1
 -10   5  10 4520.01 1158.24   1
   5 -10  10 5621.46 1277.55   1
  10  -5 -10 5792.76 1300.64   2
  -5  10  -9-694.269 593.899   1
  10  -5  -9-170.394 345.550   1
 -10   5   9 1177.27 862.662   1
   5 -10   9 1167.58 751.593   1
  10  -5  -9-933.975 676.819   2
  10  -5  -8 50033.9 3897.30   1
 -10   5   8 44460.5 3683.61   1
   5 -10   8 45038.3 3554.59   1
  -5  10  -8 44670.6 3522.21   1
  10  -5  -8 44922.2 3591.95   2
  10  -5  -7 294.104 410.841   1
 -10   5   7 387.014 594.191   1
   5 -10   7 1055.02 770.153   1
  10  -5  -7 482.782 475.187   2
  -5  10  -7 965.961 644.885   1
  10  -5  -6 24744.5 2611.09   1
 -10   5   6 21259.8 2423.02   1
   5 -10   6 23775.8 2593.41   1
  -5  10  -6 26506.3 2743.91   1
  10  -5  -6 26609.4 2630.99   2
  -5  10  -5-214.160 436.308   1
   5 -10   5-292.726 551.437   1
 -10   5   5 212.966 482.443   1
  10  -5  -5 221.130 323.671   2
  -5  10  -4 166371. 7067.53   1
   5 -10   4 161474. 6858.65   1
  10  -5  -4 176677. 7300.57   2
  -5  10  -3 610.072 465.357   1
   5 -10   3-693.284 614.622   1
  10  -5  -3-157.684 268.640   2
  -5  10  -2 23211.2 2516.84   1
   5 -10   2 27037.3 2690.87   1
  10  -5  -2 26244.6 2603.57   2
  -5  10  -1-80.1936 350.485   1
   5 -10   1 642.802 468.986   1
  -5  10   0 707355. 17381.1   1
   5 -10   0 701267. 17212.6   1
   5   5  -1-282.758 442.868   2
   5 -10  -1 343.783 475.700   1
  -5  10   1 571.113 499.327   1
   5 -10  -2 12524.8 1843.27   1
   5   5  -2 10243.0 1738.25   2
  -5  10   2 13216.7 1876.14   1
   5 -10  -3-186.059 256.324   1
   5   5  -3-157.487 494.362   2
  -5  10   3 165.063 362.600   1
   5 -10  -4 154973. 6663.04   1
   5   5  -4 133357. 6490.12   2
  -5  10   4 151792. 6664.98   1
   5 -10  -5-378.799 269.096   1
  -5  10   5-698.088 525.729   1
   5   5  -5-151.172 443.726   2
  -5  10   6 6161.68 1245.16   1
   5 -10  -6 6884.40 1380.56   1
   5   5  -6 6224.59 1339.38   2
  -5  10   7-140.534 286.613   1
   5 -10  -7-665.971 604.524   1
   5   5  -7-841.188 779.367   2
   5 -10  -7-418.808 540.812   2
   5 -10  -8 85553.5 4991.63   1
  -5  10   8 67784.7 4497.53   1
  -5  -5   8 78778.2 5001.05   1
   5 -10  -8 73826.5 4831.65   2
   5   5  -8 81607.7 4968.44   2
  -5  -5   9 181.748 467.116   1
   5   5  -9-789.385 546.125   1
  -5  10   9 533.584 284.946   1
   5 -10  -9-507.443 715.524   1
   5   5  -9 181.471 675.407   2
   5 -10  -9 371.119 482.826   2
  -5  -5  10 13986.3 2034.58   1
  -5  10  10 15401.5 2014.16   1
   5 -10 -10 13119.2 1988.97   1
   5   5 -10 16780.8 2205.93   2
   5   5 -10 17023.6 2334.34   1
   5 -10 -10 14721.7 2022.89   2
  -5  -5  11 148.804 372.342   1
  -5  10  11 530.143 608.373   1
   5   5 -11 89.8384 404.564   1
   5 -10 -11-693.826 826.470   1
   5   5 -11-177.866 526.572   2
   5   5 -12 209365. 9216.35   1
   5 -10 -12 300984. 10342.1   1
  -5  10  12 290142. 10200.4   1
   5   5 -12 293462. 10412.4   2
  -5  -5  12 274174. 10257.2   1
   5 -10 -12 228614. 9210.11   2
  -5  10  13 504.048 527.713   1
  -5  -5  13-91.4199 425.415   1
   5 -10 -13-301.731 482.007   1
   5   5 -13-853.727 640.422   1
   5   5 -13 1290.12 875.608   2
   5 -10 -13-38.9665 368.144   2
   5   5 -14 25243.0 3057.45   1
   5 -10 -14 28263.9 3029.97   1
  -5  10  14 32477.5 3192.65   1
  -5  -5  14 26926.0 3039.96   1
  10  -4 -14 46931.9 4080.19   1
 -10   4  14 46639.2 3985.42   1
  -6  10 -14 40268.9 3689.96   1
  10  -4 -13 60247.5 4669.26   1
  10  -6 -13 71439.5 4993.49   1
 -10   4  13 73565.8 5013.87   1
 -10   6  13 73162.0 4921.82   1
   6 -10  13 75973.3 4972.03   1
   4 -10  13 84979.8 5148.21   1
  10  -4 -13 72971.7 4797.39   2
  10  -6 -13 80440.8 4999.64   2
  -6  10 -13 74295.0 4914.39   1
  -4  10 -13 77675.3 5029.19   1
  10  -4 -12 33953.0 3431.79   1
  10  -6 -12 34595.6 3479.08   1
 -10   4  12 41955.9 3730.11   1
 -10   6  12 48558.5 3851.68   1
   6 -10  12 55461.3 4154.08   1
   4 -10  12 51959.4 4034.18   1
  10  -4 -12 46627.6 3761.98   2
  -6  10 -12 50918.5 3963.36   1
  10  -6 -12 48548.8 3964.34   2
  -4  10 -12 55424.5 4150.58   1
  -6  10 -11 8262.29 1623.02   1
  10  -4 -11 5572.03 1282.31   1
  10  -6 -11 6098.21 1449.03   1
  -4  10 -11 7725.78 1545.94   1
 -10   6  11 7250.57 1512.84   1
   6 -10  11 9510.05 1697.21   1
  10  -4 -11 9414.66 1627.59   2
   4 -10  11 6218.17 1367.60   1
  10  -6 -11 5564.49 1275.45   2
 -10   4  11 7465.90 1587.40   1
  10  -4 -10 125579. 6650.47   1
  10  -6 -10 117785. 6450.16   1
 -10   4  10 157234. 7327.53   1
 -10   6  10 154976. 7077.26   1
   6 -10  10 140969. 6733.40   1
   4 -10  10 159332. 7124.68   1
  -6  10 -10 158611. 7134.19   1
  10  -4 -10 142455. 6696.14   2
  10  -6 -10 145974. 6997.25   2
  -4  10 -10 164827. 7271.18   1
  -4  10  -9 6954.24 1316.62   1
  10  -6  -9 6408.03 1353.92   1
 -10   4   9 8715.68 1607.26   1
 -10   6   9 5976.99 1484.59   1
   6 -10   9 8472.12 1606.29   1
  10  -4  -9 7202.09 1472.97   2
   4 -10   9 6936.53 1382.56   1
  10  -6  -9 7486.50 1550.27   2
  -6  10  -9 6171.95 1397.66   1
  -4  10  -8-260.992 515.699   1
  10  -6  -8 587.116 594.230   1
 -10   4   8 569.019 529.520   1
   6 -10   8 720.250 739.722   1
  -6  10  -8-920.167 535.624   1
   4 -10   8 434.949 503.983   1
 -10   6   8 1093.72 682.869   1
  10  -4  -8 764.135 598.030   2
  10  -6  -8 311.638 697.520   2
  10  -6  -7 56545.9 4017.15   1
 -10   6   7 58247.4 4105.87   1
  -6  10  -7 52907.7 3963.33   1
   6 -10   7 55746.8 3950.75   1
   4 -10   7 63002.0 4206.54   1
  -4  10  -7 59482.5 4128.02   1
  10  -4  -7 54929.6 3963.98   2
  10  -6  -7 48172.1 3763.46   2
  10  -6  -6 46645.4 3610.26   1
 -10   6   6 43819.6 3522.20   1
  -6  10  -6 42498.8 3391.83   1
   6 -10   6 45654.6 3565.83   1
  -4  10  -6 53747.9 3812.75   1
  10  -4  -6 44053.9 3478.21   2
  10  -6  -6 47149.7 3703.02   2
   4 -10   6 50437.2 3732.69   1
  10  -6  -5 19630.0 2256.64   1
  -6  10  -5 20931.9 2367.64   1
 -10   6   5 22870.9 2553.63   1
   6 -10   5 23446.9 2477.50   1
   4 -10   5 22615.4 2396.88   1
  -4  10  -5 19355.6 2286.38   1
  10  -4  -5 18417.3 2232.35   2
  10  -6  -5 20403.7 2427.40   2
  -6  10  -4 5590.98 1309.28   1
  10  -6  -4 6643.10 1313.61   1
  -4  10  -4 6815.72 1458.91   1
   6 -10   4 7601.70 1449.55   1
   4 -10   4 5415.46 1235.07   1
  10  -4  -4 8940.64 1527.84   2
  10  -6  -4 5443.23 1133.04   2
 -10   6   4 5912.23 1214.98   1
  -6  10  -3 32392.3 2941.32   1
  -4  10  -3 31305.3 2892.09   1
   6 -10   3 36413.3 3121.10   1
 -10   6   3 31503.0 2867.57   1
   4 -10   3 30400.7 2842.80   1
  10  -4  -3 32929.9 2991.39   2
  10  -6  -3 32239.8 3004.61   2
  -6  10  -2 243480. 8787.06   1
  -4  10  -2 226521. 8618.06   1
   6 -10   2 240719. 8745.49   1
   4 -10   2 252583. 8830.75   1
  10  -4  -2 255185. 8813.98   2
  10  -6  -2 227871. 8364.25   2
  -6  10  -1 83172.7 4934.76   1
  -4  10  -1 85199.9 4874.60   1
   6 -10   1 90351.5 5004.51   1
   4 -10   1 92634.0 5002.66   1
   6   4   1 85635.1 5098.17   2
  10  -6  -1 93787.1 4961.83   2
  -6  10   0 66302.7 4244.64   1
  -4  10   0 56134.8 3947.62   1
   6 -10   0 58186.1 3959.00   1
   4 -10   0 68949.1 4325.13   1
   6   4   0 59227.5 4113.80   2
  -6  10   1 34179.5 2999.25   1
  -4  10   1 30254.4 2816.02   1
   6 -10  -1 27937.6 2700.98   1
   4 -10  -1 30511.1 2813.15   1
   6   4  -1 26604.9 2783.15   2
  -6  10   2 175197. 7228.36   1
  -4  10   2 163117. 6981.44   1
   6 -10  -2 175365. 7105.96   1
   4 -10  -2 168180. 7088.20   1
   6   4  -2 161653. 7206.64   2
  -6  10   3 24263.0 2537.29   1
  -4  10   3 24615.9 2579.45   1
   6 -10  -3 23866.6 2531.59   1
   4 -10  -3 24366.1 2516.08   1
   4   6  -3 24773.9 2771.25   2
   6   4  -3 29150.8 2883.25   2
   6 -10  -4 1870.32 628.936   1
  -6  10   4 3001.86 845.438   1
   4 -10  -4 2535.75 631.979   1
   4   6  -4 2368.62 618.267   2
   6   4  -4 3461.48 1109.88   2
  -4  10   4 1730.80 750.452   1
  -6  10   5 11917.1 1804.21   1
   6 -10  -5 12240.6 1827.49   1
  -4  10   5 13653.9 1838.37   1
   4   6  -5 9746.07 1700.28   2
   6   4  -5 10607.1 1769.12   2
   4 -10  -5 12587.4 1828.95   1
   6 -10  -5 12065.5 1933.24   2
   4   6  -6 52021.9 3986.83   1
   6 -10  -6 68310.1 4362.94   1
   4 -10  -6 76199.6 4680.50   1
   4   6  -6 65888.1 4442.08   2
   6   4  -6 69832.6 4470.47   2
  -4  -6   6 72777.3 4619.85   1
  -6  10   6 75301.7 4620.42   1
  -4  10   6 66113.3 4281.84   1
   6 -10  -6 68436.6 4648.22   2
  -6  10   7 7286.88 1419.20   1
   4   6  -7 5162.69 1176.44   1
  -4  10   7 6840.19 1274.78   1
   6 -10  -7 5952.09 1346.68   1
   4 -10  -7 5693.35 1233.61   1
   4   6  -7 7754.39 1444.04   2
   6   4  -7 5907.17 1313.40   2
   6 -10  -7 8505.31 1683.97   2
  -4  -6   7 6758.42 1403.89   1
  -4  -6   8 11505.4 1825.51   1
  -6  10   8 9840.42 1669.76   1
  -4  10   8 14068.4 1942.70   1
   6 -10  -8 11214.1 1754.92   1
   4 -10  -8 9932.03 1750.53   1
   4   6  -8 12358.4 1905.43   1
   4   6  -8 9096.46 1578.63   2
   6   4  -8 9239.01 1670.35   2
   6 -10  -8 10391.5 1699.87   2
   6 -10  -9 110031. 5679.43   1
   4 -10  -9 105817. 5696.95   1
   4   6  -9 94597.8 5659.14   1
   4   6  -9 91086.7 5360.09   2
   6   4  -9 101910. 5579.90   2
  -6  10   9 97918.0 5447.47   1
  -4  10   9 97405.7 5427.22   1
  -4  -6   9 97558.3 5675.93   1
   6 -10  -9 99739.7 5503.43   2
   6 -10 -10 112549. 5760.74   1
   4 -10 -10 100208. 5586.03   1
   4   6 -10 92919.4 5428.66   2
   6   4 -10 88680.1 5306.72   2
  -6  10  10 106076. 5683.82   1
   4   6 -10 88470.8 5486.49   1
  -4  10  10 93348.7 5326.48   1
  -4  -6  10 94593.9 5652.42   1
  -6  -4  10 91218.4 5522.59   1
   6 -10 -10 94263.2 5339.30   2
   6 -10 -11 79057.0 4891.69   1
   4 -10 -11 78497.6 5000.16   1
   4   6 -11 72081.4 4825.10   2
   6   4 -11 75008.2 4840.91   2
  -6  10  11 69084.3 4622.70   1
  -4  10  11 77442.5 4940.87   1
   4   6 -11 59873.6 4512.11   1
  -4  -6  11 74065.7 4905.08   1
  -6  -4  11 70570.0 4876.36   1
   6 -10 -11 63806.2 4392.35   2
   4   6 -12 11146.1 1967.56   1
  -4  -6  12 13829.8 2135.19   1
  -4  10  12 11908.2 1915.49   1
  -6  -4  12 13593.7 2033.66   1
   6 -10 -12 14302.4 2066.06   1
   6   4 -12 10413.8 1864.25   1
   4 -10 -12 13628.0 2026.52   1
  -6  10  12 14674.9 2110.95   1
   4   6 -12 13258.4 2031.44   2
   6   4 -12 17005.3 2284.34   2
   6 -10 -12 14466.9 2032.67   2
   4 -10 -12 9639.43 1659.40   2
  -6  10  13 48.8735 516.464   1
  -4  10  13-347.944 328.652   1
  -4  -6  13 697.560 755.889   1
   4   6 -13-99.1668 394.226   1
  -6  -4  13 86.2829 231.473   1
   6   4 -13-87.0618 709.714   1
   6 -10 -13 502.620 435.542   1
   4 -10 -13 523.363 596.204   1
   4   6 -13-453.794 660.815   2
   6   4 -13-396.108 504.382   2
   6 -10 -13-27.9039 668.001   2
   4 -10 -13 686.552 737.742   2
   4 -10 -14 69711.7 4890.81   1
  -4  10  14 74112.1 5009.66   1
   6   4 -14 66646.0 4910.59   1
  -4  -6  14 77183.3 5177.32   1
   4   6 -14 60641.1 4678.07   1
  -6  -4  14 73933.9 5032.76   1
 -10   3  14 71399.0 5108.39   1
   7 -10  14 75313.9 5116.25   1
  -7  10 -14 65699.1 4805.18   1
  -7  10 -13 152.557 471.954   1
  10  -7 -13 278.412 531.915   1
 -10   3  13-361.595 485.845   1
 -10   7  13 248.802 428.540   1
   7 -10  13 286.332 266.801   1
  10  -7 -12 8717.52 1707.05   1
 -10   3  12 9724.29 1745.62   1
 -10   7  12 9139.88 1717.80   1
  -3  10 -12 8671.67 1647.69   1
   7 -10  12 7875.29 1571.52   1
  10  -3 -12 7089.14 1444.14   2
   3 -10  12 7669.64 1558.16   1
  10  -7 -12 9436.77 1820.56   2
  -7  10 -12 6110.07 1406.57   1
  10  -7 -11 8383.89 1678.48   1
  -3  10 -11 10848.6 1832.93   1
   7 -10  11 6585.53 1440.32   1
  10  -3 -11 7923.36 1577.71   2
 -10   7  11 7850.68 1500.26   1
  -7  10 -11 8118.87 1559.77   1
   3 -10  11 8755.02 1606.53   1
  10  -7 -11 8279.12 1662.33   2
  10  -7 -10 44029.6 3702.15   1
 -10   7  10 50525.5 3881.28   1
   7 -10  10 40765.5 3594.57   1
  -7  10 -10 48568.3 3872.81   1
   3 -10  10 53083.5 3955.33   1
  10  -3 -10 50148.9 3902.01   2
  10  -7 -10 42121.0 3768.17   2
  -3  10 -10 55272.7 4027.11   1
  10  -7  -9 31720.4 3048.92   1
 -10   7   9 35967.7 3304.83   1
   7 -10   9 40165.2 3447.85   1
  -7  10  -9 35151.8 3206.37   1
   3 -10   9 35755.3 3282.59   1
  10  -3  -9 34099.6 3162.62   2
  10  -7  -9 32006.1 3113.75   2
  -3  10  -9 38167.5 3387.53   1
  10  -7  -8 30373.3 2982.00   1
 -10   7   8 34754.9 3191.85   1
  -7  10  -8 32947.2 3162.62   1
   7 -10   8 30469.8 2938.04   1
   3 -10   8 33620.4 3160.65   1
  10  -3  -8 34742.5 3151.73   2
  -3  10  -8 38785.8 3301.54   1
  10  -7  -8 31122.1 3022.35   2
  10  -7  -7 29229.5 2891.30   1
  -7  10  -7 26011.2 2780.31   1
 -10   7   7 33788.3 3138.99   1
   7 -10   7 32696.3 2986.00   1
   3 -10   7 29389.2 2948.27   1
  10  -3  -7 30892.6 2962.46   2
  -3  10  -7 30396.7 2977.92   1
  10  -7  -7 31903.1 2957.39   2
  10  -7  -6 151388. 6942.82   1
  -7  10  -6 163094. 7080.37   1
 -10   7   6 183573. 7553.15   1
   7 -10   6 140794. 6709.31   1
   3 -10   6 164844. 7213.86   1
  -3  10  -6 171092. 7211.77   1
  10  -3  -6 158321. 7086.95   2
  10  -7  -6 168819. 7279.26   2
  10  -7  -5 54622.8 3922.89   1
  -7  10  -5 57018.3 4034.60   1
   7 -10   5 54009.5 3910.88   1
 -10   7   5 59603.9 4140.80   1
   3 -10   5 58417.8 4107.54   1
  -3  10  -5 65618.4 4321.03   1
  10  -3  -5 51354.2 3887.07   2
  10  -7  -5 60221.4 4160.21   2
 -10   7   4 1703.30 642.078   1
  -7  10  -4 691.655 585.914   1
  10  -7  -4 1112.16 689.571   1
   7 -10   4 1418.31 740.889   1
  -3  10  -4 2738.09 953.958   1
   3 -10   4 1877.00 786.800   1
  10  -3  -4 1306.66 651.708   2
  10  -7  -4 650.608 487.438   2
  10  -7  -3 78630.7 4584.49   1
  -7  10  -3 78688.0 4675.23   1
   7 -10   3 71652.0 4551.55   1
  -3  10  -3 78417.5 4725.85   1
   3 -10   3 67779.7 4397.53   1
 -10   7   3 73657.0 4512.11   1
  10  -3  -3 73853.9 4566.16   2
  10  -7  -3 79619.9 4750.76   2
  -7  10  -2 132402. 6262.94   1
  10  -7  -2 133611. 6044.81   1
  -3  10  -2 121754. 6052.51   1
   7 -10   2 127517. 6108.74   1
   3 -10   2 130197. 6140.53   1
 -10   7   2 141919. 6438.78   1
  10  -3  -2 130724. 6104.50   2
  10  -7  -2 130850. 6216.76   2
  -7  10  -1 56218.7 3951.17   1
  10  -7  -1 48294.7 3590.13   1
  -3  10  -1 61538.0 4128.00   1
   7 -10   1 49619.3 3617.28   1
   3 -10   1 55015.2 3877.58   1
   7   3   1 50993.0 3929.45   2
 -10   7   1 54814.2 3845.11   1
  10  -7  -1 55933.5 3831.72   2
  -7  10   0 32370.4 3001.38   1
  -3  10   0 23220.8 2545.42   1
   7 -10   0 30290.5 2778.71   1
   3 -10   0 31652.8 2921.72   1
   7   3   0 30229.9 2879.94   2
 -10   7   0 29095.6 2774.12   1
  -3  10   1 9819.39 1654.25   1
   7 -10  -1 11424.7 1695.61   1
   7   3  -1 12565.9 1922.64   2
   3 -10  -1 9908.72 1528.59   1
  -7  10   1 12940.3 1825.30   1
  -7  10   2 124939. 5881.11   1
  -3  10   2 118827. 5821.87   1
   7 -10  -2 124581. 5847.49   1
   3 -10  -2 106145. 5557.26   1
   7   3  -2 118730. 6005.54   2
   7 -10  -3 180.017 477.674   1
  -7  10   3 90.5874 336.551   1
   3 -10  -3 854.273 435.881   1
   7   3  -3 1227.61 707.672   2
  -3  10   3 159.297 406.398   1
  -3  -7   3 1093.16 692.854   1
   7 -10  -3 1209.79 674.159   2
  -3  10   4 21659.2 2360.32   1
   7 -10  -4 24478.4 2509.90   1
   3 -10  -4 23533.2 2495.80   1
   7   3  -4 19719.1 2437.48   2
  -3  -7   4 22289.4 2496.80   1
  -7  10   4 21687.4 2315.68   1
   7 -10  -4 19605.6 2433.85   2
   3   7  -5 35926.4 3134.01   1
   7 -10  -5 38631.2 3318.78   1
   3 -10  -5 36736.7 3208.03   1
   7   3  -5 32789.5 3008.51   2
  -3  -7   5 37107.8 3267.50   1
  -7  10   5 35714.1 3115.82   1
   7 -10  -5 32243.5 3061.36   2
  -3  10   5 32774.3 2999.30   1
   3   7  -6 102212. 5600.38   1
   7 -10  -6 108865. 5640.45   1
   3 -10  -6 97667.4 5430.63   1
   3   7  -6 87908.2 5336.96   2
   7   3  -6 96526.0 5543.04   2
  -3  -7   6 88909.8 5289.76   1
  -7  10   6 97248.8 5346.18   1
   7 -10  -6 110314. 5774.70   2
  -3  10   6 100678. 5391.39   1
   3   7  -7 165414. 7263.60   1
   7 -10  -7 158368. 6996.57   1
   3 -10  -7 150826. 6892.42   1
   3   7  -7 138297. 6863.20   2
   7   3  -7 142957. 6937.10   2
  -3  -7   7 167495. 7389.71   1
  -7  10   7 156442. 7000.12   1
  -3  10   7 150120. 6858.42   1
   7 -10  -7 139400. 6666.17   2
  -7  10   8 8352.80 1523.53   1
   3   7  -8 7657.11 1538.03   1
  -3  10   8 8771.97 1685.10   1
   7 -10  -8 8628.82 1616.08   1
   3 -10  -8 10278.5 1824.10   1
   3   7  -8 8155.17 1559.24   2
   7   3  -8 7245.17 1522.38   2
   7 -10  -8 8855.63 1557.97   2
  -3  -7   8 9855.41 1758.99   1
   7 -10  -9 29052.2 2970.43   1
   3 -10  -9 32973.4 3212.24   1
   3   7  -9 36831.4 3356.73   1
   3   7  -9 36757.1 3357.61   2
   7   3  -9 34888.6 3303.96   2
  -7  10   9 34007.2 3187.69   1
  -3  -7   9 35041.7 3335.46   1
  -3  10   9 36483.7 3227.07   1
   7 -10  -9 32475.3 2963.21   2
   7 -10 -10 152681. 6924.04   1
   3 -10 -10 145687. 6975.03   1
   3   7 -10 121495. 6541.91   1
   3   7 -10 139680. 6942.59   2
   7   3 -10 159941. 7292.92   2
  -7  10  10 172010. 7235.95   1
  -3  10  10 135195. 6606.53   1
  -3  -7  10 145439. 7055.43   1
   7 -10 -10 158407. 7012.45   2
  -7  10  11 6330.17 1411.20   1
  -3  10  11 4074.10 1180.86   1
   7 -10 -11 6922.78 1404.97   1
   3 -10 -11 6090.15 1413.93   1
   3   7 -11 4468.49 1313.96   1
   3   7 -11 5129.62 1206.00   2
   7   3 -11 6852.66 1504.43   2
   7 -10 -11 5884.69 1295.11   2
   3 -10 -11 3373.47 1067.45   2
  -3  -7  11 6242.56 1446.78   1
  -3  -7  12 4619.88 1268.67   1
  -7  10  12 6294.59 1424.31   1
  -3  10  12 5167.24 1315.23   1
   7 -10 -12 6454.02 1424.48   1
   3 -10 -12 6214.64 1394.69   1
   3   7 -12 4045.72 1247.46   1
   3   7 -12 3336.68 1119.05   2
   7   3 -12 6334.90 1376.29   2
   7 -10 -12 5375.83 1316.18   2
   3 -10 -12 2407.49 972.006   2
   3 -10 -13 28483.2 3107.74   1
   3   7 -13 31305.1 3276.26   1
   3   7 -13 24510.6 2832.19   2
  -3  -7  13 34611.3 3391.79   1
   3 -10 -14 4822.83 1126.59   2
  -8  10 -13 450.017 891.553   1
  10  -8 -12 110001. 6104.58   1
 -10   8  12 101055. 5800.44   1
   8 -10  12 82176.7 5329.09   1
  -8  10 -12 78013.0 5294.83   1
   2 -10  12 103400. 5863.53   1
  10  -2 -12 96073.2 5578.75   2
  10  -8 -12 99794.9 5808.38   2
  -2  10 -12 97910.1 5773.76   1
  10  -8 -11 1814.99 799.839   1
  -8  10 -11 1564.52 689.795   1
   8 -10  11 836.597 566.974   1
  10  -2 -11 1703.26 665.890   2
  -2  10 -11 1689.18 867.227   1
 -10   8  11 1971.10 733.747   1
   2 -10  11 2142.25 904.483   1
  10  -8 -11 2006.87 970.565   2
  10  -8 -10 527.349 356.060   1
  -8  10 -10 847.308 659.421   1
  -2  10 -10 2224.55 818.576   1
   8 -10  10 1076.49 654.364   1
  10  -2 -10 894.949 555.804   2
   2 -10  10 565.929 480.423   1
 -10   8  10 1238.73 617.625   1
  10  -8 -10 250.557 343.075   2
  10  -8  -9 363.631 309.915   1
  -8  10  -9 98.0775 492.873   1
  -2  10  -9 951.986 789.153   1
   8 -10   9 267.856 367.372   1
  10  -2  -9-1084.61 872.320   2
   2 -10   9-453.801 615.810   1
  10  -8  -9 345.195 409.234   2
 -10   8   9-417.191 653.749   1
  10  -8  -8 131847. 6335.39   1
  -8  10  -8 107619. 5902.43   1
 -10   8   8 127586. 6305.63   1
   8 -10   8 111910. 6006.53   1
   2 -10   8 127654. 6287.02   1
  10  -2  -8 113534. 6010.32   2
  -2  10  -8 126558. 6284.11   1
  10  -8  -8 96616.9 5888.64   2
 -10   8   7 9972.52 1655.90   1
  -2  10  -7 10885.2 1731.88   1
  -8  10  -7 12018.0 1892.32   1
  10  -8  -7 8738.09 1619.59   1
   8 -10   7 9017.09 1640.34   1
  10  -2  -7 10891.4 1716.66   2
   2 -10   7 13075.1 1897.90   1
  10  -8  -7 10454.6 1878.31   2
  -2  10  -6 2530.92 833.086   1
 -10   8   6 2203.55 838.147   1
  -8  10  -6 2327.68 865.309   1
  10  -8  -6 1932.04 793.172   1
   8 -10   6 3433.04 1043.12   1
  10  -2  -6 1773.56 714.195   2
   2 -10   6 3068.70 913.230   1
  10  -8  -6 2478.42 1070.55   2
 -10   8   5 912.295 661.625   1
  -8  10  -5 249.005 284.424   1
  10  -8  -5-504.492 461.970   1
   8 -10   5-44.1892 433.211   1
  10  -2  -5-407.246 588.925   2
   2 -10   5 662.875 557.380   1
  -2  10  -5 22.1821 467.428   1
  10  -8  -5 678.178 506.786   2
  -8  10  -4 301484. 10078.8   1
  10  -8  -4 270592. 9608.38   1
   8 -10   4 251888. 9377.48   1
   2 -10   4 281220. 9780.10   1
  -2  10  -4 282011. 9868.04   1
 -10   8   4 270573. 9645.05   1
  10  -2  -4 284193. 9930.63   2
  10  -8  -4 292724. 9969.67   2
 -10   8   3 4149.27 924.156   1
  10  -8  -3 5164.27 1157.61   1
  -2  10  -3 5884.85 1327.13   1
   8 -10   3 4575.04 1233.47   1
   2 -10   3 5636.28 1242.68   1
  10  -2  -3 4244.09 1048.45   2
  10  -8  -3 3931.08 1095.02   2
   8 -10   3 799.796 355.345   2
  -8  10  -3 4590.56 1144.40   1
  -8  10  -2 15436.9 2141.07   1
  10  -8  -2 14504.2 1984.56   1
   8 -10   2 14462.0 2013.23   1
  -2  10  -2 15177.0 2030.34   1
   2 -10   2 17159.0 2156.70   1
 -10   8   2 15830.5 2098.98   1
  10  -8  -2 17261.0 2136.37   2
   8 -10   2 7331.97 1549.54   2
 -10   8   1 506.494 371.190   1
  -2  10  -1-390.307 564.196   1
  10  -8  -1 384.254 601.908   1
   8 -10   1 49.9530 373.739   1
   2 -10   1-299.800 579.434   1
  -8  10  -1 840.201 508.274   1
  10  -8  -1-290.626 301.967   2
   8 -10   1-550.354 372.557   2
  -8  10   0 179285. 7380.01   1
  -2  10   0 173899. 7338.22   1
  10  -8   0 188533. 7517.42   1
   8 -10   0 169647. 7086.36   1
   2 -10   0 190749. 7666.83   1
   8   2   0 174399. 7604.15   2
  -2  10   1 1288.14 584.066   1
 -10   8  -1 1497.19 690.558   1
  10  -8   1 1733.32 689.471   1
   8 -10  -1 1177.56 521.105   1
  -8  10   1 1671.60 649.290   1
   2 -10  -1 743.399 460.630   1
   8   2  -1 1230.17 531.054   2
   8 -10  -1 1168.99 701.007   2
  -2  10   2 24000.4 2544.03   1
   8 -10  -2 20449.7 2362.13   1
   2 -10  -2 20061.1 2342.76   1
  -2  -8   2 24263.5 2626.42   1
   2   8  -2 18865.4 2312.19   1
   8   2  -2 23049.5 2603.62   2
 -10   8  -2 19376.0 2296.16   1
   8 -10  -2 19402.6 2401.48   2
  -8  10   2 19920.4 2316.20   1
   2   8  -3-362.711 594.711   1
  -8  10   3-123.167 264.995   1
   8 -10  -3 154.565 262.108   1
   2 -10  -3 770.612 528.938   1
   8   2  -3 295.069 279.105   2
  -2  -8   3 559.052 413.462   1
  -2  10   3 251.237 450.458   1
   8 -10  -3 975.952 599.150   2
  -2  10   4 175276. 7564.85   1
   8 -10  -4 189418. 7684.73   1
   2 -10  -4 205035. 8026.16   1
   8   2  -4 165119. 7535.45   2
  -2  -8   4 185392. 7786.43   1
   2   8  -4 199421. 7985.51   1
  -8  10   4 185497. 7599.11   1
   8 -10  -4 188735. 7673.15   2
  -8  10   5 8139.70 1528.67   1
   8 -10  -5 7020.66 1408.15   1
   2   8  -5 7676.96 1522.86   1
   2 -10  -5 9750.48 1546.72   1
  -2  10   5 9461.24 1683.87   1
   8   2  -5 6613.46 1467.04   2
  -2  -8   5 8857.22 1577.70   1
   8 -10  -5 8587.65 1577.63   2
  -8  10   6 847.719 420.919   1
   8 -10  -6-136.774 295.278   1
  -2  10   6 53.5783 429.316   1
   2 -10  -6 406.082 391.463   1
   8   2  -6 1183.98 709.249   2
   2   8  -6 233.979 465.759   1
  -2  -8   6 991.603 636.805   1
   8 -10  -6 143.650 566.262   2
  -8  10   7 3122.58 951.810   1
  -2  10   7 3689.31 1090.79   1
   8 -10  -7 2512.61 802.608   1
   2 -10  -7 5112.52 1251.88   1
   8   2  -7 2928.77 1029.21   2
  -2  -8   7 5616.43 1296.51   1
   2   8  -7 3315.06 1032.68   1
   8 -10  -7 3786.51 1031.91   2
   2   8  -8 175635. 7878.15   1
   8 -10  -8 186304. 7778.22   1
   2 -10  -8 166939. 7697.43   1
   8   2  -8 186893. 7997.33   2
  -8  10   8 187349. 7850.38   1
  -2  -8   8 178276. 7869.32   1
  -2  10   8 206433. 8318.36   1
   8 -10  -8 194134. 7800.95   2
   2   8  -9 1796.10 689.409   1
  -8  10   9 2442.58 913.054   1
  -2  10   9 3260.42 1032.87   1
   8 -10  -9 2365.05 803.018   1
   2 -10  -9 2748.93 947.657   1
   8   2  -9 3392.82 1208.50   2
  -2  -8   9 3126.74 978.921   1
   8 -10  -9 2749.84 949.527   2
  -8  10  10 726.346 522.991   1
   2   8 -10 464.930 374.787   1
   8 -10 -10 2302.84 887.288   1
   2 -10 -10 1130.05 692.037   1
   8   2 -10 1884.62 1003.92   2
   8 -10 -10 872.257 616.130   2
  -2  -8  10 1137.44 598.565   1
  -8  10  11 929.293 665.575   1
   2   8 -11 456.745 348.613   1
   8 -10 -11 1873.83 977.227   1
   2   8 -11 765.392 660.680   2
   8   2 -11 370.777 430.414   2
   8 -10 -11 50.5843 466.892   2
  -2  -8  11 580.838 617.252   1
   2 -10 -11 193.208 599.030   2
   8 -10 -12 118706. 6089.24   1
   2   8 -12 108764. 6191.03   1
  -8  10  12 129154. 6318.09   1
   2   8 -12 95387.2 5780.20   2
   8   2 -12 124511. 6435.50   2
  -2  -8  12 111109. 6214.03   1
   8 -10 -12 122030. 6106.84   2
   2 -10 -13-225.733 704.400   2
  10  -9 -11 43065.2 3506.68   1
 -10   9  11 45476.8 3788.53   1
   1 -10  11 37357.9 3464.39   1
  10  -1 -11 37714.9 3431.51   2
  10  -9 -11 42456.1 3694.63   2
  -1  10 -11 44333.7 3778.06   1
  10  -9 -10 82132.9 5102.11   1
  -9  10 -10 73810.6 5072.89   1
 -10   9  10 94741.4 5438.21   1
   1 -10  10 81130.2 5138.42   1
  10  -1 -10 72760.1 4897.81   2
  10  -9 -10 81364.8 5196.52   2
  -1  10 -10 89191.7 5463.17   1
  10  -9  -9 54273.0 4074.23   1
  -9  10  -9 53120.7 4157.07   1
   9 -10   9 45828.4 3921.38   1
 -10   9   9 64728.7 4453.17   1
   1 -10   9 53991.0 4116.82   1
  10  -1  -9 54750.1 4113.01   2
  10  -9  -9 56246.6 4226.14   2
  -1  10  -9 61662.0 4395.72   1
  10  -9  -8 27860.2 2840.17   1
  -9  10  -8 21180.9 2596.33   1
   9 -10   8 23505.2 2733.97   1
 -10   9   8 27896.8 2870.59   1
   1 -10   8 28568.8 2902.12   1
  10  -1  -8 23758.7 2762.51   2
  -1  10  -8 30066.3 3000.31   1
  10  -9  -8 26865.2 2902.19   2
 -10   9   7 4348.86 1188.77   1
  -9  10  -7 5673.57 1358.17   1
  -1  10  -7 3503.04 1096.59   1
  10  -9  -7 5106.97 1255.22   1
   9 -10   7 4639.88 1247.96   1
  10  -1  -7 4835.92 1233.34   2
   1 -10   7 4972.73 1075.95   1
  10  -9  -7 3242.33 983.426   2
  -9  10  -6 25163.3 2884.10   1
  10  -9  -6 24820.6 2669.53   1
   9 -10   6 25110.0 2762.01   1
   1 -10   6 28090.3 2926.37   1
 -10   9   6 27002.9 2835.40   1
  10  -1  -6 26807.1 2887.27   2
  -1  10  -6 27190.6 2864.39   1
  10  -9  -6 24498.3 2783.37   2
 -10   9   5 14453.4 2061.19   1
  10  -9  -5 11316.9 1844.77   1
   9 -10   5 11739.7 1909.27   1
  10  -1  -5 14307.0 2094.33   2
   1 -10   5 13978.2 2040.79   1
  10  -9  -5 12404.0 2040.06   2
  -1  10  -5 12939.8 1982.11   1
  -9  10  -5 12135.2 1933.40   1
 -10   9   4 1948.69 774.717   1
  10  -9  -4 1512.19 600.956   1
   9 -10   4 1704.71 712.950   1
  10  -1  -4 2085.60 832.396   2
  -1  10  -4 2573.00 948.428   1
   1 -10   4 2272.32 842.597   1
  -9  10  -4 1479.83 652.068   1
  10  -9  -4 2878.92 995.406   2
  -9  10  -3 36741.5 3248.72   1
  10  -9  -3 31722.6 3018.99   1
   9 -10   3 37706.6 3284.29   1
  -1  10  -3 29230.1 2946.13   1
   1 -10   3 30335.7 3040.41   1
  10  -1  -3 35121.8 3326.53   2
 -10   9   3 37245.1 3322.96   1
  10  -9  -3 29721.2 3021.03   2
  -9  10  -2 151902. 6977.47   1
  10  -9  -2 158073. 7095.92   1
   9 -10   2 152671. 6986.83   1
  -1  10  -2 176743. 7480.04   1
   1 -10   2 156647. 7103.08   1
 -10   9   2 180992. 7473.15   1
  10  -9  -2 179493. 7441.54   2
  -9  10  -1 34445.1 3118.70   1
  10  -9  -1 38510.8 3310.16   1
  -1  10  -1 28645.6 2928.66   1
   9 -10   1 36309.2 3181.79   1
   1 -10   1 36078.2 3190.13   1
 -10   9   1 32521.3 3060.68   1
  10  -9  -1 31425.3 3004.87   2
   9 -10   1 27786.0 2811.50   2
  -1  10   0 31586.4 2942.11   1
  10  -9   0 29194.3 2838.35   1
   9 -10   0 30303.7 2918.64   1
   1 -10   0 26063.8 2785.98   1
  -1  -9   0 26777.4 2812.50   1
 -10   9   0 28181.8 2819.75   1
   9 -10   0 19172.0 2334.61   2
  -9  10   0 22776.3 2547.80   1
  -1  10   1 84562.6 5081.76   1
  10  -9   1 78314.8 4753.65   1
   9 -10  -1 74454.8 4663.48   1
   1   9  -1 86994.1 5070.10   1
   1 -10  -1 67550.9 4649.85   1
  -1  -9   1 80354.6 4856.88   1
   9 -10  -1 75986.8 4679.59   2
 -10   9  -1 68400.9 4536.12   1
  -9  10   1 82750.6 4891.55   1
  -1  10   2 172421. 7475.07   1
   9 -10  -2 174981. 7319.27   1
  10  -9   2 155115. 7021.51   1
   1 -10  -2 156216. 7160.55   1
   1   9  -2 187732. 7760.59   1
  -1  -9   2 169173. 7395.26   1
   9   1  -2 154522. 7388.20   2
   9 -10  -2 134240. 6538.44   2
  -9  10   2 159460. 7022.38   1
 -10   9  -2 159398. 7201.99   1
  -1  10   3 16911.9 2239.22   1
   9 -10  -3 15098.4 2096.60   1
  10  -9   3 20644.4 2400.65   1
   1 -10  -3 21536.4 2508.68   1
  -1  -9   3 14797.4 2165.16   1
   1   9  -3 17753.3 2197.51   1
   9   1  -3 20510.1 2526.38   2
  -9  10   3 16533.9 2141.19   1
   9 -10  -3 15333.1 2043.40   2
 -10   9  -3 19137.2 2439.95   1
 -10   9  -4 25993.3 2688.89   1
  -1  10   4 23879.0 2673.97   1
   9 -10  -4 25313.1 2696.56   1
   1 -10  -4 24432.8 2698.01   1
  -1  -9   4 21247.9 2566.13   1
   9   1  -4 20863.5 2577.55   2
   1   9  -4 20821.0 2442.75   1
  -9  10   4 24046.6 2601.55   1
   9 -10  -4 19914.5 2343.06   2
   1   9  -5 3141.90 924.226   1
  -9  10   5 4795.62 1052.82   1
   9 -10  -5 6059.52 1335.75   1
   1 -10  -5 5205.74 1308.19   1
  -1  10   5 2600.89 920.848   1
   9   1  -5 3755.28 1162.48   2
  -1  -9   5 3783.11 1026.35   1
   9 -10  -5 3548.21 1106.87   2
   9 -10  -6 29960.1 2860.81   1
   1 -10  -6 22217.8 2589.19   1
   9   1  -6 23851.1 2767.08   2
  -1  -9   6 26024.6 2852.80   1
  -9  10   6 26773.8 2765.78   1
   1   9  -6 24022.5 2705.77   1
   9 -10  -6 26607.2 2762.92   2
   9 -10  -7 58413.2 4196.02   1
   9   1  -7 57005.2 4366.36   2
  -1  -9   7 63530.9 4422.01   1
  -9  10   7 65726.3 4385.44   1
   9 -10  -7 62128.5 4287.25   2
   1   9  -7 58854.9 4298.01   1
  -9  10   8 1889.92 843.835   1
   9 -10  -8 1921.55 872.113   1
   9   1  -8 2277.74 907.297   2
   1   9  -8 1664.45 938.338   1
  -1  -9   8 1021.75 549.660   1
   9 -10  -8 1868.57 818.332   2
   1   9  -9 12909.9 2032.00   1
   9 -10  -9 19708.4 2405.41   1
  -9  10   9 18699.4 2368.35   1
   9   1  -9 17905.0 2294.00   2
  -1  -9   9 18204.8 2385.16   1
   9 -10  -9 19678.8 2437.58   2
   1   9 -10 109779. 6074.03   1
   9 -10 -10 122077. 6203.60   1
  -9  10  10 117176. 6111.32   1
   9   1 -10 112123. 6225.52   2
  -1  -9  10 106637. 6053.78   1
   9 -10 -10 111375. 5983.85   2
   1   9 -11 2258.89 860.038   1
   9   1 -11 2176.57 909.937   2
  -1  -9  11 1740.70 827.835   1
   1 -10 -12 983.510 794.680   2
   0  10   0 35218.3 3344.58   1
  10 -10   0 40780.1 3511.73   1
   0 -10   0 44279.9 3666.43   1
 -10  10   0 38785.2 3396.46   1
   0  10   1 55250.2 4240.51   1
  10 -10  -1 54448.5 4073.53   1
  10 -10   1 53925.4 3964.68   1
   0  10  -1 57603.4 4241.95   1
   0 -10  -1 55957.7 4261.59   1
   0 -10   1 55910.1 4182.65   1
 -10  10   1 51014.0 3912.19   1
  10 -10  -1 50352.5 3817.24   2
 -10  10  -1 52188.6 3981.36   1
  10 -10  -2 170035. 7405.65   1
  10 -10   2 122267. 6404.40   1
   0  10  -2 153439. 7144.79   1
   0 -10  -2 139373. 6889.56   1
   0 -10   2 174072. 7526.05   1
 -10  10   2 164200. 7206.23   1
  10 -10  -2 147316. 6859.83   2
 -10  10  -2 173402. 7491.23   1
 -10  10  -3 14187.9 2082.98   1
  10 -10   3 21683.8 2524.46   1
  10 -10  -3 14113.6 2010.66   1
   0 -10   3 17212.9 2324.17   1
   0  10  -3 13076.7 2003.49   1
 -10  10   3 19118.8 2294.49   1
  10 -10  -3 16012.3 2163.54   2
 -10  10   4 3333.92 1094.90   1
  10 -10  -4 4062.60 1006.84   1
  10 -10   4 3966.39 1078.60   1
  10   0  -4 5017.14 1345.90   2
 -10  10  -4 3782.77 1146.93   1
   0  10  -4 3641.93 1023.43   1
   0 -10   4 5625.54 1395.83   1
  10 -10  -4 2846.19 1021.54   2
 -10  10   5 14427.1 2038.08   1
  10 -10  -5 12939.0 1974.28   1
  10 -10   5 11333.3 1829.77   1
  10   0  -5 12659.4 1984.08   2
   0 -10   5 12916.8 1986.08   1
 -10  10  -5 11678.8 1810.07   1
   0  10  -5 10276.9 1748.19   1
  10 -10  -5 11491.5 1973.74   2
   0  10  -6 13043.2 1924.89   1
 -10  10   6 13512.6 1904.22   1
  10 -10  -6 13650.9 1925.34   1
  10   0  -6 11112.2 1899.54   2
   0 -10   6 10683.8 1871.82   1
 -10  10  -6 10987.7 1921.29   1
  10 -10  -6 13012.0 1969.05   2
  10 -10  -7 24301.4 2686.19   1
   0 -10   7 25530.8 2876.15   1
  10   0  -7 20236.7 2606.49   2
 -10  10   7 24097.9 2707.85   1
   0  10  -7 18716.3 2384.97   1
  10 -10  -7 19786.3 2525.24   2
 -10  10   8 3230.82 1103.96   1
   0  10  -8 3842.91 1123.32   1
  10 -10  -8 4118.09 1196.13   1
  10   0  -8 2702.00 996.649   2
   0 -10   8 3485.27 1087.79   1
  10 -10  -8 3699.00 1027.32   2
  10 -10  -9 29368.7 2975.23   1
 -10  10   9 27364.6 2820.27   1
   0 -10   9 30344.9 3046.63   1
  10   0  -9 22580.4 2757.04   2
  10 -10  -9 29321.0 2957.86   2
   0  10  -9 24774.5 2811.21   1
   0 -10  10 83885.5 5323.26   1
   0  10 -10 97151.3 5811.64   1
  11  -6 -12 9410.09 1831.26   1
 -11   6  12 9109.14 1753.64   1
  11  -6 -11 27999.9 3209.79   1
 -11   6  11 29496.9 3116.29   1
   6 -11  11 30447.2 3093.62   1
   5 -11  11 38550.1 3411.10   1
  -6  11 -11 33849.2 3266.79   1
  -5  11 -11 36823.5 3383.41   1
  11  -5 -11 33644.3 3099.85   2
  11  -6 -11 33862.8 3238.19   2
  11  -6 -10 111008. 6418.63   1
 -11   6  10 128488. 6744.97   1
   6 -11  10 135822. 6698.46   1
   5 -11  10 136185. 6733.92   1
  -6  11 -10 146345. 7004.26   1
  -5  11 -10 147740. 6955.31   1
  11  -5 -10 130329. 6612.48   2
  11  -6 -10 117711. 6390.67   2
 -11   6   9 36864.2 3456.59   1
   6 -11   9 40627.2 3505.51   1
  -6  11  -9 43298.6 3726.77   1
   5 -11   9 41658.4 3637.39   1
  -5  11  -9 40960.3 3557.36   1
  11  -5  -9 36131.8 3308.32   2
  11  -6  -9 37402.3 3502.97   2
  -6  11  -8 6091.43 1354.75   1
   6 -11   8 8588.23 1500.73   1
   5 -11   8 5807.61 1230.37   1
  -5  11  -8 5924.34 1405.75   1
  11  -5  -8 5225.93 1272.40   2
  11  -6  -8 5215.46 1262.23   2
  -6  11  -7 13062.7 1958.51   1
  -5  11  -7 12266.5 1923.93   1
   6 -11   7 11846.5 1872.89   1
   5 -11   7 12068.2 1880.11   1
  11  -5  -7 9213.80 1658.44   2
  11  -6  -7 10988.3 1883.05   2
  -6  11  -6 41771.8 3502.84   1
  -5  11  -6 40390.2 3505.35   1
   6 -11   6 37522.8 3247.20   1
   5 -11   6 42064.6 3485.32   1
  11  -5  -6 36547.3 3372.77   2
  11  -6  -6 38217.2 3473.33   2
  -6  11  -5 37047.4 3264.47   1
  -5  11  -5 36298.5 3235.26   1
   6 -11   5 32561.1 3097.98   1
   5 -11   5 35421.8 3143.07   1
  11  -5  -5 29533.6 3022.44   2
  11  -6  -5 33037.7 3116.10   2
  -6  11  -4 13914.6 1979.49   1
  -5  11  -4 12016.5 1909.02   1
   6 -11   4 15463.2 2045.98   1
   5 -11   4 9870.71 1692.33   1
  11  -5  -4 9536.66 1745.14   2
  11  -6  -4 10868.9 1740.61   2
  -6  11  -3 31343.5 3082.10   1
  -5  11  -3 36124.6 3245.47   1
   6 -11   3 32349.6 3055.17   1
   5 -11   3 31556.1 2920.98   1
  11  -6  -3 36799.5 3221.52   2
  -6  11  -2 139774. 6478.65   1
  -5  11  -2 129853. 6364.30   1
   6 -11   2 125062. 6177.29   1
   5 -11   2 129261. 6325.12   1
  -6  11  -1 843.008 543.728   1
  -5  11  -1 997.957 604.098   1
   6 -11   1 321.372 277.400   1
   5 -11   1-357.535 479.952   1
  -6  11   0 19861.2 2409.81   1
  -5  11   0 20304.1 2348.07   1
   6 -11   0 17551.4 2242.62   1
   5 -11   0 20663.2 2296.91   1
  -6  11   1 19064.7 2346.12   1
  -5  11   1 18623.3 2291.67   1
   6 -11  -1 16831.2 2148.42   1
   5 -11  -1 17637.4 2195.24   1
   6   5  -1 15209.6 2213.16   2
  -6  11   2 172651. 7357.83   1
  -5  11   2 187480. 7566.21   1
   6 -11  -2 185817. 7433.45   1
   5 -11  -2 172853. 7207.69   1
  -6  11   3 69467.9 4527.06   1
  -5  11   3 74051.6 4629.43   1
   6 -11  -3 68907.6 4390.88   1
   5 -11  -3 71748.2 4459.72   1
   5   6  -3 50510.0 4096.30   2
   6   5  -3 52251.9 4114.02   2
   6 -11  -4 16057.4 2100.80   1
   5 -11  -4 19009.3 2342.17   1
   5   6  -4 12548.6 1905.60   2
   6   5  -4 13397.5 2126.61   2
  -6  11   4 16511.5 2097.14   1
  -5  11   4 19494.7 2333.92   1
   6 -11  -5 31979.0 3062.49   1
   5 -11  -5 31201.3 2982.55   1
   5   6  -5 27050.2 2941.62   2
   6   5  -5 22814.0 2650.08   2
  -6  11   5 27887.7 2808.02   1
  -5  11   5 33134.3 3011.67   1
   6 -11  -6 57473.5 4125.29   1
   5 -11  -6 52269.7 3998.52   1
   5   6  -6 57626.6 4269.02   2
   6   5  -6 57709.5 4274.57   2
  -6  11   6 62161.0 4264.01   1
  -5  11   6 60745.2 4132.00   1
   6 -11  -6 42782.2 3749.19   2
   6 -11  -7 33750.0 3139.08   1
   5 -11  -7 34697.6 3231.25   1
   5   6  -7 30033.8 3147.97   2
   6   5  -7 27508.0 2941.10   2
  -6  11   7 32889.6 3055.99   1
  -5  11   7 35685.8 3231.80   1
   6 -11  -7 33510.0 3263.58   2
  -6  11   8 525.342 710.402   1
  -5  11   8 438.457 400.810   1
   6 -11  -8 648.883 456.342   1
   5 -11  -8 1118.70 745.611   1
   5   6  -8 576.119 481.211   2
   6   5  -8 755.986 452.576   2
   6 -11  -8-178.315 563.970   2
   5 -11  -8-419.860 401.043   2
   6 -11  -9 28350.6 2852.53   1
   5 -11  -9 26759.7 2750.72   1
   5   6  -9 22053.7 2642.15   2
   6   5  -9 23123.0 2688.78   2
  -6  11   9 24041.9 2779.79   1
  -5  11   9 24456.1 2618.03   1
   6 -11  -9 20018.4 2504.00   2
   5 -11  -9 15706.6 2188.85   2
   6 -11 -10 82004.4 5078.72   1
   5 -11 -10 81926.6 5067.14   1
   5   6 -10 69863.3 4839.58   2
   6   5 -10 70160.5 4852.98   2
  -6  11  10 87460.2 5265.08   1
  -5  11  10 77487.6 4970.95   1
   6 -11 -10 73647.3 4757.89   2
  -6  11  11 3916.42 1149.83   1
  -5  11  11 5278.97 1316.46   1
   6 -11 -11 4717.60 1261.78   1
   5 -11 -11 3377.84 1060.61   1
   6 -11 -11 4648.69 1235.08   2
   5 -11 -11 1752.73 745.152   2
  11  -7 -11 5012.85 1304.91   1
 -11   7  11 5283.62 1330.92   1
  -7  11 -11 6107.33 1344.77   1
   7 -11  11 5809.26 1413.61   1
  11  -4 -11 5643.73 1328.27   2
  11  -7 -10 20682.6 2595.64   1
 -11   7  10 22540.6 2719.57   1
  -7  11 -10 28547.0 3043.91   1
   7 -11  10 27463.3 2961.69   1
   4 -11  10 28313.5 2949.47   1
  11  -4 -10 24553.6 2846.22   2
  -4  11 -10 28637.0 3000.88   1
  11  -7 -10 24100.9 2779.67   2
  11  -7  -9 2498.74 965.891   1
  -7  11  -9 1940.48 834.340   1
   7 -11   9 3126.10 986.870   1
 -11   7   9 2149.04 839.203   1
   4 -11   9 1147.20 445.427   1
  11  -4  -9 1579.81 716.891   2
  11  -7  -9 1954.64 909.342   2
  -4  11  -9 1446.05 614.283   1
  11  -7  -8 188962. 8522.14   1
 -11   7   8 200643. 8541.31   1
  -7  11  -8 235665. 9013.55   1
   7 -11   8 224820. 8750.71   1
   4 -11   8 233063. 8959.90   1
  -4  11  -8 244945. 9209.30   1
  11  -4  -8 229144. 8980.17   2
  11  -7  -8 226573. 9015.67   2
  11  -7  -7 11016.7 1825.77   1
  -7  11  -7 14669.5 2091.41   1
  -4  11  -7 17137.9 2276.30   1
   7 -11   7 12121.6 1881.27   1
   4 -11   7 11961.3 1851.30   1
  11  -4  -7 11229.5 1897.66   2
 -11   7   7 12316.2 1954.11   1
  11  -7  -7 10169.1 1863.34   2
  -7  11  -6 5140.03 1280.52   1
  -4  11  -6 5437.40 1228.75   1
   7 -11   6 4013.15 1134.00   1
   4 -11   6 5756.07 1365.19   1
  11  -4  -6 4518.78 1127.27   2
  11  -7  -6 3901.71 1104.59   2
 -11   7   6 4667.27 1217.04   1
  -7  11  -5-95.0390 552.128   1
   7 -11   5 40.4673 550.107   1
   4 -11   5-374.820 326.997   1
  11  -4  -5-37.9374 398.174   2
  11  -7  -5 713.835 407.111   2
  -7  11  -4 116776. 5945.41   1
  -4  11  -4 125215. 6184.58   1
   7 -11   4 108494. 5845.43   1
   4 -11   4 110578. 5801.52   1
  11  -4  -4 115247. 6089.68   2
  11  -7  -4 109951. 6043.59   2
  -7  11  -3 3710.79 1036.81   1
  -4  11  -3 5747.25 1228.11   1
   7 -11   3 2669.54 879.561   1
   4 -11   3 2038.22 742.946   1
  11  -7  -3 3322.29 1101.32   2
  -7  11  -2 9836.67 1674.82   1
  -4  11  -2 11713.5 1870.57   1
   7 -11   2 10514.8 1618.86   1
   4 -11   2 9225.88 1643.94   1
  -4  11  -1 798.152 632.863   1
   7 -11   1 466.582 449.605   1
   4 -11   1 572.184 474.129   1
  -7  11  -1 695.680 424.886   1
  -7  11   0 265683. 9374.49   1
  -4  11   0 255489. 9381.11   1
   7 -11   0 247457. 8986.07   1
   4 -11   0 266088. 9400.90   1
   7 -11  -1 2947.57 1056.88   1
   7   4  -1 3611.87 1101.58   2
   4 -11  -1 4550.74 1130.58   1
  -7  11   1 4066.11 1113.04   1
  -4  11   1 2904.91 946.856   1
  -7  11   2 20878.1 2412.59   1
  -4  11   2 20166.5 2440.66   1
   7 -11  -2 25745.8 2679.06   1
   4 -11  -2 21303.0 2463.57   1
   7   4  -2 20319.5 2449.70   2
   7 -11  -3 897.980 390.003   1
  -7  11   3 128.529 393.254   1
   4 -11  -3 639.218 651.004   1
   7   4  -3-926.966 813.113   2
  -4  11   3 248.156 364.546   1
   7 -11  -3 163.111 612.918   2
  -4  11   4 137231. 6490.06   1
   7 -11  -4 130657. 6268.94   1
   4 -11  -4 126838. 6259.95   1
  -7  11   4 130090. 6244.91   1
   7 -11  -4 117533. 6273.28   2
   7 -11  -5 19615.5 2364.17   1
   4 -11  -5 19298.0 2430.98   1
   7   4  -5 15298.7 2182.79   2
  -7  11   5 19866.3 2404.01   1
  -4  11   5 19755.7 2433.02   1
   7 -11  -5 15870.7 2209.27   2
  -7  11   6 3692.50 1052.46   1
  -4  11   6 4702.13 1220.97   1
   7 -11  -6 4274.07 1169.63   1
   4 -11  -6 2731.36 862.936   1
   4   7  -6 3620.98 1177.82   2
   7   4  -6 3046.84 919.246   2
   7 -11  -6 3798.71 899.512   2
  -7  11   7 599.393 593.465   1
  -4  11   7 425.208 287.488   1
   4 -11  -7 611.887 397.747   1
   4   7  -7 154.671 356.742   2
   7   4  -7 890.667 388.271   2
   7 -11  -7 8.93594 356.399   2
   7 -11  -8 288599. 9764.33   1
   4 -11  -8 266324. 9795.39   1
   4   7  -8 240439. 9639.91   2
   7   4  -8 228146. 9281.19   2
  -7  11   8 259586. 9424.85   1
  -4  11   8 237974. 9208.65   1
   7 -11  -8 202611. 8562.85   2
  -7  11   9 6891.95 1466.72   1
  -4  11   9 4987.90 1309.37   1
   7 -11  -9 9037.04 1681.97   1
   4 -11  -9 5261.66 1236.75   1
   4   7  -9 4896.49 1302.80   2
   7   4  -9 5938.95 1487.58   2
   7 -11  -9 6526.92 1450.83   2
   4 -11  -9 1626.21 528.074   2
  -7  11  10 455.061 426.351   1
  -4  11  10 501.840 459.832   1
   7 -11 -10-350.898 585.826   1
   4 -11 -10 553.590 506.748   1
   4   7 -10 402.006 332.256   2
   7   4 -10 708.490 504.511   2
   7 -11 -10-156.163 613.924   2
  -4  -7  10 281.591 364.449   1
   4 -11 -10-886.983 745.391   2
  -4  11  11 2151.60 873.315   1
   4 -11 -11 1972.82 709.204   1
   4 -11 -11 1285.09 702.902   2
  -4  -7  11 2929.10 1093.64   1
   4 -11 -12 33303.5 3392.62   1
  -4  11  12 32771.8 3311.89   1
  -4  -7  12 35032.5 3617.25   1
  11  -8 -11 1491.29 552.998   1
  -8  11 -11 1858.92 914.010   1
   8 -11  11 899.016 705.391   1
 -11   8  11 787.295 440.909   1
  11  -8 -10 67427.5 4762.38   1
 -11   8  10 67760.9 4625.88   1
  -8  11 -10 65433.6 4604.72   1
   8 -11  10 62807.9 4554.70   1
  11  -3 -10 65367.1 4603.75   2
  11  -8 -10 78273.0 5132.55   2
  -3  11  -9 5727.62 1337.78   1
  11  -8  -9 4206.97 1165.89   1
  -8  11  -9 6123.86 1395.94   1
   8 -11   9 3592.40 1061.45   1
  11  -3  -9 5602.22 1240.34   2
   3 -11   9 5865.99 1441.33   1
 -11   8   9 6042.87 1384.16   1
  11  -8  -9 2947.61 1191.85   2
  11  -8  -8 50904.5 4032.17   1
  -8  11  -8 61601.9 4470.95   1
 -11   8   8 49594.3 3950.84   1
   8 -11   8 53324.1 4120.07   1
   3 -11   8 54091.2 4085.42   1
  -3  11  -8 66274.6 4439.88   1
  11  -3  -8 47165.4 3906.57   2
  11  -8  -8 50811.9 4192.70   2
  11  -8  -7 24020.9 2746.28   1
  -8  11  -7 26843.8 2812.31   1
 -11   8   7 31655.5 3149.25   1
   8 -11   7 28481.4 2979.94   1
   3 -11   7 30200.4 3033.27   1
  -3  11  -7 31158.5 3123.59   1
  11  -3  -7 21092.0 2611.80   2
  11  -8  -7 25413.7 2890.82   2
  11  -8  -6 93124.6 5609.59   1
  -8  11  -6 119773. 6166.14   1
   8 -11   6 111658. 6069.35   1
 -11   8   6 118913. 6181.92   1
   3 -11   6 125220. 6287.61   1
  -3  11  -6 119582. 6189.59   1
  11  -3  -6 101202. 5872.56   2
  11  -8  -6 109378. 6103.42   2
  11  -8  -5 60677.1 4349.48   1
  -8  11  -5 70651.2 4638.19   1
   8 -11   5 60593.5 4376.11   1
  -3  11  -5 67888.7 4532.26   1
 -11   8   5 67113.2 4530.03   1
   3 -11   5 72185.4 4616.34   1
  11  -3  -5 57465.3 4292.69   2
  11  -8  -5 56377.3 4285.72   2
 -11   8   4 1499.31 539.212   1
  -8  11  -4 1738.47 757.638   1
  11  -8  -4 335.982 268.087   1
  -3  11  -4 1427.61 723.512   1
   8 -11   4 469.909 367.355   1
   3 -11   4 1343.96 762.665   1
  11  -8  -4 441.466 625.650   2
  -8  11  -3 70309.1 4621.75   1
  -3  11  -3 69170.3 4513.76   1
   8 -11   3 65354.3 4469.65   1
   3 -11   3 67050.3 4449.95   1
 -11   8   3 75428.6 4862.97   1
  11  -8  -3 66445.2 4627.14   2
  -8  11  -2 58746.9 4181.37   1
  -3  11  -2 65054.6 4446.58   1
   8 -11   2 65451.5 4395.27   1
   3 -11   2 59789.8 4241.52   1
  -8  11  -1 15985.3 2165.60   1
  -3  11  -1 16135.9 2155.90   1
   8 -11   1 15338.1 2065.00   1
   3 -11   1 18446.0 2262.33   1
  -3  11   0 7223.23 1453.45   1
   8 -11   0 5288.18 1230.98   1
   3 -11   0 8198.56 1572.47   1
  -8  11   0 6902.61 1407.59   1
   8 -11   0 2138.97 798.259   2
   8 -11  -1 3127.00 849.388   1
   8   3  -1 2045.30 831.205   2
   3 -11  -1 3592.55 1002.59   1
  -8  11   1 2865.98 875.774   1
  -3  11   1 2693.48 988.937   1
   8 -11  -1 1794.74 985.092   2
  -3  11   2 106782. 5637.05   1
   8 -11  -2 94490.6 5259.08   1
   3 -11  -2 95354.7 5429.21   1
  -8  11   2 105379. 5588.06   1
  -8  11   3 5981.92 1374.60   1
   8 -11  -3 5627.44 1316.98   1
   3 -11  -3 7682.96 1490.87   1
   8   3  -3 4876.51 1158.02   2
  -3  11   3 6544.56 1364.13   1
   8 -11  -3 5289.79 1258.91   2
  -3  11   4 58743.2 4234.73   1
   8 -11  -4 63605.5 4353.72   1
   3 -11  -4 59279.7 4263.56   1
   8   3  -4 49501.2 3949.33   2
  -8  11   4 63436.6 4318.91   1
   8 -11  -4 53723.4 4071.89   2
   8 -11  -5 25725.4 2756.61   1
   3 -11  -5 22846.8 2612.47   1
   8   3  -5 19765.4 2466.57   2
  -8  11   5 28284.4 2906.66   1
   8 -11  -5 22358.2 2556.03   2
  -3  11   5 23088.4 2590.83   1
   8 -11  -6 137860. 6694.91   1
   3 -11  -6 127976. 6638.78   1
   8   3  -6 109309. 6217.26   2
  -8  11   6 159321. 7032.12   1
   8 -11  -6 145733. 6721.25   2
  -3  11   6 137755. 6674.51   1
   8 -11  -7 64747.1 4476.42   1
   3 -11  -7 63430.3 4439.41   1
   8   3  -7 57743.3 4342.32   2
  -3  -8   7 66207.8 4754.24   1
  -8  11   7 66689.5 4503.70   1
  -3  11   7 53933.8 4148.37   1
   8 -11  -7 69735.5 4620.00   2
  -8  11   8 2501.33 1064.53   1
  -3  11   8 541.591 281.716   1
   8 -11  -8 1624.69 667.032   1
   3 -11  -8 1539.50 836.221   1
   8   3  -8-195.703 379.980   2
  -3  -8   8 384.275 460.095   1
   8 -11  -8 706.399 308.377   2
   3   8  -9 33732.2 3381.68   1
   8 -11  -9 52133.8 3875.47   1
   3 -11  -9 35610.7 3480.41   1
   8   3  -9 42946.7 3768.71   2
  -8  11   9 51340.3 3884.40   1
  -3  -8   9 40214.0 3716.88   1
  -3  11   9 36572.8 3474.88   1
   8 -11  -9 45674.2 3700.88   2
   3   8 -10 27090.2 3116.12   1
   3 -11 -10 30540.4 3218.37   1
   8   3 -10 32443.5 3283.66   2
  -3  11  10 30035.7 3198.35   1
  -3  -8  10 33149.2 3309.44   1
   3   8 -11 7049.12 1612.28   1
  -3  -8  11 11509.3 1955.03   1
  -9  11 -10 49674.1 4198.76   1
  -9  11  -9 2532.13 970.466   1
  11  -9  -9 3240.45 1053.69   1
   9 -11   9 2383.60 920.215   1
  11  -2  -9 3071.70 976.509   2
  11  -9  -9 2344.18 1000.03   2
 -11   9   9 3176.84 1023.90   1
  -2  11  -8 7833.21 1581.25   1
  -9  11  -8 5517.18 1318.88   1
  11  -9  -8 5902.08 1424.02   1
   9 -11   8 4633.20 1209.73   1
  11  -2  -8 5143.97 1283.48   2
   2 -11   8 6526.58 1396.95   1
  11  -9  -8 5139.98 1459.57   2
 -11   9   8 5278.72 1279.43   1
  11  -9  -7 19808.3 2427.49   1
  -9  11  -7 16243.3 2329.39   1
 -11   9   7 19716.2 2406.25   1
   2 -11   7 17794.8 2373.85   1
  -2  11  -7 18658.3 2371.15   1
   9 -11   7 14981.0 2113.77   1
  11  -2  -7 15357.7 2211.20   2
  11  -9  -7 14592.6 2314.35   2
  11  -9  -6 85413.6 5183.85   1
  -9  11  -6 92657.2 5568.22   1
   9 -11   6 87093.4 5405.85   1
 -11   9   6 89138.9 5339.01   1
   2 -11   6 104936. 5829.91   1
  -2  11  -6 100458. 5697.72   1
  11  -2  -6 85770.2 5364.10   2
  11  -9  -6 85416.5 5522.71   2
  -9  11  -5 32555.7 3223.25   1
  11  -9  -5 29630.5 3034.99   1
   9 -11   5 28585.5 2941.27   1
  -2  11  -5 30680.3 3075.17   1
   2 -11   5 38972.9 3446.26   1
 -11   9   5 29781.0 3052.40   1
  11  -2  -5 28676.2 3024.44   2
  11  -9  -5 25049.5 2926.39   2
 -11   9   4 7534.48 1544.49   1
  11  -9  -4 6497.68 1414.69   1
  -2  11  -4 6699.12 1434.15   1
   9 -11   4 6526.78 1289.61   1
   2 -11   4 6848.09 1421.07   1
  -9  11  -4 5644.43 1293.50   1
  11  -9  -4 5060.11 1292.08   2
  -9  11  -3 49385.3 3835.06   1
  11  -9  -3 43608.8 3676.21   1
   9 -11   3 46811.5 3683.13   1
  -2  11  -3 40636.6 3511.28   1
   2 -11   3 48613.8 3762.26   1
 -11   9   3 42818.4 3708.96   1
  11  -9  -3 45420.0 3715.36   2
  -9  11  -2 38941.9 3440.87   1
  11  -9  -2 37026.5 3336.15   1
  -2  11  -2 38143.1 3419.41   1
   9 -11   2 39764.6 3421.10   1
   2 -11   2 50521.0 3885.91   1
 -11   9   2 38724.5 3444.98   1
  -9  11  -1 30963.4 3021.07   1
  -2  11  -1 28494.2 2953.50   1
   9 -11   1 30140.4 2975.59   1
   2 -11   1 30135.9 3039.48   1
 -11   9   1 29241.1 3014.27   1
  -2  11   0 4352.90 1150.01   1
   9 -11   0 6074.92 1368.19   1
  -9  11   0 7137.91 1497.51   1
   2 -11   0 5073.38 1220.60   1
   9 -11   0 2259.69 834.391   2
   9 -11  -1 1153.92 684.255   1
  -9  11   1 441.001 335.530   1
   2 -11  -1 51.0892 361.075   1
   9 -11  -1-430.448 674.242   2
  -2  11   1-401.586 623.319   1
  -2  11   2 112254. 6086.37   1
   9 -11  -2 133086. 6400.81   1
   2 -11  -2 143813. 6757.93   1
   9   2  -2 116474. 6304.89   2
  -9  11   2 123351. 6129.74   1
  -2  11   3 22172.0 2625.50   1
   9 -11  -3 27688.5 2835.68   1
   2 -11  -3 29508.2 3014.17   1
   9   2  -3 22891.8 2708.31   2
  -9  11   3 29629.2 2845.84   1
   9 -11  -3 17208.9 2201.80   2
  -2  11   4 33692.9 3244.73   1
   9 -11  -4 40054.0 3395.55   1
   2 -11  -4 31058.1 3130.00   1
   9   2  -4 35106.5 3261.88   2
  -9  11   4 34619.3 3188.02   1
   9 -11  -4 35345.5 3193.90   2
   9 -11  -5 125447. 6193.40   1
   2 -11  -5 105351. 5985.28   1
  -2  -9   5 97564.5 5786.76   1
   9   2  -5 83860.0 5412.07   2
  -9  11   5 118191. 6069.85   1
   9 -11  -5 104121. 5667.21   2
  -2  11   5 85697.4 5293.85   1
   9 -11  -6 132623. 6466.50   1
   2 -11  -6 113335. 6241.31   1
   9   2  -6 87059.5 5738.40   2
  -2  -9   6 101088. 5905.28   1
  -9  11   6 120714. 6160.40   1
   2   9  -6 93758.1 5706.88   1
   9 -11  -6 117249. 6048.91   2
  -2  11   6 84759.1 5240.42   1
  -9  11   7 4388.42 1187.88   1
   9 -11  -7 5932.61 1372.20   1
   2 -11  -7 4531.90 1134.11   1
   2   9  -7 4170.95 1279.48   1
   9   2  -7 5467.85 1469.31   2
  -2  -9   7 4305.44 1234.94   1
   9 -11  -7 4426.34 1082.40   2
  -9  11   8-639.856 645.816   1
   9 -11  -8 1294.98 781.490   1
   9   2  -8 1203.04 711.980   2
   2   9  -8-516.760 479.500   1
  -2  -9   8 228.415 328.364   1
   9 -11  -8 590.469 526.252   2
   9   2  -9 9554.59 1832.47   2
   2   9  -9 7855.89 1665.76   1
  -2  -9   9 7104.44 1493.20   1
   2   9 -10 15374.2 2374.45   1
  -2  -9  10 15753.8 2317.85   1
  11 -10  -8 91543.7 5562.51   1
 -11  10   8 88310.8 5309.22   1
  11  -1  -8 76565.8 5299.83   2
 -11  10   7 6381.53 1381.66   1
  11 -10  -7 6626.42 1460.93   1
  11  -1  -7 4259.93 1180.06   2
   1 -11   7 6220.51 1309.76   1
  11 -10  -7 3260.82 1252.54   2
  -1  11  -7 4909.27 1342.70   1
 -10  11  -7 5378.09 1371.26   1
 -11  10   6 1005.24 696.670   1
  11 -10  -6-81.1411 372.384   1
  10 -11   6-38.0207 293.194   1
  11  -1  -6-129.910 495.491   2
   1 -11   6 2070.30 1100.20   1
  -1  11  -6 1040.34 791.472   1
 -10  11  -6 271.440 557.554   1
  11 -10  -6-39.3124 409.926   2
 -11  10   5 1655.77 782.604   1
  11 -10  -5 2684.26 857.721   1
  10 -11   5 1644.21 547.899   1
  -1  11  -5 2856.82 1057.17   1
   1 -11   5 4669.97 1261.73   1
 -10  11  -5 2070.51 722.495   1
  11 -10  -5 2097.07 876.699   2
 -10  11  -4 63937.8 4610.47   1
  11 -10  -4 58913.3 4411.84   1
  10 -11   4 60243.4 4340.46   1
  -1  11  -4 63193.3 4507.43   1
   1 -11   4 68923.8 4743.83   1
 -11  10   4 70025.4 4705.54   1
  11 -10  -4 53835.4 4238.98   2
 -11  10   3 3209.41 1056.68   1
  -1  11  -3 1286.50 554.202   1
  11 -10  -3 2704.06 967.913   1
  10 -11   3 3087.44 902.608   1
 -10  11  -3 3511.25 1103.58   1
   1 -11   3 3459.89 1149.96   1
  11 -10  -3 3630.06 955.087   2
 -11  10   2 3678.93 1053.64   1
  -1  11  -2 3771.74 1097.96   1
  11 -10  -2 3559.50 941.389   1
  10 -11   2 4256.49 1087.61   1
 -10  11  -2 3452.82 1002.04   1
   1 -11   2 3376.53 1035.47   1
  -1  11  -1 1267.72 441.136   1
 -11  10   1 1473.38 744.184   1
  11 -10  -1 2704.64 953.052   1
  10 -11   1 2760.68 921.676   1
 -10  11  -1 2552.46 1060.02   1
   1 -11   1 2910.65 1023.31   1
  11 -10   0 159688. 7458.57   1
  10 -11   0 159933. 7264.56   1
   1 -11   0 173522. 7845.05   1
 -11  10   0 161312. 7450.20   1
 -10  11   0 158215. 7214.52   1
 -11  10  -1 712.833 655.410   1
 -10  11   1 3457.59 1065.24   1
  10 -11  -1 2584.16 943.918   1
   1 -11  -1 2703.88 1041.50   1
  10 -11  -1 1926.12 890.397   2
  -1  11   1 2360.74 979.431   1
 -10  11   2 802.604 530.840   1
  10 -11  -2 1935.86 801.158   1
   1 -11  -2 1406.12 711.740   1
  -1  11   2 1007.50 503.348   1
  10 -11  -2 927.161 817.322   2
 -10  11   3 670.400 566.216   1
  10 -11  -3 538.169 360.698   1
   1 -11  -3 1081.32 733.599   1
  -1 -10   3 514.144 406.567   1
  10 -11  -3 710.941 463.612   2
  10 -11  -4 157457. 7294.87   1
  -1 -10   4 155270. 7471.37   1
  10   1  -4 123868. 6907.09   2
 -10  11   4 170043. 7428.43   1
  10 -11  -4 131845. 6691.73   2
 -10  11   5 1975.82 794.917   1
  10 -11  -5 2775.29 982.467   1
  10   1  -5 1851.55 861.174   2
  -1 -10   5 1936.14 771.999   1
   1  10  -5 2471.93 801.782   1
  10 -11  -5 3590.45 1067.97   2
 -10  11   6 3832.13 1117.92   1
  10 -11  -6 4977.30 1159.50   1
  10   1  -6 3832.63 1178.90   2
  -1 -10   6 3963.51 1304.64   1
  10 -11  -6 3656.11 1106.99   2
   1  10  -6 3256.82 1000.66   1
   1  10  -7 5318.79 1385.12   1
 -10  11   7 5803.10 1355.30   1
  10 -11  -7 4619.59 1174.77   1
  10   1  -7 4497.57 1256.03   2
  -1 -10   7 5266.47 1334.58   1
  10 -11  -7 6189.46 1397.13   2
  -1 -10   8 43058.5 3845.68   1
  10   1  -8 45744.0 3949.24   2
   1  10  -8 42524.3 3881.51   1
  11 -11   0 15195.7 2167.82   1
 -11  11   0 17075.5 2348.23   1
 -11  11   1 4778.70 1279.04   1
 -11  11  -1 4156.63 1089.52   1
  11 -11  -1 3728.80 1000.13   1
  11 -11   1 3539.87 1065.50   1
  11 -11  -2 51586.7 4134.03   1
  11 -11   2 50769.3 4133.85   1
   0 -11   2 52122.0 4249.93   1
 -11  11   2 60467.7 4351.24   1
 -11  11  -2 44173.0 3795.57   1
  11 -11  -3 35905.5 3336.19   1
   0  11  -3 31192.7 3251.77   1
   0 -11   3 24627.1 2882.52   1
 -11  11   3 31275.2 3172.85   1
  11 -11  -3 24824.1 2892.76   2
 -11  11  -3 31718.7 3187.19   1
 -11  11   4 10834.2 1921.14   1
  11 -11  -4 10902.2 1805.16   1
   0  11  -4 9025.38 1776.07   1
   0 -11   4 6393.75 1416.95   1
  11 -11  -4 9618.54 1693.78   2
  11 -11  -5 38894.7 3628.69   1
   0  11  -5 33977.9 3447.18   1
   0 -11   5 30284.5 3260.15   1
 -11  11   5 42970.1 3700.84   1
  11 -11  -5 34259.3 3346.26   2
   0 -11   6 55339.2 4389.45   1
   0  11  -6 52559.1 4345.21   1
  12  -6  -9-919.784 756.676   2
  12  -6  -8 145742. 7203.28   2
  -6  12  -7 219.234 500.854   1
   6 -12   7 641.302 467.134   1
  12  -6  -7 51.1068 329.332   2
  -6  12  -6 12049.5 1962.05   1
   6 -12   6 8853.49 1721.68   1
  12  -6  -6 8853.95 1714.90   2
  -6  12  -5 575.844 493.503   1
   6 -12   5-695.717 776.200   1
  -6  12  -4 131891. 6586.42   1
   6 -12   4 136264. 6642.85   1
  -6  12  -3 596.725 748.748   1
   6 -12   3 796.196 798.419   1
  -6  12  -2 833.346 895.667   1
   6 -12   2 110.034 350.862   1
   6 -12   1-583.298 482.180   1
  -6  12  -1 131.148 775.907   1
  -6  12   0 93559.8 5357.89   1
   6 -12   0 93959.4 5351.62   1
   6 -12  -1-502.343 607.344   1
  -6  12   1 416.869 343.546   1
   6 -12  -2-182.417 436.729   1
  -6  12   2-361.256 339.906   1
   6 -12  -3-144.268 507.408   1
  -6  12   3 323.326 738.197   1
   6 -12  -4 258019. 9698.77   1
   6   6  -4 237371. 10056.1   2
  -6  12   5 558.192 576.850   1
   6 -12  -5 75.5718 634.234   1
   6   6  -5 907.740 660.485   2
   6 -12  -6 20921.8 2417.42   1
   6   6  -6 17696.5 2425.68   2
  -6  12   6 21324.7 2507.37   1
  -6  12   7-532.254 560.327   1
   6 -12  -7-719.051 682.643   1
   6   6  -7 968.532 894.123   2
   6 -12  -7-6.59921 417.711   2
  12  -5  -8 15525.7 2323.29   2
  12  -7  -8 17260.8 2288.83   2
  -7  12  -7 39288.1 3576.54   1
  -5  12  -7 44574.8 3700.64   1
   7 -12   7 39045.6 3407.04   1
   5 -12   7 31950.2 3124.52   1
  12  -5  -7 33038.9 3335.87   2
  12  -7  -7 31896.3 3303.02   2
  -7  12  -6 167879. 7541.36   1
  -5  12  -6 174062. 7616.44   1
   7 -12   6 164592. 7368.85   1
   5 -12   6 153251. 7111.54   1
  12  -5  -6 137591. 7120.25   2
  12  -7  -6 128603. 6885.56   2
  -7  12  -5 7681.67 1532.07   1
  -5  12  -5 7297.11 1527.50   1
   7 -12   5 6559.50 1433.36   1
   5 -12   5 6645.57 1472.21   1
  -7  12  -4 3346.44 1006.95   1
  -5  12  -4 4288.77 1172.97   1
   7 -12   4 4585.44 1169.68   1
   5 -12   4 3154.97 922.796   1
  -7  12  -3 2770.77 1004.33   1
  -5  12  -3 3838.73 1134.70   1
   7 -12   3 2210.05 806.977   1
   5 -12   3 2041.30 682.248   1
  -7  12  -2 38062.8 3347.90   1
  -5  12  -2 40236.1 3424.34   1
   7 -12   2 35442.8 3236.81   1
   5 -12   2 36422.5 3336.23   1
  -7  12  -1 58342.8 4329.99   1
  -5  12  -1 58367.0 4361.22   1
   7 -12   1 57658.2 4189.10   1
   5 -12   1 59449.8 4233.78   1
  -7  12   0 16687.9 2270.61   1
   7 -12   0 16652.6 2150.51   1
   5 -12   0 12643.8 1984.38   1
  -5  12   0 12707.4 1911.17   1
  -7  12   1 17268.6 2296.69   1
  -5  12   1 18147.3 2289.39   1
   7 -12  -1 17144.4 2254.95   1
   5 -12  -1 16219.1 2120.41   1
  -7  12   2 92904.4 5358.82   1
  -5  12   2 104547. 5751.15   1
   7 -12  -2 88088.3 5198.39   1
   5 -12  -2 91192.5 5245.14   1
   7 -12  -3 1281.41 803.511   1
   5 -12  -3 1484.69 664.189   1
  -7  12   3 974.915 646.751   1
   7   5  -3 400.414 396.303   2
  -5  12   3 1020.56 600.319   1
  -7  12   4 3783.71 1086.35   1
   7 -12  -4 2796.15 824.061   1
   5 -12  -4 3011.56 960.174   1
  -5  12   4 2527.85 905.828   1
   7   5  -4 5072.09 1278.26   2
   7 -12  -4 2034.46 1087.98   2
   7 -12  -5 80546.6 4951.50   1
   5 -12  -5 77975.7 4914.65   1
  -7  12   5 85297.3 5031.00   1
  -5  12   5 75649.3 4858.38   1
   7 -12  -6 104901. 5750.58   1
   5 -12  -6 100090. 5732.58   1
   5   7  -6 76680.9 5269.98   2
   7   5  -6 88848.9 5497.45   2
  -7  12   6 119969. 6093.49   1
  -5  12   6 117023. 6003.21   1
   7 -12  -6 63661.7 4857.17   2
   7 -12  -7 43053.3 3616.26   1
   5 -12  -7 38294.9 3448.98   1
   5   7  -7 29331.7 3065.04   2
   7   5  -7 35776.4 3390.63   2
  -7  12   7 37969.5 3466.23   1
  -5  12   7 33873.4 3342.61   1
   5 -12  -8 12131.9 1920.61   1
  -5  12   8 13952.8 2118.03   1
  12  -4  -8 37267.8 3572.59   2
  12  -8  -8 44276.3 3854.68   2
  -8  12  -7 19790.5 2513.43   1
   8 -12   7 22129.9 2631.46   1
  12  -4  -7 16030.3 2305.63   2
  12  -8  -7 15037.8 2350.25   2
  -8  12  -6 69460.9 4793.56   1
  -4  12  -6 68911.0 4677.89   1
   8 -12   6 75739.5 4910.56   1
   4 -12   6 61368.8 4409.26   1
  -8  12  -5 46803.6 3870.97   1
  -4  12  -5 46552.0 3847.53   1
   8 -12   5 44280.0 3755.97   1
   4 -12   5 42470.0 3596.02   1
  -8  12  -4 2063.79 680.923   1
  -4  12  -4 2648.73 920.798   1
   8 -12   4 1955.45 771.861   1
   4 -12   4 2151.33 778.916   1
  -8  12  -3 29864.0 3090.68   1
  -4  12  -3 32628.4 3163.95   1
   8 -12   3 32537.2 3061.67   1
   4 -12   3 30170.3 3039.28   1
  -8  12  -2 63985.1 4565.01   1
  -4  12  -2 60974.1 4442.09   1
   8 -12   2 75300.9 4724.68   1
   4 -12   2 69867.5 4718.13   1
  -4  12  -1 5212.61 1183.56   1
   8 -12   1 4099.34 1062.32   1
   4 -12   1 3719.47 1091.62   1
  -8  12  -1 5048.25 1227.18   1
   8 -12   0 463.810 576.523   1
   4 -12   0 165.034 330.137   1
  -8  12   0 112.746 316.889   1
  -4  12   0 702.208 404.141   1
   8 -12   0-120.444 346.612   2
  -8  12   1 30834.9 3051.83   1
  -4  12   1 30454.7 3103.89   1
   8 -12  -1 26768.9 2821.49   1
   4 -12  -1 28900.2 2987.71   1
  -4  12   2 76380.5 4884.05   1
   8 -12  -2 75666.4 4735.83   1
   4 -12  -2 70091.4 4593.17   1
   8   4  -2 37530.9 3671.93   2
  -8  12   2 73969.6 4723.29   1
  -4  12   3 40086.2 3495.53   1
   8 -12  -3 35113.9 3271.95   1
   4 -12  -3 34453.7 3219.20   1
   8   4  -3 21114.4 2693.04   2
   8 -12  -3 17671.6 2479.16   2
  -8  12   3 42267.3 3513.19   1
   8 -12  -4 34923.4 3317.68   1
   4 -12  -4 35087.6 3289.31   1
   8   4  -4 19992.1 2647.04   2
  -8  12   4 37895.5 3370.38   1
   8 -12  -4 16618.8 2346.07   2
  -4  12   4 30379.3 3060.05   1
  -8  12   5 2586.27 881.746   1
   8 -12  -5 592.881 436.609   1
  -4  12   5 999.345 554.489   1
   4 -12  -5 1594.40 771.617   1
   8   4  -5 1779.20 814.899   2
   8 -12  -5 1591.17 791.650   2
   8 -12  -6 132919. 6591.39   1
   4 -12  -6 131515. 6667.10   1
   8   4  -6 101854. 6129.25   2
  -8  12   6 130667. 6549.29   1
  -4  12   6 121877. 6352.96   1
   8 -12  -6 102340. 5834.56   2
   4 -12  -7 19468.3 2433.06   1
   8   4  -7 17836.4 2515.35   2
  -4  12   7 18834.2 2491.86   1
  -4  12   8 7138.89 1606.78   1
   4 -12  -8 10815.1 1882.01   1
  12  -9  -7 861.179 708.385   2
  -9  12  -6 300.316 354.243   1
   9 -12   6 546.622 431.455   1
  12  -9  -6 710.097 647.762   2
  -3  12  -5 1169.97 582.998   1
   9 -12   5 2313.30 845.045   1
   3 -12   5 1278.13 671.927   1
  12  -9  -5 496.937 484.609   2
  -9  12  -5 150.623 679.931   1
  -9  12  -4 115374. 6198.97   1
  -3  12  -4 115187. 6255.36   1
   9 -12   4 120424. 6358.70   1
   3 -12   4 114468. 6171.94   1
  -3  12  -3 657.253 442.490   1
   9 -12   3-137.236 337.380   1
   3 -12   3 744.054 766.941   1
  -9  12  -3 134.857 411.141   1
  -3  12  -2 3629.43 1118.55   1
   9 -12   2 2614.55 857.567   1
   3 -12   2 2595.84 906.078   1
  -9  12  -2 2553.04 909.066   1
  -3  12  -1 342.733 567.776   1
   9 -12   1 2179.19 965.915   1
   3 -12   1 730.179 567.475   1
  -9  12  -1 634.912 531.793   1
   9 -12   1 179.983 421.617   2
  -3  12   0 75528.5 4910.90   1
   9 -12   0 85655.0 5113.21   1
   3 -12   0 70559.8 4713.33   1
  -9  12   0 86398.8 5117.98   1
   9 -12  -1 2030.63 958.918   1
  -9  12   1 1621.86 798.695   1
   3 -12  -1 2595.10 966.404   1
  -3  12   1 2141.81 756.396   1
   9 -12  -1 426.078 313.506   2
  -9  12   2-28.5366 514.355   1
   9 -12  -2 551.381 405.472   1
   3 -12  -2-915.025 736.451   1
  -3  12   2 609.506 609.836   1
   9 -12  -2 377.410 393.734   2
  -9  12   3 4400.32 1119.71   1
   9 -12  -3 6037.54 1331.05   1
   3 -12  -3 5357.11 1267.62   1
   9   3  -3 1785.27 792.233   2
  -3  12   3 4653.43 1276.13   1
   9 -12  -3 4348.31 1175.11   2
   9 -12  -4 224267. 8664.54   1
   3 -12  -4 202120. 8523.49   1
   9   3  -4 143754. 7490.34   2
  -9  12   4 244973. 9011.56   1
   9 -12  -4 156232. 7453.84   2
  -3  12   4 178734. 8071.67   1
  -3  12   5 1394.58 798.717   1
   3 -12  -5 2049.80 778.805   1
   9   3  -5 1592.90 689.220   2
   9 -12  -5 2970.38 1086.15   2
  -3  12   6 7135.72 1596.64   1
   3 -12  -6 8249.92 1652.57   1
   9   3  -6 4235.61 1221.01   2
   3 -12  -7 422.139 342.611   1
 -10  12  -5 24970.2 2890.28   1
  10 -12   5 23165.4 2743.14   1
 -10  12  -4 14853.3 2223.05   1
  10 -12   4 13099.3 2039.70   1
   2 -12   4 15977.0 2265.77   1
  -2  12  -3 6621.28 1469.07   1
  10 -12   3 7382.78 1540.51   1
   2 -12   3 9172.86 1716.37   1
 -10  12  -3 6988.35 1429.44   1
  -2  12  -2 40010.5 3710.93   1
  10 -12   2 33643.3 3226.58   1
   2 -12   2 40630.3 3716.02   1
 -10  12  -2 40338.7 3649.40   1
  -2  12  -1 270.934 428.808   1
  10 -12   1 801.841 623.483   1
 -10  12  -1-188.271 353.837   1
   2 -12   1-242.506 478.013   1
 -10  12   0 8080.63 1565.38   1
  10 -12   0 7594.88 1488.94   1
   2 -12   0 6563.13 1414.23   1
  -2  12   0 8076.70 1736.26   1
  -2  12   1 20626.7 2509.52   1
  10 -12  -1 24038.1 2802.08   1
   2 -12  -1 22275.3 2721.83   1
 -10  12   1 24938.1 2835.02   1
  -2  12   2 70962.7 4886.09   1
  10 -12  -2 72862.7 4761.00   1
   2 -12  -2 58297.3 4352.00   1
 -10  12   2 74863.4 4836.13   1
  -2  12   3 44848.6 3936.80   1
   2 -12  -3 48849.0 4079.17   1
   2 -12  -4 3645.40 1197.80   1
  10 -12  -4 5335.83 1249.83   2
   0   0   0    0.00    0.00   0


;
_shelx_hkl_checksum              86308
loop_
_space_group_symop_operation_xyz
'x, y, z'
'-y, x-y, z'
'-x+y, -x, z'
'-y, -x, -z+1/2'
'-x+y, y, -z+1/2'
'x, x-y, -z+1/2'
'-x, -y, -z'
'y, -x+y, -z'
'x-y, x, -z'
'y, x, z-1/2'
'x-y, -y, z-1/2'
'-x, -x+y, z-1/2'
loop_
_atom_site_label
_atom_site_type_symbol
_atom_site_fract_x
_atom_site_fract_y
_atom_site_fract_z
_atom_site_U_iso_or_equiv
_atom_site_adp_type
_atom_site_occupancy
_atom_site_site_symmetry_order
_atom_site_calc_flag
_atom_site_refinement_flags_posn
_atom_site_refinement_flags_adp
_atom_site_refinement_flags_occupancy
Mn2 Mn 0.6667 0.3333 0.2500 0.01355(13) Uani 1 6 d S T P
Fe1 Fe 1.0000 0.0000 0.0000 0.01307(13) Uani 1 6 d S T P
O1 O 0.88907(16) 0.34229(15) 0.16597(9) 0.0291(3) Uani 1 1 d . . .
O2 O 1.01598(14) 0.20798(15) 0.08183(7) 0.0217(2) Uani 1 1 d . . .
C1 C 0.8784(2) 0.2112(2) 0.11824(10) 0.0220(2) Uani 1 1 d . . .
H1 H 0.7606 0.1080 0.1086 0.046(7) Uiso 1 1 calc R . .
C2 C 1.3333 0.6667 0.1601(14) 0.237(11) Uani 1 3 d S T P
N1 N 1.2792(6) 0.5583(12) 0.2500 0.151(9) Uani 0.3333 2 d S T P
loop_
_atom_site_aniso_label
_atom_site_aniso_U_11
_atom_site_aniso_U_22
_atom_site_aniso_U_33
_atom_site_aniso_U_23
_atom_site_aniso_U_13
_atom_site_aniso_U_12
Mn2 0.01220(15) 0.01220(15) 0.0162(2) 0.000 0.000 0.00610(8)
Fe1 0.01173(15) 0.01173(15) 0.01574(19) 0.000 0.000 0.00587(7)
O1 0.0242(5) 0.0229(5) 0.0388(6) -0.0083(4) 0.0078(4) 0.0108(4)
O2 0.0193(4) 0.0200(4) 0.0274(5) -0.0040(3) 0.0021(3) 0.0109(4)
C1 0.0195(5) 0.0218(6) 0.0261(5) -0.0053(4) 0.0003(4) 0.0115(5)
C2 0.0319(15) 0.0319(15) 0.65(3) 0.000 0.000 0.0159(8)
N1 0.034(4) 0.017(3) 0.40(3) 0.000 -0.074(9) 0.0087(17)
loop_
_atom_type_symbol
_atom_type_description
_atom_type_scat_dispersion_real
_atom_type_scat_dispersion_imag
_atom_type_scat_source
C C 0.0030 0.0010 'International Tables Vol C Tables 4.2.6.8 and 6.1.1.4'
H H 0.0000 0.0000 'International Tables Vol C Tables 4.2.6.8 and 6.1.1.4'
N N 0.0050 0.0030 'International Tables Vol C Tables 4.2.6.8 and 6.1.1.4'
O O 0.0090 0.0050 'International Tables Vol C Tables 4.2.6.8 and 6.1.1.4'
Fe Fe 0.3380 0.7620 'International Tables Vol C Tables 4.2.6.8 and 6.1.1.4'
Mn Mn 0.3240 0.6570 'International Tables Vol C Tables 4.2.6.8 and 6.1.1.4'
loop_
_geom_angle_atom_site_label_1
_geom_angle_atom_site_label_2
_geom_angle_atom_site_label_3
_geom_angle
_geom_angle_site_symmetry_1
_geom_angle_site_symmetry_3
O1 Mn2 O1 89.24(7) . 4_665
O1 Mn2 O1 93.30(5) . 3_665
O1 Mn2 O1 84.26(6) 4_665 3_665
O1 Mn2 O1 84.26(6) . 6
O1 Mn2 O1 93.30(5) 4_665 6
O1 Mn2 O1 176.58(6) 3_665 6
O1 Mn2 O1 93.30(5) . 2_655
O1 Mn2 O1 176.58(6) 4_665 2_655
O1 Mn2 O1 93.30(5) 3_665 2_655
O1 Mn2 O1 89.25(7) 6 2_655
O1 Mn2 O1 176.58(6) . 5_655
O1 Mn2 O1 93.30(5) 4_665 5_655
O1 Mn2 O1 89.25(7) 3_665 5_655
O1 Mn2 O1 93.30(5) 6 5_655
O1 Mn2 O1 84.26(6) 2_655 5_655
O2 Fe1 O2 180.0 . 7_755
O2 Fe1 O2 88.81(4) . 9_545
O2 Fe1 O2 91.19(4) 7_755 9_545
O2 Fe1 O2 91.19(4) . 3_765
O2 Fe1 O2 88.81(4) 7_755 3_765
O2 Fe1 O2 180.00(7) 9_545 3_765
O2 Fe1 O2 91.19(4) . 2_645
O2 Fe1 O2 88.81(4) 7_755 2_645
O2 Fe1 O2 88.81(4) 9_545 2_645
O2 Fe1 O2 91.19(4) 3_765 2_645
O2 Fe1 O2 88.81(4) . 8_665
O2 Fe1 O2 91.19(4) 7_755 8_665
O2 Fe1 O2 91.19(4) 9_545 8_665
O2 Fe1 O2 88.81(4) 3_765 8_665
O2 Fe1 O2 180.00(11) 2_645 8_665
C1 O1 Mn2 125.21(10) . .
C1 O2 Fe1 124.92(9) . .
O1 C1 O2 124.45(14) . .
N1 C2 N1 54.4(8) 3_775 .
N1 C2 N1 54.4(9) 3_775 2_755
N1 C2 N1 54.4(9) . 2_755
N1 N1 N1 60.000(1) 3_775 2_755
N1 N1 C2 62.8(4) 3_775 4_775
N1 N1 C2 62.8(4) 2_755 4_775
N1 N1 C2 62.8(4) 3_775 .
N1 N1 C2 62.8(4) 2_755 .
C2 N1 C2 116.3(10) 4_775 .
loop_
_geom_bond_atom_site_label_1
_geom_bond_atom_site_label_2
_geom_bond_distance
_geom_bond_site_symmetry_2
Mn2 O1 2.1494(11) .
Mn2 O1 2.1494(11) 4_665
Mn2 O1 2.1494(11) 3_665
Mn2 O1 2.1494(11) 6
Mn2 O1 2.1494(11) 2_655
Mn2 O1 2.1494(11) 5_655
Fe1 O2 2.0112(10) .
Fe1 O2 2.0112(10) 7_755
Fe1 O2 2.0112(10) 9_545
Fe1 O2 2.0112(10) 3_765
Fe1 O2 2.0112(10) 2_645
Fe1 O2 2.0112(10) 8_665
O1 C1 1.2360(16) .
O2 C1 1.2587(15) .
C2 N1 1.471(17) 3_775
C2 N1 1.471(17) .
C2 N1 1.471(17) 2_755
N1 N1 1.345(15) 3_775
N1 N1 1.345(15) 2_755
N1 C2 1.471(17) 4_775
