#------------------------------------------------------------------------------
#$Date: 2017-03-04 04:00:45 +0200 (Sat, 04 Mar 2017) $
#$Revision: 192964 $
#$URL: file:///home/coder/svn-repositories/cod/cif/4/34/54/4345405.cif $
#------------------------------------------------------------------------------
#
# This file is available in the Crystallography Open Database (COD),
# http://www.crystallography.net/
#
# All data on this site have been placed in the public domain by the
# contributors.
#
data_4345405
loop_
_publ_author_name
'Hlukhyy, Viktor'
'Trots, Dmytro'
'F\"assler, Thomas F'
_publ_section_title
;
 First-Order Phase Transition in BaNi2Ge2 and the Influence of the Valence
 Electron Count on Distortion of the ThCr2Si2 Structure Type.
;
_journal_issue                   3
_journal_name_full               'Inorganic chemistry'
_journal_page_first              1173
_journal_page_last               1185
_journal_paper_doi               10.1021/acs.inorgchem.6b02190
_journal_volume                  56
_journal_year                    2017
_chemical_formula_sum            'Ba Ge2 Ni2'
_chemical_formula_weight         399.94
_space_group_crystal_system      orthorhombic
_space_group_IT_number           62
_space_group_name_Hall           '-P 2ac 2n'
_space_group_name_H-M_alt        'P n m a'
_symmetry_space_group_name_Hall  '-P 2ac 2n'
_symmetry_space_group_name_H-M   'P n m a'
_audit_creation_method           SHELXL-2014/7
_cell_angle_alpha                90
_cell_angle_beta                 90
_cell_angle_gamma                90
_cell_formula_units_Z            4
_cell_length_a                   8.3901(3)
_cell_length_b                   11.3249(4)
_cell_length_c                   4.2950(2)
_cell_measurement_reflns_used    1121
_cell_measurement_temperature    293(2)
_cell_measurement_theta_max      25
_cell_measurement_theta_min      3
_cell_volume                     408.10(3)
_computing_cell_refinement       Fullprof
_computing_data_collection       'XArea (Stoe, 2004)'
_computing_structure_refinement  'SHELXL-2014/7 (Sheldrick, 2014)'
_computing_structure_solution    'SHELXS-2014/7 (Sheldrick, 2014)'
_diffrn_ambient_temperature      293(2)
_diffrn_measured_fraction_theta_full 0.997
_diffrn_measured_fraction_theta_max 0.998
_diffrn_measurement_device_type  'STOE IPDS 2T imaging plate diffractomter'
_diffrn_measurement_method       '\w scans'
_diffrn_radiation_type           MoK\a
_diffrn_radiation_wavelength     0.71073
_diffrn_reflns_av_R_equivalents  0.0990
_diffrn_reflns_av_unetI/netI     0.0335
_diffrn_reflns_Laue_measured_fraction_full 0.997
_diffrn_reflns_Laue_measured_fraction_max 0.998
_diffrn_reflns_limit_h_max       10
_diffrn_reflns_limit_h_min       -10
_diffrn_reflns_limit_k_max       14
_diffrn_reflns_limit_k_min       -14
_diffrn_reflns_limit_l_max       5
_diffrn_reflns_limit_l_min       -5
_diffrn_reflns_number            5955
_diffrn_reflns_point_group_measured_fraction_full 0.997
_diffrn_reflns_point_group_measured_fraction_max 0.998
_diffrn_reflns_theta_full        25.242
_diffrn_reflns_theta_max         27.499
_diffrn_reflns_theta_min         4.859
_diffrn_source                   'fine-focus sealed tube'
_exptl_absorpt_coefficient_mu    32.884
_exptl_absorpt_correction_T_max  0.1185
_exptl_absorpt_correction_T_min  0.0244
_exptl_absorpt_correction_type   numerical
_exptl_absorpt_process_details
'STOE X-RED (crystal shape optimized with STOE X-SHAPE)'
_exptl_crystal_colour            'metallic silver'
_exptl_crystal_density_diffrn    6.509
_exptl_crystal_density_method    'not measured'
_exptl_crystal_description       plate
_exptl_crystal_F_000             704
_exptl_crystal_size_max          0.12
_exptl_crystal_size_mid          0.04
_exptl_crystal_size_min          0.01
_refine_diff_density_max         1.516
_refine_diff_density_min         -1.369
_refine_diff_density_rms         0.338
_refine_ls_extinction_method     none
_refine_ls_goodness_of_fit_ref   1.136
_refine_ls_hydrogen_treatment    undef
_refine_ls_matrix_type           full
_refine_ls_number_parameters     25
_refine_ls_number_reflns         492
_refine_ls_number_restraints     0
_refine_ls_restrained_S_all      1.136
_refine_ls_R_factor_all          0.0403
_refine_ls_R_factor_gt           0.0351
_refine_ls_shift/su_max          0.000
_refine_ls_shift/su_mean         0.000
_refine_ls_structure_factor_coef Fsqd
_refine_ls_weighting_details
'w=1/[\s^2^(Fo^2^)+(0.0346P)^2^+8.9885P] where P=(Fo^2^+2Fc^2^)/3'
_refine_ls_weighting_scheme      calc
_refine_ls_wR_factor_gt          0.0845
_refine_ls_wR_factor_ref         0.0872
_reflns_Friedel_coverage         0.000
_reflns_number_gt                456
_reflns_number_total             492
_reflns_threshold_expression     'I > 2\s(I)'
_cod_data_source_file            ic6b02190_si_002.cif
_cod_data_source_block           LT-BaNi2Ge2
_cod_database_code               4345405
_publcif_datablock.id            {daba9faa-6c6a-4b63-83ea-37b3aad1f596}
_shelx_shelxl_version_number     2014/7
_shelx_space_group_comment
;
The symmetry employed for this shelxl refinement is uniquely defined
by the following loop, which should always be used as a source of
symmetry information in preference to the above space-group names.
They are only intended as comments.
;
_shelx_res_file
;

    abs_62.res created by SHELXL-2014/7

TITL abs_62 in Pnma

rem pulver _synchrotron
CELL 0.71073   8.3901  11.3249   4.2950  90.000  90.000  90.000
ZERR    4.00   0.0003   0.0004   0.0002   0.000   0.000   0.000

rem einkrist
rem CELL 0.71073   8.3968  11.3440   4.2999  90.000  90.000  90.000
rem ZERR    4.00   0.0017   0.0023   0.0009   0.000   0.000   0.000

rem Absorption Correction    : Numerical
rem Absorption Coefficient   : 32.76 mm\^-1
rem Min and max Transmission : 0.0147, 0.0932

rem crystal zise: (0.06-0.03)x0.12x0.01

LATT  1
SYMM 0.5-X, -Y, 0.5+Z
SYMM -X, 0.5+Y, -Z
SYMM 0.5+X, 0.5-Y, 0.5-Z
SFAC NI GE BA
UNIT 8 8 4

L.S. 10
BOND
FMAP 2
PLAN 20

acta
omit -1 55
rem EXTI    0.000104
WGHT    0.034600    8.988500
FVAR       0.06849
BA    3    0.141197    0.250000    0.252789    10.50000    0.01832    0.02043 =
         0.02467    0.00000   -0.00551    0.00000
GE    2    0.099201    0.580685    0.166269    11.00000    0.01249    0.02571 =
         0.01545    0.00114   -0.00004    0.00081
NI    1    0.354868    0.001554    0.156778    11.00000    0.01255    0.02555 =
         0.01558    0.00054   -0.00003   -0.00084
HKLF 4

REM  abs_62 in Pnma
REM R1 =  0.0351 for     456 Fo > 4sig(Fo)  and  0.0403 for all     492 data
REM     25 parameters refined using      0 restraints

END

WGHT      0.0333      8.9497

REM Highest difference peak  1.516,  deepest hole -1.369,  1-sigma level  0.338
Q1    1   0.0309  0.2500  0.0516  10.50000  0.05    1.52
Q2    1   0.3702 -0.0036  0.4438  11.00000  0.05    1.32
Q3    1   0.1053  0.5799  0.4574  11.00000  0.05    1.27
Q4    1   0.1840  0.5792  0.4024  11.00000  0.05    1.16
Q5    1   0.0290  0.2500  0.4652  10.50000  0.05    1.12
Q6    1   0.2952  0.2500  0.2491  10.50000  0.05    1.04
Q7    1   0.4648 -0.0024  0.2562  11.00000  0.05    1.04
Q8    1   0.0207  0.7500  0.1306  10.50000  0.05    0.96
Q9    1  -0.1039  0.2500  0.1080  10.50000  0.05    0.93
Q10   1   0.4379 -0.0828  0.2489  11.00000  0.05    0.92
Q11   1   0.2628  0.3332  0.2486  11.00000  0.05    0.87
Q12   1   0.1528  0.3714  0.2365  11.00000  0.05    0.85
Q13   1   0.2354  0.7500  0.2242  10.50000  0.05    0.84
Q14   1   0.1082  0.3401  0.0815  11.00000  0.05    0.81
Q15   1   0.3840  0.0039 -0.1162  11.00000  0.05    0.81
Q16   1   0.0541  0.2500  0.7323  10.50000  0.05    0.73
Q17   1   0.2441  0.5709  0.1315  11.00000  0.05    0.72
Q18   1   0.3532 -0.0907  0.0133  11.00000  0.05    0.72
Q19   1   0.3384 -0.1021  0.3986  11.00000  0.05    0.70
Q20   1   0.1354  0.2500  0.1635  10.50000  0.05    0.67
;
_shelx_res_checksum              57142
_shelx_hkl_file
;
  -2   0   0    2.02    1.05
   2   0   0    2.93    0.91
   2   0   0    2.20    0.80
  -2   0   0    0.62    0.57
   4   0   0  963.71    3.78
  -4   0   0  843.27    3.16
   4   0   0  830.78    3.05
  -4   0   0 1000.00    4.26
  -6   0   0    5.64    1.08
   6   0   0    4.68    0.86
  -6   0   0    4.42    0.68
   6   0   0    4.99    0.62
  -8   0   0   95.75    1.08
   8   0   0   90.59    1.37
  -8   0   0   99.18    1.65
   8   0   0   93.57    1.12
 -10   0   0    6.65    1.89
 -10   0   0    6.22    1.09
  10   0   0    7.35    0.85
  10   0   0    5.71    1.04
   2  -1   0   35.08    1.32
   2   1   0   35.40    1.34
   2  -1   0   30.15    1.00
  -2  -1   0   31.12    1.33
  -2   1   0   32.95    1.07
  -2  -1   0   31.31    0.95
   2   1   0   32.46    0.95
  -4   1   0   57.35    1.01
   4  -1   0   56.77    0.92
   4   1   0   62.38    1.26
  -4   1   0   67.28    1.49
   4  -1   0   63.78    1.20
   4   1   0   58.62    1.00
  -4  -1   0   54.01    0.92
  -4  -1   0   64.82    1.34
   6   1   0   14.98    0.83
   6  -1   0   13.10    0.69
  -6  -1   0   15.01    0.87
  -6   1   0   13.32    0.86
  -6   1   0   14.42    1.19
   6  -1   0   14.16    0.86
  -6  -1   0   15.63    1.14
   6   1   0   15.80    0.97
   8  -1   0   58.00    1.07
   8   1   0   62.80    1.16
  -8  -1   0   72.85    1.78
  -8   1   0   69.13    1.12
  -8   1   0   65.60    1.61
   8   1   0   67.74    1.06
  -8  -1   0   69.36    0.99
   8  -1   0   64.27    0.90
  10   1   0    5.64    1.04
  10  -1   0    4.39    1.22
  10  -1   0    6.00    0.82
 -10   1   0    4.36    1.07
 -10  -1   0    3.31    1.80
 -10  -1   0    5.47    1.06
 -10   1   0    4.09    2.03
  10   1   0    6.15    1.04
  -2  -2   0    3.51    1.23
   2  -2   0    3.24    0.95
   2   2   0    2.87    1.10
   2  -2   0    3.14    0.81
  -2  -2   0    2.98    0.67
  -2   2   0    2.32    0.72
  -2  -2   0    3.39    0.80
  -4   2   0   22.66    0.81
  -4  -2   0   23.76    0.72
  -4  -2   0   26.21    1.07
   4   2   0   24.58    1.07
   4  -2   0   25.34    1.04
   4  -2   0   22.67    0.72
   4   2   0   22.65    0.70
  -4   2   0   29.21    1.26
   6   2   0   11.21    1.01
   6   2   0   12.21    0.81
   6  -2   0    9.31    0.80
  -6   2   0   10.67    1.30
  -6  -2   0    9.80    0.67
  -6  -2   0   12.94    1.08
   6  -2   0   10.54    0.68
  -6   2   0   10.74    0.68
   8  -2   0    0.12    0.80
   8   2   0   -1.25    0.96
  -8   2   0   -0.19    1.40
  -8  -2   0   -0.68    0.72
  -8  -2   0   -0.85    1.14
  -8   2   0   -0.27    0.70
   8  -2   0   -0.92    0.98
 -10   2   0    6.79    0.90
  10  -2   0    5.42    0.83
 -10  -2   0    6.25    1.11
 -10   2   0    2.54    1.72
 -10  -2   0    6.90    1.43
  10   2   0    2.29    1.11
  10  -2   0    6.22    0.99
 -10  -2   0    5.25    1.10
   2   3   0  653.55    4.28
   2  -3   0  663.33    3.13
   2  -3   0  645.43    4.37
  -2   3   0  643.57    3.13
  -2  -3   0  546.93    2.88
  -2  -3   0  647.26    3.77
   2   3   0  616.69    3.00
  -4   3   0    7.70    0.62
  -4  -3   0    6.99    0.59
   4  -3   0    7.29    0.57
   4   3   0    8.48    1.04
   4  -3   0    9.51    0.79
  -4  -3   0    7.62    0.57
  -4  -3   0    7.39    0.97
  -6   3   0  136.42    1.19
  -6  -3   0  153.48    1.62
   6  -3   0  136.16    1.15
  -6   3   0  135.99    2.00
  -6  -3   0  142.11    1.24
   6   3   0  134.14    1.57
  -6  -3   0  121.73    1.16
   6  -3   0  134.86    1.36
  -8  -3   0    7.51    1.15
  -8   3   0    6.56    1.41
  -8   3   0    5.89    0.76
   8  -3   0    4.86    1.01
   8   3   0    7.77    1.05
   8  -3   0    5.73    0.70
  -8  -3   0    6.44    0.91
  -8  -3   0    7.17    0.93
  10   3   0    3.50    1.13
 -10   3   0    3.82    2.06
  10  -3   0    3.49    1.17
 -10   3   0    4.00    0.90
 -10  -3   0    3.16    1.10
 -10  -3   0    4.85    0.88
  10  -3   0    4.16    0.84
 -10  -3   0    3.47    1.76
   0  -4   0  291.12    2.88
   0   4   0  305.89    4.37
   0  -4   0  267.01    3.93
   0   4   0  340.26    3.18
   2   4   0   32.08    1.43
  -2   4   0   52.58    2.04
  -2  -4   0   46.64    1.06
   2  -4   0   46.03    1.01
  -2   4   0   45.11    1.13
  -2  -4   0   46.92    1.44
   2   4   0   45.80    1.01
  -4  -4   0  168.68    1.66
  -4  -4   0  154.31    1.31
  -4  -4   0  149.58    1.28
   4  -4   0  166.88    1.40
   4   4   0  159.19    1.98
   4  -4   0  177.42    1.89
  -4   4   0  149.10    1.30
   6  -4   0  150.53    1.46
  -6  -4   0  161.63    1.26
  -6   4   0  164.98    1.38
   6  -4   0  161.51    1.24
  -6  -4   0  163.95    1.59
  -6  -4   0  136.99    1.19
   6   4   0  143.70    1.64
  -8  -4   0   36.56    1.10
   8  -4   0   35.21    1.02
  -8  -4   0   36.07    0.93
  -8   4   0   20.48    1.62
   8  -4   0   37.58    0.90
  -8   4   0   40.75    1.10
  -8  -4   0   37.87    1.53
   8   4   0   30.09    1.25
 -10  -4   0   94.43    1.29
  10  -4   0   72.99    1.34
  10  -4   0   97.21    1.35
 -10   4   0   92.92    1.43
  10   4   0   75.28    1.47
 -10   4   0   49.12    2.27
 -10  -4   0   82.59    1.75
 -10  -4   0   83.90    1.27
  -2   5   0   13.06    1.66
  -2   5   0   11.58    1.03
   2   5   0    5.21    1.02
   2  -5   0   13.42    0.81
  -2  -5   0   10.81    0.89
  -2  -5   0   10.40    1.22
   2   5   0   11.52    0.84
  -2   5   0   10.71    1.05
  -4   5   0   43.40    0.88
  -4  -5   0   46.16    1.09
   4   5   0   33.57    1.29
  -4  -5   0   42.92    0.86
  -4  -5   0   41.67    0.88
  -4   5   0   36.01    1.77
   4  -5   0   44.04    0.86
   4  -5   0   45.09    1.26
  -6  -5   0    8.35    0.73
  -6   5   0    7.95    0.77
  -6  -5   0    8.14    0.76
   6   5   0    7.67    1.16
   6  -5   0    8.51    1.02
  -6  -5   0    8.83    0.99
   6  -5   0    9.08    0.73
   8  -5   0   55.07    1.00
  -8   5   0   35.47    1.59
  -8  -5   0   55.16    1.35
   8   5   0   46.61    1.41
   8  -5   0   46.95    1.11
  -8  -5   0   57.90    1.06
  -8   5   0   52.04    1.02
  -8  -5   0   54.37    1.16
 -10   5   0    3.43    1.44
 -10   5   0    5.34    1.18
 -10  -5   0    5.25    1.40
  10  -5   0    5.09    0.90
 -10  -5   0    5.17    0.95
 -10  -5   0    3.21    1.00
  10  -5   0    3.36    1.19
  10   5   0    4.27    1.64
   0   6   0  147.72    1.82
   0   6   0  100.50    2.06
   0  -6   0  120.71    2.14
   0  -6   0  141.25    1.65
  -2   6   0   12.36    1.75
   2  -6   0   14.45    0.90
  -2  -6   0   11.50    1.11
  -2   6   0   13.86    1.34
   2   6   0   13.10    0.98
  -2  -6   0   13.75    1.01
   2   6   0    9.98    1.14
  -2   6   0   14.99    0.92
  -4  -6   0   70.22    1.41
   4  -6   0   58.43    0.95
  -4   6   0   67.31    1.15
  -4  -6   0   60.61    0.96
  -4   6   0   41.35    1.98
  -4  -6   0   70.61    1.17
   4   6   0   37.72    1.20
  -6  -6   0   47.47    0.93
   6  -6   0   54.21    1.03
  -6  -6   0   49.72    1.37
  -6   6   0   39.93    1.68
   6  -6   0   49.23    1.23
  -6   6   0   52.21    1.09
   6   6   0   29.96    1.36
  -6  -6   0   47.69    0.91
  -8  -6   0    6.35    1.13
  -8   6   0    6.86    0.89
  -8  -6   0    5.65    0.87
  -8  -6   0    5.62    0.84
   8  -6   0    5.04    0.93
   8  -6   0    6.22    0.83
   8   6   0    6.08    1.34
  10  -6   0   12.85    1.32
 -10   6   0   21.01    1.07
 -10  -6   0   20.38    1.28
 -10  -6   0   19.99    1.28
  10  -6   0   21.30    1.03
 -10   6   0    9.53    1.37
 -10  -6   0   15.24    1.45
  10   6   0   13.69    1.49
   2  -7   0   26.75    1.04
   2   7   0   31.75    1.16
  -2  -7   0   28.65    1.51
  -2   7   0   30.49    1.27
  -2   7   0   25.09    1.79
  -2   7   0   21.68    2.12
  -2  -7   0   29.35    1.19
   2   7   0   27.69    1.17
  -4   7   0   22.80    1.75
   4   7   0   18.99    0.98
  -4  -7   0   23.92    0.88
  -4   7   0   25.37    0.88
   4  -7   0   27.29    0.86
  -4  -7   0   23.29    1.09
  -4   7   0   28.49    1.16
   6  -7   0   13.23    1.02
  -6  -7   0   13.49    0.85
   6   7   0    9.45    1.08
   6  -7   0   13.37    0.79
  -6   7   0   11.21    1.33
  -6  -7   0   15.75    0.82
  -6  -7   0   13.27    1.07
  -6   7   0   14.77    0.83
   8   7   0   20.49    1.33
  -8  -7   0   33.84    1.58
  -8   7   0   37.85    1.07
  -8   7   0   22.30    1.54
  -8  -7   0   37.16    1.06
   8  -7   0   36.28    0.98
  -8  -7   0   27.45    1.01
   8  -7   0   31.75    1.33
 -10   7   0    4.20    1.07
  10  -7   0    2.99    1.05
 -10  -7   0    3.10    1.06
  10  -7   0    2.61    1.27
 -10  -7   0    3.50    1.41
  10   7   0    0.53    1.38
 -10  -7   0    3.03    1.27
   0   8   0   95.37    1.80
   0  -8   0  111.73    1.27
   0   8   0  107.37    1.29
   0  -8   0  106.92    1.88
   2  -8   0   24.99    1.35
   2   8   0   22.05    1.12
  -2   8   0   20.88    1.12
  -2  -8   0   25.26    1.23
  -2   8   0   20.52    2.13
  -2   8   0   22.24    2.30
  -2  -8   0   19.98    1.45
   2   8   0   22.46    1.12
  -4  -8   0   64.35    1.52
  -4  -8   0   73.25    1.31
  -4   8   0   59.02    1.93
  -4   8   0   70.28    1.13
   4   8   0   50.25    1.11
  -4   8   0   69.90    1.63
   4  -8   0   60.67    1.02
   4   8   0   67.30    1.10
  -6   8   0  107.70    1.70
  -6  -8   0   99.52    1.62
  -6  -8   0   99.49    1.27
  -6   8   0  100.30    1.22
  -6   8   0   86.44    1.79
  -6  -8   0  117.91    1.42
   6   8   0   78.89    1.29
   6  -8   0  116.08    1.23
  -8   8   0   20.00    1.03
  -8  -8   0   19.43    1.52
  -8  -8   0   18.82    1.01
   8  -8   0   16.68    1.26
  -8   8   0   13.83    1.43
   8   8   0   13.30    1.17
   8  -8   0   22.29    1.00
  -8  -8   0   17.11    1.04
   2  -9   0  190.69    1.80
   2   9   0  171.74    1.78
  -2   9   0  162.09    3.14
  -2   9   0  161.84    3.63
   2   9   0  165.85    1.54
  -2  -9   0  188.99    2.16
  -2   9   0  191.46    1.73
  -2  -9   0  146.81    1.53
  -4  -9   0    3.69    1.09
   4   9   0    4.10    1.05
  -4  -9   0    5.01    0.96
  -4   9   0    4.70    1.51
  -4   9   0    3.19    1.56
   4   9   0    4.05    0.92
  -4   9   0    2.28    0.95
   4  -9   0    2.66    0.85
   6   9   0   47.70    1.32
  -6   9   0   43.60    1.73
  -6  -9   0   52.71    1.10
  -6   9   0   53.79    1.54
  -6   9   0   53.40    1.13
  -6  -9   0   56.67    1.34
  -6  -9   0   44.15    1.30
   6  -9   0   59.97    1.07
  -8  -9   0    2.40    0.98
  -8   9   0    2.43    1.16
   8   9   0    3.77    1.23
   8  -9   0    2.80    1.17
  -8   9   0    3.49    1.26
  -8  -9   0    4.10    1.51
  -8  -9   0    3.66    1.24
  -8   9   0    2.41    1.32
   0  10   0    2.62    0.80
   0 -10   0    2.56    1.07
   0 -10   0    2.09    0.75
   0  10   0    2.57    1.09
  -2  10   0   -0.48    0.90
  -2 -10   0    0.50    1.10
   2  10   0    0.05    0.95
  -2  10   0    0.40    1.87
  -2 -10   0   -0.22    0.88
  -2  10   0    0.53    1.85
   2 -10   0   -1.13    0.86
   2  10   0   -0.46    0.83
  -4 -10   0    1.24    1.33
  -4  10   0    0.95    1.82
  -4  10   0    0.71    2.22
  -4  10   0    0.58    1.02
  -4 -10   0   -0.54    1.09
   4  10   0    1.44    0.83
   4  10   0    1.37    1.06
   4 -10   0    0.90    1.16
  -6  10   0    1.94    1.52
  -6  10   0    0.88    1.52
   6 -10   0    0.88    1.15
   6  10   0    2.02    1.14
  -6 -10   0    1.72    1.00
  -6 -10   0    0.92    1.19
  -6  10   0    1.74    1.26
  -6 -10   0    0.64    1.05
   8  10   0    1.28    1.22
  -8  10   0   -0.04    1.21
  -8 -10   0    0.20    1.32
  -8  10   0    1.74    1.10
  -8 -10   0    1.13    1.27
   8 -10   0   -0.78    1.02
  -8 -10   0    1.14    1.28
  -8  10   0    0.32    1.54
   2 -11   0    6.40    1.09
  -2 -11   0    6.63    1.09
  -2  11   0    5.95    0.90
   2  11   0    6.70    0.85
   2  11   0    6.58    0.96
  -2 -11   0    5.98    0.83
   4  11   0   14.28    1.17
  -4 -11   0   14.70    1.42
  -4 -11   0   16.72    1.17
  -4  11   0   16.69    1.43
   4  11   0   13.50    0.92
   4 -11   0   17.87    1.10
  -6  11   0    3.94    2.15
  -6 -11   0    6.62    1.11
  -6 -11   0    2.61    1.39
  -6  11   0    4.02    2.11
  -6 -11   0    2.77    1.25
   6 -11   0    3.83    1.23
  -6  11   0    1.46    1.39
   6  11   0    3.69    0.96
  -8 -11   0   19.00    1.21
  -8 -11   0   18.61    1.44
  -8  11   0   21.96    1.27
  -8  11   0   12.11    2.03
   8 -11   0   21.28    1.21
   8  11   0   10.94    1.25
  -8  11   0   18.64    1.97
  -8 -11   0   16.01    1.51
   0 -12   0  205.12    2.64
   0  12   0  225.38    1.47
   0 -12   0  189.72    1.31
   0  12   0  205.10    2.61
   2 -12   0    1.02    1.00
  -2 -12   0    0.06    1.01
   2  12   0    0.55    1.13
  -2  12   0    0.50    0.87
   2  12   0    1.18    0.81
  -2 -12   0   -0.26    0.85
   4  12   0   90.00    1.37
  -4  12   0  112.55    1.50
   4  12   0  109.84    1.48
  -4 -12   0  104.42    1.70
  -4 -12   0   89.43    1.35
   4 -12   0  108.01    1.50
  -6 -12   0    0.62    1.16
   6 -12   0    2.70    1.09
   6  12   0    1.08    0.88
  -6 -12   0    0.33    1.46
  -6 -12   0    0.79    1.21
  -6  12   0    0.68    1.20
   2  13   0    7.82    1.21
  -2  13   0    8.47    1.11
   2  13   0    8.41    0.85
  -2 -13   0    7.16    1.20
   2 -13   0    8.48    1.03
  -2 -13   0    8.41    0.87
  -4 -13   0    2.35    0.98
   4 -13   0    1.95    0.99
   4  13   0    3.53    1.07
  -4  13   0    5.05    1.04
  -4 -13   0    4.41    1.25
   4  13   0    2.51    1.00
   6 -13   0    3.13    1.20
  -6  13   0    2.27    1.29
  -6 -13   0    1.36    1.23
  -6 -13   0    2.40    1.20
   6  13   0    1.42    1.10
  -6 -13   0    2.19    1.49
   0  14   0    1.67    2.16
   0  14   0    2.59    0.82
   0 -14   0    3.96    0.96
   0  14   0    1.10    2.03
   2 -14   0   -0.83    0.84
   2  14   0   -0.39    1.20
  -2  14   0    1.12    0.85
   2  14   0    0.27    0.84
  -2 -14   0    0.30    1.17
  -2 -14   0    1.60    0.81
  -4 -14   0    1.40    0.96
   4  14   0    1.53    0.95
  -4  14   0    0.33    0.97
  -4 -14   0    1.01    1.18
   4 -14   0    1.00    0.98
   4  14   0    0.51    1.06
  -2  15   0   36.90    1.04
  -2 -15   0   32.82    1.01
   2  15   0   20.73    1.47
   2  15   0   33.28    1.01
   2 -15   0   35.31    1.04
  -2 -15   0   28.32    1.48
  -1   0   1    1.12    1.36
   1   0  -1    1.82    1.78
  -1   0  -1    1.61    0.68
  -1   0  -1    1.80    0.78
   1   0   1    1.33    0.65
   2   0   1  178.13    1.91
  -2   0   1  165.02    3.36
   2   0   1  154.64    1.58
  -2   0  -1  198.97    1.96
   2   0  -1  203.24    3.53
  -2   0   1  179.36    3.46
  -2   0   1  135.72    3.42
  -2   0  -1  162.73    1.59
  -3   0   1   13.65    0.97
   3   0  -1   16.58    1.22
  -3   0   1   12.37    1.81
   3   0   1   14.26    0.67
  -3   0  -1   17.63    0.95
   3   0  -1   11.88    0.83
  -3   0  -1   11.92    0.66
   3   0   1   15.82    0.91
  -4   0  -1   45.34    1.13
  -4   0   1   38.26    1.64
   4   0  -1   36.75    1.02
   4   0  -1   42.42    1.19
   4   0   1   35.39    0.78
  -4   0  -1   35.51    0.79
   4   0   1   44.52    1.12
  -4   0   1   40.55    1.16
  -5   0  -1   16.04    0.67
   5   0   1   19.56    0.94
  -5   0  -1   19.68    1.18
   5   0   1   16.67    0.78
  -5   0   1   16.91    0.89
   5   0  -1   20.48    1.18
   5   0  -1   18.23    0.85
  -5   0   1   18.36    1.45
   6   0   1   36.58    0.77
   6   0  -1   37.12    0.98
  -6   0  -1   40.99    1.19
   6   0  -1   42.11    1.25
  -6   0  -1   37.24    0.80
  -6   0   1   37.20    0.92
  -6   0   1   40.24    1.62
   6   0   1   40.04    1.18
  -7   0  -1   25.59    0.76
  -7   0   1   25.82    1.54
  -7   0  -1   27.38    1.09
   7   0  -1   28.53    0.95
  -7   0   1   27.39    0.86
   7   0   1   25.92    0.73
   7   0  -1   29.39    1.25
   7   0   1   25.54    0.96
   8   0   1   32.16    1.00
   8   0   1   36.62    0.80
   8   0  -1   38.92    1.03
  -8   0   1   37.21    1.75
  -8   0  -1   35.30    0.84
  -8   0  -1   36.20    1.24
  -8   0   1   35.27    0.93
   8   0  -1   36.82    1.13
  -9   0  -1    9.31    0.81
   9   0   1   11.07    0.78
  -9   0   1    8.14    1.92
  -9   0   1   10.60    1.05
  -9   0  -1    9.70    1.27
   9   0  -1    9.62    1.12
   9   0   1    6.35    1.02
   9   0  -1    9.86    1.01
  10   0  -1    0.94    1.11
  10   0   1    1.37    0.95
  10   0   1    0.33    1.02
 -10   0   1    1.91    1.08
 -10   0  -1   -0.22    1.35
 -10   0  -1    0.49    0.82
 -10   0   1    1.62    1.98
 -11   0  -1    5.38    1.48
 -11   0   1   10.33    1.27
  11   0   1    9.64    0.92
  11   0  -1    9.62    1.24
  11   0   1    7.02    1.33
 -11   0  -1   12.06    0.96
 -11   0   1    5.87    2.61
   0   1  -1   46.75    1.44
   0  -1  -1   39.76    1.25
   0  -1   1   43.10    1.38
   0   1  -1   42.33    1.33
   0  -1  -1   46.53    1.59
  -1  -1   1    4.07    1.88
   1   1   1    4.31    0.78
  -1   1   1    3.85    1.22
  -1  -1  -1    3.98    0.82
   1   1   1    4.17    0.86
  -1   1  -1    4.16    0.97
   1  -1  -1    3.79    3.41
   1   1  -1    4.61    2.95
  -1   1  -1    4.51    0.77
   1  -1   1    3.21    0.68
  -1  -1  -1    4.25    0.81
  -1   1  -1    2.95    0.67
   1   1  -1    3.32    1.65
   1  -1  -1    3.75    1.86
  -1  -1   1    4.04    1.20
   2   1  -1   19.65    2.63
  -2  -1   1   17.66    1.13
  -2  -1  -1   19.83    0.97
  -2  -1  -1   15.43    0.71
  -2  -1   1   20.08    1.61
   2  -1  -1   16.46    1.17
   2  -1  -1   22.95    1.89
  -2   1   1   18.07    1.50
   2  -1   1   17.78    1.01
  -2   1  -1   18.12    0.94
   2   1   1   21.01    1.01
   2  -1   1   15.93    0.73
   2   1   1   17.90    0.77
  -2  -1   1   18.46    2.32
  -2   1  -1   17.78    0.86
   3   1   1   10.17    0.63
   3  -1  -1    9.76    0.80
  -3   1  -1   10.26    1.01
   3   1   1   10.60    0.92
  -3  -1  -1   10.57    0.63
  -3   1   1    7.53    1.74
  -3  -1   1    9.49    0.91
   3  -1   1   10.42    0.81
  -3   1   1    9.80    0.81
   3  -1  -1   11.54    1.04
  -3   1  -1    8.46    0.62
  -3  -1   1    8.76    0.83
  -3  -1   1   11.78    1.95
   3  -1   1    8.02    0.63
   3   1  -1   11.40    1.30
  -3  -1  -1   10.98    0.88
   4   1  -1   30.56    1.47
  -4  -1   1   28.72    1.52
  -4   1  -1   34.83    1.14
  -4  -1  -1   26.90    0.71
  -4  -1   1   24.64    0.94
   4   1   1   29.77    0.85
   4  -1   1   30.05    0.98
  -4   1   1   27.45    1.06
  -4  -1  -1   33.43    1.06
   4  -1  -1   30.65    1.17
  -4   1   1   21.74    1.54
   4  -1   1   30.29    0.89
  -4   1  -1   26.80    0.78
   4   1   1   36.14    1.07
   4  -1  -1   25.78    0.95
  -4  -1   1   28.69    1.01
   5  -1   1    0.07    0.81
   5  -1   1    0.41    0.56
   5   1   1    0.07    0.56
   5  -1  -1    0.50    0.69
   5   1   1    0.83    0.81
  -5   1  -1    0.89    0.90
  -5  -1   1   -0.53    0.71
  -5  -1  -1   -0.35    0.86
  -5   1  -1    0.80    0.58
  -5   1   1    0.67    1.38
  -5  -1   1    1.68    1.26
   5  -1  -1    0.25    0.83
  -5  -1  -1   -0.30    0.66
  -5   1   1    0.34    0.70
   5   1  -1    0.34    0.97
   6   1   1   56.37    0.82
   6   1   1   59.55    1.09
   6  -1   1   50.07    0.81
  -6  -1   1   61.19    1.14
   6  -1   1   61.63    1.09
  -6  -1  -1   56.28    0.84
   6  -1  -1   59.30    1.34
  -6   1  -1   62.16    1.42
  -6   1   1   46.84    2.03
  -6   1  -1   58.22    0.87
   6  -1  -1   58.91    1.06
  -6  -1   1   56.56    1.78
  -6  -1  -1   60.99    1.22
   6   1  -1   64.27    1.24
  -6   1   1   60.00    1.10
  -7   1   1    3.12    1.86
  -7   1  -1    4.59    1.06
  -7  -1  -1    2.81    0.98
   7  -1   1    6.52    0.66
  -7   1  -1    3.84    0.83
   7   1  -1    4.33    0.99
   7  -1  -1    5.54    1.11
   7  -1   1    4.84    0.83
   7   1   1    4.22    0.61
  -7   1   1    5.51    0.72
   7  -1  -1    4.80    0.83
  -7  -1   1    3.62    1.33
  -7  -1  -1    4.04    0.68
   7   1   1    4.85    0.86
  -7  -1   1    4.64    0.87
   8   1   1    9.14    0.73
   8  -1  -1   10.04    0.92
   8   1  -1   12.35    1.08
   8  -1   1    7.43    1.09
  -8  -1  -1   10.74    0.76
   8  -1   1    9.98    0.70
  -8   1   1    9.80    0.96
  -8  -1   1   11.23    0.98
   8   1   1    7.42    0.92
   8  -1  -1   11.57    1.05
  -8   1  -1    9.66    0.90
  -8   1   1    6.28    1.67
  -8   1  -1   10.70    1.17
  -8  -1  -1    9.57    1.08
  -8  -1   1   13.09    1.50
   9   1   1    1.71    0.76
  -9   1  -1    0.83    1.23
  -9  -1  -1    1.11    0.83
   9   1   1   -0.75    0.96
   9  -1   1   -0.77    1.17
  -9   1   1    0.11    0.84
   9  -1  -1   -0.13    0.80
  -9   1   1    2.46    2.22
   9  -1   1    0.42    0.87
   9  -1  -1    0.43    1.03
   9   1  -1    0.60    1.19
  -9  -1   1    1.06    1.02
  -9  -1   1    1.20    1.68
  -9   1  -1    1.20    0.82
  -9  -1  -1    1.64    1.17
  10   1   1   27.10    1.16
  10   1   1   32.63    0.91
 -10  -1   1   34.94    1.25
  10  -1   1   34.97    0.91
 -10   1  -1   32.61    0.97
 -10  -1   1   27.91    1.98
 -10   1  -1   27.46    1.54
  10  -1  -1   34.82    1.22
  10  -1  -1   30.94    1.45
 -10  -1  -1   21.68    1.44
  10   1  -1   28.09    1.28
 -10   1   1   35.02    1.26
 -10   1   1   24.03    2.12
  10  -1   1   30.15    1.13
 -10  -1  -1   30.68    0.96
  11  -1   1   -0.12    0.89
  11  -1  -1    0.50    1.12
  11   1   1    0.70    1.09
 -11  -1  -1   -0.10    1.44
  11   1  -1    0.98    1.23
 -11  -1   1    0.46    2.08
 -11   1   1   -0.60    2.14
 -11   1   1    0.18    1.22
  11  -1   1    1.21    1.07
 -11   1  -1   -0.98    1.53
 -11  -1  -1    0.31    0.91
 -11  -1   1    1.19    0.97
 -11   1  -1    0.69    0.92
  11   1   1    0.64    0.88
  -1  -2  -1    1.08    0.79
  -1  -2  -1    0.79    0.60
   1   2   1    0.84    1.06
  -1  -2  -1    1.43    0.91
  -1  -2   1    0.38    1.63
  -1   2  -1    0.26    0.66
   1  -2   1    1.04    0.81
   1  -2  -1    0.75    1.87
   1  -2   1    0.84    0.62
  -1   2   1    1.40    1.15
   1  -2  -1    1.58    1.94
   1   2  -1   -0.67    1.87
   1   2  -1    0.47    1.61
  -1   2  -1    0.60    0.73
  -2   2   1  250.74    3.60
  -2   2  -1  196.46    1.59
  -2  -2  -1  210.20    1.64
   2   2   1  227.33    1.72
  -2  -2   1  239.47    3.33
   2  -2  -1  266.99    3.42
  -2  -2  -1  235.86    2.18
   2   2   1  279.91    2.59
   2   2  -1  228.68    2.49
   2  -2   1  225.94    1.70
   2   2  -1  187.76    2.90
  -2   2  -1  207.88    1.99
   2  -2  -1  216.54    2.50
  -3  -2  -1   17.78    0.95
  -3  -2   1   20.69    1.69
  -3   2  -1   18.66    0.91
   3  -2   1   20.41    0.81
  -3   2   1   18.25    1.01
   3  -2  -1   16.75    0.85
  -3  -2   1   17.21    0.88
   3  -2  -1   20.63    1.20
  -3  -2  -1   19.32    0.82
   3   2   1   17.37    0.68
  -3   2  -1   18.89    0.78
   3   2  -1   19.93    1.54
   3   2   1   22.36    1.05
   3  -2   1   19.73    0.95
   4   2   1  127.58    1.57
  -4  -2   1  116.20    1.97
  -4  -2  -1  122.43    1.47
   4  -2  -1  123.34    1.65
  -4   2   1  112.92    1.50
   4  -2   1  112.25    1.11
  -4  -2  -1  107.44    1.08
  -4   2  -1  123.32    1.54
   4  -2   1  115.96    1.36
  -4  -2   1  115.96    1.40
  -4   2  -1  100.56    1.04
   4   2   1  107.28    1.09
   4   2  -1  120.14    1.79
   4  -2  -1  110.77    1.41
   5   2  -1    6.05    1.06
   5   2   1    4.36    0.59
   5  -2  -1    5.03    0.81
   5  -2   1    6.42    0.78
   5   2   1    5.60    0.89
  -5  -2  -1    5.52    0.62
  -5   2   1    4.63    1.46
  -5   2  -1    7.20    0.98
  -5  -2   1    4.94    0.77
  -5   2   1    5.52    0.79
  -5  -2   1    4.99    1.24
   5  -2   1    5.09    0.61
  -5   2  -1    5.58    0.74
   5  -2  -1    4.90    0.74
  -5  -2  -1    5.00    0.88
   6  -2   1   77.03    0.94
  -6  -2   1   73.75    1.16
  -6  -2  -1   77.85    1.02
   6   2   1   73.79    0.90
  -6   2  -1   70.13    0.93
   6   2  -1   74.04    1.37
  -6   2   1   68.49    1.09
   6  -2  -1   75.61    1.36
  -6  -2  -1   73.45    1.27
  -6  -2   1   69.29    1.56
  -6   2  -1   74.68    1.60
   6  -2   1   71.96    1.13
   6   2   1   69.11    1.18
   6  -2  -1   74.71    1.15
  -6   2   1   39.43    1.70
  -7  -2   1   18.69    0.79
  -7   2   1    9.28    1.63
  -7   2  -1   17.44    1.17
   7   2  -1   17.09    1.09
   7  -2  -1   17.80    0.99
   7  -2   1   15.96    0.74
   7   2   1   17.65    0.96
  -7   2  -1   19.68    0.74
  -7  -2  -1   16.38    0.71
   7  -2  -1   18.84    0.76
  -7   2   1   17.85    0.96
   7  -2   1   17.26    1.06
  -7  -2   1   19.23    1.35
  -7  -2  -1   19.26    1.26
   7   2   1   18.37    0.84
  -8   2   1   74.98    2.04
  -8   2  -1  132.11    1.17
  -8  -2   1  140.32    1.49
   8  -2  -1  133.60    1.28
  -8  -2  -1  140.65    1.29
   8   2   1  104.32    1.34
   8   2   1  136.23    1.12
  -8  -2  -1  143.24    1.56
  -8  -2   1  134.75    1.92
   8   2  -1  135.04    1.58
   8  -2   1  117.98    1.47
  -8   2  -1  122.87    1.72
   8  -2  -1  129.81    1.45
  -8   2   1  133.80    1.47
   8  -2   1  133.43    1.12
   9   2   1    3.89    0.99
   9  -2   1    4.91    1.15
  -9   2  -1    6.87    0.86
   9   2   1    5.99    0.77
  -9  -2   1    6.28    1.60
   9  -2  -1    7.48    0.98
  -9   2   1    3.15    2.40
  -9   2  -1    4.82    1.65
   9   2  -1    3.59    1.21
  -9  -2  -1    5.46    0.82
  -9  -2   1    4.76    1.09
  -9   2   1    5.66    1.08
   9  -2  -1    6.36    1.03
   9  -2   1    6.15    0.78
  -9  -2  -1    2.77    1.18
  10  -2  -1    9.47    1.10
  10  -2  -1   10.80    1.06
 -10   2  -1   10.54    0.91
 -10   2   1   11.04    1.19
 -10  -2  -1   10.65    0.91
  10   2   1    9.53    1.10
 -10  -2   1   11.03    0.98
 -10   2  -1    6.68    1.45
  10   2  -1   10.96    1.26
  10  -2   1    8.11    1.21
 -10  -2   1   11.81    1.79
 -10   2   1    7.28    2.12
  10   2   1   11.15    0.86
 -10  -2  -1    7.42    1.32
  10  -2   1   10.75    0.85
 -11   2   1    5.51    1.06
 -11  -2  -1    2.56    1.42
  11  -2   1    3.75    1.06
  11  -2  -1    5.23    1.11
 -11   2   1    3.06    2.15
 -11  -2   1    4.08    1.93
 -11   2  -1    3.75    1.62
 -11  -2   1    1.91    1.24
  11  -2   1    4.75    0.91
  11   2  -1    4.06    1.27
  11  -2  -1    3.54    1.19
 -11   2  -1    2.70    1.18
  11   2   1    1.34    1.16
 -11  -2  -1    4.15    0.95
   0   3  -1  628.89    3.87
   0  -3  -1  592.33    3.64
   0   3   1  561.62    3.38
   0   3  -1  549.95    3.35
   0  -3  -1  550.76    4.87
   0  -3  -1  586.58    4.56
   0  -3   1  550.00    3.22
   0  -3   1  491.50    3.69
   1  -3   1   10.77    0.73
  -1  -3  -1   11.29    0.91
   1  -3  -1   12.23    2.33
  -1   3  -1   11.51    0.83
  -1   3  -1   11.73    0.72
  -1  -3   1   12.23    1.46
   1   3  -1   11.04    1.43
  -1  -3  -1   12.95    0.86
   1   3   1   14.63    1.20
   1  -3   1   11.81    0.93
   1  -3  -1   11.61    1.64
  -1   3   1   11.61    1.18
   1   3  -1   11.34    1.51
  -1   3   1   13.69    1.58
  -2   3  -1    1.82    0.95
  -2  -3  -1    2.27    0.58
   2   3  -1    1.73    0.99
   2  -3  -1    2.34    1.15
  -2   3  -1    1.90    0.59
  -2   3   1    0.08    1.49
  -2   3   1    2.27    1.53
   2  -3  -1    2.21    0.87
  -2  -3  -1    1.88    0.56
  -2  -3   1    2.08    1.47
   2  -3   1    0.94    0.59
   2   3   1    4.30    0.98
  -2  -3  -1    2.51    1.03
   2   3  -1    3.04    1.32
  -2   3  -1    1.67    0.65
  -3   3  -1   28.87    1.18
   3  -3   1   26.46    0.85
  -3  -3  -1   30.52    1.00
   3   3   1   35.60    1.38
  -3  -3  -1   26.76    0.74
  -3   3   1   28.84    1.22
   3   3  -1   16.80    1.43
  -3  -3  -1   27.53    0.86
   3  -3  -1   29.47    1.24
   3  -3   1   26.45    0.75
   3  -3  -1   26.41    0.95
   3   3  -1   27.56    0.99
  -3   3   1   28.59    2.05
  -3   3  -1   25.17    0.74
  -3  -3   1   31.35    1.66
   4  -3   1  249.56    1.49
  -4  -3  -1  257.15    1.50
   4  -3   1  265.06    1.90
   4   3  -1  248.13    2.47
  -4   3  -1  239.24    1.47
  -4   3  -1  273.08    2.14
   4   3   1  280.10    2.09
  -4  -3  -1  253.54    1.87
  -4  -3   1  269.89    2.48
  -4   3   1  250.40    2.00
   4  -3  -1  244.84    1.86
   4  -3  -1  268.15    2.27
  -4  -3   1  239.61    1.76
  -5   3   1    1.15    0.78
  -5  -3   1   -2.27    1.24
   5  -3  -1    0.90    0.92
   5  -3   1    0.86    0.58
   5  -3   1   -0.43    0.76
  -5   3  -1    0.19    0.59
  -5  -3   1    0.23    0.71
  -5   3  -1    0.40    1.21
   5   3  -1    0.31    1.18
   5  -3  -1    0.86    0.70
   5   3   1    0.48    0.59
  -5  -3  -1    0.02    0.59
  -5  -3  -1    1.01    1.03
   5   3   1    0.85    0.86
   6  -3   1    5.77    0.65
   6   3   1    5.52    0.65
   6   3  -1    8.03    1.16
  -6   3  -1    4.92    0.64
  -6  -3  -1    7.36    0.92
  -6  -3   1    5.90    0.72
  -6  -3  -1    5.73    0.66
  -6  -3   1    6.18    1.23
   6  -3  -1    5.05    0.81
  -6   3  -1    8.13    1.35
   6  -3  -1    6.12    1.02
   6   3   1    3.94    0.91
   6  -3   1    7.62    1.00
  -6   3   1    5.90    0.87
   7   3   1   11.37    0.96
   7  -3  -1   11.75    0.89
  -7   3  -1   12.50    0.77
  -7  -3   1   11.39    0.94
  -7  -3   1   11.82    1.30
  -7   3  -1   10.37    1.19
  -7  -3  -1   13.64    1.00
  -7   3   1   12.85    0.96
   7  -3   1   10.93    1.08
  -7   3   1    6.89    1.70
   7  -3   1   13.69    0.85
  -7  -3  -1   11.49    0.73
   7   3  -1   11.48    1.14
   7  -3  -1   11.73    0.88
  -8  -3   1   28.81    1.07
  -8  -3  -1   28.79    0.83
   8   3  -1   27.36    1.30
  -8   3  -1   30.56    0.86
  -8   3   1   29.21    1.10
   8  -3  -1   30.99    1.04
   8   3   1   28.23    1.09
   8  -3   1   32.16    0.82
   8  -3   1   25.88    0.96
  -8  -3  -1   29.34    1.17
  -8   3  -1   27.02    1.41
  -8   3   1   19.72    1.62
   8  -3  -1   30.75    1.06
  -8  -3   1   25.45    1.46
   9  -3  -1    3.51    0.98
  -9  -3  -1    2.59    1.13
   9  -3   1    2.89    0.94
  -9  -3  -1    4.20    0.84
   9   3   1    3.30    1.00
   9  -3  -1    2.95    0.99
  -9   3   1    4.91    1.08
  -9  -3   1    4.70    1.06
  -9  -3   1    4.10    1.49
  -9   3  -1    3.82    0.84
  -9   3   1    2.04    2.08
   9  -3   1    5.16    0.80
  -9   3  -1    2.47    1.41
   9   3  -1    5.38    1.52
  10  -3   1    1.61    0.83
 -10   3   1    0.55    1.14
 -10   3  -1    1.24    0.89
  10   3   1    0.23    1.06
  10   3  -1    1.21    1.36
  10  -3  -1    0.63    1.20
 -10  -3  -1    2.09    0.85
 -10  -3  -1   -0.30    0.87
 -10  -3  -1    1.18    1.20
 -10  -3   1    1.00    2.08
 -10  -3   1    1.91    1.12
  10  -3  -1    1.63    1.08
 -10   3  -1    0.32    1.49
  10  -3   1    1.39    0.97
 -10   3   1    1.45    2.13
  11  -3   1    1.22    0.91
  11   3  -1    0.65    1.35
  11  -3  -1    0.16    1.19
 -11  -3  -1   -0.18    1.41
 -11   3  -1   -0.04    1.98
 -11   3   1    0.49    1.31
  11   3   1    0.11    1.19
 -11  -3  -1    0.85    0.97
  11  -3   1    0.60    1.04
 -11  -3   1    0.36    1.84
 -11   3  -1    1.81    0.97
  11  -3  -1    0.90    1.07
 -11  -3  -1    0.24    0.98
 -11   3   1    1.18    2.25
 -11  -3   1    0.71    1.01
  -1  -4  -1   32.03    1.24
  -1  -4   1   31.85    1.31
   1  -4   1   30.82    0.88
   1  -4  -1   33.67    2.24
   1   4  -1   31.97    1.58
  -1   4  -1   34.10    0.90
   1   4  -1   30.46    1.58
   1  -4  -1   32.55    1.40
  -1   4  -1   34.88    1.16
   1  -4   1   32.19    1.30
   1   4   1   35.76    1.05
  -1   4   1   33.18    1.87
  -1  -4  -1   31.79    0.92
   1   4   1   38.24    1.58
   1  -4  -1   30.56    3.48
  -1  -4   1   23.61    1.43
  -2  -4  -1    8.28    0.64
  -2   4   1    8.50    1.56
   2  -4  -1    8.58    1.08
  -2   4  -1    7.80    0.66
  -2   4   1    8.32    1.44
   2  -4   1    8.24    0.67
   2   4   1    8.85    1.31
   2   4  -1    9.78    1.41
  -2  -4  -1    7.93    0.79
  -2  -4   1    7.36    1.28
   2  -4  -1    7.35    1.33
  -2   4  -1    7.97    0.81
  -2  -4  -1    9.72    0.99
  -2  -4   1    9.65    1.61
   2   4  -1    8.59    0.99
   3   4  -1   23.97    1.32
  -3  -4  -1   34.39    1.11
   3   4  -1   28.12    0.87
  -3   4  -1   29.60    0.89
  -3   4   1   32.55    1.31
  -3   4  -1   32.92    1.00
  -3   4   1   34.38    2.42
  -3   4  -1   31.11    1.09
   3  -4  -1   31.24    1.37
   3  -4   1   30.79    0.78
  -3  -4  -1   27.46    0.77
  -3  -4   1   22.42    1.51
  -3  -4  -1   25.98    0.76
   3  -4  -1   28.24    0.88
   3   4   1   30.11    1.18
   4  -4  -1    5.97    0.74
  -4  -4  -1    4.96    0.60
   4  -4  -1    5.18    0.95
   4   4  -1    3.43    1.18
   4   4   1    5.66    0.96
  -4  -4   1    5.76    0.78
   4  -4   1    5.64    0.62
  -4   4   1    5.16    0.92
  -4  -4   1    4.77    1.23
  -4   4   1    4.60    1.41
   4  -4   1    5.12    0.71
  -4   4  -1    4.58    0.65
  -4  -4  -1    5.46    0.61
  -4  -4  -1    5.03    0.82
  -4   4  -1    7.39    1.12
  -5   4  -1    8.24    0.66
   5  -4   1    8.71    0.77
  -5   4  -1    8.53    1.10
  -5  -4  -1    7.77    0.86
  -5   4   1    9.81    0.91
  -5  -4  -1    8.64    0.80
  -5  -4  -1    8.24    0.65
   5   4  -1    6.15    1.34
   5  -4   1    8.69    0.66
   5   4   1    7.77    0.97
  -5  -4   1    8.09    0.83
   5  -4  -1    9.75    0.98
   5  -4  -1    9.06    0.81
  -5  -4   1    6.13    1.25
   6  -4  -1    1.00    0.81
   6   4   1    2.52    0.95
  -6   4  -1    1.25    0.66
   6  -4   1    1.57    0.64
   6  -4   1    2.57    0.98
  -6  -4   1    0.43    0.70
  -6   4  -1    1.10    1.20
  -6   4   1    0.02    0.94
  -6  -4  -1    3.52    0.81
   6   4  -1    0.93    1.56
  -6  -4   1    0.32    1.16
   6  -4  -1    1.57    0.98
  -6  -4  -1    4.40    0.80
  -6  -4  -1    3.43    1.09
   7   4  -1    8.58    1.21
   7   4   1    6.84    0.97
  -7   4   1    8.52    0.81
   7  -4  -1    6.79    1.04
  -7   4  -1    9.12    1.53
   7  -4   1    6.80    0.90
  -7  -4  -1    7.96    0.87
  -7  -4   1    9.95    1.26
  -7  -4   1    9.37    0.78
   7  -4  -1    8.44    0.91
  -7   4  -1    8.48    0.73
   7  -4   1   10.08    0.87
  -7  -4  -1    8.38    0.99
  -7  -4  -1    8.91    0.76
  -8  -4  -1    7.62    0.98
   8  -4   1    6.72    1.11
   8   4   1    6.29    1.02
  -8   4   1    6.25    1.70
  -8   4   1    8.51    1.06
  -8  -4   1    7.43    0.99
   8  -4  -1    6.40    1.09
   8  -4  -1    7.18    0.96
  -8  -4   1    4.25    1.30
  -8   4  -1    5.68    0.80
  -8  -4  -1    6.58    0.81
   8   4  -1    5.94    1.25
  -8  -4  -1    7.04    1.08
  -8   4  -1    3.25    1.31
   8  -4   1    7.92    0.78
   9  -4   1    0.29    0.83
  -9   4   1    0.00    1.12
   9  -4  -1    0.72    1.02
   9  -4  -1    1.48    1.13
  -9   4  -1   -0.70    1.41
   9   4   1    0.57    1.35
  -9  -4  -1    0.43    0.85
   9  -4   1    1.78    1.14
  -9   4  -1    1.73    0.86
  -9  -4  -1    0.68    1.12
  -9  -4   1    1.60    0.85
  -9  -4   1    0.47    1.47
   9   4  -1   -0.48    1.31
  -9  -4  -1   -0.08    0.82
  -9   4   1    0.97    1.52
 -10   4  -1    3.42    1.15
 -10  -4  -1    1.18    1.25
 -10   4   1    1.61    0.98
 -10   4   1    1.13    1.60
 -10  -4   1    1.83    1.60
 -10  -4  -1    2.72    1.11
 -10  -4   1    0.73    1.14
  10  -4   1    1.16    0.88
  10  -4  -1    2.98    1.19
  10  -4   1    0.64    1.00
  10   4  -1   -0.65    1.43
  10  -4  -1    1.55    1.08
  10   4   1    0.34    1.16
 -10   4  -1    0.80    1.53
 -10  -4  -1    2.13    1.08
   0  -5  -1   22.07    1.54
   0   5  -1   20.87    1.14
   0   5   1   22.87    1.12
   0  -5  -1   21.55    1.22
   0   5   1   21.57    1.77
   0   5  -1   24.69    1.34
   0  -5   1   22.05    1.27
   0  -5   1   21.01    1.09
   1   5   1    2.91    0.77
  -1   5  -1    2.53    0.78
   1   5   1    3.54    1.33
  -1  -5  -1    3.27    0.78
   1  -5  -1    2.23    0.92
  -1  -5  -1    2.73    0.90
   1   5  -1    2.73    1.20
  -1   5  -1    3.89    0.94
  -1  -5   1    3.91    1.14
  -1  -5   1    2.56    1.13
   1  -5   1    2.27    0.92
  -1   5   1    2.58    1.26
   1   5  -1    4.53    1.60
   1  -5   1    2.60    0.77
  -2  -5   1   16.44    1.41
  -2   5   1   14.38    1.23
   2   5   1   16.96    1.52
  -2   5  -1   13.86    0.91
  -2  -5  -1   14.80    0.79
  -2  -5  -1   12.81    1.00
   2   5  -1   18.01    1.37
   2   5  -1   13.52    1.09
  -2   5  -1   13.95    0.74
   2  -5  -1   13.64    1.17
   2   5   1   15.20    0.78
   2  -5   1   13.55    0.74
  -2  -5   1   14.05    1.16
   3  -5   1    9.78    0.69
  -3  -5  -1    8.48    0.68
  -3  -5  -1    8.07    0.68
   3   5  -1    8.98    1.22
  -3  -5  -1    8.76    1.01
  -3   5   1    8.41    1.06
   3  -5  -1    8.55    0.75
   3  -5  -1    9.07    1.27
  -3   5  -1    9.06    0.85
  -3  -5   1    8.16    1.23
   3   5   1    8.89    1.37
  -3   5  -1    8.40    0.69
  -3   5   1    7.99    1.99
   3   5  -1    8.10    0.84
  -3  -5   1    6.39    1.11
   4   5  -1   13.36    1.08
   4  -5  -1   17.44    1.07
  -4   5  -1   19.36    0.91
  -4  -5  -1   17.57    0.72
  -4  -5   1   17.26    1.29
  -4   5  -1   16.60    0.84
   4   5   1   19.15    1.36
  -4  -5  -1   16.14    0.72
   4  -5   1   19.24    0.73
   4  -5  -1   17.11    0.85
  -4  -5  -1   17.19    0.87
  -4   5   1   17.75    1.87
  -4   5   1   17.51    1.11
  -4  -5   1   17.48    0.97
  -5   5   1   -0.30    1.56
  -5  -5   1   -0.60    0.95
   5  -5  -1    0.73    0.64
  -5  -5   1    0.38    0.67
  -5   5  -1    0.74    1.32
   5  -5   1    0.29    0.70
   5  -5  -1    0.17    1.02
   5   5  -1    0.77    1.08
   5   5   1    1.72    1.07
  -5   5   1    0.22    0.93
  -5  -5   1    0.79    1.18
  -5  -5  -1    0.89    0.64
  -5   5  -1   -0.38    0.79
   5  -5   1    0.84    0.62
  -5  -5  -1    0.80    0.63
  -5  -5  -1    0.70    0.86
  -6  -5  -1   60.34    1.14
  -6  -5  -1   57.08    0.90
  -6   5   1   49.46    1.72
  -6  -5   1   57.50    1.11
   6  -5  -1   54.45    1.24
   6   5   1   47.49    1.28
   6  -5   1   59.48    1.02
   6  -5   1   49.80    1.17
  -6  -5  -1   45.02    0.88
  -6   5  -1   45.28    1.67
  -6  -5   1   51.46    1.38
  -6  -5   1   49.01    1.05
  -6   5  -1   55.51    0.91
  -6   5   1   55.98    1.21
   6  -5  -1   56.06    1.08
   6   5  -1   35.98    1.38
  -7  -5   1    4.43    0.96
  -7  -5  -1    5.49    0.99
  -7  -5  -1    4.81    0.75
  -7   5   1    5.05    1.01
  -7   5  -1    4.44    0.76
  -7   5  -1    5.03    1.29
   7   5   1    3.89    1.06
   7  -5   1    5.02    0.86
   7  -5  -1    5.33    1.00
   7  -5  -1    4.25    0.73
  -7  -5   1    4.46    1.21
  -7  -5  -1    4.76    0.93
   7   5  -1    5.41    1.33
   7  -5   1    5.18    0.73
  -7  -5   1    4.16    1.02
   8  -5  -1    8.14    1.02
  -8   5  -1    4.45    1.41
  -8  -5   1    7.01    1.10
  -8  -5  -1    8.49    0.85
   8   5   1    4.97    1.14
   8  -5  -1    7.42    1.10
  -8  -5   1    8.83    1.14
  -8  -5  -1    9.01    1.14
   8   5  -1    5.15    1.43
  -8  -5   1    5.27    1.33
   8  -5   1    7.77    0.93
  -8   5   1   10.98    1.16
   8  -5   1   10.34    0.82
  -8   5  -1    8.39    0.86
  -8  -5  -1    8.44    0.85
  -9  -5  -1    0.28    1.04
   9  -5  -1    1.34    1.16
  -9  -5   1    0.98    0.96
   9  -5   1    1.03    0.90
  -9   5   1    0.59    0.98
   9   5  -1    0.81    1.43
  -9  -5  -1    1.00    1.41
   9  -5   1   -0.59    1.13
   9   5   1    1.32    1.16
  -9  -5   1    0.42    1.41
  -9  -5  -1    0.63    0.90
  -9   5  -1    1.74    0.88
  -9   5  -1   -0.75    1.45
  -9  -5   1    0.53    1.10
   9  -5  -1    2.21    1.05
 -10  -5  -1   29.86    1.41
 -10   5  -1   31.63    1.06
  10  -5  -1   23.68    1.14
 -10  -5  -1   29.56    1.05
  10  -5  -1   29.98    1.25
 -10  -5   1   21.52    2.07
 -10  -5  -1   25.04    1.06
  10   5   1   18.77    1.32
  10  -5   1   20.03    1.11
 -10  -5   1   27.68    1.43
  10   5  -1   25.05    1.65
  10  -5   1   30.29    1.05
 -10   5  -1    8.05    1.63
 -10   5   1   27.94    1.38
 -10  -5   1   24.82    1.27
   1   6  -1   42.65    1.45
  -1  -6  -1   43.62    1.46
  -1   6   1   39.87    1.20
   1  -6  -1   46.02    1.34
  -1  -6   1   51.31    1.35
   1  -6   1   41.79    1.05
   1   6  -1   44.76    1.16
  -1  -6   1   43.08    1.24
   1  -6   1   39.75    1.41
  -1   6  -1   45.31    1.06
   1   6   1   43.63    2.01
  -1  -6  -1   41.57    1.09
   1   6   1   52.23    1.31
  -1   6  -1   49.21    1.35
  -2  -6  -1  453.73    2.78
   2   6  -1  497.18    2.80
   2  -6   1  552.92    2.36
  -2  -6  -1  501.37    2.32
  -2  -6   1  554.98    2.95
   2  -6  -1  545.09    3.23
   2   6   1  638.32    2.61
  -2   6   1  572.77    3.15
  -2   6  -1  614.70    3.03
   2   6  -1  501.18    2.95
  -2   6  -1  598.34    2.42
   2   6   1  477.42    3.74
  -2  -6   1  550.05    3.02
  -3  -6  -1   23.94    0.95
   3   6   1   19.42    1.50
  -3  -6   1   23.94    1.29
  -3  -6  -1   25.26    0.80
  -3   6  -1   24.15    0.84
  -3  -6  -1   24.05    0.81
  -3   6   1   24.83    1.30
  -3   6  -1   26.75    0.80
   3   6  -1   26.86    1.01
   3  -6   1   29.61    0.83
   3   6  -1   25.06    1.04
   3  -6  -1   24.02    0.92
  -3  -6   1   27.03    1.26
   4  -6  -1    2.10    1.16
   4  -6   1    1.95    0.66
  -4  -6  -1    1.70    1.01
  -4   6  -1    1.49    0.69
  -4  -6  -1    1.86    0.67
  -4   6   1    1.79    0.93
   4   6   1    1.36    1.14
  -4   6  -1    1.78    0.67
   4  -6  -1    2.15    0.71
  -4   6   1    2.30    2.04
  -4  -6  -1    1.72    0.67
  -4  -6   1    2.16    1.21
  -4  -6   1    2.06    1.20
   4   6  -1    1.59    0.93
   4   6  -1    2.68    0.76
  -5   6  -1   20.53    0.84
  -5  -6  -1   21.39    1.15
   5  -6  -1   19.43    0.78
  -5  -6   1   20.73    0.85
  -5   6   1   18.69    1.74
   5   6   1   13.29    1.19
  -5   6  -1   20.15    0.75
  -5  -6   1   16.91    0.98
  -5   6   1   20.11    1.16
  -5  -6  -1   19.64    0.78
   5   6  -1   13.83    1.04
  -5  -6  -1   17.42    0.74
   5  -6   1   19.61    0.74
   5  -6  -1   19.10    1.12
  -5  -6   1   15.70    1.25
   6  -6  -1  160.04    1.84
  -6  -6  -1  163.45    1.52
  -6  -6   1  160.20    1.39
  -6  -6  -1  150.46    1.20
  -6   6   1  143.94    2.31
  -6   6   1  164.96    1.68
  -6  -6  -1  148.62    1.21
   6   6   1  100.00    1.56
  -6   6  -1  102.52    1.82
  -6  -6   1  146.42    1.46
  -6  -6   1  122.79    1.67
   6  -6   1  156.56    1.23
  -6   6  -1  154.92    1.24
   6   6  -1  103.43    1.48
   6  -6  -1  165.57    1.46
   7   6   1    2.57    1.36
  -7  -6   1    3.89    0.81
  -7   6  -1    1.64    0.77
  -7  -6   1    2.83    1.57
   7  -6   1    2.33    1.02
  -7  -6  -1    3.48    0.81
  -7  -6  -1    3.18    0.81
   7  -6  -1    3.49    1.04
  -7   6   1    3.06    1.09
  -7   6   1    2.61    1.54
  -7  -6  -1    3.48    1.00
   7  -6   1    1.51    0.76
  -7   6  -1    1.68    1.60
  -7  -6   1    2.90    0.93
   7   6  -1    0.98    1.19
   7  -6  -1    2.64    0.78
  -8   6   1    5.30    0.96
  -8  -6   1    3.63    1.37
   8  -6   1    4.05    0.93
   8  -6  -1    4.78    1.13
  -8  -6   1    4.73    1.10
   8  -6  -1    5.89    1.04
  -8  -6  -1    4.69    1.12
  -8   6  -1    4.33    0.85
  -8  -6   1    5.21    1.19
   8  -6   1    4.88    0.84
   8   6  -1    1.75    1.28
  -8   6  -1    2.56    1.69
  -8  -6  -1    4.87    0.90
  -8   6   1    4.12    1.67
  -8  -6  -1    5.93    0.88
   8   6   1    3.60    1.19
   9  -6  -1    1.00    0.95
  -9  -6   1    1.07    1.01
  -9   6  -1    1.58    1.37
  -9   6   1    1.33    1.23
  -9   6   1    1.95    1.75
   9  -6  -1    0.99    0.91
  -9  -6   1    2.75    1.80
   9  -6   1    1.62    1.16
  -9   6  -1    1.77    0.91
   9   6   1    0.40    1.25
  -9  -6  -1    1.38    1.11
   9   6  -1   -1.13    1.45
  -9  -6  -1    2.49    1.24
   9  -6   1    0.76    0.89
  -9  -6  -1    0.93    0.90
  -9  -6   1    2.29    0.95
 -10  -6  -1    6.33    1.01
  10  -6   1    6.72    1.00
 -10  -6  -1    4.30    1.59
  10   6   1    4.47    1.28
 -10   6  -1    5.53    1.02
  10  -6  -1    4.00    1.03
 -10   6   1    4.86    1.35
 -10  -6  -1    5.59    0.99
  10  -6  -1    4.26    1.23
  10   6  -1    3.32    1.69
  10  -6   1    3.91    1.24
 -10  -6   1    3.62    1.12
 -10  -6   1    3.57    1.62
 -10  -6   1    2.37    1.19
 -10   6  -1    1.32    1.40
   0  -7   1   24.61    1.17
   0   7  -1   21.19    1.23
   0  -7  -1   23.43    1.14
   0  -7   1   16.95    1.10
   0   7   1   16.71    2.14
   0   7  -1   22.13    1.48
   0  -7  -1   19.31    2.42
   0   7   1   19.93    1.18
  -1   7  -1    1.54    1.06
   1   7   1    1.38    1.74
   1  -7   1    1.65    0.86
   1  -7  -1    2.59    1.05
   1   7  -1    1.74    1.21
  -1   7   1    2.15    0.89
   1   7  -1    2.29    0.85
   1  -7   1    1.63    1.08
   1   7   1    1.50    0.94
  -1  -7   1    2.08    0.88
  -1   7  -1    1.33    0.89
  -1  -7  -1    2.25    1.17
  -1  -7  -1    1.38    1.07
  -1  -7   1    2.39    0.81
  -2  -7   1    6.26    1.12
   2  -7  -1    6.34    1.32
  -2  -7  -1    6.23    1.00
   2   7  -1    6.62    0.94
   2   7   1    3.14    1.58
   2   7  -1    5.60    0.96
  -2  -7  -1    5.69    0.81
   2  -7   1    6.11    0.80
  -2  -7   1    6.26    0.97
   2   7   1    5.87    0.81
  -2   7  -1    5.52    0.79
  -2   7   1    7.14    0.97
  -2   7  -1    6.55    0.96
  -3  -7  -1    2.32    0.83
  -3   7  -1    2.03    0.74
   3   7  -1    4.74    1.10
   3   7  -1    4.39    1.22
   3  -7   1    2.57    0.74
   3   7   1    1.87    1.22
  -3   7   1    3.45    1.21
   3  -7  -1    3.32    0.87
  -3  -7  -1    3.67    0.75
  -3  -7   1    4.70    1.37
  -3  -7   1    3.10    1.09
  -3   7  -1    3.65    0.89
  -4   7   1   14.51    2.31
   4   7  -1   17.91    1.08
  -4   7   1   16.62    1.33
   4   7  -1   15.31    0.95
  -4  -7  -1   19.24    0.81
  -4  -7  -1   15.04    0.90
  -4  -7   1   15.14    1.22
  -4  -7   1   14.31    1.22
  -4   7  -1   16.59    0.77
  -4  -7  -1   15.88    0.78
   4  -7  -1   14.81    0.85
   4   7   1    7.24    1.45
   4  -7   1   17.77    0.77
  -4   7  -1   17.86    0.97
  -5   7  -1    0.72    0.88
  -5  -7  -1    0.86    0.70
  -5  -7  -1    0.70    0.84
  -5  -7   1    0.42    0.76
  -5  -7  -1   -1.06    0.72
  -5   7   1    0.68    1.16
  -5  -7   1    0.11    0.94
  -5  -7   1   -0.24    1.44
  -5   7  -1   -0.28    0.86
   5  -7  -1   -0.11    1.18
   5   7   1    0.54    1.16
   5  -7   1    0.27    0.68
   5  -7  -1   -0.35    0.75
  -5   7   1    0.09    2.07
   5   7  -1   -0.81    0.93
  -6  -7  -1   24.53    1.04
  -6  -7   1   25.94    1.08
  -6   7   1   25.98    1.24
  -6   7   1   22.76    1.83
  -6  -7  -1   26.11    0.87
  -6  -7   1   21.75    1.01
   6  -7  -1   25.77    1.33
   6   7   1   13.81    1.21
  -6  -7   1   25.02    1.29
  -6   7  -1   24.90    0.86
  -6  -7  -1   20.70    0.84
   6  -7  -1   29.82    1.05
  -6   7  -1   25.97    1.10
   6   7  -1   23.04    1.11
   6  -7   1   30.01    1.00
  -7  -7  -1    3.42    0.80
  -7  -7  -1    1.66    1.25
  -7  -7   1    1.20    1.02
  -7  -7   1    1.83    1.19
  -7   7   1    0.78    1.55
  -7  -7  -1    3.42    1.00
   7   7   1    1.60    1.17
   7  -7  -1    2.00    1.23
  -7   7  -1    2.55    0.82
  -7  -7   1    2.37    1.29
   7  -7  -1    1.83    0.81
   7  -7   1   -0.10    1.00
   7   7  -1    1.71    1.32
  -7   7   1    1.71    0.98
   8  -7   1    8.26    0.88
  -8  -7   1    5.03    1.15
  -8  -7   1    3.90    1.02
  -8  -7   1    6.50    1.67
  -8  -7  -1    6.28    0.93
   8  -7  -1    4.44    1.16
  -8   7  -1    7.03    0.89
  -8   7   1    6.00    1.26
  -8   7   1    6.08    1.63
  -8  -7  -1    6.31    1.14
   8   7  -1    4.34    1.19
   8  -7  -1    6.49    0.89
   8   7   1    2.22    1.21
  -8  -7  -1    5.15    0.91
  -9  -7  -1    1.59    1.17
   9  -7  -1    0.45    1.18
  -9  -7   1    2.03    1.29
  -9  -7  -1   -0.98    0.94
  -9   7  -1   -0.38    0.93
  -9   7   1    0.90    1.29
  -9  -7   1    2.75    1.47
  -9   7   1   -0.01    1.81
   9   7  -1    0.70    1.25
   9   7   1   -1.08    1.23
   9  -7   1    1.54    0.92
   9  -7  -1    0.42    0.91
  -9   7  -1    0.43    1.47
  -9  -7  -1    0.33    0.95
  -9  -7   1   -0.37    1.18
 -10  -7   1   11.49    1.49
 -10   7  -1    3.50    1.57
  10  -7  -1    9.51    1.40
 -10  -7  -1   10.36    1.31
 -10   7   1   11.92    1.47
  10  -7   1    9.33    1.12
 -10  -7   1   14.14    1.69
 -10   7  -1   13.39    1.08
  10   7  -1    8.93    1.44
 -10  -7  -1   12.16    1.08
  10   7   1    3.50    1.35
 -10   7   1    7.34    2.04
  10  -7   1   17.54    1.10
  10  -7  -1   16.71    1.31
 -10  -7  -1   12.04    1.40
 -10  -7   1   12.62    1.13
   1   8   1   16.06    1.68
  -1  -8  -1   21.41    1.39
  -1   8  -1   17.32    1.09
   1   8  -1   19.77    1.21
  -1  -8   1   20.42    1.07
  -1  -8  -1   17.89    1.62
   1  -8  -1   20.87    1.13
  -1  -8   1   21.18    1.09
   1  -8   1   18.94    1.18
   1   8  -1   19.87    0.91
   1   8   1   21.06    1.37
  -1   8  -1   16.78    1.36
  -1   8   1   20.63    1.13
   1  -8   1   15.84    1.07
  -2  -8   1    6.48    0.88
   2  -8   1    7.25    0.88
   2   8  -1    7.43    1.09
   2   8   1    6.28    1.64
  -2  -8   1    5.49    0.86
   2   8   1    6.38    0.92
  -2   8   1    6.61    1.12
  -2   8  -1    6.00    1.08
   2  -8  -1    5.96    0.97
  -2   8  -1    5.97    1.17
  -2   8  -1    5.17    0.87
  -2  -8  -1    5.96    1.23
  -2  -8  -1    7.14    0.91
   2   8  -1    5.70    0.89
  -3   8  -1   12.86    1.42
   3  -8   1   15.15    0.83
  -3   8  -1   16.04    1.06
   3   8   1   15.75    0.87
   3   8  -1   14.56    1.17
   3  -8  -1   13.57    1.07
  -3  -8   1   13.11    1.28
  -3   8  -1   17.29    1.00
   3   8  -1   15.74    1.10
   3   8   1   10.50    1.34
  -3  -8  -1   12.59    1.14
  -3  -8   1   15.45    1.28
  -3  -8  -1   14.40    0.86
  -3   8   1   15.54    1.14
  -4   8   1    8.22    1.44
  -4  -8  -1    5.20    0.81
  -4   8  -1    7.59    0.98
  -4  -8   1    7.39    1.42
  -4  -8  -1    7.93    0.80
  -4   8  -1    7.02    0.78
  -4   8  -1    4.86    1.36
   4  -8  -1    6.73    0.91
   4  -8   1    7.59    0.77
   4   8  -1    6.28    1.06
  -4  -8   1    6.42    1.08
   4   8  -1    4.85    0.94
   4   8   1    4.12    1.01
  -4  -8  -1    6.74    1.07
  -5   8   1    7.67    1.70
  -5  -8  -1    5.89    0.79
  -5   8   1    6.46    1.06
  -5  -8  -1    6.50    0.90
  -5  -8   1    5.32    1.11
  -5  -8  -1    9.02    0.78
  -5   8  -1    5.42    1.18
  -5   8  -1    6.82    0.83
   5  -8  -1    8.16    1.00
   5  -8   1   10.82    0.94
  -5  -8   1    7.99    1.44
  -5   8  -1    8.35    0.77
   5   8  -1    7.14    0.91
   5   8   1    4.24    0.98
  -5   8   1    6.36    2.29
  -6   8   1    0.06    2.11
  -6  -8  -1    1.15    0.81
  -6  -8   1    0.73    0.86
  -6  -8  -1    3.42    1.16
  -6   8  -1    1.16    0.79
  -6  -8   1   -0.54    1.24
  -6   8  -1    0.46    1.00
  -6   8   1    0.27    1.25
   6   8   1    1.02    1.01
  -6   8  -1    0.88    1.35
   6  -8   1    1.72    0.80
  -6  -8   1    1.91    1.04
   6  -8  -1    0.00    1.27
  -6  -8  -1    1.38    0.82
   6  -8  -1    0.78    0.99
   6   8  -1    1.22    0.93
  -7  -8  -1    3.05    0.90
  -7   8  -1    2.92    1.09
   7   8  -1    2.98    1.00
   7  -8  -1    2.65    1.28
  -7  -8   1    3.44    1.14
  -7  -8  -1    2.65    1.07
  -7  -8   1    1.04    1.61
  -7   8   1    2.91    1.93
  -7  -8  -1    4.11    0.88
  -7  -8   1    3.00    1.30
  -7   8   1    2.80    1.06
   7  -8   1    4.70    0.89
   7   8   1    1.65    1.29
   7  -8  -1    3.69    1.05
  -7   8  -1    2.93    1.10
  -8  -8  -1    8.74    0.99
  -8  -8   1    5.67    0.95
  -8   8  -1    9.65    0.98
  -8  -8  -1    6.79    1.16
  -8   8   1    4.93    1.77
  -8  -8   1    7.22    1.13
  -8  -8   1    9.24    1.41
  -8   8  -1    6.86    1.16
   8  -8  -1    7.46    1.39
   8   8  -1    4.34    1.11
  -8   8   1    8.18    1.12
   8  -8  -1    8.56    1.13
   8  -8   1    9.84    0.98
   8   8   1    4.22    1.12
  -8  -8  -1    8.46    1.40
  -9  -8   1    0.63    1.25
  -9   8   1    0.70    2.16
  -9   8  -1    0.04    0.93
  -9  -8  -1    0.03    1.22
  -9  -8   1   -0.30    1.46
   9  -8  -1    0.36    1.46
  -9  -8  -1   -1.77    1.00
   9  -8   1    0.93    0.96
  -9   8   1    0.53    1.13
  -9  -8   1    0.77    1.40
   9   8   1   -0.30    1.10
   9  -8  -1   -0.27    1.19
  -9   8  -1   -0.58    0.98
   9   8  -1   -0.26    1.18
  -9  -8  -1   -0.58    1.03
   0   9   1  194.57    1.69
   0   9  -1  199.14    2.18
   0  -9  -1  193.77    4.63
   0  -9   1  171.29    1.50
   0  -9   1  194.25    1.81
   0  -9  -1  203.90    1.57
   0   9  -1  196.45    1.57
  -1   9   1    6.09    0.85
   1   9   1    3.61    0.96
  -1   9  -1    5.52    1.36
  -1  -9   1    4.93    0.80
   1  -9  -1    6.17    0.82
   1   9  -1    4.50    0.92
   1   9   1    4.69    1.55
  -1  -9  -1    5.39    1.01
   1  -9   1    4.58    1.07
  -1  -9  -1    4.26    1.74
   1  -9   1    3.41    1.02
  -1  -9   1    4.05    0.81
  -1   9  -1    6.57    1.08
   1   9  -1    4.89    0.80
   2   9   1    0.42    0.97
  -2   9   1   -0.23    0.84
  -2   9  -1   -0.45    0.92
  -2  -9  -1   -0.16    0.98
  -2   9  -1    0.98    1.11
  -2  -9   1    0.17    0.83
   2  -9  -1    1.44    0.85
  -2   9  -1    0.59    1.15
  -2  -9   1   -0.73    0.84
   2  -9   1   -2.18    0.95
  -2  -9  -1   -0.06    1.20
   2   9   1    0.33    1.40
   2   9  -1   -0.06    0.82
   2   9  -1   -0.03    1.04
  -3  -9   1    6.38    0.97
   3  -9   1    8.76    1.08
   3   9  -1   10.99    1.06
   3   9   1    9.23    0.94
  -3   9  -1    9.76    1.11
  -3   9  -1    8.86    1.22
  -3  -9   1   10.21    0.92
   3   9   1    7.09    1.22
   3   9  -1    5.73    0.98
   3  -9  -1    7.84    1.01
  -3   9   1    9.15    0.94
  -3  -9  -1    9.07    1.18
  -3   9  -1   10.97    0.91
  -3  -9  -1   11.57    0.92
  -4   9  -1   80.26    1.82
   4   9  -1   93.69    1.42
  -4  -9  -1  107.78    1.56
  -4  -9  -1  123.41    1.26
  -4  -9   1   83.01    1.40
  -4  -9   1  104.92    1.62
  -4  -9  -1  112.97    1.23
   4   9  -1   91.56    1.21
  -4   9   1  105.58    1.57
   4  -9   1  127.53    1.24
  -4   9  -1  117.08    1.21
   4  -9  -1  100.71    1.36
  -4   9  -1  126.63    1.76
   4   9   1   95.13    1.52
  -5   9   1    0.55    1.16
  -5   9  -1   -0.19    1.15
   5   9  -1    0.90    0.92
  -5  -9  -1   -0.27    0.85
  -5   9  -1    0.06    0.97
  -5  -9  -1   -0.38    0.95
  -5  -9  -1   -0.61    0.82
   5   9   1    0.91    0.94
  -5   9  -1    0.34    1.45
   5  -9  -1    0.04    1.08
   5  -9   1    1.50    0.79
  -5  -9   1    0.93    1.30
  -5  -9   1    1.06    1.15
   5   9  -1    1.42    0.87
  -6   9   1    0.96    2.35
  -6  -9  -1    1.17    0.91
  -6  -9   1    2.13    0.96
  -6  -9  -1    0.38    0.98
  -6   9   1   -0.01    1.39
  -6   9  -1    0.18    1.07
  -6   9  -1    1.11    0.91
   6   9   1    1.84    1.15
  -6   9  -1    0.74    1.23
  -6  -9   1    2.30    1.19
  -6  -9   1    0.93    1.18
   6  -9  -1   -0.05    0.88
  -6   9   1    0.83    1.85
   6  -9   1    1.37    0.88
   6   9  -1    0.00    0.90
  -6  -9  -1    0.25    0.88
  -7  -9   1    3.37    0.98
  -7   9  -1    4.57    0.93
  -7   9   1    3.50    1.59
  -7   9  -1    2.71    1.29
  -7  -9   1    3.77    1.41
  -7   9   1    4.04    1.14
  -7   9  -1    3.62    1.14
   7   9   1    3.34    0.96
  -7  -9   1    1.78    1.52
  -7  -9  -1    3.64    0.95
   7  -9  -1    3.76    0.93
   7  -9   1    5.20    0.94
   7   9  -1    4.02    0.98
  -7  -9  -1    3.01    0.97
  -7   9   1    3.47    2.17
  -7  -9  -1    4.11    1.09
  -8  -9   1   10.40    1.64
  -8  -9  -1   13.01    1.06
  -8  -9  -1   14.29    1.21
  -8  -9   1   14.88    1.28
   8  -9   1   14.63    1.21
  -8  -9  -1   13.59    1.06
  -8   9  -1   10.96    1.23
  -8   9   1   15.00    1.48
  -8   9  -1    5.39    1.34
  -8   9  -1   12.89    1.01
  -8   9   1    8.87    2.43
   8   9  -1    9.49    1.08
  -8  -9   1   10.73    1.21
   8  -9  -1   14.30    1.22
   8   9   1    6.35    1.26
  -9  -9   1    0.52    1.10
  -9  -9  -1   -0.54    1.28
   9   9   1    1.36    1.29
  -9  -9   1    1.97    1.25
  -9   9   1    1.10    1.54
  -9  -9   1   -1.10    1.42
  -9   9   1    1.11    2.22
   9   9  -1    0.45    1.12
  -9   9  -1    1.07    1.04
   9  -9  -1    1.95    1.04
  -9   9  -1    1.31    1.20
   9  -9   1    1.06    1.05
  -9  -9  -1    0.47    1.31
  -9   9  -1    0.25    1.32
  -9  -9  -1    0.73    1.07
  -1 -10  -1    0.65    1.42
   1 -10   1    1.32    0.97
   1  10  -1    1.64    1.04
  -1 -10  -1    0.56    1.09
   1  10   1    1.83    1.11
   1  10  -1    0.54    0.77
  -1 -10   1    1.70    0.93
   1 -10  -1    1.10    0.79
   1 -10   1    0.56    0.90
  -1  10  -1    2.78    1.15
   1  10   1    0.89    1.37
  -1  10  -1    0.94    1.30
  -1 -10   1    0.43    0.77
  -1  10   1    0.25    0.98
   2  10   1   75.58    1.76
  -2  10   1   71.83    1.11
   2  10  -1   74.71    1.34
   2 -10   1   60.20    1.25
  -2  10  -1   61.28    1.52
   2  10  -1   68.76    1.09
  -2 -10   1   79.59    1.31
  -2  10  -1   62.11    1.27
   2 -10  -1   73.76    1.13
  -2 -10   1   73.15    1.10
  -2 -10  -1   55.65    1.73
   2  10   1   60.40    1.27
  -2 -10  -1   58.86    1.31
  -2  10  -1   54.74    1.67
   3  10  -1    4.21    1.02
  -3 -10   1    4.62    1.09
  -3  10  -1    3.90    0.94
   3  10  -1    3.16    1.09
  -3  10   1    4.73    0.90
  -3  10  -1    3.27    1.28
  -3 -10  -1    3.59    1.29
   3 -10   1    4.18    0.94
  -3  10  -1    4.82    1.38
   3  10   1    4.42    1.02
   3 -10  -1    4.13    0.98
  -3 -10   1    3.25    0.85
   3  10   1    2.76    1.29
  -3 -10  -1    4.70    0.98
  -4 -10  -1   24.33    1.02
  -4  10   1   24.94    1.30
  -4  10  -1   21.99    1.28
  -4  10  -1   21.89    1.00
  -4  10  -1   16.77    1.34
  -4 -10   1   20.96    1.03
  -4 -10  -1   26.83    1.00
   4  10   1   19.44    1.18
   4 -10  -1   20.19    1.36
   4 -10   1   27.16    0.99
  -4 -10  -1   21.71    1.32
   4  10  -1   20.35    1.14
  -4 -10   1   19.27    1.06
   4  10  -1   24.61    1.12
   5  10  -1   -0.42    1.35
  -5 -10  -1    0.01    0.95
  -5  10   1    1.25    1.50
  -5 -10  -1    2.07    0.93
  -5 -10  -1    2.13    1.26
  -5 -10   1   -0.33    1.15
  -5  10  -1    1.24    0.91
   5  10   1    0.26    0.89
  -5  10  -1    1.23    1.11
  -5  10  -1   -0.63    1.17
   5 -10  -1    0.17    1.18
   5 -10   1    1.31    0.91
  -5 -10   1    0.76    1.10
   5  10  -1    0.64    0.89
  -6 -10  -1   25.62    1.41
  -6 -10  -1   24.01    1.05
  -6 -10   1   28.09    1.15
  -6 -10   1   24.66    1.28
   6  10  -1   22.33    1.02
  -6  10  -1   27.03    1.23
   6  10   1   19.82    1.19
  -6  10   1   23.24    1.57
  -6 -10   1   21.99    1.57
  -6 -10  -1   22.26    1.05
   6 -10  -1   25.27    1.26
   6 -10   1   31.04    1.06
  -6  10  -1   15.56    1.33
  -6  10  -1   25.43    1.32
  -7 -10  -1    1.47    1.02
  -7 -10   1    5.39    1.25
   7 -10   1    6.53    1.00
  -7  10  -1    5.86    1.01
  -7 -10   1    2.66    1.25
  -7 -10   1    5.02    1.51
  -7 -10  -1    3.49    1.01
  -7 -10  -1    4.22    1.13
  -7  10   1    2.13    1.25
  -7  10  -1    2.86    1.39
   7  10   1    1.83    0.93
   7 -10  -1    4.17    0.99
   7  10  -1    2.82    0.97
  -7  10  -1    2.82    1.40
  -8 -10  -1   31.02    1.21
  -8 -10   1   29.52    1.47
  -8 -10  -1   27.98    1.32
  -8 -10   1   22.96    1.41
  -8  10  -1   34.08    1.17
   8  10   1   14.14    1.27
  -8 -10  -1   33.26    1.20
  -8  10   1   21.64    2.73
  -8  10   1   27.78    1.68
  -8  10  -1   27.09    1.43
  -8 -10   1   25.43    1.41
  -8  10  -1   13.84    1.40
  -8  10   1   27.45    2.30
   8  10  -1   24.57    1.11
   8 -10  -1   32.45    1.42
   8 -10   1   35.35    1.14
   0  11   1    3.45    1.01
   0  11  -1    3.08    0.86
   0  11  -1    3.42    1.07
   0 -11  -1    5.11    0.99
   0 -11   1    3.26    0.81
   0 -11   1    4.32    1.09
  -1 -11   1    1.71    0.95
  -1  11   1    0.53    0.78
  -1 -11   1    1.36    0.80
   1  11  -1    1.92    1.03
   1  11   1    1.36    0.89
  -1 -11  -1    2.23    1.42
  -1  11  -1    1.60    0.90
   1 -11  -1    2.05    0.79
  -1 -11  -1    1.12    1.04
  -1  11  -1    1.75    1.24
   1  11  -1    1.54    0.97
   1  11   1    1.36    1.35
   1 -11   1    2.72    1.02
  -2 -11   1    3.74    0.82
   2  11  -1    4.15    0.84
  -2  11   1    3.98    0.82
   2 -11   1    2.80    0.98
   2  11  -1    3.49    0.79
  -2  11  -1    3.54    1.24
  -2 -11  -1    4.64    1.01
   2  11   1    3.52    0.97
   2 -11  -1    4.06    0.82
  -2  11  -1    3.53    1.45
   2  11   1    3.80    1.25
  -2 -11  -1    3.22    1.52
  -2  11  -1    2.75    1.29
  -2 -11   1    2.75    0.99
   3  11  -1    4.37    0.86
  -3 -11  -1    2.67    1.47
   3  11   1    3.21    1.34
   3  11  -1    3.50    0.89
  -3 -11   1    4.85    0.88
  -3  11   1    4.45    1.06
  -3  11  -1    2.85    1.05
  -3  11  -1    2.31    1.25
  -3 -11   1    3.82    1.06
   3 -11   1    1.98    1.03
   3 -11  -1    4.89    0.94
   3  11   1    3.38    1.11
  -3 -11  -1    3.44    1.10
  -3  11  -1    3.29    1.57
  -4  11  -1    5.00    1.50
  -4  11   1    5.70    1.20
  -4 -11   1    4.49    1.19
  -4  11  -1    3.03    1.04
  -4 -11  -1    4.96    1.06
   4  11  -1    5.75    1.09
   4  11  -1    1.97    1.04
   4 -11   1    5.45    1.03
  -4 -11   1    2.87    0.94
  -4  11  -1    3.08    1.28
   4 -11  -1    4.35    1.06
  -4 -11  -1    4.30    1.37
   4  11   1    2.71    1.05
  -5 -11  -1    0.97    1.35
  -5  11  -1   -0.35    1.42
   5  11  -1   -0.58    1.18
  -5 -11  -1    1.89    1.04
   5 -11  -1    0.85    1.04
  -5  11  -1    0.42    0.98
   5  11   1   -0.42    1.06
  -5  11   1    0.33    1.08
  -5 -11   1   -0.15    1.00
  -5  11  -1    0.40    1.13
   5  11  -1    0.28    0.88
  -5 -11  -1    1.62    1.03
   5 -11   1    1.37    0.99
  -5 -11   1    2.00    1.27
   6 -11  -1   16.41    1.31
  -6 -11   1   12.13    1.18
  -6 -11  -1   14.28    1.12
  -6 -11   1   15.21    1.21
   6  11   1   12.35    0.94
  -6  11  -1   16.25    1.09
  -6 -11  -1   12.74    1.19
   6 -11   1   16.83    1.07
  -6  11   1   14.11    1.26
  -6  11  -1   15.64    1.54
  -6  11  -1    8.59    1.39
  -6 -11  -1   13.21    1.11
   6  11  -1   13.68    0.96
  -6 -11   1   14.42    1.40
  -7 -11   1    4.57    1.38
  -7  11   1    1.63    1.33
  -7 -11  -1    3.52    1.30
  -7 -11  -1    2.05    1.10
  -7 -11   1   -0.42    1.23
  -7  11  -1    2.05    1.06
   7  11   1    1.72    0.91
  -7  11  -1    1.85    1.30
   7 -11  -1    2.30    1.28
   7 -11   1   -0.79    1.02
   7  11  -1    1.61    0.96
  -7 -11  -1    2.94    1.43
  -7 -11   1    1.47    1.49
  -7  11  -1    1.12    1.36
  -1 -12  -1    0.17    1.63
   1  12  -1   -0.22    0.97
  -1  12  -1   -0.17    1.33
   1  12  -1    0.37    1.02
  -1 -12   1    1.88    0.77
  -1  12  -1    0.21    1.00
   1 -12   1   -0.19    0.83
  -1 -12   1    0.64    0.92
  -1 -12  -1    2.36    1.03
   1  12   1    0.62    0.87
  -1  12  -1    2.08    1.08
   1 -12  -1    0.57    0.77
   1  12   1    0.29    1.56
  -1  12   1    1.49    0.79
   2  12  -1   30.01    1.14
  -2 -12  -1   25.95    1.51
   2  12   1   26.35    1.06
   2  12  -1   28.19    1.09
  -2  12   1   26.51    0.96
  -2  12  -1   27.23    1.64
  -2  12  -1   18.02    1.39
  -2 -12  -1   24.86    1.09
  -2 -12   1   30.33    0.92
   2 -12  -1   29.65    1.15
   2 -12   1   28.00    1.01
  -2 -12   1   28.54    1.13
   2  12   1   23.44    1.47
  -2  12  -1   30.07    1.10
  -3  12  -1    0.63    1.20
  -3  12  -1    2.37    1.90
  -3 -12   1    1.65    1.06
  -3 -12  -1    1.91    1.11
  -3  12   1    2.11    0.88
   3  12   1    0.02    1.24
   3  12  -1    2.25    0.86
  -3 -12   1    2.72    0.84
   3  12   1    0.66    1.28
   3 -12  -1    2.36    1.10
   3 -12   1    2.43    1.04
  -3  12  -1    0.06    1.13
  -3 -12  -1    0.08    1.59
   3  12  -1    2.05    1.02
  -4 -12   1    2.25    0.95
  -4 -12  -1    2.93    1.48
   4  12  -1    3.99    1.16
  -4  12  -1    3.53    1.86
   4 -12   1    2.96    1.12
  -4  12  -1    1.46    1.13
  -4 -12   1    3.09    1.10
   4  12   1    3.31    1.22
  -4  12  -1    1.52    1.30
   4 -12  -1    2.70    1.32
  -4  12   1    2.53    0.94
   4  12  -1    3.98    1.07
  -4 -12  -1    1.55    1.15
  -5 -12   1    1.98    0.98
  -5 -12  -1    3.44    1.13
  -5  12   1    2.36    1.00
  -5  12  -1    1.35    1.27
  -5 -12   1    2.42    0.94
   5  12   1    1.68    1.04
  -5 -12  -1    2.51    1.12
   5 -12  -1    1.74    1.35
   5 -12   1    0.07    1.12
  -5 -12  -1    1.54    1.21
  -5  12  -1    1.52    1.09
   5  12  -1    2.36    0.87
  -5  12  -1    2.23    1.58
   5  12  -1    2.23    1.09
  -6  12  -1    5.83    1.61
   6 -12  -1    4.21    1.43
  -6 -12   1    7.09    1.46
  -6 -12  -1    7.20    1.25
  -6  12   1    5.40    1.39
  -6 -12  -1    6.69    1.18
  -6 -12   1    6.71    1.05
  -6  12  -1    7.94    1.12
   6  12   1    5.13    1.06
  -6  12  -1    3.78    1.32
   6 -12   1    9.02    1.11
   6  12  -1    6.44    0.92
  -6 -12   1    7.17    1.09
  -6 -12  -1    5.92    1.16
  -7 -12   1    3.42    1.19
  -7 -12  -1    1.78    1.15
  -7 -12   1    2.09    1.21
  -7 -12  -1    4.96    1.17
  -7  12   1    6.06    1.54
  -7 -12   1    3.10    1.14
  -7  12  -1    1.63    1.61
  -7 -12  -1    2.81    1.30
   7  12   1    1.11    1.09
  -7  12  -1    3.27    1.14
   7 -12  -1    1.54    1.45
   7 -12   1    3.75    1.13
  -7  12  -1    1.66    1.38
   0 -13   1   10.00    1.06
   0  13  -1   13.75    1.31
   0 -13  -1   12.17    1.02
   0  13   1   13.22    0.89
   0  13  -1   13.88    0.91
   0 -13   1   12.19    0.84
   1  13  -1    0.20    1.02
  -1  13  -1    0.11    1.28
  -1  13  -1    0.93    1.18
  -1  13  -1   -1.09    0.85
   1  13   1    0.38    0.87
  -1 -13  -1    1.09    0.86
   1 -13  -1    0.73    0.80
   1  13  -1    0.23    1.02
  -1 -13   1    1.13    0.80
  -1 -13   1    0.41    0.94
   1 -13   1   -0.01    0.81
  -1  13   1    1.18    0.82
   2 -13   1    3.90    1.05
   2  13   1    0.73    0.92
  -2  13   1    0.38    1.04
  -2  13  -1    1.48    0.93
  -2  13  -1    1.17    1.21
   2  13   1    0.79    1.38
  -2 -13  -1    1.84    1.40
  -2 -13  -1    1.27    0.90
   2  13  -1    0.34    0.84
  -2 -13   1    2.56    0.81
   2 -13  -1    0.60    0.81
  -2  13  -1    2.48    1.50
  -2 -13   1    1.34    0.99
   2  13  -1    1.95    1.02
  -3 -13  -1    0.36    1.24
   3  13   1    0.81    0.96
   3 -13  -1    0.47    1.06
   3  13  -1    1.73    0.86
  -3  13  -1    0.34    1.36
  -3  13   1    1.56    1.04
  -3  13  -1    0.44    1.65
  -3  13  -1   -0.27    1.01
  -3 -13  -1    2.98    1.02
   3  13   1    0.27    1.07
  -3 -13   1    0.70    1.02
   3 -13   1    0.96    0.99
  -3 -13   1    0.68    1.04
   3  13  -1    0.32    1.03
  -4  13   1    8.61    0.94
  -4 -13   1    7.83    0.90
   4  13  -1    6.10    0.95
  -4  13  -1    6.72    1.92
   4  13   1    6.25    1.28
   4 -13   1    7.98    1.18
  -4  13  -1    3.80    1.45
   4 -13  -1    7.17    1.05
  -4 -13   1    9.03    0.94
  -4 -13  -1    7.39    1.48
   4  13  -1    7.05    0.89
  -4 -13  -1    5.02    1.41
  -4  13  -1    8.18    1.23
  -5  13  -1   -0.23    2.06
  -5 -13  -1   -0.62    1.27
  -5 -13   1    0.84    1.21
  -5  13  -1    0.27    1.20
   5 -13  -1   -0.03    1.37
  -5 -13  -1    2.87    1.26
  -5 -13   1   -0.61    0.93
  -5  13   1   -0.48    0.97
  -5 -13  -1   -0.52    1.53
   5 -13   1    1.20    1.45
  -5  13  -1    0.37    1.53
   5  13   1    0.33    0.88
   5  13  -1   -0.42    1.08
   5  13  -1   -0.52    1.01
  -6 -13   1    4.81    1.20
   6  13   1    3.06    0.90
  -6 -13  -1    3.30    1.59
  -1 -14   1    0.04    1.09
  -1  14  -1    0.02    1.39
  -1  14   1   -0.01    0.98
   1  14  -1    1.88    1.00
  -1  14  -1    0.01    1.31
  -1  14  -1    0.61    0.88
  -1 -14  -1    1.66    0.84
   1 -14  -1    0.32    0.77
  -1 -14   1    0.74    0.98
   1 -14   1   -0.15    0.99
   1  14   1    1.52    0.85
   1  14  -1   -0.05    1.04
  -2 -14  -1   11.58    1.73
  -2  14  -1   13.28    1.54
  -2 -14   1   13.06    1.06
   2  14   1   15.83    0.97
  -2  14   1   14.48    1.07
  -2  14  -1   16.74    1.01
  -2  14  -1    7.26    1.46
   2  14  -1   13.90    0.89
  -2 -14  -1   13.42    0.94
   2  14  -1   13.17    1.11
  -2 -14   1   16.84    1.05
   2 -14  -1   11.65    0.87
   2  14   1    8.06    1.61
   2 -14   1   11.91    0.94
  -3  14  -1    1.03    1.52
  -3 -14   1    0.77    0.84
  -3 -14  -1    1.26    1.36
  -3  14   1    1.50    0.88
  -3  14  -1    0.78    1.01
   3  14   1    0.49    1.26
  -3 -14  -1    1.15    0.94
  -3  14  -1    0.46    1.54
   3 -14   1    0.81    0.97
  -3 -14   1    0.70    1.06
   3 -14  -1    0.40    0.87
   3  14  -1    0.94    1.07
   3  14   1    1.74    0.94
   3  14  -1    0.88    0.86
  -4  14  -1    7.54    2.15
  -4  14   1    9.58    0.96
  -4  14  -1    8.34    1.16
  -4 -14  -1    8.39    1.12
   4  14   1    5.04    1.17
  -4 -14   1    7.39    0.91
  -4 -14   1    9.26    1.20
   4 -14   1    9.45    1.10
   4 -14  -1    7.19    1.01
  -4 -14  -1    8.45    1.61
  -4  14  -1    4.92    1.87
   4  14  -1    5.38    1.14
   4  14  -1    6.84    0.96
   0  15  -1   29.74    1.00
   0  15  -1   12.35    1.49
   0 -15  -1   26.79    0.96
   0 -15   1   27.46    1.13
   0  15   1   25.02    0.97
   0  15  -1   21.15    1.42
  -1  15  -1    0.42    1.42
  -1  15  -1   -0.37    1.51
  -1  15  -1   -0.68    0.90
  -1 -15   1   -0.52    0.84
  -1  15   1    0.40    0.85
   1  15  -1    0.17    1.04
   1 -15   1    1.02    0.86
   1  15  -1   -0.21    1.22
  -1 -15  -1    1.04    0.86
   1 -15  -1    1.23    0.81
   1  15   1    0.99    1.04
  -1 -15   1   -0.02    1.17
  -2  15  -1    0.38    0.95
   2  15  -1    0.20    0.85
  -2 -15   1    0.07    1.02
  -2  15  -1    0.22    1.66
  -2 -15   1    0.20    0.83
   2  15   1   -0.38    0.90
   2 -15   1   -0.04    0.87
   2 -15  -1    0.69    0.84
   2  15  -1    0.26    1.07
  -2  15   1    0.42    0.84
  -2  15  -1    0.05    1.71
   0   0   2  458.44    3.31
   0   0   2  465.75    2.59
   0   0  -2  435.44    3.08
   0   0  -2  474.21    2.87
  -1   0   2  170.35    2.53
  -1   0   2  187.08    1.85
   1   0  -2  183.60    2.26
  -1   0  -2  172.16    1.57
   1   0  -2  152.48    2.41
  -1   0  -2  192.60    1.73
  -1   0  -2  183.65    1.66
   2   0   2    2.67    0.55
  -2   0   2    2.16    1.02
  -2   0  -2    3.99    0.81
   2   0  -2    3.07    1.67
  -2   0  -2    3.38    0.90
  -2   0  -2    1.59    0.56
   3   0   2  138.47    1.19
  -3   0   2  157.11    2.13
   3   0   2  152.36    1.48
   3   0  -2  158.94    2.85
  -3   0  -2  136.53    1.18
  -3   0  -2  150.83    1.42
   4   0   2  184.22    1.28
   4   0  -2  220.26    2.25
   4   0   2  214.33    1.68
  -4   0  -2  216.89    1.63
  -4   0  -2  183.03    1.26
  -4   0   2  176.18    2.58
   5   0   2   42.07    0.77
   5   0  -2   47.92    1.51
   5   0   2   48.16    1.26
  -5   0   2   44.43    1.94
  -5   0  -2   42.64    1.00
  -5   0   2   27.81    2.29
  -5   0  -2   40.41    0.78
  -5   0   2   44.91    1.69
   6   0  -2    5.89    1.08
  -6   0   2    5.12    1.24
   6   0   2    7.37    0.94
   6   0   2    4.99    0.63
  -6   0  -2    5.62    0.87
  -6   0   2    5.79    1.19
  -6   0   2    5.05    1.90
  -6   0  -2    4.81    0.64
   7   0   2   22.25    0.72
  -7   0  -2   25.56    1.00
  -7   0   2   24.24    1.29
  -7   0  -2   22.83    0.74
   7   0   2   23.85    1.03
  -7   0   2   10.96    2.05
   7   0  -2   29.84    1.22
  -7   0   2   26.02    1.26
   8   0   2   29.89    0.79
  -8   0   2   13.09    2.58
   8   0   2   25.57    1.27
  -8   0   2   30.57    1.40
  -8   0  -2   24.65    0.80
  -8   0  -2   25.32    1.13
  -8   0   2   29.64    1.44
   8   0  -2   32.17    1.44
   9   0   2    1.39    0.76
  -9   0   2   -0.56    1.32
   9   0  -2    3.00    1.14
   9   0   2    1.44    1.28
  -9   0   2   -0.46    2.22
  -9   0   2   -0.03    1.38
  -9   0  -2    0.79    0.80
  -9   0  -2   -0.24    1.11
  10   0   2    4.78    0.83
 -10   0   2    4.35    2.87
 -10   0   2    5.08    1.47
  10   0  -2    5.09    1.26
 -10   0  -2    7.22    1.06
  10   0   2    3.84    1.09
 -10   0  -2    3.73    1.52
 -10   0   2    4.77    1.55
  -1  -1  -2   21.23    0.93
  -1  -1  -2   20.38    0.80
   1   1  -2   20.26    1.25
   1  -1  -2   21.41    1.56
  -1   1  -2   15.63    0.69
   1  -1  -2   18.13    1.25
   1   1  -2   20.25    1.33
  -1  -1  -2   18.98    0.81
  -1  -1   2   18.65    1.05
   1  -1  -2   18.14    1.14
  -1   1   2   20.68    0.90
  -1   1  -2   20.35    0.89
  -1  -1   2   21.69    1.10
   2   1   2   44.64    0.84
   2   1  -2   47.05    2.30
  -2   1   2   49.56    1.26
  -2   1  -2   48.63    1.02
  -2  -1   2   50.16    1.52
  -2   1  -2   40.25    0.80
   2   1  -2   38.48    1.88
  -2   1  -2   48.33    1.14
  -2  -1   2   42.51    1.88
  -2  -1  -2   39.09    0.79
  -2  -1  -2   37.33    1.01
   2  -1   2   38.92    0.80
   2  -1  -2   41.53    1.95
  -2  -1  -2   47.74    1.07
  -3  -1   2    1.93    1.26
   3   1  -2    2.21    1.76
  -3   1  -2    2.00    0.75
  -3   1   2    3.02    1.35
   3   1   2    2.11    0.57
   3  -1  -2    3.82    1.77
  -3  -1  -2    2.13    0.72
   3   1   2    2.74    0.96
  -3   1  -2    2.86    0.57
   3  -1   2    1.49    0.56
  -3  -1  -2    1.78    0.55
  -4  -1   2   21.37    1.48
   4   1   2   17.12    0.66
   4  -1   2   22.50    0.88
  -4  -1  -2   22.05    0.86
  -4  -1   2   13.49    3.09
   4   1  -2   20.31    1.47
  -4   1  -2   23.73    0.90
   4   1   2   24.74    0.97
   4  -1  -2   24.09    1.29
  -4   1  -2   20.84    0.70
  -4  -1  -2   20.63    0.66
  -4  -1   2   13.04    1.58
  -4   1   2   23.26    1.81
   4  -1   2   22.76    0.68
   5   1   2   14.45    0.65
   5  -1  -2   22.68    1.34
  -5   1  -2   19.21    0.91
   5   1  -2   23.70    1.30
  -5   1  -2   15.73    0.67
   5  -1   2   19.65    0.91
   5   1   2   21.47    1.02
  -5   1   2   18.63    1.38
   5  -1   2   18.07    0.69
  -5   1   2   20.74    1.72
  -5  -1  -2   20.97    0.86
  -5   1   2   14.28    1.67
  -5  -1   2   15.06    2.26
  -5  -1  -2   19.87    0.68
  -5  -1   2   20.39    1.26
  -5  -1   2   20.59    1.75
   6  -1   2   20.61    0.71
   6   1  -2   22.50    1.45
  -6   1  -2   18.45    0.93
   6   1   2   19.27    0.70
   6   1   2   21.16    1.26
  -6  -1   2   20.35    1.36
   6  -1  -2   20.55    1.31
  -6   1  -2   19.37    0.70
  -6  -1  -2   20.57    0.94
  -6  -1   2   20.64    1.26
  -6  -1   2   13.68    2.33
  -6   1   2   19.97    1.39
  -6  -1  -2   20.47    0.84
   6  -1   2   19.41    0.95
  -6   1   2   14.79    2.21
   7  -1   2    0.82    0.65
   7   1   2    0.27    0.63
  -7  -1   2    0.70    1.16
  -7   1   2    1.09    1.12
   7  -1   2   -0.01    0.91
  -7   1   2    0.47    2.33
  -7  -1   2    0.76    2.41
  -7   1  -2    0.34    0.93
  -7  -1   2    0.51    1.05
  -7  -1  -2    0.99    0.88
   7   1   2    0.46    1.12
  -7  -1  -2    1.93    0.65
   7  -1  -2    1.28    1.00
  -7   1  -2    1.01    0.64
   7   1  -2    0.81    1.15
   8  -1   2   28.94    0.95
  -8   1   2   29.04    1.45
   8   1   2   27.14    0.79
  -8  -1   2   24.61    1.30
   8   1   2   21.44    1.07
  -8   1   2   19.53    2.57
  -8   1   2   27.58    1.40
   8  -1   2   23.68    1.07
  -8  -1   2   27.40    1.32
  -8   1  -2   24.33    0.79
  -8   1  -2   22.26    1.35
  -8  -1   2   15.16    2.17
  -8  -1  -2   28.25    0.83
   8  -1  -2   29.09    1.21
  -8  -1  -2   23.15    1.07
   8   1  -2   27.04    1.28
   9  -1   2    3.44    1.01
   9  -1   2    4.76    0.81
   9   1   2    5.85    0.80
  -9  -1   2    4.99    1.14
  -9  -1  -2    3.55    1.11
  -9   1  -2    6.18    0.82
   9   1   2    4.07    1.07
  -9  -1   2    4.66    1.45
   9   1  -2    6.13    1.22
  -9   1   2    7.82    2.15
  -9   1   2    5.58    1.39
  -9   1   2    5.20    1.38
  -9  -1   2    2.26    2.66
   9  -1  -2    7.35    1.18
  -9  -1  -2    4.92    0.80
  -9   1  -2    4.47    1.42
  10  -1   2    2.89    0.86
 -10   1   2    4.70    1.50
 -10   1   2    3.70    1.48
 -10  -1   2    2.38    2.30
  10  -1   2    2.02    1.30
 -10  -1   2    3.20    1.59
  10   1   2    0.23    1.10
  10   1   2    3.52    0.86
  10  -1  -2    4.86    1.24
 -10   1   2    3.49    2.30
 -10  -1   2    3.13    1.22
 -10  -1  -2    1.95    1.20
  10   1  -2    3.55    1.30
 -10  -1  -2    3.13    1.06
 -10   1  -2    4.31    1.26
 -10   1  -2    2.85    0.88
   0  -2  -2    8.37    0.80
   0  -2  -2    9.50    0.99
   0  -2  -2    7.94    0.82
   0   2  -2    9.18    0.93
   0   2  -2    9.41    0.84
   0  -2   2    7.69    0.89
   1   2  -2  111.92    1.78
   1  -2  -2  103.86    1.69
  -1   2  -2  114.14    1.38
  -1   2  -2   88.73    1.10
   1  -2  -2  117.35    2.26
  -1  -2  -2  110.27    1.40
   1  -2   2  111.63    1.28
  -1  -2  -2  113.67    1.31
  -1  -2  -2  128.75    1.71
   1   2  -2  103.00    1.98
  -1  -2   2  110.25    1.67
   1  -2  -2   91.78    1.99
  -1  -2   2  121.89    1.75
   1  -2   2  119.66    1.42
  -2   2  -2    9.19    0.86
  -2   2  -2   11.14    0.92
   2   2  -2    6.66    1.57
   2  -2  -2    5.61    1.11
  -2  -2   2    7.83    1.36
   2   2   2    7.37    0.59
   2  -2  -2    7.36    1.88
  -2  -2  -2   10.09    0.72
  -2  -2   2    6.19    0.99
   2   2  -2    4.60    1.57
   2  -2  -2    5.98    1.45
  -2   2  -2    9.76    0.72
   2  -2   2    7.55    0.62
  -2  -2  -2    6.16    0.58
   2   2   2    7.60    0.82
  -3   2  -2   70.92    1.27
  -3  -2   2   53.06    1.73
  -3  -2   2   71.70    2.13
   3   2   2   74.83    1.04
   3  -2  -2   70.17    2.50
  -3   2   2   68.23    2.71
   3   2   2   73.91    1.37
  -3   2  -2   74.87    1.10
   3  -2  -2   78.19    2.01
   3   2  -2   65.08    1.91
  -3  -2  -2   73.91    1.20
   3  -2   2   62.29    0.90
  -3   2  -2   61.41    0.90
  -3  -2  -2   55.76    0.87
  -4  -2  -2    6.07    0.60
  -4  -2   2    6.88    1.05
   4  -2  -2    7.00    1.22
   4   2   2    6.47    0.61
   4  -2  -2    7.09    1.04
   4   2   2    8.77    1.11
  -4   2   2    4.58    2.99
  -4   2  -2    5.70    0.81
  -4  -2  -2    6.28    0.78
  -4   2  -2    6.89    0.62
   4   2  -2    6.08    1.47
  -4  -2   2    5.87    2.26
  -4  -2   2    8.36    1.48
   4  -2   2    7.02    0.61
   5  -2  -2   46.35    1.41
   5  -2  -2   46.62    1.53
   5   2   2   41.03    0.78
   5   2  -2   45.45    1.52
  -5   2  -2   40.32    1.04
   5  -2   2   46.54    1.16
   5   2   2   47.65    1.21
  -5   2   2   49.73    2.22
  -5  -2   2   44.90    2.04
  -5  -2  -2   52.94    1.20
  -5   2  -2   44.89    0.82
  -5  -2   2   40.54    1.91
  -5   2   2   47.12    2.09
  -5  -2  -2   45.06    0.79
   5  -2   2   46.18    0.82
  -5  -2   2   48.75    1.42
   6   2  -2   15.63    1.24
   6  -2   2   14.13    1.05
   6  -2  -2   14.86    1.17
   6   2   2   14.29    0.69
  -6  -2   2   15.30    1.41
   6   2   2   14.65    1.02
  -6   2   2   13.52    2.07
  -6   2   2   15.20    1.31
  -6   2  -2   13.92    0.95
  -6  -2  -2   14.38    0.69
  -6  -2   2   13.44    1.81
  -6   2  -2   14.18    0.72
  -6  -2  -2   15.04    0.89
  -6  -2   2   14.81    0.96
   6  -2   2   12.34    0.72
   6  -2  -2   16.14    1.22
   7  -2   2   12.10    0.88
   7   2   2    8.05    0.69
   7  -2  -2    9.85    1.23
   7  -2   2    8.38    0.94
  -7  -2   2    9.99    1.36
   7   2   2    9.06    1.20
  -7   2   2    7.53    1.88
  -7  -2   2   10.94    1.12
  -7   2   2    9.50    1.29
  -7  -2   2    8.51    1.81
  -7   2  -2    9.22    1.03
   7  -2  -2   11.82    1.02
  -7   2  -2    8.60    0.72
  -7  -2  -2   10.08    0.94
  -7  -2  -2    9.43    0.70
   7   2  -2    9.28    1.23
   8  -2   2    6.00    0.78
   8   2   2    5.08    0.74
   8  -2  -2    5.37    1.04
   8  -2   2    2.47    0.96
  -8   2   2    3.73    2.02
   8   2   2    1.39    1.23
  -8  -2   2    7.32    1.91
  -8  -2   2    3.39    1.43
  -8   2  -2    3.86    0.76
  -8   2  -2    4.27    1.11
  -8   2   2    4.70    1.37
   8  -2  -2    4.11    1.33
  -8  -2   2    4.84    1.21
  -8  -2  -2    6.11    0.78
  -8  -2  -2    2.07    1.23
   8   2  -2    2.85    1.52
   9  -2   2    6.82    1.00
   9   2   2    5.83    0.82
  -9  -2   2    5.74    1.34
   9   2   2    4.18    1.05
   9  -2   2    4.18    1.24
  -9   2   2    5.10    1.47
  -9   2   2    6.16    2.05
  -9  -2   2    4.29    2.13
  -9   2  -2    5.28    0.84
   9  -2  -2    7.21    1.16
  -9  -2   2    4.91    1.13
   9   2  -2    5.77    1.31
  -9   2  -2    5.32    1.20
  -9  -2  -2    5.52    1.01
  -9  -2  -2    5.24    1.09
 -10  -2   2    5.10    1.24
  10   2   2    2.96    1.14
  10  -2   2    9.18    0.89
  10   2   2    7.42    0.88
  10  -2   2    4.40    1.05
 -10  -2   2    7.79    1.48
 -10   2  -2    7.23    0.90
 -10   2   2    5.92    1.61
 -10   2   2    4.70    2.15
 -10  -2   2    6.40    2.20
  10  -2  -2    8.81    1.22
  10   2  -2    6.35    1.35
 -10  -2  -2    6.75    0.92
 -10   2  -2    2.76    1.29
 -10  -2  -2    3.62    1.21
 -10   2   2    7.37    1.50
  -1  -3  -2   51.80    0.91
   1  -3  -2   56.51    1.22
  -1  -3  -2   66.58    1.45
   1  -3  -2   51.46    1.91
  -1  -3  -2   56.08    1.05
   1  -3  -2   64.94    1.83
  -1   3  -2   59.64    1.03
   1   3  -2   56.46    1.66
   1  -3   2   65.91    1.38
   1  -3   2   52.28    0.91
  -1  -3   2   58.47    1.50
  -1  -3  -2   49.45    0.91
  -1   3  -2   62.90    1.29
   1   3  -2   63.25    1.65
   2  -3  -2  196.14    2.99
  -2  -3  -2  215.00    1.52
   2   3  -2  192.08    2.42
  -2   3  -2  192.81    1.65
  -2   3  -2  211.32    1.59
  -2   3   2  201.94    2.44
   2   3   2  211.69    2.02
  -2  -3  -2  186.68    1.42
  -2  -3  -2  212.13    1.75
  -2  -3   2  201.63    2.32
   2   3  -2  204.26    3.12
  -2   3  -2  191.76    1.40
   2  -3  -2  198.25    3.10
   2  -3   2  178.59    1.37
  -2  -3   2  188.61    2.22
  -3  -3  -2    8.43    0.63
  -3  -3   2    5.94    1.34
  -3   3  -2    7.54    0.81
   3   3  -2    6.60    0.93
  -3   3  -2    7.07    0.87
   3   3   2    6.95    0.94
   3  -3  -2    7.91    1.35
  -3   3   2    8.23    1.44
   3   3  -2   10.05    1.38
  -3  -3   2    6.20    1.39
  -3  -3  -2    6.17    0.76
  -3   3  -2    7.07    0.61
   3  -3  -2    7.09    1.03
   3  -3   2    7.27    0.72
  -4   3   2   -0.01    2.08
  -4  -3  -2   -0.28    0.63
   4  -3  -2   -0.21    0.88
  -4   3  -2    0.45    0.70
  -4  -3   2    0.78    0.90
   4   3   2    0.49    0.60
  -4   3  -2   -0.59    0.78
  -4   3  -2    1.08    0.58
   4   3  -2    1.98    1.27
   4   3   2   -0.19    0.94
  -4  -3   2    1.60    1.95
  -4  -3  -2   -1.03    0.75
   4  -3  -2    0.03    0.95
   4  -3   2   -0.05    0.61
  -4  -3   2   -0.28    1.35
   5  -3  -2   54.87    1.43
  -5  -3   2   55.08    1.29
   5  -3   2   51.78    0.83
   5   3  -2   47.23    1.59
   5   3   2   56.66    0.89
   5  -3   2   47.71    1.02
  -5   3   2   53.83    2.40
   5   3   2   58.92    1.31
  -5   3  -2   44.00    1.08
  -5   3  -2   50.47    0.84
  -5  -3   2   51.18    2.20
  -5  -3  -2   53.53    1.04
  -5  -3  -2   50.93    0.85
   5  -3  -2   55.57    1.40
  -5  -3   2   52.18    1.70
   6  -3  -2   61.80    1.40
  -6  -3   2   55.05    1.85
   6   3  -2   54.90    1.55
  -6   3  -2   52.18    1.20
   6   3   2   57.95    0.88
   6   3   2   60.72    1.51
   6  -3   2   56.82    1.08
  -6   3   2   61.60    1.82
  -6   3  -2   50.19    0.87
  -6  -3   2   51.90    1.72
  -6  -3  -2   59.00    1.27
   6  -3  -2   58.30    1.39
  -6  -3  -2   59.21    0.87
   6  -3   2   56.21    0.88
  -6  -3   2   57.76    1.37
   7  -3  -2    4.63    1.05
   7   3   2    4.81    1.04
   7   3   2    5.32    0.70
   7  -3  -2    5.77    1.18
   7  -3   2    3.90    0.90
  -7   3   2    4.79    1.37
  -7  -3   2    4.58    1.24
  -7   3  -2    3.70    1.06
  -7  -3   2    4.34    1.60
  -7   3   2    6.29    2.10
  -7  -3  -2    3.82    0.93
  -7   3  -2    4.05    0.74
  -7  -3  -2    5.85    0.86
  -7  -3   2    4.54    1.09
   7  -3   2    4.58    0.72
   7   3  -2    5.79    1.30
   8   3   2   -0.25    1.04
  -8   3   2    0.90    1.42
   8  -3  -2    1.40    1.15
   8   3   2    0.50    0.75
   8  -3   2   -0.05    0.95
  -8   3   2   -1.64    1.91
  -8  -3   2    0.43    1.79
  -8   3  -2    1.59    0.81
   8  -3  -2    0.60    1.27
  -8   3  -2    0.66    1.13
  -8  -3   2    1.44    1.48
  -8  -3  -2    0.69    0.77
  -8  -3   2    2.04    1.19
  -8  -3  -2    1.60    0.97
   8   3  -2    3.44    1.60
   8  -3   2    0.66    0.79
   9  -3   2    8.02    0.86
   9  -3  -2   10.74    1.30
   9   3   2    6.30    1.37
  -9  -3   2   10.21    1.65
   9  -3   2    5.24    1.22
  -9   3   2    7.70    1.58
  -9   3   2    6.44    2.45
  -9  -3   2   10.07    1.86
  -9   3  -2    9.53    1.04
   9  -3  -2   11.55    1.41
  -9   3  -2    6.16    1.25
   9   3  -2    8.24    1.34
  -9  -3  -2    9.30    0.89
  -9  -3  -2    8.43    1.16
  -9  -3   2    8.79    1.20
 -10  -3  -2    1.94    1.19
  10  -3   2    3.91    1.10
  10  -3  -2    2.68    1.20
  10  -3   2    1.87    1.03
 -10  -3   2    2.22    1.52
 -10   3   2    2.78    1.64
  10  -3  -2    2.87    1.13
 -10   3  -2    2.72    0.90
 -10  -3   2    3.95    1.96
 -10  -3   2    2.68    1.24
  10   3   2    2.28    1.42
 -10  -3  -2    2.89    0.91
 -10   3  -2    2.91    1.30
 -10   3   2    3.06    2.07
  10   3  -2    3.47    1.41
   0  -4  -2   96.85    1.25
   0   4  -2  109.46    1.46
   0  -4  -2  113.44    1.58
   0  -4  -2  100.73    1.54
   0  -4   2  109.70    1.41
   0   4  -2   95.67    1.35
   0  -4   2   96.97    1.51
   0  -4  -2   87.50    1.89
   1   4  -2   15.57    1.42
  -1   4   2   16.39    0.95
  -1  -4  -2   15.95    0.92
  -1  -4  -2   17.40    1.24
  -1  -4  -2   16.78    0.81
   1  -4  -2   15.55    1.04
  -1   4  -2   16.07    0.85
   1  -4  -2   17.62    1.62
  -1   4  -2   17.24    0.84
   1  -4   2   15.09    0.69
  -1  -4   2   16.38    1.33
  -1  -4  -2   16.04    0.75
   1   4  -2   13.61    1.17
   1  -4  -2   16.92    1.79
   1  -4   2   16.76    0.97
  -2  -4  -2   11.34    0.78
  -2  -4  -2    9.30    0.67
  -2   4  -2   10.73    0.75
  -2   4  -2   10.60    0.90
   2   4   2   11.73    1.16
  -2  -4  -2    9.74    0.77
  -2  -4   2   11.67    1.19
   2   4  -2   10.16    1.42
   2  -4  -2    9.68    1.68
   2  -4  -2   10.94    1.75
   2   4  -2    8.89    1.45
   2  -4   2   10.22    0.66
  -2   4  -2   10.15    0.67
  -2   4   2   11.26    1.18
  -2   4   2   11.00    1.04
  -3  -4  -2    0.73    0.58
  -3  -4   2    1.34    1.13
   3   4   2    2.47    0.98
  -3   4   2    1.92    1.03
   3   4  -2    1.08    0.95
   3  -4  -2    1.99    1.20
  -3   4   2    0.40    1.34
   3   4  -2    1.74    1.18
   3  -4  -2    1.29    0.98
  -3  -4  -2    0.70    0.78
  -3  -4  -2    1.26    0.61
   3  -4   2    0.58    0.75
  -3   4  -2    0.18    0.84
  -3   4  -2    0.38    0.61
  -3   4  -2    1.84    0.84
  -3  -4   2   -0.05    1.48
  -4  -4  -2   62.02    0.92
   4  -4  -2   63.82    1.50
   4  -4  -2   63.70    1.34
  -4   4   2   66.12    1.64
  -4   4  -2   60.55    1.20
   4   4  -2   51.15    1.37
   4   4   2   65.78    1.45
  -4  -4   2   57.97    1.89
  -4   4  -2   56.92    0.88
  -4  -4  -2   54.48    1.09
  -4   4   2   53.74    2.11
   4  -4   2   64.22    0.89
  -4   4  -2   64.06    1.05
  -4  -4  -2   63.46    0.92
  -4  -4   2   57.17    1.45
  -5  -4   2   37.70    1.21
   5   4  -2   30.71    1.27
  -5   4  -2   39.03    0.94
  -5  -4   2   34.82    1.97
  -5  -4  -2   33.35    0.81
   5   4   2   43.71    1.57
  -5   4   2   32.60    2.19
  -5   4  -2   35.70    1.08
  -5  -4  -2   43.42    1.20
  -5   4  -2   35.02    0.80
   5  -4  -2   39.32    1.18
  -5  -4   2   34.08    1.44
   5  -4   2   41.22    0.80
   5  -4  -2   40.70    1.29
  -5   4   2   39.66    1.73
  -5  -4  -2   37.51    0.82
  -6  -4   2   44.24    1.20
   6   4  -2   32.57    1.66
   6   4   2   40.85    1.31
  -6  -4   2   39.96    1.73
  -6  -4  -2   43.22    0.86
  -6   4  -2   41.47    0.84
  -6   4   2   43.14    1.87
  -6  -4   2   38.56    1.52
  -6  -4  -2   42.96    1.08
   6  -4  -2   42.48    1.28
   6  -4   2   47.64    0.85
   6  -4  -2   48.58    1.31
  -6  -4  -2   40.89    0.85
  -6   4  -2   34.75    1.19
   7   4  -2    8.37    1.76
   7  -4   2   11.34    0.93
  -7  -4   2   11.59    1.47
  -7  -4   2   10.11    1.44
  -7   4  -2   13.99    0.78
   7   4   2    9.35    1.15
  -7   4   2   13.15    1.61
  -7   4  -2   10.13    1.37
   7  -4  -2   13.41    1.20
  -7  -4  -2   13.54    0.78
  -7  -4  -2   11.59    0.78
   7  -4   2   11.37    0.77
  -7  -4   2   12.25    1.06
  -7  -4  -2   15.08    0.98
   7  -4  -2   14.33    1.06
   8  -4  -2   16.78    1.28
   8   4   2   13.07    1.20
  -8  -4  -2   11.67    1.09
  -8   4   2   15.94    1.46
  -8  -4  -2   12.30    0.87
   8  -4   2   13.25    1.23
  -8   4  -2   13.96    0.87
  -8  -4   2   15.01    1.50
   8  -4  -2   15.40    1.35
  -8  -4   2   12.09    1.61
  -8   4  -2   10.33    1.26
  -8  -4  -2   13.51    0.86
  -8  -4   2   13.89    1.13
   8   4  -2   14.76    1.49
   8  -4   2   16.36    0.87
   9  -4  -2   21.75    1.38
  -9  -4   2   15.14    1.79
   9  -4   2   15.04    1.09
  -9  -4  -2   17.07    0.95
   9   4   2   11.48    1.47
  -9  -4   2   18.38    1.56
  -9   4   2   16.80    1.73
   9  -4  -2   18.79    1.38
  -9   4  -2   19.85    0.96
  -9   4  -2    8.57    1.67
   9   4  -2   18.30    1.47
  -9  -4   2   18.04    1.26
  -9  -4  -2   18.18    0.94
  -9  -4  -2   17.99    1.42
   9  -4   2   22.12    0.94
  10  -4   2   27.12    1.05
 -10  -4  -2   22.38    1.31
  10  -4  -2   26.41    1.58
  10  -4   2   13.57    1.12
 -10  -4  -2   22.35    1.01
 -10  -4   2   21.90    1.73
  10   4   2   13.97    1.54
 -10   4  -2   25.31    1.04
 -10   4   2   20.86    1.90
  10  -4  -2   24.05    1.45
 -10   4   2   13.69    2.47
 -10  -4   2   19.60    1.90
  10   4  -2   25.24    1.56
 -10  -4   2   21.72    1.43
 -10  -4  -2   27.70    1.03
 -10   4  -2   11.15    1.74
  -1  -5  -2   16.04    1.07
   1  -5  -2   20.48    1.71
  -1  -5  -2   23.74    0.89
   1  -5   2   17.58    1.08
  -1  -5  -2   18.74    0.81
   1  -5  -2   19.41    1.13
   1  -5  -2   19.00    1.62
   1   5  -2   16.56    1.39
  -1   5  -2   21.10    1.04
  -1   5  -2   20.94    0.94
  -1  -5  -2   20.69    1.03
   1  -5   2   16.67    0.75
  -1   5   2   19.06    1.00
  -1  -5   2   18.60    1.16
   1   5  -2   16.74    1.18
  -2  -5  -2   27.26    0.78
  -2   5  -2   23.66    1.06
  -2  -5  -2   27.43    0.80
  -2   5   2   29.72    1.29
  -2  -5   2   28.71    1.12
   2  -5  -2   28.74    1.90
   2  -5  -2   26.12    1.54
   2   5  -2   23.41    1.39
   2   5  -2   28.80    1.48
  -2   5  -2   25.58    0.76
  -2  -5  -2   33.30    1.14
   2  -5   2   29.26    0.77
   2   5   2   26.21    1.34
  -2   5  -2   28.39    0.90
  -3   5  -2    1.82    0.93
  -3  -5  -2    2.05    0.62
   3  -5  -2    2.91    1.25
  -3  -5   2    2.61    1.03
  -3   5   2    3.37    1.50
   3   5   2    2.50    1.34
  -3  -5  -2    3.25    0.64
   3   5  -2    4.24    1.08
  -3   5  -2    2.37    0.85
   3  -5  -2    3.92    1.13
   3   5  -2    1.71    1.16
  -3   5  -2    2.32    0.80
  -3  -5  -2    2.65    1.01
   3  -5   2    1.84    0.63
  -3   5   2    2.72    1.08
  -4  -5  -2   18.21    0.73
  -4   5  -2   18.76    0.86
  -4   5   2   15.26    1.43
  -4  -5  -2   15.76    0.72
   4   5  -2   16.43    0.90
   4   5  -2   13.65    1.12
  -4   5  -2   14.00    1.05
  -4  -5   2   16.63    1.45
  -4   5   2   18.95    1.34
  -4   5  -2   19.60    0.74
   4  -5  -2   17.82    0.95
  -4  -5  -2   16.50    0.90
   4  -5   2   21.37    0.88
   4   5   2   19.35    1.29
   4  -5  -2   17.29    1.29
  -4  -5   2   17.21    1.17
  -5  -5  -2   20.76    0.78
  -5   5  -2   20.54    1.03
  -5   5   2   21.32    1.61
   5   5  -2   15.40    1.10
  -5  -5   2   22.43    1.03
   5  -5  -2   19.13    0.97
   5   5   2   22.28    1.64
  -5  -5   2   17.45    1.71
  -5   5  -2   16.24    1.06
  -5   5  -2   18.19    0.75
  -5  -5  -2   20.83    0.95
   5  -5  -2   19.73    1.15
  -5  -5  -2   18.91    0.77
   5  -5   2   19.03    0.74
  -5  -5   2   20.48    1.26
  -5   5   2   18.37    1.80
   6   5  -2    9.76    1.12
  -6  -5   2   16.22    1.00
  -6  -5   2   11.98    1.70
  -6  -5  -2   12.97    0.78
  -6   5   2   13.04    1.89
  -6   5  -2   14.51    0.75
   6   5   2   12.47    1.24
  -6   5  -2   10.99    1.14
  -6   5  -2   14.18    0.85
   6  -5  -2   14.96    1.32
  -6  -5   2   14.91    1.64
  -6  -5  -2   13.81    0.99
   6  -5   2   16.34    0.75
  -6   5   2   13.07    1.59
   6  -5  -2   15.44    1.12
  -6  -5  -2   16.22    0.79
   7   5  -2    2.79    1.50
  -7  -5   2    0.77    1.01
  -7   5  -2    1.69    1.18
   7   5   2    1.21    1.20
  -7   5   2    0.56    1.42
  -7  -5  -2    1.85    0.76
  -7   5  -2    1.80    0.76
   7  -5  -2   -0.70    1.19
  -7  -5   2    1.87    1.62
  -7  -5   2    2.22    1.52
  -7   5   2    2.33    1.72
   7  -5   2   -0.15    0.75
  -7  -5  -2    1.64    1.22
   7  -5  -2   -0.13    1.13
  -7  -5  -2    0.15    0.96
  -8  -5  -2   15.08    0.92
   8  -5  -2   23.51    1.36
   8   5   2   16.87    1.28
  -8  -5   2   19.85    1.65
  -8   5   2   19.28    1.61
   8  -5  -2   22.01    1.33
  -8   5  -2   20.31    0.92
  -8   5  -2    9.68    1.35
  -8  -5   2   19.74    1.86
  -8   5   2   20.02    1.72
   8   5  -2   16.34    1.45
  -8  -5  -2   20.78    0.91
   8  -5   2   25.34    1.09
  -8  -5   2   21.56    1.22
  -8  -5  -2   20.80    1.14
  -9  -5  -2    4.54    1.14
   9  -5  -2    3.49    1.32
  -9   5  -2    1.80    1.34
   9  -5   2    3.06    1.02
  -9  -5  -2    2.34    0.91
   9   5   2    3.46    1.24
   9  -5  -2    6.28    1.28
  -9   5  -2    2.64    0.92
  -9  -5   2    5.50    1.83
  -9   5   2    3.06    2.04
   9   5  -2    4.32    1.59
  -9   5   2    3.94    1.78
  -9  -5  -2    4.29    0.93
  -9  -5   2    3.58    1.18
  -9  -5   2    3.57    1.62
   9  -5   2    6.20    0.90
  10  -5   2    4.78    0.98
 -10  -5  -2    1.60    1.49
  10  -5  -2    1.95    1.23
  10  -5   2    2.33    1.06
 -10  -5   2    3.54    1.69
  10   5   2    1.98    1.30
 -10   5   2    3.87    1.70
  10  -5  -2    2.68    1.09
 -10   5  -2    3.56    1.00
  10   5  -2    1.02    1.97
 -10  -5   2    1.75    1.29
 -10  -5  -2    2.06    1.19
 -10   5  -2   -0.95    1.45
 -10  -5  -2    1.66    0.99
 -10  -5   2    5.34    1.71
   0   6  -2   92.28    1.53
   0  -6  -2   79.54    2.18
   0   6   2   82.67    1.23
   0  -6   2   79.50    1.22
   0  -6  -2   99.83    1.97
   0  -6   2   82.93    1.46
   0  -6  -2   97.60    1.67
   0   6  -2   73.38    1.29
   1  -6  -2    1.43    1.17
  -1   6  -2    0.41    0.86
  -1  -6  -2    1.41    0.80
  -1   6   2    1.42    1.01
   1   6  -2    1.70    1.17
   1  -6  -2    1.60    1.05
  -1   6  -2    0.26    0.72
  -1  -6   2    1.77    0.90
   1  -6   2    1.66    0.71
  -1  -6  -2    0.75    1.08
  -1  -6  -2    1.77    0.95
   1  -6   2    1.64    1.00
   1   6  -2    1.55    1.11
  -1  -6   2    2.34    0.87
   1  -6  -2    1.31    1.80
  -2  -6  -2   -0.14    0.68
  -2   6  -2    0.75    0.97
  -2   6  -2   -0.07    0.65
   2   6   2    1.29    1.27
  -2   6   2    1.33    1.23
  -2  -6  -2    1.30    0.71
   2   6  -2    0.02    0.96
   2  -6  -2    0.52    1.18
  -2  -6   2    1.48    0.88
   2  -6  -2    0.50    1.30
   2   6  -2    1.52    1.44
   2  -6  -2    0.58    1.58
   2  -6   2    0.58    0.66
  -2  -6  -2    0.84    0.95
  -2   6  -2    0.60    0.78
   3   6   2   13.61    1.51
  -3   6   2   18.40    1.33
  -3  -6  -2   20.31    0.89
  -3   6  -2   19.36    1.00
  -3  -6  -2   14.65    0.77
  -3  -6   2   15.80    0.99
  -3   6   2   11.93    1.42
   3   6  -2   15.79    1.18
  -3   6  -2   13.45    1.09
   3   6  -2   15.99    1.11
  -3   6  -2   17.58    0.76
   3  -6  -2   17.17    1.20
   3  -6   2   16.71    0.75
  -3  -6  -2   16.39    0.91
   3  -6  -2   17.08    1.55
  -4   6   2   56.67    1.74
  -4  -6   2   43.89    1.18
  -4  -6  -2   56.60    0.91
  -4   6   2   50.21    1.56
  -4   6  -2   53.06    1.01
   4   6  -2   46.30    1.15
   4   6  -2   50.86    1.34
   4   6   2   41.00    1.50
  -4   6  -2   41.77    1.25
  -4  -6  -2   52.56    0.91
   4  -6  -2   54.28    1.81
  -4   6  -2   52.40    0.90
   4  -6  -2   51.67    1.22
   4  -6   2   48.40    0.88
  -4  -6  -2   57.55    1.27
  -5  -6  -2   35.00    0.85
   5   6  -2   27.59    1.07
  -5   6  -2   31.37    1.06
  -5  -6   2   33.65    1.16
  -5  -6  -2   33.80    0.99
   5   6   2   25.95    1.43
  -5   6   2   32.08    1.51
  -5   6   2   31.07    1.68
  -5   6  -2   24.90    1.20
  -5   6  -2   32.81    0.84
   5  -6  -2   32.03    1.42
   5  -6  -2   33.92    1.09
   5  -6   2   36.80    0.84
  -5  -6  -2   32.01    1.01
  -5  -6   2   30.91    1.23
  -6  -6  -2    2.43    0.77
   6   6  -2    0.44    1.01
  -6   6   2    1.42    1.35
  -6   6  -2    1.68    0.75
  -6  -6   2    0.48    0.79
  -6   6   2    1.33    1.67
  -6  -6   2   -0.31    1.31
   6   6   2    1.07    1.49
   6  -6  -2    0.62    1.06
  -6  -6  -2    0.37    0.77
   6  -6  -2    1.64    0.92
  -6   6  -2    2.02    1.01
   6  -6   2    1.19    0.91
  -6  -6   2    0.16    1.22
  -6  -6  -2    1.50    0.97
  -6   6  -2    1.16    1.12
  -7  -6   2   21.86    1.16
   7  -6   2   27.75    1.05
  -7  -6  -2   24.09    0.92
   7   6   2   16.72    1.30
  -7   6  -2   22.25    1.14
  -7   6   2   17.59    1.94
  -7  -6   2   19.16    1.77
   7  -6  -2   22.90    1.27
  -7   6  -2   20.47    0.90
  -7   6  -2   10.68    1.31
  -7  -6   2   22.24    1.40
   7  -6  -2   23.76    1.28
  -7   6   2   20.49    1.72
  -7  -6  -2   23.71    1.11
  -7  -6  -2   23.92    0.92
   7   6  -2   19.45    1.21
  -8  -6  -2    7.44    1.14
  -8   6  -2    4.22    1.11
  -8  -6   2    7.06    1.68
  -8   6   2    6.74    1.65
  -8  -6  -2    8.20    0.90
   8   6   2    4.20    1.29
   8  -6  -2    7.03    1.21
  -8   6  -2    6.70    0.90
  -8   6  -2    2.28    1.29
  -8  -6   2    8.28    1.44
  -8   6   2    8.62    1.79
   8   6  -2    5.71    1.29
   8  -6   2    7.47    0.88
  -8  -6  -2    8.86    1.15
   8  -6  -2    7.96    1.17
  -8  -6   2    7.14    1.16
   9  -6  -2   32.56    1.40
  -9  -6  -2   32.36    1.31
  -9   6  -2    7.56    1.01
  -9  -6  -2   30.46    1.06
  -9  -6   2   24.64    1.81
   9   6   2   11.96    1.36
  -9   6   2   24.39    1.83
   9  -6  -2   29.14    1.40
  -9   6  -2   29.93    1.05
  -9  -6   2   24.36    1.95
  -9   6  -2   11.47    1.45
   9   6  -2   22.05    1.45
  -9   6   2   24.58    2.11
  -9  -6  -2   32.37    1.08
  -9  -6   2   28.24    1.39
   9  -6   2   36.22    1.07
   1  -7  -2    4.71    0.98
  -1   7  -2    6.37    1.08
   1   7  -2    4.02    1.03
  -1   7   2    6.17    0.97
  -1  -7   2    3.47    1.01
  -1   7  -2    5.52    0.82
   1  -7   2    3.92    0.78
  -1  -7  -2    2.95    1.13
   1   7  -2    5.10    1.42
   1  -7  -2    4.56    2.99
   1  -7   2    3.08    1.01
  -1  -7  -2    4.27    0.98
  -1  -7  -2    6.44    1.07
  -1  -7   2    4.40    0.89
   1  -7  -2    4.81    1.86
  -2   7   2   25.01    1.54
  -2  -7  -2   27.74    0.85
   2  -7   2   31.30    0.87
  -2   7  -2   26.24    1.18
  -2   7  -2   29.31    0.95
   2   7   2   19.03    1.50
  -2  -7  -2   27.96    0.89
   2   7  -2   30.57    1.25
   2   7  -2   30.80    1.30
  -2   7  -2   29.09    0.86
  -2  -7   2   31.38    1.19
   2  -7  -2   28.88    1.16
  -2  -7   2   24.16    1.33
  -2  -7  -2   28.57    1.13
  -3  -7  -2    0.79    0.69
   3   7  -2   -0.01    0.97
  -3  -7   2    0.05    0.90
   3   7  -2   -0.77    1.35
  -3  -7  -2    1.87    0.87
  -3   7  -2   -0.45    0.70
  -3   7  -2    0.11    1.27
   3  -7  -2    0.63    1.20
  -3  -7   2   -0.02    0.96
   3  -7   2    0.72    0.71
  -3   7   2    0.30    1.26
  -3   7  -2   -0.38    0.78
   3   7   2    0.36    1.46
  -3  -7  -2   -0.49    0.80
  -4  -7   2   10.96    1.03
  -4  -7  -2   13.44    0.78
  -4   7  -2   11.37    0.84
   4   7  -2   11.42    1.00
   4   7  -2   12.76    1.22
  -4   7   2   12.17    1.26
   4   7   2    6.52    1.34
   4  -7  -2   12.93    1.89
   4  -7  -2   12.57    1.06
  -4  -7  -2   10.74    0.77
  -4   7  -2    7.07    1.09
   4  -7   2   11.90    0.79
  -4   7  -2   11.07    0.76
  -4  -7  -2   13.94    1.06
  -4   7   2   12.94    1.66
  -5  -7  -2    7.74    0.79
   5   7   2    1.89    1.64
   5   7  -2    5.85    0.93
   5  -7  -2    7.31    1.41
  -5  -7  -2    5.89    0.79
  -5   7   2    6.06    1.35
  -5   7  -2    6.35    0.77
  -5   7  -2    7.86    1.02
   5  -7  -2    7.06    0.98
   5  -7   2    6.99    0.79
  -5   7  -2    3.67    1.13
  -5   7   2    7.31    1.54
  -5  -7  -2    6.26    0.88
  -5  -7   2    6.63    1.07
  -6  -7  -2   16.66    0.86
   6   7  -2    9.69    1.00
  -6   7  -2   14.22    1.09
  -6  -7   2   12.48    0.95
  -6  -7  -2   15.52    0.82
  -6   7   2   11.40    1.62
   6   7   2    9.26    1.30
   6  -7  -2   13.36    1.32
  -6   7  -2   17.79    1.00
  -6   7  -2    7.49    1.26
  -6   7   2   13.64    1.64
   6  -7  -2   13.71    1.04
   6  -7   2   17.04    0.99
  -6  -7   2   14.59    1.20
  -6  -7  -2   14.28    1.02
  -7  -7  -2    1.48    1.03
  -7  -7   2    0.87    1.07
  -7   7   2    1.30    1.66
  -7   7  -2    0.06    0.85
   7   7   2   -0.41    1.29
  -7   7   2    2.38    1.80
  -7  -7  -2    1.72    0.85
  -7   7  -2    0.19    0.88
   7  -7  -2    0.45    1.29
  -7   7  -2   -0.57    1.25
   7  -7  -2    0.58    1.07
  -7  -7   2    0.73    1.26
   7  -7   2    0.28    0.84
   7   7  -2    0.70    1.04
  -7  -7  -2   -0.46    0.84
  -8  -7   2   13.62    1.08
  -8  -7  -2   16.81    1.44
  -8  -7   2   12.11    1.84
  -8   7   2   12.81    1.87
   8  -7  -2   15.04    1.29
  -8  -7  -2   13.25    1.01
   8   7   2    5.78    1.31
  -8   7  -2   17.45    0.99
  -8   7  -2    6.95    1.38
  -8  -7   2   15.11    1.45
  -8   7  -2   12.55    0.99
   8  -7   2   17.13    1.16
   8   7  -2    9.51    1.20
   8  -7  -2   16.16    1.25
  -8  -7  -2   18.26    1.00
  -8   7   2   12.55    1.68
  -9  -7  -2    1.38    1.18
  -9   7  -2    1.78    1.00
  -9   7  -2    1.89    1.15
  -9   7   2    1.67    1.83
   9   7   2    0.93    1.31
  -9  -7   2    2.72    1.83
   9  -7  -2    2.20    1.47
  -9  -7  -2    2.80    1.01
  -9   7  -2    0.92    1.30
  -9  -7   2    3.19    1.48
   9   7  -2    2.84    1.23
   9  -7   2    3.54    1.00
  -9  -7  -2    2.52    1.01
  -9   7   2    2.95    2.07
  -9  -7   2    2.32    1.03
   9  -7  -2    2.71    1.27
   0  -8  -2   43.84    2.03
   0   8  -2   42.48    1.32
   0  -8  -2   38.67    1.36
   0  -8   2   43.15    1.18
   0  -8   2   53.28    1.23
   0   8   2   44.97    1.16
   0   8  -2   42.17    1.29
   0  -8  -2   48.99    2.25
   1  -8   2    4.68    1.14
  -1  -8   2    2.34    1.00
  -1   8  -2    5.67    1.14
  -1  -8  -2    4.03    1.17
  -1  -8  -2    1.64    1.13
   1   8   2    5.84    1.05
  -1   8   2    3.10    1.08
  -1   8  -2    3.70    0.91
   1  -8  -2    3.81    0.89
  -1  -8   2    2.72    1.03
   1   8  -2    3.67    1.19
   1   8  -2    5.37    1.15
   1  -8   2    3.91    0.86
  -1  -8  -2    3.68    0.97
  -2  -8  -2    6.38    1.02
  -2  -8  -2    6.99    0.96
  -2   8  -2    6.29    1.25
   2   8   2    4.46    1.29
  -2  -8   2    6.15    1.05
   2   8  -2    5.73    1.10
  -2  -8  -2    6.50    0.87
   2   8  -2    5.83    1.07
  -2   8  -2    8.48    1.00
   2  -8  -2    7.89    1.14
  -2  -8   2    4.94    1.02
  -2   8  -2    7.49    0.89
   2  -8   2    6.38    0.85
  -2   8   2    5.67    1.23
  -3  -8  -2    3.18    1.01
  -3  -8  -2    3.79    0.78
   3   8  -2    3.37    0.99
   3   8  -2    3.18    1.20
  -3  -8   2    2.17    0.92
   3   8   2    3.65    1.43
  -3  -8   2    3.38    0.86
  -3   8   2    2.62    1.14
  -3  -8  -2    4.56    0.79
  -3   8  -2    3.72    1.01
   3  -8  -2    1.31    1.24
   3  -8   2    3.96    0.77
  -3   8  -2    3.75    0.77
  -3   8  -2    2.15    1.05
  -4  -8  -2   34.02    1.21
  -4  -8  -2   31.82    0.91
  -4  -8   2   30.96    1.03
   4   8  -2   27.28    1.02
  -4  -8  -2   30.92    0.91
  -4   8   2   29.45    1.11
   4   8   2   23.74    1.32
  -4   8  -2   27.90    0.87
   4  -8  -2   29.84    1.08
  -4  -8   2   27.16    1.06
   4   8  -2   31.20    1.41
   4  -8   2   39.29    0.92
  -4   8  -2   36.28    1.16
  -4   8  -2   23.04    1.28
  -5  -8  -2   17.18    1.01
  -5  -8   2   15.61    1.11
  -5  -8  -2   18.31    0.90
   5   8  -2   15.43    1.02
  -5   8   2   16.04    1.14
  -5   8  -2   20.93    0.95
   5   8  -2   21.06    1.04
   5   8   2    6.29    1.61
  -5  -8   2   20.81    1.27
  -5   8  -2   12.70    1.22
  -5   8  -2   22.28    1.05
  -5  -8  -2   21.95    0.88
   5  -8  -2   18.78    1.16
   5  -8   2   20.93    0.86
   6   8  -2   23.95    1.10
  -6  -8  -2   28.55    0.94
  -6  -8  -2   22.99    1.11
  -6   8   2   26.08    2.01
  -6  -8   2   24.84    1.29
  -6  -8  -2   25.25    0.95
  -6   8   2   24.43    1.31
   6   8   2   13.51    1.50
  -6   8  -2   26.53    0.95
  -6   8  -2   13.65    1.28
  -6   8  -2   27.80    1.20
   6  -8  -2   27.17    2.02
   6  -8  -2   27.00    1.22
   6  -8   2   29.64    0.95
  -6  -8   2   24.90    1.23
  -7  -8  -2   11.19    0.95
  -7  -8  -2   10.29    1.08
  -7  -8   2    9.69    1.20
  -7   8   2    9.49    1.67
   7  -8  -2   11.01    1.65
   7   8   2    4.99    1.17
  -7   8   2    9.44    1.71
  -7   8  -2   11.42    0.97
  -7   8  -2    8.48    1.49
   7  -8  -2   11.92    1.18
   7  -8   2   15.33    0.95
  -7   8  -2    9.90    1.19
  -7  -8   2    8.56    1.23
  -7  -8  -2    8.95    0.94
   7   8  -2    8.02    1.06
  -8  -8   2    8.41    1.25
  -8   8  -2    6.13    0.97
  -8  -8  -2    8.57    1.17
   8  -8  -2    6.91    1.51
  -8  -8  -2    8.55    1.25
   8   8   2    3.06    1.19
  -8   8   2    5.73    1.87
  -8   8   2    6.13    1.92
  -8   8  -2    8.49    0.99
  -8   8  -2    2.60    1.43
   8  -8   2    8.77    0.97
   8  -8  -2    7.43    1.22
  -8  -8   2    6.61    1.32
   8   8  -2    7.79    1.08
  -8  -8  -2    6.98    1.23
  -9   8   2    8.53    1.91
  -9  -8  -2    7.62    1.29
  -9  -8  -2   11.80    1.12
  -9   8  -2    8.89    1.27
   9  -8  -2    9.64    1.62
  -9   8  -2   16.37    1.12
  -9   8   2   10.08    2.00
  -9  -8   2    5.60    1.56
   9   8   2    2.96    1.21
  -9   8  -2    5.44    1.49
   9   8  -2    6.56    1.19
  -9  -8   2   11.05    1.43
   9  -8   2   14.39    1.12
   9  -8  -2   11.75    1.61
  -9  -8  -2   14.43    1.12
  -9  -8   2    9.79    1.38
  -1  -9   2   17.36    1.04
  -1  -9  -2   16.36    1.49
  -1   9   2   12.18    1.08
   1   9   2   16.96    1.05
   1  -9   2   16.34    0.97
  -1  -9  -2   16.76    1.13
   1   9  -2   16.05    0.94
   1  -9  -2   16.82    1.08
   1   9  -2   18.80    1.43
   1  -9   2   17.86    1.02
  -1  -9   2   12.42    1.11
  -1  -9  -2   12.50    1.41
  -1   9  -2   15.39    1.07
  -1   9  -2   16.26    1.25
  -2   9  -2   81.11    1.50
  -2  -9  -2   76.96    1.64
  -2   9  -2   77.53    1.18
  -2   9  -2   71.90    1.49
   2   9  -2   70.04    1.18
   2   9   2   60.08    1.76
   2   9  -2   81.68    1.51
   2  -9  -2   66.04    1.20
  -2  -9   2   75.86    1.41
  -2   9   2   58.71    1.23
   2  -9   2   80.83    1.19
  -2  -9   2   82.55    1.31
  -2  -9  -2   79.03    1.24
  -3  -9  -2    1.44    1.06
  -3  -9   2    1.74    1.05
  -3  -9  -2    1.48    0.86
   3   9  -2    3.71    0.90
   3   9   2    1.09    1.27
  -3   9  -2    2.09    0.89
   3   9  -2    1.37    0.92
  -3  -9   2    1.35    0.86
  -3  -9  -2    1.30    1.03
   3  -9  -2    2.06    1.27
  -3   9   2    1.76    0.93
   3  -9   2    1.84    0.85
  -3   9  -2    1.54    0.85
   4  -9  -2   -0.62    1.02
  -4  -9  -2    0.12    0.91
  -4  -9  -2    1.40    0.88
   4   9  -2    1.11    0.89
   4   9  -2   -0.28    1.14
  -4   9  -2    1.51    0.80
  -4   9   2    0.30    0.93
  -4  -9  -2   -0.73    0.86
   4   9   2    0.47    1.31
  -4   9  -2    0.50    1.06
  -4  -9   2    0.47    0.91
   4  -9   2    1.01    0.79
  -4  -9   2   -0.93    0.89
  -5  -9   2   17.88    1.06
   5   9  -2   14.95    1.01
  -5  -9  -2   19.45    0.98
  -5  -9  -2   19.89    1.27
  -5  -9  -2   17.66    0.96
  -5  -9   2   14.55    1.00
   5   9  -2   16.56    1.36
  -5   9  -2   18.62    0.94
   5   9   2   14.67    1.21
  -5   9   2   17.11    1.29
   5  -9  -2   18.91    1.21
   5  -9   2   21.83    0.97
  -5   9  -2   18.24    1.03
  -6  -9   2   23.15    1.19
   6   9  -2   14.92    1.04
  -6  -9  -2   23.84    1.05
  -6  -9  -2   26.55    1.36
  -6   9  -2   22.76    1.26
  -6  -9   2   20.50    1.35
  -6  -9  -2   23.42    1.03
  -6   9   2   21.92    1.24
   6   9   2   17.09    1.16
  -6   9  -2   25.64    1.00
   6  -9  -2   23.46    1.27
   6  -9   2   23.98    1.01
  -6  -9   2   20.72    1.35
  -7  -9  -2    3.53    0.99
  -7  -9   2    1.58    1.22
  -7  -9  -2    2.47    1.09
  -7  -9  -2    2.00    1.16
  -7   9   2    2.07    1.48
  -7   9  -2    1.96    1.21
  -7  -9   2    1.26    1.12
  -7   9  -2    4.15    1.18
   7   9   2    2.20    1.30
   7  -9  -2    3.04    0.97
   7  -9   2    4.04    0.98
  -7  -9   2    4.33    1.19
   7   9  -2    1.41    0.98
  -8  -9  -2    2.21    1.28
  -8  -9   2    0.08    1.25
  -8  -9  -2    1.56    1.17
  -8  -9  -2    0.56    1.05
   8   9   2    0.10    1.08
  -8   9   2    0.18    1.62
  -8   9  -2    0.88    1.24
  -8   9  -2   -0.17    1.02
  -8   9  -2    0.05    1.10
  -8   9   2    0.71    2.15
   8  -9  -2    1.29    1.27
   8  -9   2    1.06    1.01
   8   9  -2    1.03    1.06
  -8  -9   2   -0.61    1.22
   8  -9  -2    0.28    1.95
   0  10  -2    4.97    0.98
   0  10   2    5.06    1.09
   0 -10  -2    7.36    1.11
   0  10  -2    6.39    1.51
   0 -10   2    4.98    1.06
   0 -10   2    7.67    0.81
   1 -10   2   16.68    1.15
   1  10  -2   18.24    0.93
  -1  10   2   14.75    1.05
  -1  10  -2   17.10    1.17
  -1 -10  -2   16.87    1.17
   1  10  -2   13.82    1.14
   1 -10  -2   21.23    0.94
  -1 -10  -2   16.86    2.00
  -1 -10   2   16.45    1.01
   1 -10   2   16.43    1.30
   1  10   2   18.89    1.36
  -1 -10   2   19.84    1.02
  -1  10  -2   14.55    1.18
  -1 -10  -2   16.49    1.75
   2  10   2    1.93    1.29
  -2  10   2    1.88    0.94
  -2 -10  -2    2.66    1.34
  -2  10  -2    1.00    1.01
   2  10  -2    2.43    1.19
   2  10  -2    3.67    0.84
  -2 -10  -2    2.75    1.31
   2 -10  -2    1.14    0.86
  -2 -10   2    2.24    1.08
   2 -10   2    3.40    1.03
  -2 -10   2    2.39    0.82
  -2  10  -2    2.74    1.25
  -3  10  -2    8.87    1.04
  -3 -10  -2   12.86    1.00
   3  10  -2   10.63    0.95
   3  10  -2   10.79    1.14
  -3  10   2   10.46    0.95
   3  10   2    9.38    1.22
  -3 -10  -2   12.84    1.00
  -3  10  -2    9.20    0.95
  -3 -10   2   12.75    1.09
  -3 -10   2    8.22    0.91
   3 -10   2   13.51    0.94
   3 -10  -2   11.28    1.08
  -3 -10  -2   10.35    1.21
   4 -10  -2    1.87    1.31
  -4 -10  -2    4.56    0.96
   4  10  -2    4.98    1.11
   4  10  -2    1.51    1.08
  -4 -10  -2    5.09    1.20
  -4 -10   2    4.80    1.12
  -4  10   2    5.06    1.15
   4  10   2    3.91    1.22
  -4  10  -2    4.41    1.18
  -4 -10  -2    5.46    0.97
  -4  10  -2    5.91    1.13
  -4 -10   2    6.77    1.10
   4 -10   2    5.18    0.94
   5  10  -2   11.09    0.94
  -5 -10  -2   15.36    1.02
  -5 -10  -2   10.72    1.04
  -5 -10   2   10.68    1.22
   5  10  -2    9.30    1.21
  -5  10   2   12.14    1.02
  -5 -10  -2   11.69    1.00
   5  10   2    7.37    1.10
  -5 -10   2   10.86    0.97
  -5  10  -2   13.46    0.98
  -5  10  -2   10.66    1.02
   5 -10  -2   10.88    1.30
   5 -10   2   13.80    0.99
   6  10  -2    4.35    0.95
  -6 -10  -2    5.56    1.21
  -6 -10   2    5.88    1.27
  -6 -10  -2    4.61    1.28
  -6 -10   2    2.17    1.09
  -6 -10  -2    4.71    0.97
  -6  10   2    3.01    1.27
   6  10   2    3.23    1.24
  -6 -10   2    4.05    0.99
  -6  10  -2    4.59    0.97
   6 -10  -2    2.86    1.24
  -6  10  -2    3.61    1.23
   6 -10   2    4.50    0.97
  -7  10  -2    0.69    1.26
  -7 -10  -2    0.31    1.05
  -7 -10   2    1.95    1.33
  -7 -10   2    1.43    1.06
  -7  10   2    0.61    1.38
  -7 -10  -2    2.78    1.38
  -7 -10  -2    0.87    1.06
   7  10   2    0.66    1.00
  -7 -10   2    2.07    1.04
  -7  10  -2    0.45    1.04
   7 -10  -2   -0.49    1.27
   7 -10   2   -1.73    1.04
   7  10  -2   -0.10    1.17
  -1 -11  -2    4.34    2.36
   1  11   2    5.77    1.14
   1  11  -2    3.61    1.04
  -1 -11   2    5.27    0.79
  -1  11  -2    4.74    1.08
  -1  11   2    5.25    1.16
  -1 -11  -2    4.55    1.28
   1 -11  -2    3.62    1.05
  -1 -11   2    3.05    1.11
  -1  11  -2    3.82    1.20
   1 -11   2    4.62    1.33
   1  11  -2    6.02    1.06
  -1 -11  -2    4.02    2.06
   1 -11   2    0.60    1.04
   2  11  -2   10.61    0.99
  -2  11   2   12.58    0.95
   2  11  -2   10.04    0.91
   2 -11  -2   11.18    0.90
  -2 -11  -2    7.98    1.18
  -2  11  -2   11.27    1.44
  -2 -11  -2   12.05    1.84
  -2 -11   2   11.25    0.91
   2 -11   2   10.38    1.40
  -2  11  -2   12.10    1.45
  -2 -11   2   12.29    1.07
  -3 -11  -2   -0.17    1.07
   3  11  -2   -0.44    1.13
   3  11   2    0.16    1.30
  -3 -11  -2    0.74    1.29
  -3  11   2    0.46    1.10
   3 -11  -2    0.45    0.99
  -3 -11   2    0.20    0.86
  -3 -11   2    0.45    1.06
   3 -11   2    1.24    1.00
  -3  11  -2    0.04    0.99
   3  11  -2   -0.12    1.11
  -3 -11  -2    2.51    1.06
  -3  11  -2    0.52    1.31
   4  11  -2    6.95    0.91
  -4 -11  -2    8.51    1.11
  -4  11  -2    5.81    1.31
   4  11  -2    3.58    1.04
  -4 -11  -2    6.08    1.31
  -4  11   2    6.34    1.13
   4  11   2    5.43    1.20
  -4 -11  -2    6.35    1.07
  -4 -11   2    7.45    0.91
  -4  11  -2    3.23    1.18
  -4  11  -2    6.43    1.05
  -4 -11   2    6.30    0.89
   4 -11  -2    6.07    1.35
   4 -11   2    6.12    1.02
   5  11  -2    6.37    0.93
  -5 -11  -2    6.13    1.07
  -5 -11   2    5.74    0.98
  -5  11  -2    6.57    1.28
  -5  11   2    6.78    1.18
   5  11   2    4.37    1.26
  -5  11  -2    7.52    1.06
  -5 -11   2    5.00    1.14
  -5  11  -2    2.70    1.21
  -5 -11  -2    5.89    1.09
  -5 -11  -2    6.67    1.30
   5 -11  -2    4.32    1.13
   5 -11   2    5.75    1.03
   5  11  -2    4.41    1.19
  -6 -11  -2    5.43    1.10
  -6 -11   2    5.89    1.03
  -6 -11   2    3.99    1.15
  -6 -11  -2    5.78    1.39
   6  11   2    3.00    0.96
  -6  11  -2    3.97    1.21
  -6  11  -2    2.98    1.06
  -6 -11   2    2.73    1.21
  -6  11  -2    5.07    1.30
   6 -11  -2    4.62    1.34
  -6 -11  -2    4.59    1.31
   6 -11   2    5.51    1.07
  -6  11   2    4.72    1.21
   6  11  -2    5.57    1.14
  -7 -11  -2    2.05    1.13
  -7 -11   2    2.60    1.10
  -7 -11   2    0.05    1.39
  -7 -11  -2    1.40    1.12
  -7  11   2    1.41    1.29
   7  11   2    0.92    1.20
  -7 -11   2    2.43    1.25
  -7  11  -2    1.20    1.12
  -7  11  -2    1.10    1.34
  -7  11  -2    0.48    1.21
  -7 -11  -2    1.12    1.18
   7 -11  -2    1.34    1.11
   7 -11   2    0.76    1.11
   7  11  -2    1.12    0.96
   0  12   2   56.68    1.18
   0  12  -2   62.30    1.15
   0  12  -2   52.27    1.30
   0 -12  -2   57.00    1.31
   0 -12   2   52.55    1.28
   0 -12   2   56.83    1.17
   1  12  -2   21.75    0.96
  -1  12  -2   18.69    1.09
  -1 -12  -2   18.48    1.03
   1 -12  -2   15.93    0.93
  -1  12  -2   18.57    1.53
  -1 -12   2   17.07    0.93
   1  12  -2   16.47    1.07
   1 -12   2   14.20    1.07
  -1 -12   2   17.64    1.06
  -1  12   2   20.53    1.21
   1  12   2   14.83    1.10
  -2  12   2   -0.06    0.91
  -2 -12   2    0.81    1.00
   2  12  -2   -0.19    1.16
  -2  12  -2    0.54    1.11
   2  12  -2    0.22    0.86
  -2  12  -2    0.40    1.16
  -2 -12  -2    0.60    1.11
  -2 -12   2    1.56    0.84
   2 -12  -2    1.61    1.02
   2 -12   2    1.58    1.36
  -2  12  -2    0.23    1.49
  -2 -12  -2   -0.19    2.01
   3  12  -2   19.28    1.18
  -3 -12  -2   17.25    1.26
   3  12   2   10.36    1.39
   3  12  -2   13.89    0.99
  -3  12   2   18.03    1.18
  -3  12  -2   11.16    1.21
  -3  12  -2   16.01    1.20
  -3 -12  -2   15.85    1.26
  -3 -12   2   15.24    0.91
  -3 -12  -2   14.67    1.76
   3 -12  -2   13.53    1.03
   3 -12   2   12.22    1.16
  -3 -12   2   14.47    0.95
  -3  12  -2   15.45    1.53
   4  12  -2   36.15    1.21
  -4 -12  -2   31.29    1.31
   4  12  -2   25.31    1.09
  -4  12   2   29.82    1.02
  -4 -12  -2   33.72    1.30
  -4  12  -2   30.12    1.26
   4  12   2   20.95    1.51
  -4 -12  -2   30.24    1.80
  -4  12  -2   20.76    1.29
  -4 -12   2   28.91    0.99
  -4 -12   2   35.27    1.06
   4 -12  -2   24.67    1.21
   4 -12   2   34.24    1.23
  -4  12  -2   33.13    1.62
   5  12  -2    4.33    0.93
  -5 -12  -2    7.16    1.17
  -5  12  -2    4.16    1.41
   5  12  -2    3.30    1.12
   5  12   2    4.04    1.21
  -5 -12   2    4.77    0.98
  -5 -12  -2    5.48    1.42
  -5 -12  -2    3.98    1.43
  -5  12  -2    4.74    1.13
  -5 -12   2    5.30    1.11
  -5  12  -2    4.27    1.17
   5 -12  -2    3.02    1.38
  -5  12   2    5.49    1.17
   5 -12   2    2.85    1.15
  -6 -12  -2    1.94    1.15
  -6 -12   2    0.04    1.16
  -6  12  -2    1.00    1.41
  -6 -12   2    0.85    1.00
  -6  12   2    1.23    0.98
   6  12   2    0.81    1.18
  -6 -12  -2    1.94    1.49
  -6 -12  -2    2.79    1.16
  -6  12  -2    1.14    1.16
  -6 -12   2    0.27    0.98
  -6  12  -2    0.78    1.18
   6 -12  -2   -0.76    1.44
   6 -12   2    1.88    1.14
   6  12  -2    2.17    1.15
   1 -13  -2   -0.81    0.83
  -1  13  -2    1.18    1.05
   1  13  -2    0.56    1.14
  -1  13   2    0.73    1.10
   1  13  -2    2.18    0.88
  -1  13  -2    0.89    0.97
  -1  13  -2    1.22    1.29
  -1 -13  -2   -0.29    0.91
  -1 -13   2    2.29    1.07
   1 -13   2    2.23    0.96
   1  13   2    1.23    0.98
  -1 -13   2    1.05    0.95
  -2 -13  -2    4.86    1.80
  -2 -13   2    5.57    1.01
   2  13  -2    6.72    0.93
  -2 -13  -2    6.69    2.02
  -2  13  -2    3.77    1.13
   2  13  -2    6.39    0.88
  -2  13   2    6.43    1.11
  -2  13  -2    6.32    1.11
  -2 -13  -2    8.68    1.03
  -2  13  -2    8.73    1.54
   2 -13  -2    7.82    1.09
  -2 -13   2    7.78    1.07
   2 -13   2    8.03    1.10
   3  13  -2    1.05    0.88
  -3 -13  -2    0.00    1.18
   3  13   2    0.26    1.39
   3  13  -2    1.10    0.88
  -3  13  -2   -0.22    1.10
  -3  13   2    1.37    0.85
  -3  13  -2    0.62    1.25
  -3 -13   2    1.65    0.86
   3 -13  -2    1.24    1.10
  -3  13  -2    0.96    1.53
   3 -13   2    0.83    1.16
  -3 -13  -2    1.06    1.16
  -3 -13  -2    0.88    1.90
  -3 -13   2    0.34    1.02
   4  13  -2    2.10    1.09
  -4 -13  -2    2.35    1.28
   4  13  -2    1.73    1.15
   4  13   2    1.43    1.30
  -4  13   2    1.11    0.92
  -4 -13  -2    3.49    1.26
  -4  13  -2    1.34    1.30
  -4 -13   2    2.54    1.07
  -4 -13  -2    0.85    1.57
   4 -13  -2    3.55    1.26
  -4 -13   2    2.86    0.91
   4 -13   2    3.50    1.25
  -4  13  -2    2.36    1.23
  -4  13  -2    3.73    1.77
  -5 -13  -2    2.00    1.28
  -5 -13  -2    1.41    1.22
   0  14  -2    0.89    0.90
   0 -14  -2    0.77    0.87
   0  14  -2    1.94    1.18
   0 -14   2    2.29    0.89
   0  14   2    2.20    1.15
   0 -14   2    1.01    1.01
   1  14  -2    6.91    1.17
   1  14   2    6.49    0.99
  -1  14  -2    4.74    1.29
  -1 -14   2    4.97    1.03
  -1  14  -2    6.68    1.32
   1  14  -2    6.91    0.90
  -1  14  -2    5.33    0.98
  -1 -14  -2    6.18    0.94
   1 -14  -2    6.47    0.88
  -1  14   2    6.35    1.11
  -1 -14   2    6.11    0.89
   1 -14   2    7.09    0.98
   2  14  -2    0.02    0.95
  -2  14   2   -0.68    0.89
   2  14  -2   -0.02    0.86
  -2  14  -2    0.90    1.10
  -2  14  -2    0.92    1.27
  -2  14  -2    0.17    1.38
  -2 -14  -2   -0.81    1.20
   2 -14  -2   -0.28    0.86
  -2 -14   2    1.16    0.86
  -2 -14   2    1.47    0.99
   2 -14   2    1.16    1.01
   3  14  -2    5.49    1.17
  -3 -14  -2    4.48    1.73
  -3 -14   2    4.13    1.08
  -3 -14  -2    5.61    1.19
  -3  14   2    6.03    0.93
  -3  14  -2    1.12    1.15
  -3  14  -2    6.23    1.16
  -3 -14  -2    1.88    1.10
  -3 -14   2    5.21    1.09
  -3  14  -2    4.59    1.60
   3 -14  -2    5.48    0.93
   3  14  -2    2.92    1.11
   3 -14   2    1.37    1.43
  -1   0  -3    8.07    0.93
  -1   0   3    7.47    1.02
   1   0  -3    8.44    1.20
   1   0  -3    7.03    1.07
  -1   0  -3    6.66    0.75
  -1   0  -3    6.82    0.95
  -1   0   3    8.01    0.79
   2   0   3   74.58    1.11
  -2   0   3   79.35    1.31
  -2   0  -3   74.54    1.23
  -2   0  -3   80.06    1.38
  -2   0  -3   62.57    0.96
   2   0  -3   61.37    1.95
   3   0   3   16.35    0.71
  -3   0  -3   19.43    0.92
  -3   0  -3   18.49    0.84
   3   0  -3   15.36    2.00
  -3   0   3   21.02    1.10
  -3   0  -3   17.90    0.84
   4   0   3   11.06    0.68
   4   0  -3    9.78    1.68
  -4   0   3   13.69    1.41
  -4   0  -3   12.17    0.79
  -4   0  -3    9.21    0.66
  -4   0  -3   11.69    0.89
   5   0   3   39.26    0.93
   5   0  -3   43.36    1.78
  -5   0  -3   38.56    0.97
  -5   0   3   41.42    1.63
  -5   0  -3   42.17    0.92
   6   0   3   28.43    0.77
  -6   0   3   28.14    1.72
   6   0  -3   32.15    1.56
   6   0   3   19.89    1.13
  -6   0  -3   28.70    0.94
  -6   0  -3   24.10    0.97
   7   0  -3   54.58    1.62
  -7   0   3   43.18    1.63
   7   0   3   54.72    0.90
   7   0   3   39.32    1.28
  -7   0  -3   42.51    1.12
  -7   0  -3   46.66    0.89
  -8   0   3   12.44    1.65
   8   0   3   13.77    0.83
   8   0   3    9.86    1.17
  -8   0  -3    9.49    1.25
  -8   0  -3   14.91    0.83
   8   0  -3   16.62    1.31
   9   0   3   17.34    0.89
   9   0   3    9.48    1.22
  -9   0  -3   19.50    0.89
  -9   0  -3    6.35    1.15
   9   0  -3   20.36    1.31
  -9   0   3   12.94    1.79
   0   1   3   63.94    1.28
   0   1  -3   67.53    1.47
   0  -1  -3   62.59    1.40
   0   1  -3   51.87    1.13
   0  -1  -3   53.74    1.13
   0  -1   3   67.91    1.22
   0  -1   3   59.67    1.18
  -1  -1   3    8.58    0.98
  -1  -1  -3    7.13    0.94
   1   1  -3    9.14    1.43
   1  -1  -3    8.83    1.39
   1  -1  -3    8.59    1.02
  -1  -1  -3    7.34    0.75
   1   1  -3    8.59    1.22
  -1  -1   3    8.01    0.86
  -1   1  -3    8.02    0.76
   1  -1  -3    8.00    1.02
  -1   1   3    8.61    0.75
  -1  -1  -3    5.75    0.64
  -1   1  -3    9.55    0.92
  -2  -1   3    2.89    0.94
   2   1   3    4.23    0.65
  -2  -1   3    2.55    1.38
  -2   1  -3    3.21    0.83
   2   1  -3    2.81    2.82
  -2  -1  -3    0.78    0.75
  -2   1   3    4.58    1.02
  -2   1  -3    3.70    0.86
  -2   1  -3    4.73    0.79
  -2  -1  -3    3.75    0.76
   2   1  -3    3.16    1.78
   2  -1  -3    1.60    1.58
  -2  -1  -3    3.44    0.89
   2  -1   3    3.51    0.78
  -3   1  -3   24.86    0.92
   3   1   3   19.23    0.72
  -3   1  -3   22.40    0.89
  -3  -1  -3   23.32    0.98
   3  -1  -3   22.69    1.91
   3   1  -3   17.11    1.99
  -3  -1   3   25.38    1.47
  -3   1  -3   20.26    0.71
  -3  -1  -3   18.15    0.71
  -3   1   3   26.85    1.25
  -3  -1  -3   27.16    0.98
   3  -1   3   20.03    0.75
   4  -1   3   30.26    0.78
   4   1   3   32.60    0.78
  -4  -1  -3   34.50    0.89
   4  -1  -3   35.08    1.66
  -4  -1   3   35.84    1.65
  -4   1  -3   35.74    0.96
   4   1  -3   33.03    2.30
  -4  -1  -3   36.46    1.00
  -4   1   3   38.93    1.44
  -4   1  -3   38.63    0.91
  -4  -1  -3   33.56    0.79
  -4   1  -3   36.88    0.99
   5  -1   3    0.43    0.67
   5   1   3    1.05    0.62
   5  -1  -3    1.67    1.16
   5   1  -3   -1.67    1.50
  -5   1   3    0.37    1.08
  -5   1  -3    0.28    0.82
  -5   1  -3    0.19    0.81
  -5  -1  -3    0.68    0.80
  -5   1  -3   -0.70    0.65
  -5  -1   3    1.19    1.53
  -5  -1  -3    0.94    0.65
   6  -1   3   10.10    0.73
   6   1   3   11.27    0.74
  -6  -1   3    8.20    1.37
   6  -1  -3   10.35    1.16
   6   1  -3   10.41    1.30
  -6   1   3    9.76    1.64
   6   1   3    8.03    1.06
  -6   1  -3    9.34    0.90
  -6  -1  -3    8.37    0.88
  -6   1  -3   10.04    0.72
  -6  -1  -3    9.63    0.89
  -7  -1   3    6.34    1.57
   7  -1  -3   14.43    1.19
   7  -1   3   12.91    0.78
   7   1  -3   14.07    1.33
  -7   1   3   12.08    1.84
   7   1   3   12.60    0.78
  -7   1  -3    8.18    1.01
  -7  -1  -3    8.69    0.96
  -7   1  -3   12.87    0.80
  -7  -1  -3   10.19    0.78
   7   1   3    8.21    1.43
  -8  -1   3    5.77    1.70
  -8   1   3    7.78    1.60
   8  -1   3    8.92    0.78
   8   1   3    8.36    0.95
   8  -1   3    7.36    1.18
   8   1   3    3.49    1.14
  -8   1  -3    5.78    1.04
  -8   1  -3    7.78    0.78
  -8  -1  -3    5.56    0.99
  -8  -1  -3    7.24    0.79
   8  -1  -3   10.31    1.24
   8   1  -3    9.93    1.58
  -9   1   3    3.71    2.03
   9  -1   3    1.89    0.88
   9   1   3   -0.02    1.04
   9  -1   3    2.32    1.12
  -9   1  -3    0.93    0.84
  -9   1  -3    2.24    1.10
  -9  -1  -3    1.73    0.85
   9   1   3    0.20    1.17
  -9  -1  -3    1.24    1.28
   9  -1  -3    2.15    1.15
   9   1  -3    3.70    1.27
  -9  -1   3    3.89    1.78
   1   2  -3   -0.38    1.10
   1  -2  -3   -0.88    1.29
  -1  -2  -3    0.04    0.72
   1   2  -3    0.60    1.16
   1  -2  -3    0.53    1.06
  -1  -2   3    0.45    1.09
  -1   2  -3    0.01    0.75
  -1   2  -3    1.01    0.86
  -1  -2  -3    1.13    0.98
   1  -2  -3    0.65    0.99
  -1  -2  -3    0.80    0.58
  -1  -2   3    0.53    0.88
  -1   2   3    0.06    0.73
  -2  -2  -3   33.99    1.10
   2   2   3   32.48    0.84
  -2   2  -3   34.23    1.03
  -2   2  -3   32.99    1.01
   2   2  -3   29.74    2.74
  -2  -2  -3   31.22    0.90
   2  -2  -3   32.31    3.14
  -2   2  -3   33.60    0.92
  -2   2   3   37.35    1.16
   2  -2  -3   32.49    2.20
   2   2  -3   29.37    1.86
   2  -2  -3   26.18    1.67
  -2  -2  -3   33.81    0.92
  -2  -2   3   32.73    1.41
   2  -2   3   37.99    0.98
  -2  -2   3   30.76    1.24
  -3   2   3   30.01    1.19
   3   2   3   28.08    0.91
  -3   2  -3   25.32    0.94
  -3  -2  -3   25.83    1.06
  -3  -2  -3   25.88    0.86
   3  -2  -3   24.71    1.79
   3   2  -3   21.79    1.81
  -3  -2   3   27.43    1.58
  -3   2  -3   23.22    0.75
  -3   2  -3   28.10    0.94
  -3  -2  -3   21.77    0.72
   3  -2   3   23.67    0.76
   4   2   3    3.92    0.66
  -4   2  -3    4.54    0.81
  -4  -2   3    4.42    1.21
   4  -2  -3    4.48    1.55
  -4   2  -3    2.45    0.84
   4   2  -3    4.52    1.49
  -4  -2  -3    3.60    0.93
  -4   2   3    2.56    1.00
  -4   2  -3    2.99    0.64
  -4  -2  -3    3.61    0.65
   4  -2   3    4.75    0.82
   5   2   3   14.56    0.71
   5  -2  -3   16.79    1.24
   5   2   3   15.63    1.12
  -5  -2   3   10.94    1.31
   5   2  -3   12.82    1.65
  -5   2  -3    9.70    1.09
  -5   2   3   16.34    1.13
  -5   2  -3   14.17    1.06
  -5  -2  -3   13.43    0.85
  -5   2  -3   14.44    0.74
  -5  -2  -3   13.25    0.72
   5  -2   3   14.69    0.75
   6  -2   3   13.60    0.79
   6  -2  -3   13.01    1.39
  -6  -2   3    8.56    1.46
   6   2   3   12.49    0.75
   6   2  -3   14.09    1.77
   6   2   3   13.40    1.44
  -6   2   3   15.93    1.54
  -6   2  -3   12.00    0.97
  -6   2  -3    6.63    0.90
  -6  -2  -3   11.08    0.93
  -6   2  -3   12.55    0.75
  -6  -2  -3   13.68    0.76
   7  -2  -3   32.67    1.50
   7  -2   3   34.69    0.89
  -7  -2   3   20.31    1.58
   7   2  -3   31.37    1.44
  -7   2   3   30.42    1.54
   7   2   3   36.55    1.04
   7   2   3   30.50    1.35
  -7   2  -3   22.57    1.31
  -7  -2  -3   27.56    1.05
  -7   2  -3   32.40    1.01
  -7  -2  -3   31.05    0.87
  -8  -2   3    2.85    1.69
   8   2  -3    4.51    1.36
   8  -2   3    3.68    0.81
  -8   2   3    5.38    1.51
   8   2   3    4.20    0.81
   8   2   3    4.00    1.21
  -8   2  -3    2.92    1.10
  -8   2  -3    6.17    0.97
  -8  -2  -3    2.28    0.97
  -8  -2  -3    4.32    1.04
   8  -2  -3    5.52    1.15
  -9   2   3   12.79    2.06
   9  -2   3   14.87    0.94
   9   2   3   11.32    1.13
   9   2   3    8.34    1.24
  -9   2  -3   13.70    0.92
  -9   2  -3    6.68    1.17
  -9  -2  -3   13.00    0.92
   9  -2  -3   15.39    1.25
  -9  -2  -3    7.04    1.33
   9   2  -3   12.66    1.35
  -9  -2   3    7.43    1.82
   0  -3  -3   48.85    1.00
   0  -3  -3   50.64    1.22
   0   3  -3   51.22    1.26
   0   3  -3   45.81    1.18
   0  -3  -3   40.70    1.38
   0  -3   3   55.45    1.16
   0  -3  -3   52.35    1.24
   1   3  -3   24.46    1.22
   1  -3  -3   26.14    1.51
   1  -3  -3   22.11    1.39
  -1  -3  -3   24.18    1.19
  -1  -3  -3   23.04    1.00
  -1  -3   3   21.95    1.10
   1   3  -3   24.61    1.29
  -1   3  -3   20.37    0.77
  -1   3  -3   24.12    1.18
   1  -3   3   18.43    0.74
  -1  -3   3   26.56    1.09
  -1  -3  -3   22.21    0.77
  -1  -3  -3   22.31    0.81
   1  -3  -3   25.52    1.12
  -2   3  -3    3.81    0.83
  -2  -3  -3    2.40    0.79
  -2   3  -3    2.23    0.88
  -2  -3  -3    2.59    1.18
   2   3  -3    1.92    2.09
  -2  -3  -3    2.61    0.74
   2  -3  -3    2.12    2.33
  -2   3  -3    3.59    0.80
  -2  -3   3    1.81    0.96
   2   3  -3    3.12    1.34
   2  -3  -3    3.21    1.44
   2  -3   3    1.81    0.65
  -2  -3   3    2.17    1.21
  -2  -3  -3    2.38    0.63
   2  -3  -3    2.15    1.16
  -3  -3  -3   60.25    1.45
   3   3  -3   59.02    1.98
  -3   3  -3   57.44    1.09
  -3   3  -3   57.88    1.08
  -3  -3  -3   48.37    0.97
   3  -3  -3   57.27    2.17
   3   3  -3   55.09    1.89
  -3  -3   3   48.94    1.40
  -3   3  -3   53.31    0.89
  -3  -3   3   58.29    1.72
   3  -3   3   65.07    1.05
  -3  -3  -3   56.45    0.89
  -4  -3   3   32.51    1.79
   4   3   3   37.24    0.86
   4  -3  -3   33.79    1.37
  -4  -3   3   22.41    1.56
  -4   3  -3   30.35    1.02
   4   3  -3   25.32    1.47
  -4  -3  -3   34.89    1.08
  -4   3  -3   35.36    0.94
  -4  -3   3   34.25    1.89
  -4  -3  -3   30.57    0.79
   4  -3   3   32.41    0.81
  -4   3  -3   37.45    0.96
   5  -3  -3    0.14    1.26
   5   3   3   -0.59    0.73
   5   3   3    0.29    1.10
   5   3  -3    0.81    1.33
  -5   3  -3    1.04    0.86
  -5   3  -3    0.95    0.96
  -5  -3  -3    1.39    0.82
  -5   3  -3    0.04    0.69
  -5  -3   3    0.47    1.76
  -5  -3  -3    1.22    0.66
  -5  -3   3   -1.19    1.29
  -5  -3   3    0.19    1.69
   5  -3   3    0.63    0.70
   6  -3  -3    9.67    1.33
  -6  -3   3    6.88    1.48
   6   3  -3    6.85    1.52
   6   3   3   10.40    0.81
   6   3   3   10.60    1.25
  -6   3  -3    8.06    0.92
  -6   3  -3   10.70    1.04
  -6  -3   3   10.27    2.40
  -6   3  -3    8.31    0.81
  -6  -3  -3    8.55    0.89
  -6  -3   3   10.86    2.23
  -6  -3  -3    9.27    0.77
   6  -3   3    9.79    0.79
  -7  -3   3   22.13    1.98
   7   3  -3   23.55    1.60
  -7   3   3   27.85    1.41
   7   3   3   25.07    0.85
  -7   3  -3   24.73    0.98
   7   3   3   16.83    1.43
  -7  -3   3   24.26    2.98
  -7   3  -3   14.89    1.15
  -7   3  -3   22.49    0.85
  -7  -3  -3   20.24    1.04
  -7  -3   3   25.39    2.30
  -7  -3  -3   26.59    0.89
   7  -3  -3   28.07    1.44
   7  -3   3   26.59    0.86
  -8  -3   3    5.37    1.61
   8   3  -3    7.05    1.44
   8  -3   3    7.17    0.85
  -8   3   3    7.80    1.71
   8   3   3    5.49    0.83
   8   3   3    4.34    1.56
  -8  -3   3    6.18    2.93
  -8   3  -3    4.07    1.15
  -8   3  -3    6.70    0.83
  -8  -3   3    7.55    2.33
  -8  -3  -3    4.47    1.03
  -8  -3  -3    7.01    0.88
   8  -3  -3   10.34    1.33
  -8   3  -3    2.76    0.94
   9  -3   3    8.10    1.12
  -9   3   3    6.59    1.86
  -9  -3   3    5.42    3.27
  -9  -3   3    8.05    2.67
  -9   3  -3    7.59    0.90
  -9   3  -3    4.30    1.20
   9  -3  -3    9.61    1.45
  -9  -3  -3    9.89    0.93
  -9  -3  -3    5.82    1.10
   9   3  -3    9.11    1.47
  -9  -3   3    6.08    1.79
   9   3   3    5.72    1.29
  -1  -4  -3   65.94    1.09
   1  -4  -3   64.33    1.28
   1  -4  -3   60.10    1.86
   1  -4  -3   60.15    1.20
  -1  -4   3   55.13    1.32
   1  -4  -3   67.49    1.81
  -1  -4  -3   50.53    1.39
  -1  -4  -3   58.76    1.18
   1   4  -3   59.07    1.63
  -1  -4  -3   61.84    1.16
  -1   4  -3   62.98    1.29
  -1   4  -3   49.19    0.96
  -1  -4   3   56.50    1.17
   1  -4   3   53.47    0.94
   1   4  -3   58.12    1.33
   1  -4   3   58.21    1.19
   2  -4  -3   63.54    1.47
  -2   4  -3   58.61    1.19
  -2  -4  -3   58.98    0.98
   2   4  -3   50.82    1.85
  -2  -4  -3   62.68    1.14
   2  -4  -3   52.28    2.48
  -2  -4  -3   54.90    1.54
  -2   4  -3   54.84    0.92
  -2   4   3   67.64    1.23
  -2  -4   3   59.01    1.25
   2   4  -3   57.78    1.79
   2  -4  -3   57.94    2.07
   2  -4   3   59.15    0.93
  -2   4  -3   66.01    1.12
  -2  -4   3   58.40    1.70
  -2  -4  -3   52.22    0.91
   3  -4  -3   52.01    1.75
   3  -4  -3   52.71    1.97
  -3   4  -3   53.36    1.04
   3   4  -3   52.04    1.78
  -3   4  -3   41.11    1.13
  -3  -4  -3   47.53    1.23
   3   4  -3   49.62    1.68
  -3  -4  -3   52.94    1.12
  -3  -4   3   41.89    1.41
  -3   4  -3   55.79    1.03
   3  -4  -3   51.70    1.96
  -3  -4   3   49.95    1.45
  -3  -4  -3   45.97    0.91
  -3   4   3   56.17    1.39
   3  -4   3   52.27    0.90
  -3  -4  -3   48.79    0.90
  -4   4   3   10.49    0.92
   4   4   3    8.42    1.14
   4  -4  -3   11.68    1.39
  -4  -4  -3   10.98    0.77
  -4  -4   3    6.53    1.24
  -4   4  -3    9.91    0.97
   4   4  -3   10.07    1.54
  -4  -4  -3    8.96    0.82
  -4  -4   3    8.71    1.23
  -4   4  -3   11.27    0.89
  -4   4  -3    8.34    0.86
   4  -4   3   12.20    0.72
  -4  -4  -3    9.84    0.75
  -5  -4   3   19.80    1.41
  -5   4  -3   21.05    0.93
   5  -4  -3   22.05    1.33
  -5  -4   3   19.79    1.52
   5   4  -3   17.07    1.27
   5   4   3   17.15    1.50
  -5  -4  -3   20.44    0.81
  -5   4  -3   16.74    1.24
  -5  -4   3   20.98    1.68
  -5   4  -3   23.66    0.95
  -5  -4  -3   18.56    0.91
  -5   4   3   23.24    1.26
   5  -4   3   19.86    0.79
  -5  -4  -3   20.86    0.79
   6  -4  -3   24.68    1.37
  -6  -4   3   22.75    1.34
   6   4  -3   17.74    1.35
   6   4   3   24.96    1.42
  -6   4  -3   14.14    1.35
  -6  -4   3   25.36    2.22
  -6  -4  -3   25.82    0.88
  -6   4  -3   21.48    1.16
  -6   4  -3   26.14    1.03
  -6  -4  -3   23.36    0.98
  -6  -4  -3   22.05    0.82
   6  -4   3   25.15    1.01
  -6  -4   3   22.34    1.58
  -7  -4   3   13.50    1.38
   7   4  -3   13.05    1.45
  -7   4  -3   12.93    0.96
  -7  -4  -3   13.96    0.86
   7   4   3    8.32    1.38
  -7  -4   3   11.14    2.29
  -7   4  -3    8.92    1.13
  -7   4  -3   15.05    0.86
  -7  -4  -3   10.59    0.99
  -7  -4   3   12.44    1.68
  -7  -4  -3   14.81    0.85
   7  -4  -3   17.09    1.35
   7  -4   3   15.21    0.84
   8   4  -3   11.29    1.60
  -8  -4   3    9.18    1.89
  -8  -4  -3   10.92    0.92
   8   4   3    8.01    1.62
  -8  -4   3    5.87    2.46
  -8   4  -3    9.08    0.88
  -8   4  -3    6.69    1.20
  -8  -4   3    9.96    1.65
   8  -4  -3   12.96    1.16
  -8   4  -3    8.41    1.00
  -8  -4  -3   11.26    1.05
  -8  -4  -3   13.36    0.88
   8  -4   3    8.97    0.90
  -9  -4   3    4.11    1.98
   9  -4   3    0.53    0.96
  -9  -4  -3    0.06    0.94
   9   4   3   -0.01    1.31
  -9   4  -3    0.19    0.96
  -9  -4   3   -0.01    2.73
  -9   4  -3    0.19    0.89
  -9   4  -3    0.04    1.23
   9  -4  -3    0.27    1.15
  -9  -4   3    0.43    1.85
  -9  -4  -3    0.56    0.93
  -9  -4  -3    1.74    1.09
   9   4  -3    0.54    1.57
   0  -5   3   41.06    1.22
   0  -5  -3   50.65    1.09
   0   5  -3   49.81    1.35
   0  -5  -3   50.75    1.37
   0  -5  -3   46.97    1.18
   0   5  -3   40.38    1.09
   0  -5  -3   40.47    1.69
   1  -5   3    5.45    1.00
  -1  -5  -3    6.60    0.70
   1  -5  -3    6.67    0.86
   1  -5  -3    8.92    1.43
   1  -5  -3    7.16    1.04
  -1  -5   3    6.16    1.38
  -1   5  -3    6.76    0.90
  -1  -5  -3    6.56    0.96
   1  -5  -3    7.79    1.51
   1   5  -3    6.06    1.44
  -1  -5  -3    7.72    0.92
  -1  -5  -3    4.41    1.32
  -1   5  -3    5.78    0.77
   1  -5   3    6.73    0.76
   1   5  -3    8.14    1.34
  -2  -5  -3    2.47    0.85
   2  -5  -3    1.52    0.99
  -2   5  -3    2.32    1.04
  -2  -5  -3    1.24    0.73
   2   5  -3   -0.13    1.36
   2  -5  -3    0.53    1.68
  -2  -5  -3    0.69    0.93
  -2   5  -3    4.48    0.87
  -2  -5  -3    1.10    1.22
  -2  -5   3    3.16    0.96
  -2   5  -3    2.19    1.05
   2   5  -3   -2.04    1.58
   2  -5  -3    0.79    1.90
   2  -5   3    3.56    0.71
  -2  -5   3    1.74    1.44
  -3  -5  -3   20.26    0.78
  -3   5  -3   20.55    0.91
   3  -5  -3   24.28    1.34
   3   5  -3   21.77    1.70
  -3  -5  -3   10.16    1.07
   3  -5  -3   22.37    1.54
   3   5  -3   20.00    1.41
  -3  -5   3   16.78    1.17
  -3   5  -3   20.41    0.81
   3  -5  -3   21.61    1.54
  -3  -5  -3   18.84    0.86
  -3  -5   3   20.52    1.16
  -3   5   3   22.93    1.08
  -3   5  -3   15.30    1.09
   3  -5   3   25.57    0.95
  -3  -5  -3   20.95    0.81
   4  -5  -3   29.62    1.40
   4   5   3   19.32    1.58
  -4   5  -3   31.22    0.98
  -4   5  -3   26.71    1.13
  -4  -5   3   28.29    1.14
   4   5  -3   26.48    1.47
   4   5  -3   30.33    1.39
  -4   5   3   31.74    1.30
  -4  -5   3   27.87    1.50
  -4   5  -3   27.42    0.86
  -4  -5  -3   32.29    1.10
   4  -5  -3   29.29    1.46
   4  -5   3   26.89    0.84
  -4  -5  -3   28.70    0.85
  -4  -5  -3   32.45    0.88
   5  -5  -3   -0.01    1.18
  -5  -5   3   -0.40    1.11
   5   5   3    0.74    1.55
  -5  -5   3    0.73    1.08
   5   5  -3   -0.70    1.11
  -5   5  -3    1.50    1.24
  -5  -5   3   -0.32    1.52
  -5  -5  -3    0.37    0.96
  -5   5  -3   -0.20    0.77
  -5  -5  -3   -0.63    1.02
  -5   5  -3    0.73    1.09
   5  -5   3    0.89    0.79
   5  -5  -3    0.29    1.47
  -5   5   3    0.71    1.10
  -5  -5  -3    0.95    0.76
  -6   5   3    7.76    2.27
  -6  -5   3    6.34    1.25
   6  -5  -3    8.50    2.02
  -6   5  -3    5.71    0.91
  -6  -5   3    6.31    1.19
   6   5  -3    4.01    1.19
   6   5   3    3.25    1.40
  -6   5  -3    4.52    1.11
  -6  -5   3    6.82    1.74
  -6   5   3    6.60    1.31
  -6   5  -3    7.43    0.85
  -6  -5  -3    6.03    0.94
   6  -5   3    5.84    0.85
   6  -5  -3    8.62    1.31
  -6  -5  -3    7.68    0.81
  -6  -5  -3    8.97    1.04
   7   5  -3    6.65    1.32
  -7  -5   3   11.02    1.33
  -7  -5  -3    9.63    0.93
   7   5   3    3.08    1.78
  -7   5   3   12.26    1.40
  -7   5  -3    7.90    0.94
  -7  -5   3    5.70    2.08
  -7   5  -3    4.89    1.17
  -7   5  -3   13.36    0.91
  -7  -5  -3    9.22    0.99
   7  -5  -3   13.34    1.36
  -7  -5  -3   11.59    0.89
   7  -5   3   13.39    0.90
  -7  -5   3   10.68    1.40
   8   5  -3    3.13    1.38
  -8  -5   3    7.72    1.39
   8   5   3    2.61    1.41
  -8  -5   3    3.33    2.29
  -8   5   3    5.98    1.51
  -8  -5  -3    5.92    0.89
  -8   5  -3    6.69    0.94
  -8   5  -3    4.42    1.50
   8  -5  -3    7.29    1.40
  -8  -5   3    5.42    1.42
  -8  -5  -3    6.36    1.02
  -8  -5  -3    7.93    0.89
  -8   5  -3    5.19    1.13
   8  -5   3    6.08    0.92
  -9  -5   3    2.45    1.48
  -9   5  -3   -0.21    0.98
  -9  -5  -3    2.89    0.97
   9   5   3    1.98    1.67
  -9  -5   3    1.63    2.48
  -9   5  -3   -0.08    0.96
  -9   5   3    1.50    1.64
   9  -5  -3    1.37    1.46
  -9   5  -3    1.33    1.27
  -9  -5   3    1.23    1.75
  -9  -5  -3    1.65    0.98
   9   5  -3    2.61    1.53
  -9  -5  -3    1.45    1.09
   9  -5   3    4.47    1.00
   1  -6  -3   88.36    2.13
  -1  -6  -3   83.57    1.10
   1  -6  -3   97.92    1.37
  -1   6  -3   89.31    1.29
  -1  -6   3   73.17    1.34
   1  -6  -3   92.84    1.58
   1   6  -3   65.87    1.63
   1  -6  -3   79.11    1.83
  -1  -6  -3   67.71    1.75
  -1   6  -3   96.80    1.33
  -1  -6  -3   90.62    1.39
   1  -6   3   70.95    1.39
  -1  -6  -3  104.83    1.41
   1  -6   3   88.78    1.12
   1   6  -3   86.25    1.46
  -2  -6  -3   22.95    0.82
   2  -6  -3   21.62    1.12
  -2   6  -3   20.64    1.29
   2  -6  -3   21.63    1.27
  -2  -6  -3   23.39    0.89
   2   6  -3   21.06    1.41
   2  -6  -3   18.80    1.56
  -2   6  -3   23.06    0.98
  -2   6  -3   24.92    0.89
   2  -6  -3   20.28    1.80
  -2  -6  -3   11.06    1.33
  -2  -6  -3   21.01    1.17
   2   6  -3   23.63    1.63
   2  -6   3   27.17    0.87
  -2  -6   3   24.01    1.12
  -3  -6  -3   53.15    0.94
   3  -6  -3   50.59    1.78
   3   6  -3   43.15    1.78
  -3  -6  -3   53.55    0.98
  -3   6  -3   40.88    1.29
  -3  -6  -3   25.81    1.19
   3   6  -3   50.22    1.41
  -3   6  -3   44.60    0.92
   3  -6  -3   48.01    1.73
  -3  -6   3   51.24    1.41
  -3  -6   3   47.00    1.16
  -3  -6  -3   44.39    1.06
  -3   6  -3   54.12    1.12
   3  -6   3   60.38    1.09
  -4  -6  -3    4.52    0.76
   4  -6  -3    2.83    1.35
  -4   6  -3    3.47    1.06
   4   6   3    3.06    1.27
  -4   6   3    3.25    1.28
   4   6  -3    2.99    1.34
  -4  -6  -3    2.93    0.77
   4   6  -3    1.96    1.10
  -4   6  -3    1.32    1.08
  -4  -6   3    5.47    0.97
  -4   6   3    3.24    1.15
  -4   6  -3    3.26    0.79
  -4  -6   3    3.73    1.29
   4  -6  -3    2.97    1.14
  -4  -6  -3    3.64    1.03
   4  -6   3    4.00    0.75
  -5  -6   3   37.04    1.48
   5   6  -3   34.42    1.21
  -5  -6   3   40.34    1.14
  -5   6  -3   39.07    1.08
  -5   6   3   41.14    1.44
  -5   6  -3   25.76    1.27
  -5   6   3   43.04    1.88
  -5  -6   3   32.05    1.80
  -5   6  -3   40.00    0.92
   5   6   3   23.84    1.50
  -5  -6  -3   34.33    1.04
  -5  -6  -3   43.10    0.99
   5  -6  -3   42.41    1.63
   5  -6   3   43.62    0.96
   5  -6  -3   43.02    1.62
  -5  -6  -3   48.89    1.14
  -6  -6   3    8.91    1.31
   6   6  -3    6.11    1.09
  -6  -6   3   10.48    1.11
  -6  -6  -3   10.24    1.11
   6   6   3    2.36    1.86
  -6   6   3    8.93    2.08
  -6   6  -3    7.03    1.19
  -6  -6   3    5.49    1.73
  -6   6  -3   10.16    1.06
  -6   6  -3   10.53    0.97
  -6  -6  -3    9.05    0.98
   6  -6  -3   11.90    1.47
   6  -6   3   10.48    1.06
   6  -6  -3   10.91    1.63
  -6   6   3    9.88    1.26
  -6  -6  -3   10.46    0.89
  -7  -6   3    3.59    1.38
   7  -6  -3    4.55    1.70
   7   6  -3    5.09    1.14
  -7  -6   3    2.87    1.16
  -7  -6  -3    4.59    0.91
   7   6   3    4.03    1.48
  -7   6   3    3.34    2.29
  -7  -6   3    2.83    1.91
  -7   6  -3    2.14    1.22
  -7   6  -3    4.22    0.90
  -7   6   3    4.78    1.32
   7  -6  -3    3.30    1.49
  -7  -6  -3    3.05    1.20
   7  -6   3    5.81    1.04
  -7  -6  -3    3.79    1.12
  -7   6  -3    3.98    0.95
   8   6  -3    1.82    1.25
  -8  -6   3    3.35    1.31
   8  -6  -3    4.71    1.91
  -8   6  -3    4.20    0.97
  -8  -6  -3    3.37    0.97
   8   6   3    1.96    1.46
  -8   6   3    4.48    1.40
  -8   6   3    3.40    2.78
  -8  -6   3    0.56    2.02
  -8   6  -3    3.30    0.97
  -8   6  -3    2.23    1.26
   8  -6  -3    4.85    1.37
  -8  -6  -3    3.73    0.97
  -8  -6  -3    3.09    1.08
  -8  -6   3    3.86    1.61
   8  -6   3    6.99    1.19
   0  -7   3   32.46    1.32
   0  -7  -3   33.05    0.95
   0  -7  -3   33.59    1.47
   0   7  -3   27.75    1.16
   0  -7  -3   32.03    1.70
   0  -7  -3   34.15    1.27
   0  -7   3   40.08    1.17
   0   7  -3   34.23    1.33
  -1  -7  -3    5.12    0.93
  -1   7  -3    4.95    1.16
   1  -7  -3    5.53    0.98
   1  -7  -3    5.74    1.38
  -1  -7  -3    7.72    0.91
  -1  -7   3    5.43    0.94
  -1  -7  -3    3.11    1.43
   1   7  -3    4.98    1.44
  -1   7  -3    5.09    1.03
   1  -7  -3    5.39    1.25
   1  -7   3    4.26    1.08
  -1  -7  -3    4.30    1.05
   1  -7   3    6.49    0.97
   1   7  -3    5.52    1.14
   1  -7  -3    4.56    1.57
  -2  -7   3   -0.20    0.90
  -2  -7  -3    0.94    0.91
  -2   7  -3    2.08    1.47
  -2  -7  -3    2.44    0.99
  -2   7  -3    2.03    0.91
   2   7  -3    1.34    1.21
   2  -7  -3    1.01    1.13
   2  -7  -3    1.40    1.77
   2  -7  -3    1.81    1.50
  -2   7  -3    1.98    0.81
   2   7  -3    1.93    1.30
  -2  -7  -3    0.16    1.20
  -2  -7  -3    0.87    1.07
   2  -7   3    2.84    0.98
  -3  -7  -3   10.11    0.96
   3  -7  -3    9.41    1.57
   3   7  -3    4.54    1.44
  -3   7   3    8.62    1.36
  -3   7  -3    6.63    1.20
  -3  -7  -3    8.56    0.85
   3  -7  -3    9.48    1.34
   3   7  -3    6.32    1.21
  -3   7  -3    7.54    0.98
  -3  -7  -3    3.15    1.02
   3  -7  -3    6.05    1.39
  -3   7  -3    8.37    0.93
  -3  -7   3   11.01    1.28
  -3  -7   3    8.60    0.98
  -3  -7  -3   10.25    1.11
   3  -7   3    9.47    0.81
  -4  -7  -3   26.53    1.12
   4   7   3   13.86    1.42
   4   7  -3   18.69    1.42
  -4  -7  -3   25.14    1.12
   4   7  -3   20.96    1.17
  -4   7  -3   15.56    1.25
  -4   7   3   22.12    1.60
  -4  -7   3   21.48    1.04
  -4   7  -3   23.72    0.90
  -4  -7   3   16.93    1.40
   4  -7  -3   21.96    1.41
  -4  -7  -3   20.36    1.03
   4  -7   3   23.36    0.91
  -4   7  -3   22.05    1.01
   4  -7  -3   23.18    1.67
  -5  -7  -3    1.02    0.86
  -5   7  -3    1.14    0.92
   5   7  -3    1.02    1.08
   5   7   3   -0.65    1.40
  -5   7   3    0.02    1.62
  -5  -7  -3    1.04    0.88
  -5   7  -3    0.78    1.46
  -5  -7   3    0.70    0.97
  -5  -7   3    0.76    1.63
  -5   7  -3   -0.01    0.86
  -5   7   3   -0.23    1.31
   5  -7  -3    0.18    1.35
   5  -7  -3   -0.18    1.31
  -5  -7  -3    0.20    0.96
   5  -7   3    1.64    0.82
  -6  -7   3    5.34    1.17
   6   7  -3    7.32    1.08
  -6  -7   3    4.98    1.10
   6   7   3    2.88    1.94
  -6  -7  -3    3.16    1.14
  -6   7   3    3.65    1.89
  -6   7  -3    7.63    1.21
  -6   7  -3    3.60    1.21
  -6  -7   3    3.06    1.78
  -6   7   3    6.17    1.31
  -6   7  -3    6.71    0.92
   6  -7  -3    5.79    1.46
   6  -7  -3    6.52    1.50
   6  -7   3    6.95    0.89
  -6  -7  -3    6.53    1.01
  -6  -7  -3    5.36    0.96
  -7  -7   3    4.76    1.37
  -7   7   3    5.26    1.43
   7   7  -3    4.06    1.10
  -7  -7   3    4.42    1.13
  -7  -7  -3    3.87    1.19
   7   7   3    1.20    1.55
  -7   7   3    3.10    2.31
  -7  -7   3    2.99    1.84
  -7   7  -3    4.90    0.96
  -7   7  -3    2.19    1.24
  -7   7  -3    3.49    0.99
   7  -7  -3    4.73    1.48
   7  -7   3    4.64    0.95
  -7  -7  -3    3.69    1.27
   7  -7  -3    4.92    1.43
  -7  -7  -3    4.61    0.98
   8   7  -3    3.96    1.18
   8  -7  -3    4.54    1.72
  -8  -7   3    1.95    1.54
   8   7   3    2.23    1.48
  -8   7   3    2.21    2.49
  -8  -7   3    2.22    1.71
  -8   7  -3    4.51    1.01
   8  -7  -3    4.87    1.57
  -8  -7  -3    6.39    1.00
  -8   7  -3    0.15    1.33
  -8   7   3    4.10    1.60
  -8   7  -3    2.53    1.00
  -8  -7  -3    3.57    1.25
   8  -7   3    5.88    1.03
  -8  -7  -3    1.28    1.10
  -8  -7   3    2.93    1.53
   1  -8   3   35.75    1.18
  -1   8  -3   37.90    1.16
  -1  -8  -3   47.86    1.17
  -1  -8  -3   32.04    1.66
  -1  -8  -3   40.59    1.17
   1   8  -3   34.54    1.26
  -1  -8   3   35.30    1.03
   1  -8  -3   37.88    1.46
  -1   8  -3   36.46    1.10
  -1  -8   3   44.85    1.33
   1  -8   3   48.34    1.05
   1  -8  -3   41.81    1.80
   1   8  -3   40.05    1.57
   1  -8  -3   33.93    2.22
  -1  -8  -3   40.70    1.32
  -2  -8   3   37.37    1.00
  -2  -8  -3   45.73    1.14
  -2   8   3   39.69    1.34
  -2   8  -3   35.45    1.35
  -2   8  -3   41.61    1.11
   2  -8  -3   39.80    2.55
   2   8  -3   36.84    1.34
  -2  -8  -3   36.31    1.07
  -2   8  -3   40.24    1.03
   2  -8  -3   35.80    1.44
  -2  -8  -3   26.01    1.41
   2   8  -3   33.26    1.46
   2  -8  -3   45.42    2.53
   2  -8   3   40.16    1.00
  -2  -8  -3   39.79    1.33
  -3  -8  -3   30.62    0.95
  -3   8   3   26.07    1.38
  -3   8  -3   24.22    1.33
  -3  -8  -3   32.99    1.00
   3   8  -3   26.30    1.21
  -3   8  -3   26.21    1.07
  -3  -8  -3    9.58    1.10
  -3   8  -3   26.82    0.98
   3  -8  -3   17.13    1.67
   3   8  -3   23.00    1.40
  -3  -8   3   28.96    1.04
   3  -8   3   29.58    0.98
  -3  -8  -3   32.48    1.28
  -4  -8  -3    6.72    0.87
   4   8   3    3.83    1.45
  -4   8   3    4.05    1.40
   4   8  -3    2.66    1.46
   4   8  -3    2.47    1.08
  -4  -8  -3    4.60    1.10
  -4   8  -3    3.28    1.30
  -4   8  -3    6.34    1.08
  -4  -8   3    6.87    1.16
  -4  -8   3    4.23    1.32
   4  -8  -3    4.54    1.25
  -4   8  -3    4.64    0.97
   4  -8   3    6.61    0.90
  -4  -8  -3    5.44    1.00
  -5  -8  -3   15.81    0.99
   5   8  -3   16.49    1.09
   5   8  -3   14.79    1.37
   5   8   3   11.28    1.59
  -5   8   3   11.94    1.66
   5  -8  -3   16.71    2.19
  -5  -8  -3   17.83    0.98
  -5  -8   3   17.82    1.04
  -5   8  -3    9.15    1.30
  -5   8  -3   19.05    0.98
  -5  -8   3    9.29    1.54
   5  -8  -3   19.10    2.31
   5  -8  -3   15.78    1.42
   5  -8   3   18.67    0.95
  -5   8  -3   18.43    1.27
  -5  -8  -3   14.29    1.09
  -6   8  -3   13.80    1.08
   6   8  -3   12.51    1.31
  -6  -8   3   11.94    1.46
   6   8   3    6.58    1.67
  -6   8   3    7.47    2.02
  -6  -8   3   13.25    1.09
  -6  -8  -3   15.86    1.03
  -6   8  -3    6.66    1.25
  -6  -8   3   10.58    1.57
  -6   8  -3   17.63    0.99
   6  -8  -3   13.86    1.89
  -6   8   3   12.48    1.65
   6  -8  -3   13.91    1.47
   6  -8   3   16.48    1.00
  -6  -8  -3   15.87    1.33
  -6  -8  -3   15.02    1.01
   7   8  -3    4.98    1.11
  -7  -8   3    5.88    1.23
  -7   8   3    5.37    1.82
  -7  -8  -3    4.57    1.04
  -7  -8   3    4.02    1.12
  -7   8  -3    5.25    1.06
   7   8   3    1.40    1.35
  -7  -8   3    4.73    1.54
   7  -8  -3    5.15    1.69
  -7   8  -3    5.51    1.01
  -7   8  -3    2.07    1.25
  -7   8   3    3.13    2.19
   7  -8   3    6.56    1.01
   7  -8  -3    4.69    1.48
  -7  -8  -3    6.47    1.29
  -7  -8  -3    4.69    1.36
   0  -9  -3   25.85    1.06
   0  -9  -3   20.28    1.98
   0  -9   3   19.19    0.98
   0   9  -3   18.75    1.30
   0  -9  -3   20.35    1.31
   0  -9   3   26.77    1.29
   0   9  -3   19.42    1.25
   0  -9  -3   24.21    1.81
  -1  -9  -3    7.80    1.45
  -1  -9  -3   14.53    1.16
   1   9  -3   10.39    1.08
  -1  -9  -3   11.46    1.16
  -1   9  -3   10.11    1.07
  -1  -9   3    9.62    0.88
   1   9  -3    8.31    1.51
  -1  -9   3    9.87    1.12
   1  -9   3   12.35    0.97
   1  -9  -3    9.61    1.23
   1  -9   3    5.49    0.97
  -1  -9  -3   11.49    1.37
  -1   9  -3   11.75    1.10
  -2  -9   3    2.13    0.87
  -2   9  -3    1.48    1.04
  -2  -9  -3    2.43    1.09
  -2  -9  -3    1.20    1.15
  -2   9  -3   -0.68    1.31
   2   9  -3    0.93    0.93
  -2  -9  -3    0.96    1.23
  -2   9  -3    0.93    0.96
   2   9  -3    2.91    1.21
   2  -9  -3    1.45    1.19
  -2  -9   3   -0.62    1.27
  -2   9   3    1.42    1.30
   2  -9   3    2.46    0.91
  -2  -9  -3    0.53    1.14
  -3  -9  -3   29.40    1.20
  -3   9   3   21.52    1.49
  -3   9  -3   15.95    1.44
  -3   9  -3   20.07    1.10
   3   9  -3   17.24    1.36
  -3  -9  -3   11.07    1.10
  -3  -9  -3   19.84    1.06
   3   9  -3   20.91    1.18
  -3   9  -3   21.83    1.03
   3  -9  -3   15.82    1.45
   3  -9   3   22.00    1.02
  -3  -9   3   22.11    1.00
  -3  -9  -3   26.08    1.29
  -4  -9  -3   19.11    1.19
   4   9   3    9.56    1.17
  -4   9   3   11.04    1.56
   4   9  -3   12.62    1.11
  -4  -9  -3   16.58    1.01
  -4   9  -3    8.72    1.44
  -4   9  -3   14.04    1.31
  -4   9  -3   17.90    1.00
   4   9  -3    8.52    1.29
  -4  -9   3   15.21    1.00
   4  -9  -3   11.75    1.40
   4  -9   3   17.17    0.98
  -4  -9  -3   15.02    1.31
  -5  -9  -3   -0.43    1.15
   5   9  -3    0.82    1.22
   5   9   3   -0.95    1.12
  -5   9   3   -0.04    1.82
  -5  -9  -3    0.89    1.16
  -5  -9   3   -0.92    0.94
  -5   9  -3    0.40    1.11
  -5   9  -3   -0.38    0.94
  -5  -9   3    0.85    1.43
   5   9  -3   -0.77    1.41
  -5   9  -3   -0.37    1.02
   5  -9  -3    1.03    1.22
   5  -9   3   -0.35    0.97
  -5  -9  -3    0.11    1.26
  -6  -9  -3    5.36    1.27
  -6  -9  -3    5.24    1.34
   6   9  -3    4.12    1.01
  -6  -9   3    3.08    1.29
   6   9   3    2.23    1.23
  -6   9   3    2.57    1.81
  -6  -9  -3    3.19    1.01
  -6  -9   3    5.97    1.24
  -6   9  -3    2.74    1.35
  -6   9  -3    3.17    1.01
  -6  -9   3    2.67    1.42
   6  -9  -3    4.70    1.44
   6  -9   3    4.88    1.02
  -6   9  -3    2.46    1.07
  -7   9  -3    4.98    1.12
   7   9  -3    5.62    1.06
  -7  -9  -3    9.48    1.19
  -7  -9   3    6.40    1.34
  -7  -9  -3    8.91    1.12
  -7  -9   3    7.08    1.13
   7   9   3    4.45    1.53
  -7   9   3    5.24    1.85
  -7  -9   3    5.19    1.49
  -7   9  -3    8.40    1.07
  -7   9  -3    1.36    1.42
   7  -9  -3    7.02    1.39
   7  -9   3    7.02    1.31
  -7  -9  -3    8.41    1.40
   1 -10   3    0.20    0.89
  -1 -10  -3    0.75    1.51
  -1 -10  -3    1.89    0.99
   1  10  -3    1.19    1.17
  -1 -10  -3    0.56    1.23
  -1  10  -3    0.73    1.42
   1 -10  -3    0.73    1.16
   1  10  -3    0.56    1.26
  -1 -10   3    2.36    1.30
   1 -10   3    0.49    1.00
  -1 -10   3    1.93    0.83
  -1 -10  -3    0.41    1.48
  -1  10  -3    0.61    1.15
  -2 -10  -3    9.22    1.27
  -2 -10  -3   13.47    1.03
  -2  10   3   11.13    1.46
  -2  10  -3    6.26    1.28
   2  10  -3   10.26    0.99
  -2 -10  -3   10.46    1.41
   2  10  -3   10.91    1.17
  -2  10  -3    9.97    1.09
   2 -10  -3   10.88    1.01
  -2 -10   3    6.30    1.11
   2 -10   3   13.24    1.01
  -2 -10   3    9.67    0.89
  -2 -10  -3    7.69    1.43
  -2  10  -3    9.91    1.10
  -3 -10  -3    8.18    1.25
  -3 -10  -3    7.86    1.02
  -3  10  -3    7.36    1.12
  -3  10   3    5.26    1.26
  -3 -10  -3    7.27    1.08
   3  10  -3    6.46    1.21
  -3  10  -3    4.76    1.30
   3  10  -3    8.63    1.33
  -3  10  -3    9.19    1.05
   3 -10  -3    5.13    1.33
  -3 -10   3    4.72    1.15
   3 -10   3    7.50    1.03
  -3 -10  -3    3.18    1.22
  -3 -10   3    6.96    1.14
  -4 -10  -3    1.58    1.28
  -4 -10  -3    2.20    0.99
   4  10  -3    1.97    1.00
   4  10  -3    0.57    1.10
  -4  10  -3    1.48    1.05
  -4 -10  -3    0.61    1.02
  -4  10  -3   -0.08    1.26
  -4  10  -3    2.32    0.98
   4 -10  -3    1.48    1.38
  -4 -10   3    2.61    0.91
   4 -10   3    1.88    0.99
  -4  10   3   -0.19    1.50
  -5 -10  -3    1.92    0.99
  -5 -10  -3    1.10    1.31
   5  10  -3    1.49    0.99
   5  10   3   -0.10    1.07
   5  10  -3    1.65    1.24
  -5  10   3    1.31    1.46
  -5 -10  -3    0.77    1.03
  -5  10  -3    1.61    1.02
  -5  10  -3    2.80    1.29
  -5  10  -3    2.13    1.24
  -5 -10   3    2.70    0.91
   5 -10  -3    1.59    1.33
   5 -10   3    1.88    1.01
  -6 -10  -3    4.62    1.14
  -6 -10  -3    3.33    1.40
   6  10  -3    3.83    1.24
  -6 -10   3    2.64    1.15
   6  10   3    2.15    1.37
  -6  10   3    3.08    1.49
  -6 -10  -3    4.88    1.10
  -6 -10   3    3.22    1.00
  -6  10  -3    3.11    1.32
  -6  10  -3    2.33    1.33
  -6 -10   3    2.96    1.37
  -6  10  -3    3.06    1.14
   6 -10  -3    3.97    1.59
   6 -10   3    4.42    1.34
   0 -11  -3   18.09    1.21
   0  11  -3   19.41    1.37
   0 -11  -3   13.81    1.09
   0  11  -3   21.26    1.62
   0 -11   3   12.86    1.15
   0 -11   3   14.08    0.92
  -1 -11  -3    5.16    1.08
   1  11  -3    2.85    0.97
  -1  11  -3    5.05    1.23
  -1 -11  -3    3.38    1.16
  -1 -11  -3    4.53    2.45
  -1 -11  -3    3.08    2.11
   1 -11  -3    3.80    0.91
   1  11  -3    5.71    1.18
  -1 -11   3    2.75    1.08
   1 -11   3    4.07    1.08
  -1  11  -3    4.19    1.21
  -1 -11   3    2.94    1.01
  -1  11   3    4.53    1.18
  -2 -11  -3    1.89    1.06
  -2 -11  -3    1.22    1.66
  -2  11  -3   -0.27    0.98
   2  11  -3    1.02    0.91
  -2 -11   3    1.25    0.85
   2  11  -3    0.29    1.34
  -2 -11  -3    0.16    1.46
  -2  11  -3    1.10    1.14
   2 -11  -3    0.04    0.89
  -2 -11   3    1.05    1.09
  -2 -11  -3    0.84    1.44
   2 -11   3    2.52    1.05
  -2  11   3    1.14    1.49
  -2  11  -3   -0.26    1.39
  -3  11  -3    7.32    1.38
  -3 -11   3    6.32    1.09
  -3 -11  -3    3.34    1.37
  -3 -11  -3    8.12    1.29
  -3 -11  -3    7.55    1.34
  -3  11   3    3.12    1.16
   3  11  -3    7.43    1.06
   3  11  -3    5.72    1.18
  -3  11  -3    3.62    1.01
  -3 -11  -3    6.57    1.15
  -3  11  -3    7.68    1.10
   3 -11  -3    5.32    1.30
  -3 -11   3    6.40    1.36
   3 -11   3    5.67    1.07
  -4 -11  -3   10.55    1.31
  -4 -11  -3    9.37    1.37
  -4  11  -3    8.68    1.42
   4  11  -3   11.10    1.04
  -4  11   3    7.28    1.38
   4  11  -3    6.58    1.33
  -4 -11  -3   10.32    1.12
  -4  11  -3    3.79    1.25
  -4  11  -3   10.21    1.36
  -4 -11   3    7.34    1.08
   4 -11  -3    6.09    1.41
  -4 -11   3    8.21    0.96
   4 -11   3   11.68    1.37
  -5 -11  -3    1.00    1.33
   5  11  -3   -0.36    0.97
  -5 -11  -3    0.46    1.41
   5  11   3   -0.41    1.28
  -5  11   3    1.71    1.58
  -5  11  -3    0.60    1.35
   5  11  -3    0.65    1.51
  -5 -11  -3   -0.38    1.13
  -5  11  -3    1.10    1.19
  -5  11  -3    0.98    1.08
  -5 -11   3   -0.47    0.92
   5 -11  -3    0.42    1.47
   5 -11   3   -0.40    1.09
  -1 -12   3    0.50    0.99
  -1 -12  -3    0.51    1.16
   1  12  -3    1.00    0.95
  -1  12  -3    1.55    1.11
   1  12  -3    2.45    1.11
  -1 -12  -3    0.72    1.06
   1 -12  -3    1.09    1.09
  -1  12  -3   -0.16    1.22
  -1 -12   3    0.04    1.10
   1 -12   3    1.77    1.11
  -1  12   3   -0.30    1.14
  -2 -12  -3    8.61    1.79
  -2 -12  -3   13.26    1.18
  -2  12   3    9.59    1.40
  -2  12  -3    6.86    1.23
   2  12  -3   12.41    1.14
   2  12  -3   10.79    0.95
  -2  12  -3   11.34    1.56
  -2 -12  -3   10.68    1.32
  -2 -12  -3   11.13    2.20
   2 -12  -3   10.69    0.99
  -2 -12   3    9.46    0.90
  -2 -12   3   10.80    1.33
   2 -12   3   13.95    1.18
  -2  12  -3    8.88    1.28
  -3 -12  -3    3.03    1.15
  -3 -12   3    2.39    0.86
   3  12  -3    3.17    1.01
  -3  12   3    2.16    1.35
   3  12  -3    2.21    1.17
  -3 -12  -3    0.88    1.33
  -3 -12  -3    2.58    1.66
  -3  12  -3    1.06    1.17
  -3 -12  -3    2.69    1.26
  -3  12  -3   -0.15    1.44
   3 -12  -3    1.99    1.04
  -3 -12   3    1.89    1.02
   3 -12   3    0.96    1.41
  -3  12  -3    2.15    1.45
  -4  12  -3    1.68    1.44
  -4 -12  -3    1.26    1.15
   4  12  -3    1.58    0.99
  -4  12   3    1.55    1.30
   4  12  -3    0.92    1.02
  -4 -12  -3    2.85    1.67
  -4 -12  -3    1.03    1.20
  -4  12  -3    0.96    1.20
  -4  12  -3    2.54    1.16
  -4 -12  -3   -0.18    1.19
  -4 -12   3    1.49    0.98
   4 -12  -3    2.04    1.40
   4 -12   3    3.02    1.16
  -4 -12   3    1.66    1.14
   0 -13   3    2.63    0.89
   0  13  -3    4.68    1.00
   0  13  -3    7.91    1.49
   0 -13  -3    6.23    1.01
   0 -13   3    5.85    1.14
  -1 -13  -3   -0.02    1.19
  -1  13   3    0.12    1.09
  -1  13  -3    0.89    1.14
   1  13  -3   -0.08    0.95
   1  13  -3    1.81    1.32
  -1  13  -3    1.48    1.05
  -1 -13   3    0.37    0.83
  -1 -13  -3    0.96    1.22
   1 -13  -3   -0.30    0.92
  -1  13  -3    0.26    1.55
  -1 -13   3    1.24    1.33
   1 -13   3   -0.54    1.14
  -2 -13  -3    1.47    1.19
  -2  13   3    1.60    1.11
   2  13  -3    1.69    1.04
   2  13  -3   -0.80    1.12
  -2  13  -3    1.08    1.18
  -2 -13  -3   -1.16    1.14
   2 -13  -3    0.36    0.90
  -2 -13   3    0.44    1.01
  -2  13  -3   -0.54    1.33
   2 -13   3    0.98    1.16
  -2 -13   3    0.03    0.87
   0   0   4    7.12    1.03
   0   0  -4    5.70    1.30
   0   0  -4    6.37    1.05
   1   0  -4   39.29    1.66
   1   0   4   53.03    1.12
   1   0  -4   45.89    1.60
  -1   0  -4   49.90    1.12
  -1   0   4   51.84    1.25
   1   0  -4   50.19    1.67
  -1   0  -4   44.67    1.61
  -1   0  -4   49.44    1.13
  -2   0   4    2.09    0.92
  -2   0  -4    0.65    0.89
  -2   0  -4    1.01    0.87
   2   0  -4    0.68    1.65
  -2   0  -4    1.30    1.09
   3   0   4   44.12    0.92
  -3   0  -4   45.81    1.25
  -3   0  -4   47.69    1.11
  -3   0   4   49.90    1.16
   3   0  -4   22.17    2.41
  -3   0  -4   47.15    1.04
   4   0   4    1.87    0.74
  -4   0   4    2.84    1.27
  -4   0  -4    1.43    0.89
   4   0  -4   -0.46    1.97
  -4   0  -4    1.31    0.73
  -4   0  -4    1.16    1.03
   5   0   4    8.71    0.98
  -5   0  -4    5.25    1.26
   5   0  -4   11.44    2.06
  -5   0  -4    7.88    0.96
  -5   0  -4    7.96    0.78
  -5   0   4   10.63    1.19
   6   0   4    6.48    0.98
   6   0  -4    6.99    1.80
  -6   0  -4    5.41    1.01
  -6   0   4    4.86    1.33
  -6   0  -4    4.06    1.26
  -6   0  -4    5.49    0.80
   7   0   4    7.20    0.84
   7   0  -4    9.26    1.69
  -7   0  -4    4.60    1.10
  -7   0   4    8.09    1.69
  -7   0  -4    5.39    1.24
  -7   0  -4    8.07    0.83
   8   0  -4    1.83    1.33
   8   0   4    0.53    0.87
  -8   0   4    0.78    1.44
  -8   0  -4   -0.49    1.11
  -8   0  -4   -0.93    1.07
  -8   0  -4    0.15    0.87
   1   1  -4    5.83    1.40
   1  -1   4    8.13    0.89
   1  -1  -4    8.24    1.77
  -1  -1   4    9.59    1.17
   1   1   4    9.34    0.91
  -1   1  -4    9.38    0.94
  -1  -1  -4    8.26    0.91
   1  -1  -4    8.66    1.36
   1   1  -4    9.58    1.46
  -1   1  -4    7.98    1.13
   1  -1  -4    8.57    1.27
  -1   1  -4    8.32    0.93
  -1  -1   4    9.10    1.12
  -1  -1  -4    7.55    1.26
  -1  -1  -4    8.84    1.03
  -1   1   4    9.20    0.86
  -2  -1  -4   45.89    1.36
  -2   1  -4   52.15    1.12
  -2  -1  -4   51.34    1.09
  -2   1   4   57.45    1.29
  -2   1  -4   51.17    1.11
  -2  -1  -4   48.20    1.06
   2   1  -4   43.72    1.81
  -2  -1   4   55.38    1.19
   2  -1  -4   32.76    1.86
  -2   1  -4   50.19    1.49
   3  -1   4    1.03    0.71
   3   1   4    0.60    0.93
  -3   1  -4    1.73    1.03
  -3  -1   4    1.07    1.01
  -3   1  -4    0.26    0.89
  -3  -1  -4    0.90    0.87
  -3  -1  -4    1.38    1.29
   3   1  -4    3.13    1.87
   3  -1  -4    2.15    1.88
  -3   1   4    2.76    0.91
  -3   1  -4    1.65    0.88
  -3  -1  -4    1.13    0.71
   4  -1   4    0.23    0.89
   4   1   4   -0.06    0.92
  -4   1   4    0.76    1.20
  -4   1  -4    2.25    0.92
  -4  -1  -4    2.22    1.11
   4  -1  -4    1.79    2.16
   4   1  -4    1.76    2.39
  -4   1  -4   -0.11    0.96
  -4   1  -4    0.51    0.74
  -4  -1  -4    1.56    0.73
  -4  -1  -4    0.19    1.07
  -4  -1   4    0.70    1.13
   5  -1   4    9.49    0.96
   5   1   4   10.01    0.99
   5  -1  -4    8.58    1.89
   5   1  -4    7.25    1.84
  -5  -1  -4    5.59    1.06
  -5   1  -4    8.60    0.95
  -5  -1  -4    9.03    1.14
  -5   1  -4   10.07    0.79
  -5  -1   4   10.89    1.27
  -5  -1  -4    9.55    0.78
  -5   1   4    9.09    1.15
  -5   1  -4    7.45    1.01
   6  -1   4   16.40    0.85
   6   1   4   16.12    0.86
   6  -1  -4   16.58    1.48
   6   1  -4   13.61    1.66
  -6   1  -4   10.62    1.03
  -6   1  -4   11.54    1.01
  -6  -1   4   14.97    1.41
  -6  -1  -4   13.14    0.97
  -6   1  -4   15.84    0.84
  -6   1   4   17.23    1.26
  -6  -1  -4   13.13    0.84
  -6  -1  -4   11.31    1.15
   7  -1   4    0.85    0.81
   7  -1  -4    0.80    1.25
   7   1  -4    2.18    1.80
   7   1   4   -0.30    0.81
  -7  -1  -4   -0.21    1.11
  -7  -1   4   -0.59    1.69
  -7   1   4    0.12    1.55
  -7   1  -4    0.73    0.99
  -7  -1  -4   -1.69    1.20
  -7   1  -4    1.06    0.99
  -7   1  -4    0.88    0.81
  -7  -1  -4    0.35    0.79
   8  -1  -4    1.62    1.59
   8   1  -4    1.40    1.41
   8  -1   4    1.54    0.88
   8   1   4    2.63    1.09
  -8   1  -4    1.99    1.33
  -8  -1   4    0.46    1.76
  -8   1   4    4.18    1.71
  -8  -1  -4    2.74    1.13
  -8   1  -4    1.05    1.10
  -8   1  -4    2.16    0.87
  -8  -1  -4    1.75    1.04
  -8  -1  -4    3.06    1.07
   0  -2   4  158.05    1.76
   0   2  -4  138.20    1.69
   0  -2  -4  140.53    1.57
   0  -2  -4  145.60    1.85
   0  -2  -4  101.97    2.16
   0   2  -4  135.13    1.64
   0  -2  -4  136.93    1.66
   0  -2   4  138.09    1.42
   1   2  -4   29.58    1.39
  -1  -2   4   28.66    1.22
   1  -2  -4   18.85    1.57
  -1   2  -4   30.55    1.04
  -1  -2  -4   31.09    1.09
  -1  -2  -4   29.58    1.16
   1  -2  -4   30.03    1.73
  -1  -2   4   29.08    1.07
  -1   2  -4   31.90    1.19
   1   2  -4   32.61    1.80
  -1   2  -4   33.02    1.06
   1  -2  -4   31.07    1.39
  -1  -2  -4   24.97    1.47
  -1  -2  -4   29.58    1.00
  -2  -2   4    2.29    1.41
  -2  -2  -4    1.17    1.17
  -2   2  -4    5.19    0.96
  -2  -2  -4    1.03    1.01
   2   2  -4    2.61    2.87
  -2   2  -4    0.46    0.93
  -2  -2   4    2.75    1.24
  -2   2  -4    3.51    1.25
  -2  -2  -4    1.52    0.71
   2   2  -4    3.82    1.86
   2  -2  -4    0.65    1.99
  -2   2   4    1.38    1.02
   3  -2   4   23.00    0.84
  -3   2  -4   25.18    1.10
   3   2   4   26.27    0.87
  -3  -2   4   27.69    1.23
  -3   2  -4   25.56    1.04
  -3  -2  -4   25.18    0.95
  -3  -2  -4   23.78    1.20
   3   2  -4   18.24    1.88
   3  -2  -4   18.50    2.34
  -3   2  -4   27.19    1.01
  -3  -2  -4   24.90    0.99
  -3   2   4   25.99    1.01
   4  -2   4   79.53    1.08
  -4  -2  -4   65.83    1.41
   4   2   4   92.83    1.27
  -4   2   4   80.12    1.32
  -4   2  -4   65.00    1.25
  -4   2  -4   65.38    1.31
   4  -2  -4   76.38    2.32
  -4  -2  -4   76.89    1.34
   4   2  -4   62.84    2.38
  -4   2  -4   71.85    1.05
  -4  -2  -4   86.28    1.20
  -4  -2   4   83.22    1.59
   5  -2   4    9.94    0.81
  -5   2   4   12.09    1.07
   5   2   4   13.12    0.85
   5  -2  -4   12.03    1.44
   5   2  -4    6.79    1.72
  -5   2  -4    8.76    0.99
  -5  -2  -4    9.50    0.98
  -5  -2  -4    9.05    1.12
  -5   2  -4   11.19    0.84
  -5  -2   4    9.38    1.30
  -5  -2  -4   11.32    0.81
  -5   2  -4    6.96    1.19
   6  -2   4    9.80    0.86
  -6   2  -4    4.97    1.21
   6   2   4    9.59    0.85
   6  -2  -4    9.98    1.59
   6   2  -4    9.84    1.76
  -6  -2  -4    3.42    1.41
  -6   2  -4    6.74    1.24
  -6  -2   4    9.98    1.62
  -6  -2  -4    6.78    0.99
  -6   2  -4    9.57    1.02
  -6  -2  -4   10.80    1.02
  -6   2   4   10.04    1.16
   7  -2   4    6.59    0.85
   7  -2  -4    4.49    1.25
   7   2  -4    5.80    1.58
   7   2   4    4.97    0.86
  -7   2  -4    2.51    0.99
  -7  -2   4    4.57    1.37
  -7  -2  -4    3.06    1.15
  -7   2  -4    4.05    1.07
  -7   2   4    5.14    1.48
  -7  -2  -4    4.78    0.96
  -7   2  -4    5.79    1.04
  -7  -2  -4    4.86    0.84
   8   2  -4    9.96    1.56
   8  -2   4    8.47    0.94
   8   2   4    7.72    0.94
  -8  -2   4    4.54    1.49
  -8   2   4   10.35    1.37
  -8   2  -4    8.12    1.18
  -8   2  -4    5.08    1.33
  -8   2  -4   11.23    0.95
  -8  -2  -4    7.35    1.08
  -8  -2  -4   11.68    0.94
  -8  -2  -4    0.72    1.21
   8  -2  -4   11.60    1.60
   1  -3  -4   15.98    1.82
  -1   3  -4   20.28    1.09
   1  -3  -4   19.68    0.93
  -1  -3   4   20.56    1.06
  -1  -3  -4   24.32    1.07
  -1  -3  -4   21.20    1.11
   1  -3  -4   23.17    1.76
  -1   3  -4   21.27    1.14
   1   3  -4   22.45    1.71
  -1   3  -4   20.87    1.04
  -1  -3  -4   13.59    1.62
   1  -3  -4   21.91    1.24
  -1  -3  -4   24.76    1.01
  -1  -3   4   24.25    1.24
   1   3  -4   18.79    1.29
  -2  -3  -4    2.65    1.20
  -2  -3  -4    3.42    0.96
  -2   3  -4    3.16    1.00
   2   3  -4    1.93    2.31
  -2  -3  -4    2.52    1.01
  -2   3  -4    3.65    0.96
  -2   3  -4    2.70    1.04
  -2  -3   4    2.56    1.34
   2   3  -4    2.54    1.48
   2  -3  -4    4.98    1.59
  -2  -3  -4    3.44    0.91
  -2   3   4    3.02    0.82
   2  -3   4    4.20    0.96
  -2  -3   4    3.31    1.25
  -3  -3   4    0.71    1.17
  -3  -3  -4    3.07    0.94
  -3   3  -4    0.52    1.23
  -3   3   4    2.46    1.04
  -3  -3  -4    2.53    0.82
   3  -3  -4    2.73    1.69
   3   3  -4    2.34    1.68
  -3   3  -4    5.56    0.98
  -3  -3  -4    1.99    1.14
  -3  -3  -4    3.06    0.91
   3  -3   4    3.18    0.77
  -3   3  -4    3.91    0.99
  -4  -3  -4   12.41    1.17
  -4   3  -4   10.18    1.06
  -4   3  -4   10.43    1.07
   4  -3  -4   14.80    1.83
   4   3  -4   12.36    1.66
  -4  -3  -4   12.77    0.93
  -4   3  -4   15.12    1.04
  -4  -3  -4   13.79    1.01
  -4  -3   4   12.42    1.55
   4  -3   4   13.63    0.84
   5  -3  -4   17.07    1.38
   5   3  -4   11.54    1.56
  -5   3  -4   16.40    1.10
  -5   3  -4   16.85    1.09
  -5  -3  -4   14.85    0.97
  -5   3  -4   18.75    0.91
  -5  -3   4   14.96    1.60
  -5  -3  -4   17.26    0.87
  -5  -3  -4   11.88    1.21
   5  -3   4   19.78    0.90
   6  -3   4    1.49    0.85
   6  -3  -4    3.61    1.19
   6   3  -4    1.37    1.59
  -6   3  -4    1.48    1.02
  -6  -3   4    1.49    1.39
  -6  -3  -4    2.66    1.15
  -6   3  -4    3.11    0.84
  -6  -3  -4    4.44    1.00
  -6   3  -4    1.29    0.98
  -6  -3  -4    3.22    1.20
   7  -3   4    2.19    0.87
   7  -3  -4    2.84    1.45
  -7   3  -4    0.54    1.27
   7   3  -4    1.52    1.99
  -7  -3   4    4.85    1.39
  -7   3  -4    1.42    1.11
  -7   3  -4    1.09    0.86
  -7  -3  -4    2.58    1.19
  -7  -3  -4    0.07    1.18
  -7   3   4    2.55    1.12
  -7  -3  -4    1.55    0.86
   8  -3   4   13.07    0.96
   8   3  -4   12.16    2.01
  -8   3  -4    8.66    1.11
  -8  -3   4    7.03    1.51
  -8   3  -4    7.53    1.47
  -8   3  -4   14.42    0.95
  -8   3   4   10.38    1.58
  -8  -3  -4   10.92    1.11
  -8  -3  -4   15.21    1.19
  -8  -3  -4    4.50    1.27
   8  -3  -4   15.28    1.59
   0   4  -4    8.45    1.16
   0  -4   4    7.02    1.04
   0  -4  -4    8.49    0.89
   0  -4  -4    8.96    1.35
   0  -4  -4    5.20    1.62
   0   4  -4    8.79    1.13
   0  -4  -4    8.52    0.97
   0  -4   4    9.03    0.99
   1  -4  -4    1.93    1.68
  -1  -4   4    2.35    1.08
   1  -4  -4    1.04    0.82
  -1  -4  -4    1.60    1.03
  -1   4  -4    2.10    1.05
  -1  -4  -4    2.33    0.83
   1  -4  -4    1.19    1.84
   1   4  -4    0.70    1.72
  -1   4  -4    1.87    0.81
  -1  -4  -4   -0.83    1.55
   1  -4  -4    2.45    1.08
  -1  -4   4    2.14    1.12
  -1  -4  -4    2.44    0.91
   1   4  -4    0.77    1.22
  -2  -4  -4    2.11    1.17
  -2   4  -4   -1.10    1.05
  -2  -4  -4   -0.02    1.01
   2   4  -4    0.42    1.88
  -2  -4  -4   -0.12    0.80
   2  -4  -4   -0.11    2.40
  -2  -4   4    1.58    1.13
  -2   4  -4    0.01    0.98
  -2   4  -4   -0.09    0.95
   2   4  -4    1.03    1.41
   2  -4  -4    1.04    1.85
   2  -4  -4    0.74    1.50
  -2  -4   4    0.51    1.11
  -2  -4  -4    1.07    0.90
   2  -4   4   -0.34    0.77
  -3  -4   4    0.44    1.16
  -3  -4  -4    0.63    1.00
   3   4  -4    1.71    1.78
  -3   4  -4    0.43    1.07
  -3  -4  -4    2.34    0.84
   3  -4  -4    1.05    1.63
   3   4  -4    1.97    1.58
  -3   4  -4    1.06    0.81
  -3  -4  -4    0.59    1.42
  -3   4  -4    0.38    1.01
  -3  -4  -4    2.57    0.93
  -3  -4   4    1.73    1.50
   3  -4   4    2.32    0.80
  -4   4  -4    4.48    1.00
  -4  -4  -4    3.06    0.86
  -4  -4  -4    1.42    1.15
   4  -4  -4    4.35    1.65
  -4   4  -4    1.05    1.12
   4   4  -4    7.25    1.54
  -4  -4  -4    4.08    1.08
  -4   4  -4    3.75    0.85
  -4  -4   4    3.70    1.30
  -4  -4  -4    4.08    0.80
   4  -4   4    3.93    1.04
  -5  -4  -4    3.42    1.48
   5  -4  -4    9.04    1.52
  -5  -4  -4    8.23    0.87
   5   4  -4    7.02    1.41
  -5   4  -4    5.56    1.31
  -5   4  -4    5.12    1.13
  -5   4  -4    7.01    0.87
  -5  -4  -4    6.09    0.91
  -5  -4   4    5.60    1.33
  -5  -4  -4    8.35    0.85
   5  -4   4    9.03    0.87
   6  -4  -4    0.10    1.40
  -6  -4  -4    1.23    0.89
   6   4  -4    0.02    1.74
  -6  -4  -4   -0.18    1.50
  -6   4  -4   -0.37    1.14
  -6  -4   4    1.10    1.38
  -6   4  -4    1.26    1.00
  -6   4  -4    1.64    0.89
  -6  -4  -4    1.56    0.94
  -6  -4  -4    1.52    0.85
   6  -4   4    0.44    0.87
   7  -4   4    6.20    0.91
   7  -4  -4    6.22    1.43
   7   4  -4    3.62    1.77
  -7  -4  -4    3.96    1.14
  -7  -4   4    4.06    1.44
  -7   4  -4    2.59    1.18
  -7   4  -4    4.49    0.92
  -7  -4  -4    3.98    1.20
  -7  -4  -4    2.41    0.89
  -7   4  -4    4.08    1.04
  -7  -4  -4    5.39    0.90
  -1  -5   4    4.99    1.18
   1  -5  -4    5.47    1.64
  -1   5  -4    7.06    1.08
   1  -5  -4    7.57    1.07
  -1  -5  -4    8.74    0.91
   1  -5  -4    8.76    2.12
   1   5  -4    6.24    1.72
  -1  -5  -4    9.85    1.06
  -1   5  -4    9.08    1.10
  -1  -5  -4    3.65    1.55
  -1  -5   4    9.20    1.03
   1   5  -4    7.80    1.27
   1  -5  -4   10.85    1.17
  -1  -5  -4   10.66    1.00
   2  -5  -4   41.20    1.30
  -2   5  -4   39.02    1.35
  -2  -5  -4   19.78    1.62
  -2  -5  -4   49.13    1.28
   2   5  -4   33.89    2.05
  -2   5  -4   45.88    1.23
  -2  -5  -4   43.89    1.21
   2  -5  -4   28.56    2.35
  -2  -5   4   26.06    1.32
  -2   5  -4   41.10    1.04
   2   5  -4   37.32    1.82
   2  -5  -4   37.27    2.07
  -2  -5   4   44.03    1.35
   2  -5   4   43.05    1.01
   2  -5  -4   51.27    1.68
  -2  -5  -4   53.74    1.17
  -3  -5   4    0.98    1.20
  -3  -5  -4    2.02    1.04
   3   5  -4    1.15    1.70
  -3   5  -4    2.84    1.47
   3  -5  -4    0.88    1.79
   3   5  -4   -0.73    1.56
  -3  -5  -4    2.22    1.05
  -3   5  -4    1.67    1.04
  -3   5  -4   -0.19    1.27
  -3  -5  -4    2.50    1.18
  -3  -5   4    0.88    1.42
   3  -5   4   -0.25    1.01
  -3  -5  -4    1.84    0.80
  -4  -5  -4    0.81    0.84
  -4   5   4    0.65    1.07
   4  -5  -4    0.91    1.49
  -4  -5  -4   -0.18    1.13
  -4   5  -4    1.40    1.18
   4   5  -4    1.28    1.33
  -4   5  -4    0.03    0.89
  -4  -5  -4    0.88    1.08
  -4  -5   4    0.58    1.62
  -4  -5   4    1.16    1.24
  -4   5  -4    2.41    1.04
  -4  -5  -4    0.37    0.81
   4  -5   4    0.03    1.05
  -5   5   4   10.39    1.18
  -5  -5  -4    3.35    1.17
  -5   5  -4    5.82    1.07
   5  -5  -4    8.33    1.42
  -5  -5  -4    8.91    1.14
   5   5  -4    5.96    1.34
  -5   5  -4    5.28    1.22
  -5   5  -4    7.41    0.93
  -5  -5  -4    6.62    1.15
  -5  -5   4   10.03    1.53
  -5  -5  -4    7.36    0.90
   5  -5   4   10.78    1.12
   6  -5  -4   15.64    1.44
   6   5  -4   11.81    1.34
  -6  -5  -4   13.58    0.97
  -6   5  -4   11.28    1.12
  -6  -5  -4    5.87    1.25
  -6   5  -4    9.58    1.24
  -6   5   4   14.00    1.24
  -6  -5   4    9.61    1.61
  -6   5  -4   13.02    0.95
  -6  -5  -4   10.38    1.02
  -6  -5  -4   15.27    0.93
   6  -5   4   12.86    1.18
   7   5  -4    1.22    1.34
  -7   5   4    0.79    1.26
  -7  -5  -4    2.36    0.96
  -7  -5  -4    0.20    1.28
  -7  -5   4    0.61    1.37
  -7   5  -4    0.66    1.04
  -7   5  -4   -1.12    1.20
  -7   5  -4    0.11    1.13
  -7  -5  -4    1.34    1.23
  -7  -5  -4    0.38    0.93
   7  -5  -4    0.92    1.43
   7  -5   4   -0.68    1.15
   0  -6  -4   20.95    1.69
   0  -6  -4   26.22    1.57
   0  -6  -4   25.72    1.20
   0   6  -4   20.24    1.21
   0  -6   4   20.07    1.30
   0  -6  -4   28.17    1.16
   0   6  -4   23.74    1.24
   1  -6  -4    0.36    1.19
  -1  -6   4    0.02    1.17
  -1   6  -4   -0.55    1.10
  -1  -6  -4    1.21    1.18
   1  -6  -4   -0.14    1.04
   1   6  -4    0.71    1.78
   1  -6  -4   -1.09    2.07
  -1   6  -4    0.19    0.93
  -1  -6  -4   -0.02    1.01
  -1  -6  -4   -0.99    1.46
  -1  -6   4    0.22    1.05
   1  -6   4   -0.73    1.04
   1   6  -4   -1.17    1.25
  -1  -6  -4    0.35    0.84
   1  -6  -4   -1.07    1.56
  -2  -6  -4    4.91    1.19
  -2   6  -4    7.68    1.36
   2  -6  -4    8.00    1.14
  -2  -6  -4    6.58    1.14
  -2   6  -4    5.99    1.37
   2   6  -4    5.05    1.48
   2  -6  -4    5.12    1.85
  -2   6  -4    6.43    0.92
  -2  -6   4    3.18    1.16
  -2  -6  -4    5.41    1.10
   2   6  -4    6.63    1.43
   2  -6  -4    4.70    1.77
  -2  -6   4    6.75    1.13
   2  -6   4    7.68    1.09
  -2  -6  -4    6.94    1.04
   2  -6  -4    8.58    1.33
  -3  -6   4    5.70    1.13
   3  -6  -4    8.20    1.33
  -3  -6  -4    8.16    0.95
  -3   6  -4    4.91    1.34
   3   6  -4    6.21    1.88
   3  -6  -4    6.97    1.61
   3   6  -4    6.53    1.48
  -3   6  -4    9.21    0.92
  -3   6  -4    8.49    1.33
   3  -6  -4    7.37    1.83
  -3  -6  -4    7.02    1.13
  -3  -6   4    8.27    1.38
  -3  -6  -4    3.99    1.19
   3  -6   4    6.66    0.87
  -3  -6  -4    7.92    0.91
   3  -6  -4    9.66    1.82
   4   6  -4   14.65    1.63
   4  -6  -4   18.77    1.56
  -4  -6  -4   16.28    1.17
  -4  -6  -4    4.58    1.19
  -4   6  -4   12.83    1.34
   4   6  -4   13.50    1.35
  -4   6  -4   17.81    0.98
  -4  -6  -4   14.57    0.99
  -4   6  -4   16.64    1.14
  -4  -6   4   17.05    1.68
   4  -6   4   18.59    0.96
  -4  -6   4   15.27    1.16
  -4  -6  -4   19.50    0.93
   5  -6  -4    8.23    1.55
  -5  -6   4    6.53    1.71
  -5  -6  -4    8.36    1.16
   5   6  -4    7.12    1.28
  -5   6   4    7.38    1.13
  -5   6  -4    5.51    1.30
  -5  -6  -4    1.72    1.44
  -5   6  -4    7.64    1.18
  -5  -6   4    7.73    1.13
  -5  -6  -4    6.51    0.97
  -5  -6   4    8.22    1.85
   5  -6   4    9.67    0.94
  -5  -6  -4   10.18    1.12
  -5   6  -4    5.35    1.12
  -6   6   4   25.31    1.37
  -6   6  -4   22.50    1.19
   6   6  -4   23.24    1.34
  -6  -6  -4   29.70    1.08
  -6   6  -4   10.42    1.35
  -6  -6  -4    4.67    1.26
  -6  -6   4   23.09    1.27
  -6   6  -4   29.31    1.08
  -6  -6  -4   21.30    1.10
  -6  -6   4   24.44    2.69
  -6  -6  -4   29.01    1.01
   6  -6   4   30.25    1.07
   6  -6  -4   29.09    1.55
  -6  -6   4   22.05    2.64
   7   6  -4    4.23    1.28
  -7  -6  -4    6.09    1.04
  -7   6  -4    4.33    1.11
  -7  -6   4    4.80    1.26
  -7   6  -4    0.68    1.31
  -7   6  -4    8.45    1.01
  -7   6   4    5.69    1.50
  -7  -6  -4    5.37    1.04
   7  -6  -4    7.30    1.48
  -7  -6  -4    5.54    0.98
  -7  -6  -4    2.44    1.24
   7  -6   4    6.55    1.24
  -1  -7  -4    3.34    1.11
   1  -7  -4    3.60    1.26
  -1   7  -4    2.52    1.14
  -1  -7   4    1.43    1.10
  -1  -7  -4    3.03    1.07
   1   7  -4    2.55    1.32
   1  -7  -4    1.35    1.51
   1  -7  -4    2.99    1.25
  -1   7  -4    3.09    1.25
  -1  -7  -4    0.88    1.10
  -1  -7  -4    2.93    1.44
  -1  -7   4    3.91    1.14
   1   7  -4    2.79    1.28
   1  -7   4    4.30    0.91
   1  -7  -4    3.14    1.83
   2  -7  -4   25.87    1.42
  -2  -7  -4   15.90    1.50
  -2   7  -4   17.45    1.49
  -2   7  -4   23.91    1.43
  -2  -7  -4   23.32    1.31
   2   7  -4   19.81    1.50
   2  -7  -4   24.68    1.46
  -2   7  -4   21.45    1.04
   2  -7  -4   17.11    1.63
  -2  -7   4   20.16    1.13
   2  -7  -4   20.49    2.22
   2   7  -4   18.45    1.49
  -2  -7  -4   24.21    1.20
  -2  -7   4   23.05    1.30
   2  -7   4   24.16    0.99
  -2  -7  -4   26.30    1.02
   3  -7  -4    0.57    1.50
  -3  -7   4   -0.31    1.26
  -3   7  -4    0.44    1.37
   3   7  -4    1.23    1.68
  -3  -7  -4   -0.63    0.94
   3  -7  -4    0.35    1.33
   3  -7  -4    0.25    1.70
  -3   7  -4    0.35    1.28
   3   7  -4   -1.85    1.39
  -3   7  -4    0.96    0.93
   3  -7  -4    0.58    1.77
  -3  -7  -4    1.17    0.91
  -3  -7   4   -0.50    1.37
  -3  -7  -4    1.64    1.36
   3  -7   4    0.17    1.13
  -3  -7  -4    1.24    0.92
   4  -7  -4    0.97    1.85
   4  -7  -4    0.63    1.56
   4   7  -4    1.25    1.59
   4  -7  -4   -0.04    1.35
  -4  -7  -4    1.54    1.17
  -4  -7  -4    0.47    1.08
  -4   7  -4    1.31    1.61
   4   7  -4   -0.21    1.23
  -4   7  -4    0.83    1.18
  -4   7  -4    0.09    1.06
  -4  -7   4    1.20    1.44
  -4  -7  -4   -0.65    1.17
   4  -7  -4    1.23    1.81
   4  -7   4    1.14    0.91
  -4  -7   4    1.63    1.05
  -4  -7  -4    1.88    0.93
   5  -7  -4    3.44    1.55
  -5  -7  -4    0.31    1.12
  -5  -7   4    2.69    1.45
   5   7  -4    3.71    1.22
  -5  -7  -4    3.18    1.01
  -5   7  -4    1.67    1.33
  -5   7  -4    4.87    1.00
  -5  -7   4    3.73    1.74
  -5  -7   4    1.10    1.08
  -5  -7  -4    3.50    0.96
  -5   7  -4    2.81    1.36
   5  -7   4    3.75    0.96
  -5  -7  -4    3.19    1.18
  -6  -7   4    5.25    1.72
   6   7  -4    5.46    1.48
  -6  -7  -4    6.21    1.25
  -6   7  -4    2.78    1.61
  -6  -7  -4    0.28    1.22
  -6   7  -4    8.88    1.03
  -6  -7   4    4.91    1.16
  -6  -7   4    7.09    1.93
  -6  -7  -4    5.85    1.04
   6  -7  -4    8.53    1.65
  -6  -7  -4    7.40    0.99
   6  -7   4    7.51    1.01
  -6   7   4    5.76    1.26
  -6   7  -4    4.81    1.14
   0  -8  -4   10.49    1.17
   0  -8  -4    7.33    1.68
   0  -8   4    7.47    1.09
   0  -8  -4    8.72    1.78
   0   8  -4    8.56    1.65
   0  -8  -4   10.17    1.42
   0  -8   4   10.82    1.21
   0   8  -4    6.89    1.24
  -1   8  -4   -1.58    1.36
  -1  -8  -4    0.19    0.91
   1  -8  -4    1.61    1.13
  -1  -8   4    0.66    0.98
  -1  -8  -4   -0.76    1.43
   1   8  -4   -0.68    1.44
   1  -8  -4   -0.79    1.39
  -1   8  -4   -0.24    1.37
   1  -8  -4    0.80    1.35
  -1  -8  -4    0.39    1.58
  -1  -8  -4    1.02    1.15
   1   8  -4    0.94    1.28
   1  -8   4    2.30    0.94
   1  -8  -4    0.57    1.97
  -2  -8  -4    2.25    1.15
   2  -8  -4   -0.25    1.17
  -2  -8  -4    0.35    1.36
  -2   8  -4    1.10    1.35
  -2   8  -4    0.18    1.29
   2   8  -4   -0.32    1.34
  -2  -8  -4    1.98    1.28
   2  -8  -4    0.54    1.80
  -2   8  -4   -0.42    1.02
   2  -8  -4    0.58    1.30
   2  -8  -4   -1.25    1.64
   2   8  -4    0.61    1.75
  -2  -8   4    0.41    0.97
  -2  -8  -4   -0.47    1.22
  -2  -8   4    0.64    1.19
   2  -8   4    0.25    0.94
  -3  -8  -4    1.84    1.16
   3  -8  -4    2.75    1.39
   3  -8  -4    2.88    1.90
  -3  -8   4    3.47    0.98
  -3   8  -4    3.25    1.38
   3   8  -4    1.91    1.49
  -3   8  -4    4.87    1.11
  -3  -8  -4    0.07    1.05
   3  -8  -4    2.45    1.57
   3   8  -4    1.83    1.31
  -3   8  -4    1.05    1.23
   3  -8  -4    0.67    1.90
  -3  -8  -4    2.26    1.31
  -3  -8   4    2.39    1.48
  -3  -8  -4    2.30    1.19
   3  -8   4    2.31    0.97
   4  -8  -4    5.18    1.90
   4  -8  -4    5.65    1.66
   4   8  -4    4.27    1.54
  -4  -8  -4    4.45    1.26
  -4  -8  -4    3.25    1.28
   4   8  -4    4.89    1.21
  -4   8  -4    4.51    1.69
   4  -8  -4    4.47    1.63
  -4   8  -4    2.87    1.35
  -4   8  -4    5.10    1.00
   4  -8  -4    3.40    1.71
  -4  -8   4    5.23    1.36
  -4  -8  -4    4.53    1.19
   4  -8   4    6.36    1.01
  -4  -8  -4    3.90    0.99
  -4  -8   4    3.34    1.01
   5  -8  -4    5.05    2.39
  -5  -8  -4    1.62    1.34
   5   8  -4    4.81    1.15
  -5  -8  -4    2.84    1.03
   5  -8  -4    4.35    1.70
  -5   8  -4    2.50    1.43
  -5   8  -4    3.23    1.03
  -5   8  -4    4.45    1.12
  -5  -8   4    3.58    1.47
  -5  -8   4    3.19    1.07
  -5  -8  -4    3.11    1.04
   5  -8  -4    4.82    2.21
   5  -8  -4    5.23    1.80
   5  -8   4    4.65    0.99
  -5  -8  -4    6.43    1.01
  -6  -8   4    1.04    1.70
   6  -8  -4    0.26    1.72
  -6  -8  -4    0.76    1.06
  -6   8  -4    0.34    1.67
  -6   8  -4    0.36    1.04
  -6  -8   4    1.74    1.10
   6  -8  -4    1.06    2.02
   6  -8   4   -0.44    1.04
  -6  -8  -4    2.34    1.01
  -1  -9  -4   10.18    1.21
   1  -9  -4    8.64    1.24
  -1  -9   4    3.97    0.96
   1   9  -4    6.70    1.38
  -1  -9  -4    6.86    1.56
  -1   9  -4    5.00    1.47
   1  -9  -4    4.74    1.34
  -1  -9  -4    5.39    1.56
   1  -9  -4    5.01    2.24
   1   9  -4    5.16    1.37
   1  -9  -4    6.13    1.75
   1  -9   4    7.17    1.24
  -1  -9  -4    6.30    1.49
  -1   9  -4    5.10    1.18
  -2  -9  -4    4.12    0.99
  -2   9  -4    1.72    1.16
   2  -9  -4    3.54    1.27
   2  -9  -4    2.70    2.09
  -2   9  -4    1.28    1.19
   2   9  -4    2.78    1.34
  -2  -9  -4    2.15    1.13
  -2   9  -4    3.18    1.11
   2  -9  -4    2.26    1.40
   2   9  -4    2.20    1.36
  -2  -9   4    3.24    0.93
   2  -9  -4    3.09    2.07
   2  -9   4    3.52    1.01
  -2  -9  -4    2.53    1.26
  -2  -9  -4    2.07    1.37
  -3  -9  -4    1.35    1.00
   3  -9  -4    0.61    1.47
  -3   9  -4   -0.40    1.13
  -3  -9   4   -0.05    0.95
   3   9  -4    1.44    1.39
  -3   9  -4    0.68    1.51
  -3  -9  -4    0.62    1.33
   3   9  -4    0.58    1.25
  -3   9  -4    0.67    1.05
  -3  -9  -4   -0.02    1.33
   3  -9  -4   -0.03    1.70
  -3  -9   4   -0.15    1.38
   3  -9   4    2.36    1.23
  -3  -9  -4    1.01    1.26
  -4  -9   4    5.69    1.02
   4  -9  -4    5.90    1.79
  -4  -9  -4    3.42    1.29
   4   9  -4    2.85    1.68
   4   9  -4    2.71    1.22
  -4   9  -4    4.05    1.14
  -4  -9  -4    7.14    1.12
  -4   9  -4    3.09    1.26
  -4   9  -4    5.83    1.06
   4  -9  -4    4.67    1.87
  -4  -9   4    4.55    1.48
   4  -9   4    6.43    1.03
  -4  -9  -4    5.52    1.34
  -4  -9  -4    6.51    1.06
   5  -9  -4    6.58    1.90
   5   9  -4    5.86    1.16
  -5  -9  -4    6.17    1.11
  -5   9  -4    1.43    1.54
  -5   9  -4    4.51    1.44
  -5   9  -4    4.47    1.34
  -5  -9   4    5.70    1.80
   5  -9  -4    5.12    2.02
  -5  -9   4    5.54    1.04
   5  -9   4    4.08    1.08
  -5  -9  -4    5.20    1.38
  -5  -9  -4    2.22    1.08
  -5  -9  -4    6.06    1.10
   0 -10  -4   43.54    1.44
   0  10  -4   29.10    1.38
   0 -10  -4   22.98    1.55
   0  10  -4   30.52    1.45
   0 -10   4   35.95    1.47
   0 -10  -4   23.64    2.61
   0 -10   4   19.51    1.25
   0 -10  -4   37.48    2.19
  -1 -10  -4    7.68    1.05
   1 -10  -4    6.65    1.31
  -1 -10  -4    4.28    1.58
   1  10  -4    4.07    1.07
  -1 -10   4    3.11    0.93
  -1 -10  -4    3.25    1.71
  -1  10  -4    6.35    1.29
   1 -10  -4    5.10    1.26
   1  10  -4    7.44    1.44
  -1 -10   4    5.76    1.11
   1 -10   4    7.18    1.12
  -1  10  -4    2.73    1.28
  -1 -10  -4    7.31    1.76
  -2 -10  -4    1.94    1.02
   2 -10  -4    1.41    1.55
  -2  10  -4    1.56    1.12
   2  10  -4    0.67    1.03
  -2 -10  -4    2.17    1.23
  -2  10  -4   -0.45    1.16
   2  10  -4    0.03    1.29
   2 -10  -4    0.96    1.35
   2 -10   4    0.92    1.04
  -2 -10  -4    0.23    1.29
  -2 -10   4    1.20    0.90
  -2 -10  -4    1.52    1.54
  -2  10  -4    1.08    1.21
  -3 -10  -4    6.48    1.12
  -3  10  -4    2.94    1.23
   3 -10  -4    6.49    1.43
   3  10  -4    3.15    1.39
  -3  10  -4    2.77    1.17
  -3 -10  -4    2.75    1.33
  -3 -10  -4    4.24    1.21
   3  10  -4    2.89    1.46
  -3 -10   4    2.60    0.97
  -3  10  -4    2.81    1.14
   3 -10  -4    2.61    1.49
  -3 -10   4    3.20    1.48
   3 -10   4    4.31    1.10
  -3 -10  -4    5.02    1.41
  -4 -10  -4   22.34    1.18
   4 -10  -4   18.68    1.64
  -4 -10   4   12.23    1.03
  -4  10  -4   16.50    1.31
   4  10  -4    8.96    1.68
  -4 -10  -4   20.59    1.28
  -4  10  -4   10.91    1.27
  -4  10  -4   14.13    1.20
   4 -10  -4   10.96    1.91
  -4 -10   4   14.29    1.60
   4 -10   4   19.44    1.17
  -4 -10  -4   17.66    1.53
  -4 -10  -4    8.92    1.39
  -1 -11  -4    0.99    2.07
  -1 -11  -4    1.44    1.35
   1 -11  -4    1.09    1.41
  -1 -11  -4    1.37    1.95
  -1  11  -4    0.60    1.06
   1  11  -4    1.54    1.29
  -1  11  -4    0.35    1.66
  -1 -11  -4    2.30    1.51
   1 -11  -4    1.92    1.24
   1  11  -4    3.21    1.32
  -1 -11   4    0.60    1.11
  -1 -11   4    0.59    1.16
   1 -11   4    3.18    1.43
  -1  11  -4    0.89    1.61
  -2 -11   4    6.97    1.15
  -2 -11  -4   13.73    1.18
  -2 -11  -4   11.47    1.73
   2 -11  -4   15.93    1.52
  -2  11  -4    7.20    1.14
   2  11  -4    9.04    1.33
  -2 -11  -4    9.66    1.45
  -2  11  -4    7.45    1.64
   2  11  -4   11.18    1.28
   2 -11  -4    9.85    1.39
  -2 -11  -4    7.17    1.61
  -2 -11   4    7.43    1.26
   2 -11   4    9.98    1.23
  -2  11  -4    9.88    1.33
   1   0   5    2.00    1.04
  -1   0  -5    0.39    1.06
   1   0  -5    1.95    2.16
  -1   0  -5   -1.34    1.49
   1   0  -5    1.12    2.42
  -1   0  -5    0.94    1.31
   1   0  -5   -0.89    1.78
   2   0   5   10.71    1.13
  -2   0  -5    8.91    1.14
  -2   0   5   10.07    1.05
  -2   0  -5    9.29    1.48
  -2   0  -5   13.47    1.17
   2   0  -5    5.01    1.94
  -3   0  -5    0.95    1.07
  -3   0   5   -0.05    1.24
   3   0  -5   -0.54    2.69
  -3   0  -5    0.00    1.07
  -3   0  -5   -2.28    1.32
  -4   0  -5   23.74    1.40
   4   0   5   29.86    1.00
  -4   0  -5   20.09    1.19
   4   0  -5   17.63    2.69
  -4   0  -5   28.16    0.97
  -4   0   5   29.66    1.18
   5   0   5    1.84    0.92
  -5   0  -5    1.86    1.22
   5   0  -5    2.49    2.25
  -5   0  -5    1.76    1.08
  -5   0   5    2.61    1.12
  -5   0  -5    2.04    0.88
   6   0   5    7.03    1.18
   6   0  -5    5.10    1.71
  -6   0   5    4.57    1.26
  -6   0  -5    3.04    1.23
  -6   0  -5    4.31    1.13
  -6   0  -5    5.84    0.93
   0   1  -5   30.06    1.67
   0  -1  -5   21.24    1.79
   0  -1   5   37.04    1.52
   0   1  -5   31.57    1.27
   0  -1  -5   35.62    1.19
   0  -1  -5   35.45    1.66
   0   1  -5   38.88    1.72
   0  -1  -5   41.67    1.61
   1  -1   5    0.71    1.05
   1  -1  -5    0.88    1.26
  -1  -1  -5    0.40    1.11
   1   1  -5    1.50    1.65
  -1   1  -5    0.21    1.12
  -1  -1  -5    0.15    1.02
  -1   1  -5    3.71    1.78
   1  -1  -5    1.39    2.32
  -1  -1  -5    3.31    1.95
   1   1  -5    0.97    2.41
   1  -1  -5    0.86    2.40
  -1   1  -5    1.16    1.15
  -1  -1  -5    1.75    1.09
  -1  -1   5    0.38    1.02
   1   1  -5    2.87    2.08
   1  -1  -5    1.12    2.13
   2  -1   5   -1.25    1.08
  -2  -1   5    1.38    1.26
  -2   1  -5    1.76    1.08
  -2  -1  -5   -0.14    1.26
  -2   1  -5   -0.44    1.35
  -2  -1  -5   -0.10    1.49
  -2   1  -5    0.47    1.15
  -2   1   5    1.21    0.96
  -2  -1  -5    0.48    1.07
   2   1  -5   -1.44    1.96
   2  -1  -5   -0.62    2.02
  -3  -1   5    2.25    1.05
  -3   1  -5    1.46    1.10
  -3  -1  -5    2.00    1.07
   3   1  -5    2.16    2.11
   3  -1  -5    1.83    2.09
  -3   1  -5    2.69    1.14
  -3  -1  -5    1.90    0.86
  -3   1  -5    2.93    1.31
  -3  -1  -5    1.85    1.45
  -3   1   5    2.30    1.21
   4  -1   5   19.02    0.96
  -4   1   5   18.38    1.13
  -4  -1  -5   14.03    1.63
   4   1   5   19.76    1.02
  -4   1  -5   14.65    1.44
  -4  -1  -5   13.11    1.10
   4  -1  -5   15.48    2.12
   4   1  -5   10.86    2.57
  -4   1  -5   20.76    0.98
  -4  -1  -5   23.83    1.13
  -4  -1   5   16.22    1.45
  -4   1  -5   14.60    1.34
   5  -1   5    0.57    1.09
  -5   1  -5    1.18    1.20
   5   1   5   -0.07    1.13
   5  -1  -5    3.04    1.72
  -5  -1  -5    0.72    1.24
   5   1  -5   -1.01    1.93
  -5  -1   5    0.64    1.15
  -5   1  -5    1.07    1.11
  -5  -1  -5    0.43    1.03
  -5   1  -5   -0.32    1.10
  -5   1   5   -0.54    1.10
  -5  -1  -5   -0.44    0.88
   6  -1   5   -0.23    0.93
   6   1   5    0.61    1.17
   6  -1  -5   -0.01    1.58
   6   1  -5    0.78    1.80
  -6   1   5    0.44    1.16
  -6   1  -5    0.65    1.40
  -6  -1  -5    1.05    1.07
  -6  -1  -5    1.11    1.23
   1  -2   5    1.27    1.09
  -1  -2   5    0.98    1.39
   1  -2  -5    0.10    1.03
  -1   2  -5    0.13    1.15
  -1  -2  -5    2.07    1.15
  -1   2  -5    2.91    1.40
  -1  -2  -5    2.48    1.25
   1  -2  -5    0.64    3.00
  -1  -2  -5    0.32    1.57
   1   2  -5    0.62    2.66
  -1   2  -5    0.48    1.16
   1  -2  -5    0.84    1.93
  -1  -2   5    0.92    1.07
  -1  -2  -5    0.77    1.27
   1   2  -5    0.19    1.63
   1  -2  -5    1.17    2.14
  -2  -2  -5    3.53    1.12
  -2   2  -5    1.59    1.16
  -2  -2  -5    2.44    1.05
  -2   2  -5    3.98    1.61
  -2   2  -5    3.64    0.97
  -2  -2  -5    2.54    1.55
  -2  -2   5    5.02    1.11
  -2  -2  -5    4.36    1.05
   2   2  -5    2.90    2.29
   2  -2  -5    4.74    1.89
   3  -2   5    0.69    1.06
  -3  -2   5   -0.03    1.37
  -3  -2  -5    0.18    1.08
  -3   2  -5   -0.21    1.11
  -3  -2  -5   -0.94    1.01
  -3   2   5    0.62    0.96
   3   2  -5    1.71    1.99
   3  -2  -5   -0.11    2.46
  -3   2  -5    1.52    1.15
  -3   2  -5    1.25    1.24
  -3  -2  -5    0.68    1.04
  -3  -2  -5    0.95    1.47
   4  -2   5    2.86    1.08
  -4  -2  -5    0.62    1.32
  -4   2  -5    1.74    1.13
   4  -2  -5    4.28    1.83
  -4  -2  -5    1.79    1.01
   4   2  -5    0.55    2.39
  -4   2   5    3.27    1.00
  -4   2  -5    3.22    0.94
  -4  -2   5    2.57    1.20
  -4  -2  -5    3.64    0.86
  -4   2  -5    2.29    1.23
   5  -2   5    2.51    0.92
  -5   2  -5    1.17    1.20
   5  -2  -5    1.76    1.92
  -5  -2   5    2.02    1.25
   5   2  -5    1.53    1.78
  -5  -2  -5    1.68    1.26
  -5   2  -5    2.75    1.41
  -5  -2  -5    2.95    1.24
  -5   2  -5    1.10    0.94
  -5  -2  -5    1.95    1.09
  -5   2   5    1.01    1.29
   0   3  -5   -1.97    1.46
   0  -3   5    0.23    1.29
   0  -3  -5    0.83    1.99
   0  -3  -5   -0.09    1.00
   0  -3  -5    0.61    1.55
   0   3  -5    0.43    1.41
   0  -3  -5    1.09    1.33
   1  -3   5    1.10    1.10
  -1  -3   5    1.62    1.26
  -1   3  -5    1.41    1.37
  -1   3  -5    2.27    1.23
   1  -3  -5    2.46    1.25
  -1  -3  -5    1.50    1.23
  -1  -3  -5    0.80    0.99
  -1  -3  -5    1.01    1.54
   1  -3  -5    0.81    3.37
   1   3  -5    2.09    2.70
  -1   3  -5    0.85    1.25
   1  -3  -5    1.35    1.84
  -1  -3  -5    1.74    1.06
  -1  -3   5    1.58    1.12
   1   3  -5    1.45    1.95
   1  -3  -5    3.00    1.69
   2  -3  -5    3.66    1.06
  -2  -3  -5    4.00    1.16
  -2   3  -5    2.45    1.18
   2   3  -5    3.31    3.44
  -2   3  -5    4.01    1.29
  -2  -3  -5    1.35    1.25
  -2  -3   5    3.25    1.18
  -2   3  -5    4.90    1.22
  -2  -3  -5    2.49    1.48
   2   3  -5    0.67    2.18
   2  -3  -5    3.07    1.82
  -2  -3  -5    3.18    1.08
   3  -3   5    3.42    1.09
  -3   3   5    0.82    0.96
  -3  -3  -5    2.38    0.91
  -3   3  -5    1.72    1.16
  -3  -3  -5    2.63    0.97
  -3   3  -5    2.89    1.24
   3   3  -5    3.20    1.96
   3  -3  -5    3.74    2.37
  -3   3  -5    3.18    1.17
  -3  -3  -5    2.96    0.86
  -3  -3  -5    1.42    1.75
  -3  -3   5    1.59    1.47
   4  -3   5   -0.69    0.91
  -4  -3  -5    0.21    1.35
  -4   3   5    0.84    0.99
  -4  -3  -5   -0.43    1.11
  -4   3  -5    1.21    1.45
   4  -3  -5    0.70    2.05
   4   3  -5    2.77    1.75
  -4  -3  -5    1.23    0.98
  -4   3  -5    0.14    1.18
  -4  -3   5   -1.80    1.49
  -4   3  -5    1.28    1.22
  -4  -3  -5    0.48    1.08
   5  -3   5    0.41    0.93
  -5  -3  -5   -0.45    0.98
   5  -3  -5    0.49    1.45
  -5  -3   5   -2.40    1.30
   5   3  -5    0.80    1.65
  -5   3   5   -0.11    1.22
  -5   3  -5    0.40    1.20
  -5  -3  -5    0.35    1.34
  -5  -3  -5    0.59    1.04
  -5   3  -5    0.16    1.20
  -5  -3  -5    1.38    0.92
  -5   3  -5    0.03    1.22
   1  -4   5    3.13    1.14
  -1  -4   5    2.90    1.51
  -1   4  -5    2.78    1.32
  -1   4  -5    1.91    1.26
   1  -4  -5    2.24    1.22
  -1  -4  -5    1.64    1.32
  -1  -4  -5    1.56    1.00
  -1  -4  -5    3.17    1.50
   1   4  -5    2.66    2.59
   1  -4  -5    1.09    3.14
  -1  -4   5    3.66    1.18
  -1   4  -5    3.23    1.31
   1  -4  -5    2.73    1.52
  -1  -4  -5    2.00    1.27
   1   4  -5    0.97    1.53
   1  -4  -5    3.54    1.61
  -2  -4   5   69.32    2.33
   2  -4  -5   65.56    1.40
  -2   4  -5   65.15    1.58
  -2  -4  -5   68.99    1.64
  -2   4  -5   63.83    1.60
   2   4  -5   50.14    3.41
  -2  -4   5   58.96    1.48
  -2  -4  -5   59.67    1.31
  -2   4  -5   86.15    1.61
  -2  -4  -5   28.39    1.99
   2   4  -5   53.73    1.96
   2  -4  -5   53.75    2.16
  -2  -4  -5   74.01    1.29
   3  -4   5    0.33    1.12
   3  -4  -5    0.87    1.01
  -3  -4  -5    0.76    1.16
  -3   4  -5   -0.95    1.22
  -3   4  -5    1.03    1.22
  -3  -4  -5    1.30    1.19
   3  -4  -5    1.61    2.14
  -3   4  -5    0.65    1.24
   3   4  -5   -0.77    2.27
  -3  -4  -5   -0.12    1.11
  -3  -4   5    0.65    1.25
  -3  -4  -5    1.17    1.38
   4  -4   5    2.49    0.96
  -4  -4  -5    3.09    1.18
  -4  -4  -5    1.23    1.60
   4  -4  -5    2.44    1.87
  -4   4  -5    2.04    1.59
   4   4  -5    1.85    2.08
  -4  -4   5    1.63    1.27
  -4  -4  -5    2.25    1.23
  -4   4  -5    2.19    1.01
  -4   4  -5    2.47    1.24
  -4  -4  -5    2.60    1.13
   5  -4   5    1.95    1.19
   5  -4  -5    1.46    1.72
  -5  -4  -5    0.33    1.23
  -5  -4   5    1.18    1.29
   5   4  -5    2.73    1.55
  -5   4  -5    2.63    1.29
  -5  -4  -5    0.96    1.28
  -5   4  -5    1.94    1.01
  -5  -4  -5    1.66    1.03
  -5  -4  -5    2.88    0.95
  -5   4  -5    1.12    1.26
   0  -5  -5   19.78    1.60
   0  -5  -5   26.20    1.90
   0  -5  -5   24.29    1.16
   0   5  -5   25.35    1.79
   0  -5  -5   36.60    1.54
   0  -5   5   32.37    1.39
   0   5  -5   26.80    1.52
  -1   5  -5   -0.46    1.30
  -1   5  -5    1.11    1.31
  -1  -5  -5    1.05    1.57
   1  -5  -5    0.89    1.21
   1   5  -5    1.74    2.01
  -1  -5  -5    0.62    1.72
  -1  -5  -5    0.19    0.94
   1  -5  -5    0.82    2.37
  -1   5  -5    0.70    1.40
  -1  -5   5   -1.35    1.52
   1  -5  -5    0.96    1.51
  -1  -5  -5    1.05    1.12
   1   5  -5    2.05    1.48
   1  -5  -5   -0.61    1.93
   1  -5   5    0.54    1.18
  -1  -5   5   -0.12    1.40
  -2  -5   5   -0.22    1.40
  -2   5  -5    1.46    1.32
  -2   5  -5    0.86    1.27
   2  -5  -5    0.44    1.03
  -2  -5  -5    0.60    1.24
   2   5  -5   -0.08    2.55
  -2  -5   5    2.22    1.26
  -2  -5  -5    1.33    1.18
  -2   5  -5   -0.05    1.03
  -2  -5  -5    1.01    1.36
   2   5  -5    1.00    1.64
   2  -5  -5   -1.24    2.01
  -2  -5  -5    0.83    1.12
   3  -5  -5    1.82    1.33
  -3  -5  -5    1.95    1.24
  -3   5  -5    2.36    1.37
  -3   5  -5    0.08    1.28
   3  -5  -5    2.27    1.98
  -3   5  -5    2.24    1.03
   3   5  -5    2.60    1.77
  -3  -5  -5   -0.14    1.23
  -3  -5  -5    2.52    0.92
  -3  -5   5    0.58    1.29
   3  -5   5    1.97    1.16
  -3  -5  -5    2.34    1.35
  -4  -5  -5    3.71    1.69
  -4  -5  -5   16.40    1.31
   4  -5  -5   12.85    1.86
  -4   5  -5    7.47    1.43
   4   5  -5   11.87    1.68
  -4  -5   5    7.66    1.33
  -4   5  -5   14.50    1.30
  -4   5  -5   17.62    1.35
  -4  -5  -5   11.24    1.09
  -4  -5  -5   16.41    1.23
   4  -5   5   15.81    1.06
  -1   6  -5    2.01    1.33
  -1  -6   5    2.56    1.33
  -1   6  -5    1.04    1.46
  -1  -6  -5    3.84    1.49
  -1  -6  -5    1.24    1.68
   1  -6  -5    2.15    1.03
   1   6  -5    3.00    2.08
   1  -6  -5    1.35    2.05
  -1   6  -5    2.52    1.47
  -1  -6  -5    2.45    1.18
   1   6  -5    1.27    1.51
   1  -6  -5    2.50    1.42
  -1  -6  -5    4.06    1.22
   1  -6  -5    4.41    1.93
  -1  -6   5    3.02    1.46
  -2   6  -5   10.35    1.35
  -2   6  -5    4.44    1.50
  -2  -6  -5    9.19    1.41
   2   6  -5    4.28    2.08
   2  -6  -5    8.98    1.35
  -2  -6   5    8.17    1.33
  -2   6  -5    8.74    1.43
  -2  -6  -5    7.17    1.03
   2  -6  -5    6.86    3.07
   2  -6  -5    7.58    2.10
  -2  -6  -5    5.95    1.66
   2   6  -5   10.60    1.69
   2  -6  -5   12.11    2.35
  -2  -6  -5   13.25    1.23
   2  -6   5   10.30    1.04
  -2  -6   5   10.38    1.59
   3   6  -5    1.59    2.21
   3  -6  -5    0.77    1.32
  -3  -6  -5    0.30    1.28
  -3   6  -5   -1.35    1.83
  -3   6  -5    1.12    1.29
   3  -6  -5    1.28    1.84
  -3   6  -5    1.18    1.34
   3   6  -5    1.40    1.63
  -3  -6  -5    1.14    1.01
  -3  -6  -5    0.55    0.94
  -3  -6   5    2.28    1.29
   3  -6   5    2.56    1.24
  -3  -6   5    1.26    1.88
  -3  -6  -5    2.16    1.62
   4  -6  -5    2.97    1.33
   4  -6  -5    1.03    1.63
  -4  -6  -5    0.18    1.56
  -4  -6  -5    3.08    1.30
  -4   6  -5    1.20    1.45
   4   6  -5    3.76    1.50
  -4   6  -5    2.28    1.26
  -4  -6   5    1.59    1.26
  -4   6  -5    1.19    1.10
  -4  -6  -5    2.46    1.25
  -4  -6  -5    2.41    0.99
   4  -6   5    2.00    1.27
   0  -7  -5   13.08    1.80
   0  -7  -5   13.68    2.14
   0   7  -5   11.70    2.04
   0  -7  -5   17.27    1.34
   0   7  -5   16.00    1.52
   0  -7  -5   22.54    1.39
   0  -7   5   19.38    1.37
  -1  -7   5    0.80    1.22
  -1   7  -5   -1.46    1.57
  -1  -7  -5    1.87    1.67
  -1  -7  -5    0.49    1.68
   1   7  -5    0.56    1.63
  -1   7  -5    0.26    1.56
   1  -7  -5    0.06    1.28
   1  -7  -5    0.42    1.90
  -1  -7  -5   -0.33    1.04
   1   7  -5    2.84    1.49
   1  -7  -5    0.24    1.91
   1  -7  -5    0.71    1.45
  -1  -7   5    1.17    1.30
  -1  -7  -5    1.60    1.23
  -1   7  -5    2.39    1.31
  -2   7  -5    1.80    1.34
  -2   7  -5    0.30    1.56
   2   7  -5    0.11    1.93
  -2  -7  -5    0.37    1.47
  -2  -7   5    0.35    1.24
   2  -7  -5    0.04    1.33
  -2   7  -5    0.18    1.44
   2  -7  -5   -0.20    2.42
   2  -7  -5    1.19    2.30
  -2  -7  -5   -0.07    1.59
   2   7  -5   -1.19    1.65
  -2  -7  -5    0.06    1.23
   2  -7  -5    0.74    1.81
  -2  -7   5   -0.23    1.35
  -2  -7  -5   -0.20    1.20
   2  -7   5   -0.60    1.26
  -3   7  -5    0.49    1.29
   3   7  -5   -0.04    2.02
  -3   7  -5    1.94    1.93
  -3  -7  -5    0.59    1.41
   3  -7  -5    2.16    1.68
   3  -7  -5    1.50    1.35
  -3   7  -5    1.70    1.13
   3   7  -5   -0.17    1.59
  -3  -7  -5    1.55    1.28
  -3  -7  -5    0.36    1.24
  -3  -7  -5    1.60    1.61
  -3  -7   5    1.73    1.19
  -3  -7   5    1.27    1.81
   3  -7   5    1.36    1.29
  -1   8  -5    2.55    1.46
  -1  -8  -5    1.54    1.60
   1   8  -5    1.74    1.59
  -1  -8  -5    1.08    1.82
  -1   8  -5    0.82    1.72
   1  -8  -5    0.83    1.59
  -1  -8   5    0.27    1.15
   1  -8  -5    1.69    1.32
  -1  -8  -5    2.23    1.32
   1   8  -5    1.06    1.52
   1  -8  -5    2.06    2.22
  -1  -8   5    0.97    1.39
   1  -8  -5    1.62    1.58
  -1  -8  -5    1.45    1.30
   0   0   0    0.00    0.00
;
_shelx_hkl_checksum              46954
_publcif_info_exptl_table_max_cols 4
_publcif_info_exptl_table_use_headnotes n
loop_
_space_group_symop_operation_xyz
'x, y, z'
'-x+1/2, -y, z+1/2'
'-x, y+1/2, -z'
'x+1/2, -y+1/2, -z+1/2'
'-x, -y, -z'
'x-1/2, y, -z-1/2'
'x, -y-1/2, z'
'-x-1/2, y-1/2, z-1/2'
loop_
_atom_site_label
_atom_site_type_symbol
_atom_site_fract_x
_atom_site_fract_y
_atom_site_fract_z
_atom_site_U_iso_or_equiv
_atom_site_adp_type
_atom_site_occupancy
_atom_site_site_symmetry_order
_atom_site_calc_flag
_atom_site_refinement_flags_posn
_atom_site_refinement_flags_adp
_atom_site_refinement_flags_occupancy
Ba Ba 0.14120(9) 0.2500 0.2528(2) 0.0211(3) Uani 1 2 d S T P
Ge Ge 0.09920(11) 0.58069(9) 0.1663(2) 0.0179(3) Uani 1 1 d . . .
Ni Ni 0.35487(13) 0.00155(11) 0.1568(3) 0.0179(3) Uani 1 1 d . . .
loop_
_atom_site_aniso_label
_atom_site_aniso_U_11
_atom_site_aniso_U_22
_atom_site_aniso_U_33
_atom_site_aniso_U_23
_atom_site_aniso_U_13
_atom_site_aniso_U_12
Ba 0.0183(4) 0.0204(4) 0.0247(5) 0.000 -0.0055(3) 0.000
Ge 0.0125(4) 0.0257(6) 0.0155(5) 0.0011(4) 0.0000(3) 0.0008(4)
Ni 0.0125(5) 0.0255(7) 0.0156(6) 0.0005(5) 0.0000(4) -0.0008(4)
loop_
_atom_type_symbol
_atom_type_description
_atom_type_scat_dispersion_real
_atom_type_scat_dispersion_imag
_atom_type_scat_source
Ni Ni 0.3393 1.1124 'International Tables Vol C Tables 4.2.6.8 and 6.1.1.4'
Ge Ge 0.1547 1.8001 'International Tables Vol C Tables 4.2.6.8 and 6.1.1.4'
Ba Ba -0.3244 2.2819 'International Tables Vol C Tables 4.2.6.8 and 6.1.1.4'
loop_
_geom_angle_atom_site_label_1
_geom_angle_atom_site_label_2
_geom_angle_atom_site_label_3
_geom_angle
_geom_angle_site_symmetry_1
_geom_angle_site_symmetry_3
Ge Ba Ge 70.70(4) 3_545 5_565
Ge Ba Ni 141.50(3) 3_545 8_666
Ge Ba Ni 78.14(3) 5_565 8_666
Ge Ba Ni 78.14(3) 3_545 2
Ge Ba Ni 141.50(3) 5_565 2
Ni Ba Ni 117.30(5) 8_666 2
Ge Ba Ni 137.92(4) 3_545 7_565
Ge Ba Ni 76.92(3) 5_565 7_565
Ni Ba Ni 48.98(2) 8_666 7_565
Ni Ba Ni 140.65(3) 2 7_565
Ge Ba Ni 76.92(3) 3_545 .
Ge Ba Ni 137.92(4) 5_565 .
Ni Ba Ni 140.65(3) 8_666 .
Ni Ba Ni 48.98(2) 2 .
Ni Ba Ni 113.65(5) 7_565 .
Ge Ba Ge 177.66(3) 3_545 2_565
Ge Ba Ge 110.31(3) 5_565 2_565
Ni Ba Ge 40.61(2) 8_666 2_565
Ni Ba Ge 101.74(3) 2 2_565
Ni Ba Ge 41.49(3) 7_565 2_565
Ni Ba Ge 101.21(3) . 2_565
Ge Ba Ge 110.31(3) 3_545 8_656
Ge Ba Ge 177.66(3) 5_565 8_656
Ni Ba Ge 101.74(3) 8_666 8_656
Ni Ba Ge 40.61(2) 2 8_656
Ni Ba Ge 101.21(3) 7_565 8_656
Ni Ba Ge 41.49(3) . 8_656
Ge Ba Ge 68.61(4) 2_565 8_656
Ge Ba Ni 39.30(3) 3_545 6_556
Ge Ba Ni 95.81(3) 5_565 6_556
Ni Ba Ni 126.73(3) 8_666 6_556
Ni Ba Ni 46.07(3) 2 6_556
Ni Ba Ni 171.99(4) 7_565 6_556
Ni Ba Ni 73.99(3) . 6_556
Ge Ba Ni 141.74(4) 2_565 6_556
Ge Ba Ni 86.14(3) 8_656 6_556
Ge Ba Ni 95.81(3) 3_545 4_455
Ge Ba Ni 39.30(3) 5_565 4_455
Ni Ba Ni 46.07(3) 8_666 4_455
Ni Ba Ni 126.73(3) 2 4_455
Ni Ba Ni 73.99(3) 7_565 4_455
Ni Ba Ni 171.99(4) . 4_455
Ge Ba Ni 86.14(3) 2_565 4_455
Ge Ba Ni 141.74(4) 8_656 4_455
Ni Ba Ni 98.28(4) 6_556 4_455
Ge Ba Ge 109.33(3) 3_545 5_566
Ge Ba Ge 74.77(2) 5_565 5_566
Ni Ba Ge 38.74(3) 8_666 5_566
Ni Ba Ge 95.52(3) 2 5_566
Ni Ba Ge 86.58(3) 7_565 5_566
Ni Ba Ge 143.04(4) . 5_566
Ge Ba Ge 73.015(19) 2_565 5_566
Ge Ba Ge 106.63(3) 8_656 5_566
Ni Ba Ge 88.27(3) 6_556 5_566
Ni Ba Ge 36.27(2) 4_455 5_566
Ge Ba Ge 74.77(2) 3_545 3_546
Ge Ba Ge 109.33(3) 5_565 3_546
Ni Ba Ge 95.52(3) 8_666 3_546
Ni Ba Ge 38.74(3) 2 3_546
Ni Ba Ge 143.04(4) 7_565 3_546
Ni Ba Ge 86.58(3) . 3_546
Ge Ba Ge 106.63(3) 2_565 3_546
Ge Ba Ge 73.015(19) 8_656 3_546
Ni Ba Ge 36.27(2) 6_556 3_546
Ni Ba Ge 88.27(3) 4_455 3_546
Ge Ba Ge 61.73(3) 5_566 3_546
Ni Ge Ni 73.13(5) 8_666 7_565
Ni Ge Ni 72.65(5) 8_666 4_455
Ni Ge Ni 129.84(7) 7_565 4_455
Ni Ge Ni 131.13(7) 8_666 8_665
Ni Ge Ni 71.80(5) 7_565 8_665
Ni Ge Ni 106.52(5) 4_455 8_665
Ni Ge Ge 107.68(6) 8_666 5_565
Ni Ge Ge 105.73(6) 7_565 5_565
Ni Ge Ge 53.57(4) 4_455 5_565
Ni Ge Ge 52.95(4) 8_665 5_565
Ni Ge Ba 144.80(5) 8_666 5_565
Ni Ge Ba 141.17(5) 7_565 5_565
Ni Ge Ba 82.85(4) 4_455 5_565
Ni Ge Ba 79.53(4) 8_665 5_565
Ge Ge Ba 75.16(4) 5_565 5_565
Ni Ge Ba 125.80(5) 8_666 2_564
Ni Ge Ba 68.17(4) 7_565 2_564
Ni Ge Ba 160.07(5) 4_455 2_564
Ni Ge Ba 68.35(4) 8_665 2_564
Ge Ge Ba 118.22(5) 5_565 2_564
Ba Ge Ba 77.29(2) 5_565 2_564
Ni Ge Ba 71.45(4) 8_666 5_566
Ni Ge Ba 135.30(5) 7_565 5_566
Ni Ge Ba 61.45(4) 4_455 5_566
Ni Ge Ba 152.67(5) 8_665 5_566
Ge Ge Ba 110.35(5) 5_565 5_566
Ba Ge Ba 74.77(2) 5_565 5_566
Ba Ge Ba 113.88(3) 2_564 5_566
Ni Ge Ba 60.85(4) 8_666 .
Ni Ge Ba 61.42(4) 7_565 .
Ni Ge Ba 70.16(4) 4_455 .
Ni Ge Ba 72.80(4) 8_665 .
Ge Ge Ba 57.95(4) 5_565 .
Ba Ge Ba 133.10(3) 5_565 .
Ba Ge Ba 123.37(3) 2_564 .
Ba Ge Ba 119.53(3) 5_566 .
Ni Ge Ba 60.24(4) 8_666 2_565
Ni Ge Ba 71.96(4) 7_565 2_565
Ni Ge Ba 118.35(5) 4_455 2_565
Ni Ge Ba 133.96(5) 8_665 2_565
Ge Ge Ba 167.92(5) 5_565 2_565
Ba Ge Ba 114.35(3) 5_565 2_565
Ba Ge Ba 72.43(2) 2_564 2_565
Ba Ge Ba 67.186(17) 5_566 2_565
Ba Ge Ba 112.15(3) . 2_565
Ge Ni Ge 108.77(6) 8_655 7_565
Ge Ni Ge 107.36(5) 8_655 4
Ge Ni Ge 129.01(7) 7_565 4
Ge Ni Ge 131.13(7) 8_655 8_656
Ge Ni Ge 106.29(6) 7_565 8_656
Ge Ni Ge 73.49(5) 4 8_656
Ge Ni Ni 144.29(8) 8_655 2
Ge Ni Ni 53.15(5) 7_565 2
Ge Ni Ni 107.12(5) 4 2
Ge Ni Ni 53.15(3) 8_656 2
Ge Ni Ni 53.72(3) 8_655 2_554
Ge Ni Ni 55.05(5) 7_565 2_554
Ge Ni Ni 142.10(7) 4 2_554
Ge Ni Ni 144.40(8) 8_656 2_554
Ni Ni Ni 101.33(7) 2 2_554
Ge Ni Ni 54.59(5) 8_655 5_655
Ge Ni Ni 143.70(8) 7_565 5_655
Ge Ni Ni 52.77(4) 4 5_655
Ge Ni Ni 107.81(7) 8_656 5_655
Ni Ni Ni 158.23(7) 2 5_655
Ni Ni Ni 100.38(5) 2_554 5_655
Ge Ni Ba 81.72(4) 8_655 2_554
Ge Ni Ba 71.22(4) 7_565 2_554
Ge Ni Ba 79.81(4) 4 2_554
Ge Ni Ba 142.46(6) 8_656 2_554
Ni Ni Ba 113.44(6) 2 2_554
Ni Ni Ba 65.99(5) 2_554 2_554
Ni Ni Ba 74.27(5) 5_655 2_554
Ge Ni Ba 82.92(5) 8_655 .
Ge Ni Ba 80.91(4) 7_565 .
Ge Ni Ba 138.49(5) 4 .
Ge Ni Ba 70.16(4) 8_656 .
Ni Ni Ba 65.02(5) 2 .
Ni Ni Ba 76.56(5) 2_554 .
Ni Ni Ba 122.45(7) 5_655 .
Ba Ni Ba 141.62(4) 2_554 .
Ge Ni Ba 72.28(4) 8_655 6_656
Ge Ni Ba 153.08(5) 7_565 6_656
Ge Ni Ba 72.90(4) 4 6_656
Ge Ni Ba 61.17(4) 8_656 6_656
Ni Ni Ba 109.76(5) 2 6_656
Ni Ni Ba 119.98(6) 2_554 6_656
Ni Ni Ba 59.67(5) 5_655 6_656
Ba Ni Ba 133.94(3) 2_554 6_656
Ba Ni Ba 72.45(2) . 6_656
Ge Ni Ba 153.15(6) 8_655 2
Ge Ni Ba 72.55(4) 7_565 2
Ge Ni Ba 59.16(4) 4 2
Ge Ni Ba 70.51(4) 8_656 2
Ni Ni Ba 58.61(4) 2 2
Ni Ni Ba 120.86(6) 2_554 2
Ni Ni Ba 107.84(6) 5_655 2
Ba Ni Ba 73.28(2) 2_554 2
Ba Ni Ba 123.04(4) . 2
Ba Ni Ba 119.16(3) 6_656 2
loop_
_geom_bond_atom_site_label_1
_geom_bond_atom_site_label_2
_geom_bond_distance
_geom_bond_site_symmetry_2
Ba Ge 3.3142(12) 3_545
Ba Ge 3.3142(12) 5_565
Ba Ni 3.3358(14) 8_666
Ba Ni 3.3358(14) 2
Ba Ni 3.3616(13) 7_565
Ba Ni 3.3616(13) .
Ba Ge 3.4021(12) 2_565
Ba Ge 3.4021(12) 8_656
Ba Ni 3.7200(13) 6_556
Ba Ni 3.7200(13) 4_455
Ba Ge 3.7377(12) 5_566
Ba Ge 3.7377(12) 3_546
Ge Ni 2.3216(15) 8_666
Ge Ni 2.3389(14) 7_565
Ge Ni 2.3765(14) 4_455
Ge Ni 2.3958(15) 8_665
Ge Ge 2.855(2) 5_565
Ge Ba 3.3143(12) 5_565
Ge Ba 3.4021(12) 2_564
Ge Ba 3.7377(12) 5_566
Ge Ba 3.8427(12) 2_565
Ni Ge 2.3216(15) 8_655
Ni Ge 2.3389(14) 7_565
Ni Ge 2.3764(14) 4
Ni Ge 2.3959(15) 8_656
Ni Ni 2.7766(14) 2
Ni Ni 2.7766(14) 2_554
Ni Ni 2.783(2) 5_655
Ni Ba 3.3358(14) 2_554
Ni Ba 3.7200(13) 6_656
Ni Ba 3.8301(14) 2
