#------------------------------------------------------------------------------
#$Date: 2017-02-04 00:25:55 +0200 (Sat, 04 Feb 2017) $
#$Revision: 191249 $
#$URL: file:///home/coder/svn-repositories/cod/cif/4/34/51/4345101.cif $
#------------------------------------------------------------------------------
#
# This file is available in the Crystallography Open Database (COD),
# http://www.crystallography.net/
#
# All data on this site have been placed in the public domain by the
# contributors.
#
data_4345101
loop_
_publ_author_name
'Mazzuca, Lidia'
'Ca\~nadillas-Delgado, Laura'
'Rodr\'iguez-Velamaz\'an, J Alberto'
'Fabelo, Oscar'
'Scarrozza, Marco'
'Stroppa, Alessandro'
'Picozzi, Silvia'
'Zhao, Jiong-Peng'
'Bu, Xian-He'
'Rodr\'iguez-Carvajal, Juan'
_publ_section_title
;
 Magnetic Structures of Heterometallic M(II)-M(III) Formate Compounds.
;
_journal_issue                   1
_journal_name_full               'Inorganic chemistry'
_journal_page_first              197
_journal_page_last               207
_journal_paper_doi               10.1021/acs.inorgchem.6b01866
_journal_volume                  56
_journal_year                    2017
_chemical_formula_sum            'C8 H14 Fe Mn N O12'
_chemical_formula_weight         426.98
_chemical_name_systematic
;
 ?
;
_space_group_crystal_system      trigonal
_space_group_IT_number           163
_space_group_name_Hall           '-P 3 2c'
_space_group_name_H-M_alt        'P -3 1 c'
_symmetry_space_group_name_Hall  '-P 3 2c'
_symmetry_space_group_name_H-M   'P -3 1 c'
_atom_sites_solution_hydrogens   geom
_audit_creation_method           SHELXL-2014
_cell_angle_alpha                90
_cell_angle_beta                 90
_cell_angle_gamma                120
_cell_formula_units_Z            2
_cell_length_a                   8.27440(10)
_cell_length_b                   8.27440(10)
_cell_length_c                   13.8904(2)
_cell_measurement_reflns_used    6065
_cell_measurement_temperature    75(2)
_cell_measurement_theta_max      32.2440
_cell_measurement_theta_min      2.7100
_cell_volume                     823.604(18)
_computing_cell_refinement       'CrysAlis PRO software program'
_computing_data_collection       'CrysAlis PRO software program'
_computing_data_reduction        'CrysAlis PRO software program'
_computing_molecular_graphics    'Mercury (McRae, 2006)'
_computing_publication_material  'WINGX (Farrugia, 1999)'
_computing_structure_refinement  'SHELXL-2014 (Sheldrick, 2014)'
_computing_structure_solution    'SHELXL-2014 (Sheldrick, 2014)'
_diffrn_ambient_temperature      75(2)
_diffrn_measured_fraction_theta_full 0.910
_diffrn_measured_fraction_theta_max 0.930
_diffrn_measurement_device_type  'CRISTAL beamline, SOLEIL synchrotron'
_diffrn_radiation_type           synchrotron
_diffrn_radiation_wavelength     0.66951
_diffrn_reflns_av_R_equivalents  0.0597
_diffrn_reflns_av_unetI/netI     0.0240
_diffrn_reflns_Laue_measured_fraction_full 0.910
_diffrn_reflns_Laue_measured_fraction_max 0.930
_diffrn_reflns_limit_h_max       11
_diffrn_reflns_limit_h_min       -12
_diffrn_reflns_limit_k_max       12
_diffrn_reflns_limit_k_min       -12
_diffrn_reflns_limit_l_max       22
_diffrn_reflns_limit_l_min       -22
_diffrn_reflns_number            10311
_diffrn_reflns_point_group_measured_fraction_full 0.910
_diffrn_reflns_point_group_measured_fraction_max 0.930
_diffrn_reflns_theta_full        23.685
_diffrn_reflns_theta_max         32.609
_diffrn_reflns_theta_min         2.763
_diffrn_source                   synchrotron
_exptl_absorpt_coefficient_mu    1.436
_exptl_absorpt_correction_T_max  1.00000
_exptl_absorpt_correction_T_min  0.93946
_exptl_absorpt_correction_type   multi-scan
_exptl_absorpt_process_details
;
CrysAlisPro, Agilent Technologies,
Version 1.171.37.33 (release 27-03-2014 CrysAlis171 .NET)
(compiled Mar 27 2014,17:12:48)
Empirical absorption correction using spherical harmonics,
 implemented in SCALE3 ABSPACK scaling algorithm.
;
_exptl_crystal_colour            dark-yellow
_exptl_crystal_density_diffrn    1.722
_exptl_crystal_description       prism
_exptl_crystal_F_000             432
_exptl_crystal_size_max          0.08
_exptl_crystal_size_mid          0.07
_exptl_crystal_size_min          0.06
_refine_diff_density_max         0.759
_refine_diff_density_min         -0.510
_refine_diff_density_rms         0.083
_refine_ls_extinction_method     none
_refine_ls_goodness_of_fit_ref   1.186
_refine_ls_hydrogen_treatment    refU
_refine_ls_matrix_type           full
_refine_ls_number_parameters     41
_refine_ls_number_reflns         1121
_refine_ls_number_restraints     0
_refine_ls_restrained_S_all      1.186
_refine_ls_R_factor_all          0.0387
_refine_ls_R_factor_gt           0.0354
_refine_ls_shift/su_max          0.000
_refine_ls_shift/su_mean         0.000
_refine_ls_structure_factor_coef Fsqd
_refine_ls_weighting_details
'w=1/[\s^2^(Fo^2^)+(0.0549P)^2^+0.5503P] where P=(Fo^2^+2Fc^2^)/3'
_refine_ls_weighting_scheme      calc
_refine_ls_wR_factor_gt          0.1014
_refine_ls_wR_factor_ref         0.1148
_reflns_Friedel_coverage         0.000
_reflns_number_gt                1056
_reflns_number_total             1121
_reflns_threshold_expression     'I > 2\s(I)'
_cod_data_source_file            FeMn_75K.cif
_cod_data_source_block           shelx
_cod_original_cell_volume        823.60(2)
_cod_database_code               4345101
_shelx_space_group_comment
;
The symmetry employed for this shelxl refinement is uniquely defined
by the following loop, which should always be used as a source of
symmetry information in preference to the above space-group names.
They are only intended as comments.
;
_shelxl_version_number           2014-3
_shelx_res_file
;
TITL FeMn_warm4 in P-31c
CELL  0.66951   8.2744   8.2744  13.8904   90.000   90.000  120.000
ZERR     2.00   0.0001   0.0001   0.0002    0.000    0.000    0.000
LATT   1
SYMM  - Y,   X - Y,   Z
SYMM  - X + Y, - X,   Z
SYMM  - Y, - X, 1/2 - Z
SYMM  - X + Y,   Y, 1/2 - Z
SYMM    X,   X - Y, 1/2 - Z
SFAC  C        2.31000 20.84392  1.02000 10.20751   1.58860   0.56870 =
         0.86500  51.65125   0.21560   0.003   0.001    10.064   0.770  12.011
SFAC  H        0.49300 10.51091  0.32291 26.12573   0.14019   3.14236 =
         0.04081  57.79977   0.00304   0.000   0.000     0.666   0.320   1.008
SFAC  N       12.21261  0.00570  3.13220  9.89331   2.01250  28.99754 =
         1.16630   0.58260 -11.52901   0.005   0.003    16.889   0.700  14.007
SFAC  O        3.04850 13.27711  2.28680  5.70111   1.54630   0.32390 =
         0.86700  32.90894   0.25080   0.009   0.005    27.551   0.660  15.999
SFAC  FE      11.76951  4.76111  7.35731  0.30720   3.52220  15.35351 =
         2.30450  76.88058   1.03690   0.338   0.762  2939.485   1.260  55.845
SFAC  MN      11.28191  5.34091  7.35731  0.34320   3.01930  17.86742 =
         2.24410  83.75438   1.08960   0.324   0.657  2538.176   1.370  54.938
UNIT  16   28   2    24   2    2
MERG   2
FMAP   2
PLAN   20
ACTA
L.S.  15
WGHT    0.054900    0.550300
FVAR      15.01363
MN2   6    0.666667    0.333333    0.250000    10.16667    0.01469    0.01469 =
         0.01888    0.00000    0.00000    0.00734
FE1   5    1.000000    0.000000    0.000000    10.16667    0.01423    0.01423 =
         0.01877    0.00000    0.00000    0.00712
O1    4    0.888981    0.342200    0.166031    11.00000    0.02659    0.02584 =
         0.04333   -0.00869    0.00879    0.01178
O2    4    1.015766    0.208170    0.081870    11.00000    0.02293    0.02347 =
         0.03115   -0.00431    0.00254    0.01293
C1    1    0.878506    0.211193    0.118478    11.00000    0.02224    0.02480 =
         0.02932   -0.00556    0.00080    0.01279
AFIX  43
H1    2    0.760847    0.107605    0.109125    11.00000    0.05666
AFIX   0
C2    1    1.333333    0.666667    0.160447    10.33333    0.03445    0.03445 =
         0.80717    0.00000    0.00000    0.01723
N1    3    1.279911    0.559823    0.250000    10.16667    0.04195    0.01856 =
         0.42278    0.00000   -0.08584    0.00928
HKLF    4  1.0  0.00  1.00  0.00  1.00  0.00  0.00  0.00  0.00 -1.00

REM  FeMn_warm4 in P-31c
REM R1 =  0.0354 for    1056 Fo > 4sig(Fo)  and  0.0387 for all    1121 data
REM     41 parameters refined using      0 restraints

END

WGHT      0.0549      0.5503

REM Highest difference peak  0.759,  deepest hole -0.510,  1-sigma level  0.083
Q1    1   1.3333  0.6667  0.0890  10.33333  0.05    0.76
Q2    1   1.3333  0.6667  0.2500  10.16667  0.05    0.49
Q3    1   1.3312  0.5563  0.1694  11.00000  0.05    0.37
Q4    1   0.9507  0.1947  0.0400  11.00000  0.05    0.36
Q5    1   0.9152 -0.0427 -0.0356  11.00000  0.05    0.34
Q6    1   0.9476  0.2540  0.0791  11.00000  0.05    0.32
Q7    1   0.8489  0.2915  0.1262  11.00000  0.05    0.28
Q8    1   0.9249  0.1028  0.0571  11.00000  0.05    0.28
Q9    1   0.8614  0.3322  0.2378  11.00000  0.05    0.28
Q10   1   0.8567  0.2709  0.2065  11.00000  0.05    0.27
Q11   1   0.8047  0.0882  0.1580  11.00000  0.05    0.26
Q12   1   1.4227  0.7451  0.1109  11.00000  0.05    0.25
Q13   1   1.2106  0.3767  0.1038  11.00000  0.05    0.23
Q14   1   0.9411  0.1870  0.1145  11.00000  0.05    0.23
Q15   1   0.8929  0.2567  0.1694  11.00000  0.05    0.23
Q16   1   0.6178 -0.1247  0.0634  11.00000  0.05    0.23
Q17   1   0.7875  0.3204  0.1515  11.00000  0.05    0.23
Q18   1   0.8932  0.2580  0.2040  11.00000  0.05    0.23
Q19   1   0.8212  0.1788  0.2500  10.50000  0.05    0.22
Q20   1   0.8276  0.3317  0.0927  11.00000  0.05    0.20
;
_shelx_res_checksum              97377
_shelx_hkl_file
;
   0   0   2 19950.2 768.254   1
   0   0   2 19539.6 704.822   2
   0   0   3 20.9856 140.063   1
   0   0   3 64.2196 96.4365   2
   0   0  -3-122.342 120.119   1
   0   0   5 155.763 96.6816   2
   0   0   5-51.1459 144.631   1
   0   0  -5-228.261 147.133   1
   0   0   6 44382.3 1732.71   2
   0   0   6 46736.0 2035.85   1
   0   0  -7 33.3256 127.705   1
   0   0   7 111.266 175.700   2
   0   0   7 98.7833 180.595   1
   0   0  -9 213.841 251.378   1
   0   0   9 152.928 181.034   1
   0   0   9-36.5983 135.346   2
   0   0 -10 12813.5 1218.11   1
   0   0  10 11326.4 1141.97   1
   0   0  10 10117.5 991.287   2
   0   0  11 14.2284 244.099   2
   0   0  11-200.397 207.638   1
   0   0  13 139.843 169.772   2
   0   0 -13-136.188 304.482   1
   0   0  13 556.275 376.301   1
   0   0 -14 1566.92 528.738   1
   0   0  14 781.264 401.981   1
   0   0  14 1530.98 458.705   2
   0   0  15-363.485 436.034   1
   0   0 -15 85.1092 249.593   1
   0   0  15-143.045 248.880   2
   0   0  16 113435. 5116.57   1
   0   0 -16 117424. 5012.20   1
   0   0 -17 152.377 429.215   1
   0   0  17-175.958 252.179   1
   0   0  18 1521.91 652.237   1
   0   0 -18 2168.76 729.806   1
   0   0  19-92.0320 385.810   1
   0   0 -19-247.576 381.369   1
   0   0 -20 7955.53 1311.41   1
   0   0  20 9891.98 1646.19   1
   0   0  21-100.736 208.687   1
   0   0 -21 150.509 349.983   1
   0   0  22 1451.08 634.680   1
   0   0 -22 1234.37 574.010   1
  -1   0  -3 118985. 2736.42   1
  -1   1  -3 112510. 2898.98   1
   1  -1  -3 113107. 2760.06   1
   1  -1   3 118309. 2890.08   2
   0  -1   3 119698. 2965.64   1
  -1   1   3 104906. 2753.05   1
   1  -1   3 112185. 2945.04   1
  -1   1  -4 6613.18 600.994   1
  -1   0   4 4985.19 466.122   2
  -1   1   4 5792.64 526.422   1
   1  -1  -4 4873.73 468.511   1
   0  -1   4 5523.10 556.967   2
   1   0  -4 4920.52 511.603   1
   1   0   4 6515.50 539.461   2
  -1   1   4 4747.30 356.596   2
   0   1  -4 5956.93 598.494   1
   0   1   4 5447.82 452.330   1
   0  -1   4 6794.57 616.428   1
   0   1   4 4771.31 331.249   2
   1  -1   4 6087.59 536.440   2
   1   0   4 6549.40 556.439   1
  -1   0  -4 4995.39 482.945   1
  -1   0   4 5310.13 527.797   1
   0  -1  -4 5682.08 437.028   1
   1  -1   4 6026.26 581.438   1
  -1   0  -5 3743.12 476.814   1
   1   0   5 3991.82 448.210   2
   0   1   5 3721.16 424.884   1
   0  -1   5 5250.21 588.225   2
  -1   0   5 5464.18 512.983   2
   0   1   5 3275.26 303.482   2
   1  -1   5 4574.02 523.078   1
   1   0  -5 4726.06 535.817   1
  -1   1  -5 3946.42 531.812   1
  -1   0   5 4080.78 535.551   1
   1  -1   5 5113.36 532.269   2
  -1   1   5 5047.96 402.797   2
   0  -1  -5 4143.31 445.467   1
   0   1  -5 4602.35 560.143   1
   1  -1  -5 3705.17 429.594   1
  -1   1   5 4483.59 515.087   1
   0  -1   5 4506.42 576.260   1
   1   0   5 4571.83 531.343   1
   1  -1  -6 23501.7 1319.31   1
   0   1   6 30591.4 1449.17   1
   1  -1   6 30405.2 1528.13   2
   0  -1   6 27646.8 1444.80   2
   1   0  -6 27454.3 1474.20   1
   1   0   6 26683.1 1453.80   1
   0  -1   6 25808.4 1485.82   1
   0  -1  -6 23801.4 1255.45   1
   0   1   6 25204.3 1055.71   2
  -1   0  -6 22295.9 1327.80   1
   1  -1   6 25619.7 1502.52   1
  -1   1  -6 21810.6 1343.67   1
   1   0   6 24533.6 1243.29   2
  -1   1   6 28165.2 1173.42   2
  -1   0   6 25417.4 1471.36   1
  -1   1   6 27551.6 1467.51   1
   0   1  -6 25899.1 1459.80   1
  -1   0   6 25661.2 1340.61   2
  -1   0   7 76787.0 2946.19   1
   1   0  -7 93505.2 3123.43   1
   1   0   7 72962.1 2569.52   2
  -1   0   7 81941.8 2801.54   2
  -1   1   7 77475.1 2898.04   1
   0  -1   7 83928.4 3205.43   1
   0   1   7 80483.1 2842.54   1
   1  -1   7 84009.6 2858.98   2
   0   1  -7 80221.0 3031.27   1
  -1   0  -7 72370.4 2761.11   1
   1  -1   7 88327.9 3158.51   1
  -1   1  -7 80989.5 2996.71   1
   0  -1  -7 104628. 3030.42   1
   1  -1  -7 91071.0 2938.69   1
   0   1   7 83967.8 2438.62   2
  -1   1   7 70174.8 2363.51   2
   0  -1   7 92314.3 3020.05   2
   1   0   7 82651.8 2982.45   1
  -1   0  -8 33036.7 1807.86   1
   0   1  -8 24446.9 1655.52   1
  -1   1   8 27626.3 1392.46   2
  -1   1   8 29197.2 1695.02   1
   1  -1  -8 25827.2 1583.89   1
   0   1   8 24734.6 1280.25   2
   1  -1   8 27611.6 1638.30   2
   1   0  -8 23910.0 1554.66   1
  -1   0   8 29547.9 1617.51   2
   1   0   8 25872.1 1470.30   2
   0  -1   8 27302.4 1745.39   1
  -1   1  -8 28074.1 1725.45   1
   0   1   8 26705.1 1608.79   1
   0  -1  -8 26407.8 1520.48   1
   0  -1   8 24393.3 1548.83   2
   1  -1   8 26945.8 1740.04   1
   1   0   8 24131.8 1613.82   1
  -1   0   8 25737.8 1689.88   1
   0  -1   9 166916. 4761.51   2
   0   1   9 160479. 4827.21   1
   1   0  -9 150790. 4711.84   1
  -1   1  -9 155264. 4874.73   1
   1  -1  -9 159676. 4705.80   1
  -1   0   9 160200. 4591.65   2
   1   0   9 162384. 4506.78   2
   1   0   9 122784. 4465.90   1
   0   1  -9 160903. 4916.36   1
  -1   0  -9 166724. 4923.88   1
  -1   1   9 156632. 4821.42   1
  -1   1   9 134944. 4062.65   2
  -1   0   9 153001. 4852.29   1
   0  -1  -9 127232. 4358.48   1
   1  -1   9 176258. 5157.17   1
   0  -1   9 168646. 5161.60   1
   0   1   9 140531. 3995.95   2
   1  -1   9 166891. 4782.78   2
   0  -1  10 484270. 10740.8   2
   1  -1  10 501858. 11218.1   1
   0  -1 -11 118334. 4078.71   1
   0   1  11 92647.7 3831.47   1
  -1   0  11 98105.5 4005.25   1
   1  -1  11 87982.9 3583.08   2
  -1   1  11 93131.4 3931.02   1
  -1   1 -11 90895.0 3837.89   1
   0  -1  11 103973. 3868.86   2
  -1   1  11 99317.4 3545.62   2
  -1   0  11 104790. 3835.78   2
   1  -1  11 90918.6 3934.49   1
   1  -1 -11 72907.0 3432.56   1
   0  -1  11 92127.8 4014.74   1
   1   0 -11 98557.7 3901.14   1
   1   0  11 108713. 4190.98   1
   0   1 -11 95154.8 3883.99   1
  -1   0 -11 88586.1 3713.33   1
   0   1  11 104214. 3454.75   2
   1   0  11 94987.0 3595.25   2
   1   0  12 42095.1 2637.61   1
  -1   0  12 37585.6 2499.85   1
  -1   1  12 40658.9 2618.05   1
  -1   1  12 40333.5 2248.62   2
   0  -1 -12 36226.4 2316.37   1
  -1   1 -12 40441.1 2519.69   1
  -1   0 -12 36792.5 2372.65   1
   1   0  12 42392.8 2390.03   2
  -1   0  12 47744.3 2569.54   2
   1  -1  12 44269.4 2484.79   2
   1   0 -12 42065.8 2516.44   1
   1  -1 -12 46013.7 2580.90   1
   0   1  12 41284.7 2521.75   1
   0  -1  12 41711.6 2658.29   1
   0  -1  12 41872.8 2438.48   2
   0   1  12 37961.9 2176.04   2
   0   1 -12 47648.0 2691.09   1
   1  -1  12 39773.8 2606.26   1
   1   0  13 70048.7 3259.52   2
  -1   1  13 78637.2 3269.31   2
   0  -1  13 64606.0 3306.22   2
   1   0  13 62705.7 3368.16   1
   0  -1  13 69842.9 3639.70   1
   1   0 -13 73300.8 3483.28   1
  -1   1 -13 73235.3 3507.78   1
   1  -1 -13 64360.0 3313.36   1
   1  -1  13 64315.0 3481.30   1
   1  -1  13 67125.7 3300.18   2
  -1   0  13 67312.3 3534.58   1
  -1   0  13 74514.2 3437.13   2
   0   1  13 69556.2 3070.13   2
  -1   1  13 66097.3 3442.80   1
   0   1 -13 68863.0 3453.80   1
   0   1  13 65450.3 3462.71   1
  -1   0 -13 65812.5 3301.02   1
   0  -1 -13 58207.4 3129.60   1
   1   0  14 183683. 5975.54   2
   1   0 -14 180071. 6140.97   1
   1  -1  14 177226. 5955.87   2
  -1   0  14 172209. 5980.56   2
   0   1 -14 169536. 5998.71   1
   1  -1  14 172605. 6313.26   1
  -1   0  14 161322. 6191.12   1
   0  -1 -14 171015. 5934.57   1
  -1   1 -14 169451. 5940.07   1
   0   1  14 159009. 5926.12   1
  -1   1  14 184119. 6370.83   1
   1   0  14 154682. 6041.31   1
   1  -1 -14 178068. 6138.42   1
  -1   0 -14 172472. 5988.50   1
   0  -1  14 179201. 6335.55   1
   0  -1  14 184192. 6124.54   2
   0   1 -15 38855.9 2688.84   1
   1  -1  15 38613.1 2840.85   1
   1   0 -15 41328.9 2828.16   1
   0  -1  15 45677.2 2892.10   2
   1   0  15 39105.7 2607.52   2
   1  -1 -15 47335.5 2992.88   1
  -1   0 -15 39498.8 2705.52   1
  -1   1  15 37165.8 2782.26   1
   0   1  15 42568.5 2903.72   1
  -1   1 -15 42875.0 2833.01   1
   1  -1  15 41177.4 2780.17   2
   0  -1  15 45583.5 3036.15   1
  -1   0  15 42908.8 2810.37   2
  -1   0  15 44301.2 2981.08   1
   1   0  15 45417.8 2998.28   1
   0  -1 -15 50937.9 2988.78   1
   0  -1  16 10025.0 1464.28   1
  -1   1  16 12380.5 1604.60   1
   0   1 -16 12981.1 1580.98   1
   0   1  16 7716.89 1321.21   1
  -1   1 -16 10948.4 1404.18   1
   0  -1  16 11335.5 1476.40   2
   1  -1  16 11972.5 1584.40   1
  -1   0  16 9041.49 1436.48   1
   1   0  16 11486.4 1495.94   1
  -1   0 -16 11479.5 1441.72   1
   0  -1 -16 9318.57 1356.03   1
   1  -1  16 10558.7 1429.18   2
   1  -1 -16 10632.0 1394.43   1
   1   0 -16 12073.1 1540.25   1
   1   0 -17 8477.18 1326.95   1
  -1   0  17 9647.03 1512.21   1
   1   0  17 7573.43 1300.44   1
   0  -1 -17 10458.8 1393.35   1
   0   1  17 8679.69 1394.50   1
  -1   0 -17 9748.39 1398.36   1
   0   1 -17 9038.40 1368.43   1
   0  -1  17 9068.37 1404.30   1
   1  -1 -17 9736.64 1383.34   1
  -1   1  17 10398.3 1572.66   1
  -1   1 -17 10795.4 1418.40   1
   1  -1  17 8946.13 1342.91   1
  -1   1 -18 22353.9 2129.03   1
  -1   1  18 20730.0 2299.51   1
  -1   0  18 21121.1 2306.62   1
   0   1  18 24936.1 2432.75   1
  -1   0 -18 22922.6 2208.13   1
   1   0 -18 23041.9 2281.98   1
   0  -1  18 23360.1 2346.60   1
   1   0  18 22780.7 2310.77   1
   0   1 -18 22819.3 2215.04   1
   0  -1 -18 24602.3 2293.87   1
   1  -1  18 21570.5 2207.87   1
   1  -1 -18 21066.3 2187.53   1
  -1   1  19 3997.18 993.611   1
   1  -1  19 3860.95 991.922   1
  -1   0 -19 3662.88 871.936   1
   1   0  19 4096.44 1010.48   1
  -1   1 -19 3981.68 884.602   1
  -1   0  19 4482.43 1061.45   1
   1  -1 -19 3778.96 880.164   1
   0   1 -19 5189.66 1071.08   1
   0  -1 -19 4641.80 1001.81   1
   0   1  19 4208.52 1063.95   1
   0  -1  19 4650.07 1079.43   1
   1   0 -19 3912.53 905.366   1
   0  -1 -20 895.248 424.350   1
  -1   1 -20 589.423 368.215   1
   1   0 -20 884.099 458.876   1
  -1   0  20 1751.83 638.568   1
   1   0  20 964.113 501.797   1
   1  -1  20 979.490 467.465   1
   0  -1  20 978.366 700.188   1
  -1   1  20 926.648 474.491   1
   0   1  20 655.194 214.628   1
   0   1 -20 887.331 432.327   1
   1  -1 -20 573.660 469.109   1
  -1   0 -20 1001.73 305.295   1
  -1   0  21 9519.03 1635.55   1
   1  -1 -21 7824.84 1337.77   1
  -1   1  21 10001.6 1676.72   1
  -1   0 -21 7142.91 1271.84   1
  -1   1 -21 8805.17 1433.40   1
   1  -1  21 9442.39 1550.36   1
   0   1  21 7905.59 1469.87   1
   1   0  21 7215.22 1394.41   1
   1   0 -21 8422.15 1422.66   1
   0  -1  21 8756.97 1505.62   1
   0   1 -21 10132.8 1561.28   1
  -1   1  22 23346.9 2603.45   1
   1  -1  22 20783.9 2289.96   1
   1   0 -22 21324.7 2335.73   1
  -1   1 -22 21330.0 2300.21   1
  -1   0  22 20994.7 2465.62   1
   2  -1 -22 1396.80 751.375   1
  -2   1  22 1572.04 782.327   1
   2  -1 -21-338.105 257.230   1
   1  -2  21 169.732 287.737   1
  -2   1  21-52.6774 230.846   1
  -1   2 -21-478.627 417.068   1
  -2   1  20 74757.6 4618.72   1
   1  -2  20 73178.6 4456.67   1
  -1   2 -20 77545.9 4337.10   1
   2  -1 -20 73854.9 4383.49   1
   2  -1 -19-353.309 401.283   1
  -2   1  19 397.579 420.480   1
  -1   2 -19-232.219 390.917   1
   1   1  19-28.5061 258.861   1
   1  -2  19 102.543 266.213   1
  -1  -1 -19-147.079 315.007   1
   1   1  18 269.873 305.452   1
   1  -2  18-691.948 520.984   1
  -1   2 -18-81.9707 345.461   1
   1  -2  18 179.480 342.201   2
  -1  -1 -18 48.4207 130.808   1
  -2   1  18 1.09244 217.999   1
   2  -1 -18-428.140 272.501   1
   1  -2  17 110.600 272.603   1
   1  -2  17 502.731 419.122   2
  -1  -1 -17 120.426 223.631   1
   2  -1 -17 531.992 369.278   1
   1   1  17-128.881 314.949   1
  -2   1  17-322.809 298.839   1
  -1   2 -17-303.649 397.351   1
  -1   2 -16 95256.5 4498.36   1
   1   1  16 90513.2 4531.63   1
   1  -2  16 93068.2 4623.75   1
   2  -1 -16 80759.8 4189.53   1
  -2   1  16 102250. 4843.61   1
  -1  -1 -16 95563.0 4461.41   1
   1  -2  16 87407.4 4435.74   2
   1  -2  15-140.557 367.691   2
  -2   1  15 91.1335 239.111   1
   2  -1 -15-154.193 363.877   1
  -1   2 -15-151.372 217.859   1
  -1  -1 -15 235.608 368.964   1
   1  -2  15-311.931 519.605   1
   1   1  15 59.3693 151.445   1
   1   1  14 22031.1 1997.69   1
   1  -2  14 18764.9 1927.32   1
   2  -1 -14 18727.6 1816.03   1
  -2   1  14 17611.7 1861.25   1
   1  -2  14 21064.2 1898.75   2
  -1   2 -14 20291.3 1860.92   1
  -2   1  14 21216.6 1809.96   2
  -1  -1 -14 21695.5 1858.76   1
   2  -1 -13-114.490 396.730   1
  -2   1  13-238.173 446.624   1
   1  -2  13-36.0028 198.027   2
  -2   1  13 199.722 236.104   2
  -1  -1 -13-11.7076 182.449   1
   1   1  13-34.1726 228.209   1
   1   1  13 29.3198 165.426   2
   1  -2  13 82.2105 277.247   1
  -1   2 -13-61.3654 230.008   1
   1   1  12 394579. 8769.50   2
   1   1  12 292476. 8731.16   1
  -1  -1 -12 423074. 9444.90   1
   2  -1 -12 351360. 9097.98   1
   1  -2  12 332528. 9313.95   1
  -1   2 -12 330663. 9114.31   1
  -2   1  12 353402. 9467.04   1
   1  -2  12 341928. 8994.39   2
   1  -2  11 7.85911 274.327   1
   1  -2  11 347.844 352.599   2
  -2   1  11 236.001 185.601   2
   1   1  11 120.937 207.481   2
   2  -1 -11 80.1619 226.085   1
  -1  -1 -11-120.091 221.616   1
  -2   1  11-80.5862 194.274   1
  -1   2 -11 427.499 349.070   1
   1   1  11-79.3704 195.231   1
  -1   2 -10 67835.2 3118.44   1
  -1  -1 -10 65760.4 2911.25   1
   2  -1 -10 67202.5 3006.57   1
  -2   1  10 62815.4 2709.67   2
   1  -2  10 64474.5 2960.34   2
  -2   1  10 62577.8 3063.99   1
   1  -2  10 60550.7 3029.77   1
   1   1  10 56679.5 2829.47   1
   1   1  10 75202.9 2705.02   2
  -1   2  -9 28.5937 245.688   1
  -2   1   9-341.055 311.239   1
   1  -2   9 39.2803 210.660   2
  -1  -1  -9 166.646 247.298   1
   1  -2   9-73.0740 237.002   1
   1   1   9 57.4882 109.339   2
  -2   1   9-65.1116 174.410   2
   2  -1  -9-69.5793 272.116   1
   1   1   9-155.975 243.687   1
  -2   1   7-52.5759 232.528   1
   1  -2   7-56.9416 152.519   2
  -2   1   7 351.823 165.204   2
  -1   2  -7 106.184 164.624   1
   1   1   7-171.929 149.060   1
  -1  -1  -7 589.952 242.845   1
   1  -2   7 230.061 294.881   1
   2  -1  -7-176.487 205.480   1
   1   1   7 73.7056 107.718   2
  -2   1   6 14684.5 971.724   2
   2  -1  -6 15694.9 1128.36   1
   1   1   6 13517.7 881.283   2
  -1  -1  -6 14391.3 960.379   1
   1  -2   6 15719.2 1179.37   2
   1   1   6 15454.8 1000.82   1
   1  -2   6 14228.5 1157.97   1
  -1   2  -6 13785.6 1122.19   1
  -2   1   6 13642.5 1131.82   1
  -1   2  -5-57.9842 156.499   1
  -1  -1  -5 29.5251 122.718   1
   1   1   5-6.17609 92.3041   1
   1  -2   5-128.026 228.417   1
  -2   1   5 64.4678 81.2224   2
   2  -1  -5 705.066 217.579   1
   1  -2   5 542.487 212.530   2
   2  -1  -3 1.96727 165.998   1
   1   1   3 195.288 118.180   1
  -1   2  -3-140.055 116.172   1
  -1  -1  -3 251.172 105.223   1
  -2   1   3 1.72111 97.8479   2
   1  -2   3-78.3606 118.162   1
   1  -2   3 7.05934 126.607   2
  -1   2  -1-129.752 105.851   1
  -1  -1  -1-93.1071 121.557   2
  -1  -1  -1 114.826 72.9928   1
   1   1   1 91.5111 63.9940   1
   1  -2   1 286.625 166.311   1
   2  -1  -1 479.016 208.665   1
  -2   1   1 133.168 164.652   1
   1  -2   1 87.1895 149.910   2
  -1  -1   1 148.310 136.195   2
  -1   2   1-57.0898 67.4751   1
  -2   1  -1 25.2355 111.840   1
  -1  -1   1 88.1849 86.0503   1
   1  -2  -1 181.653 97.5749   1
   2  -1   1-6.80812 122.787   1
   1  -2  -1-312.674 97.9597   2
   1   1  -1 45.2891 103.544   1
   2  -1   3 358.234 192.984   1
  -1  -1   3 261.669 127.974   2
  -1   2   3 346.813 134.666   1
   1   1  -3 110.147 95.3494   1
  -2   1  -3 345.424 209.819   1
   1  -2  -3 5.58781 100.509   1
  -1  -1   3 52.8828 172.794   1
  -2   1  -5 103.509 98.2091   1
   1   1  -5 152.175 172.787   1
  -1   2   5 67.9103 75.8654   1
  -1  -1   5 147.263 155.666   2
   1  -2  -5 5.51805 83.8399   1
  -1  -1   5-62.0817 148.735   1
   2  -1   5 100.216 196.092   2
   2  -1   5 39.9328 137.862   1
  -1  -1   6 5127.63 641.054   2
   2  -1   6 5341.55 656.506   2
  -1  -1   6 4881.55 641.694   1
   1  -2  -6 4210.96 500.677   1
  -1   2   6 2205.76 268.441   2
   1   1  -6 5200.54 662.180   1
  -2   1  -6 5014.19 630.423   1
   2  -1   6 4896.52 644.427   1
  -1   2   6 4890.46 541.397   1
   1   1  -7 296.159 249.404   1
  -1  -1   7-139.633 217.673   1
  -2   1  -7-11.3891 184.250   1
   2  -1   7-131.436 183.981   1
   2  -1   7 44.8314 131.061   2
  -1  -1   7 58.7288 166.522   2
  -1   2   7 328.820 182.272   1
  -1   2   7 31.1532 71.8969   2
   1  -2  -7-238.549 173.782   1
  -2   1  -9-243.263 278.039   1
   1  -2  -9-224.620 227.484   1
  -1  -1   9 115.329 145.118   2
   2  -1   9 317.176 216.772   1
   2  -1   9-106.364 200.977   2
   1   1  -9-14.9509 252.272   1
  -1  -1   9 212.026 252.487   1
  -1   2   9 40.5739 99.9248   2
  -1   2   9-28.4933 197.563   1
   1  -2 -10 40935.5 2180.56   1
  -1   2  10 45206.0 1806.97   2
  -1   2  10 41885.7 2336.99   1
   1   1 -10 48113.7 2577.45   1
  -2   1 -10 45074.1 2450.34   1
  -1  -1  10 44437.5 2445.62   2
   2  -1  10 48647.7 2596.84   1
  -1  -1  10 42644.8 2486.09   1
   2  -1  10 42750.1 2327.28   2
  -1  -1  11 258.188 317.315   2
  -2   1 -11-254.651 290.920   1
  -1  -1  11-205.111 403.537   1
  -1   2  11 196.848 83.3634   2
   2  -1  11-89.1366 166.484   2
   1  -2 -11-135.872 155.181   1
  -1   2  11 1.17168 183.670   1
   1   1 -11 380.684 320.733   1
   2  -1  11-85.4856 177.607   1
  -1   2  12 307369. 8275.08   1
   1  -2 -12 318498. 8196.04   1
   2  -1  12 282357. 8034.82   2
   2  -1  12 283189. 8303.56   1
  -1  -1  12 301463. 8253.24   2
  -2   1 -12 283474. 8142.82   1
  -1  -1  12 291293. 8402.48   1
  -2   1 -13-473.174 428.305   1
  -1   2  13-164.293 204.531   1
   2  -1  13-267.687 304.260   2
   1   1 -13-250.824 355.278   1
  -1  -1  13 98.0091 245.057   1
   1  -2 -13 72.3140 313.537   1
  -1  -1  13 399.740 337.240   2
   2  -1  13 143.423 196.768   1
   2  -1  14 2268.97 678.228   2
  -2   1 -14 1398.01 491.240   1
   1  -2 -14 2685.36 691.580   1
  -1   2  14 1688.41 556.727   1
  -1  -1  14 2874.84 819.411   1
   1   1 -14 1654.80 603.377   1
  -1  -1  14 2050.77 626.317   2
   2  -1  14 2113.66 633.022   1
   2  -1  15 304.677 429.649   1
  -1  -1  15 85.3158 213.972   2
   2  -1  15-673.256 450.130   2
   1   1 -15 304.662 516.818   1
  -1   2  15 17.2372 232.416   1
   1  -2 -15 496.478 485.469   1
  -1  -1  15 181.450 433.125   1
  -2   1 -15-293.049 215.652   1
  -1  -1  16 114430. 5315.71   1
  -2   1 -16 108038. 4851.56   1
   1   1 -16 108350. 4960.73   1
   2  -1  16 125113. 5227.30   2
   2  -1  16 120266. 5343.54   1
  -1   2  16 114874. 5247.93   1
   1  -2 -16 121120. 5149.99   1
  -1  -1  16 131035. 5487.53   2
  -1  -1  17 107.388 350.341   2
  -1   2  17 535.753 328.865   1
   1  -2 -17-278.013 168.392   1
   1   1 -17 291.470 309.510   1
   2  -1  17-64.0818 180.855   1
  -2   1 -17 74.3425 300.730   1
  -1  -1  17 10.0534 162.743   1
  -1  -1  18 4070.08 911.341   1
   1   1 -18 4703.09 1008.53   1
  -2   1 -18 3870.81 940.335   1
   2  -1  18 4522.82 990.322   1
  -1   2  18 2765.09 857.196   1
   1  -2 -18 4536.62 994.082   1
   1   1 -19-321.207 349.919   1
   2  -1  19 146.251 252.394   1
   1  -2 -19-643.537 514.733   1
  -1  -1  19-176.184 496.656   1
  -2   1 -19 131.410 190.621   1
  -1   2  19-53.0418 332.414   1
   2  -1  20 55350.7 3832.39   1
  -1  -1  20 59431.0 4044.40   1
   1   1 -20 61271.4 3857.31   1
  -2   1 -20 51072.6 3482.30   1
  -2   1 -21-331.110 294.868   1
   1   1 -21 198.859 278.517   1
  -1  -1  21 45.9186 316.439   1
   2  -1  21-80.3336 202.346   1
   2  -1  22 7070.67 1380.63   1
   2   0   0 99194.8 2693.94   1
   2  -2   0 109850. 2827.83   1
  -2   0   0 108392. 2682.20   1
  -2   2   0 95068.3 2694.55   1
   0  -2   0 101840. 2566.16   2
   2  -2   1 130361. 3138.87   1
  -2   0  -1 115192. 2875.26   1
  -2   2  -1 109107. 3002.25   1
   2   0  -1 125520. 3074.70   1
  -2   0   1 103401. 2834.87   1
  -2   2   1 111493. 2875.18   1
   0  -2   1 108667. 2843.42   2
   0   2  -1 97405.3 2587.16   1
  -2   0   1 126087. 3189.06   2
   2   0   1 109043. 2853.50   1
  -2   0   7 63850.0 2696.25   1
   0  -2   7 59561.7 2663.45   1
   2  -2  -7 57768.4 2340.41   1
  -2   2  -7 62331.8 2601.70   1
  -2   2   7 64330.6 2554.92   1
   0   2   7 50616.6 1591.53   2
   2   0   7 69160.1 2575.74   2
   2  -2   7 61799.5 2667.50   1
   0   2   7 52400.1 2082.82   1
   0  -2  -7 52353.9 2001.79   1
   2   0  -7 63456.1 2641.86   1
   2   0   7 59848.1 2473.15   1
  -2   2   7 50370.2 1843.60   2
   2  -2   7 58682.0 2518.67   2
  -2   0   7 57056.4 2412.09   2
   0  -2   7 63398.1 2626.59   2
  -2   0  -7 58993.8 2379.53   1
   0   2  -7 61524.5 2669.37   1
   0   2   8 8403.03 822.531   1
  -2   0   8 6793.13 877.734   2
   2  -2  -8 7669.30 851.403   1
   0  -2   8 7074.67 855.028   2
   2   0  -8 9067.81 987.369   1
   2  -2   8 7954.60 966.278   1
   0   2   8 7319.19 570.442   2
  -2   2   8 7794.58 906.866   1
   2   0   8 8556.00 933.770   1
  -2   0  -8 8184.44 875.992   1
  -2   2   8 7116.68 630.522   2
   2   0   8 7151.36 897.020   2
   2  -2   8 7710.04 855.962   2
   0   2  -8 6836.94 944.261   1
   0  -2   8 8890.73 1044.00   1
  -2   2  -8 8224.81 960.803   1
   0  -2  -8 9230.15 812.002   1
  -2   0   8 8078.43 945.424   1
   2   0  -9 33684.3 2072.98   1
  -2   2  -9 30657.3 1995.02   1
   2  -2   9 33008.6 2095.97   1
  -2   0   9 37930.8 2085.42   2
   0  -2   9 39062.4 2323.23   1
   2   0   9 33714.9 1873.95   2
   2   0   9 36639.5 2074.01   1
  -2   0   9 37252.9 2241.99   1
   2  -2   9 34904.8 2075.86   2
   0   2  -9 36964.8 2187.32   1
   0   2   9 33980.1 1862.19   1
   0  -2  -9 28041.8 1664.02   1
   0   2   9 30764.0 1355.55   2
   2  -2  -9 32229.2 1877.93   1
  -2   2   9 38690.9 1658.08   2
   0  -2   9 36856.0 2095.35   2
  -2   2   9 34821.4 2084.77   1
  -2   0  -9 28224.4 1808.55   1
   2   0  10 168400. 4907.72   2
   0   2  10 140808. 4709.48   1
  -2   2  10 152489. 4230.30   2
   2   0 -10 155720. 5189.43   1
  -2   0 -10 179025. 5175.42   1
   2  -2  10 159511. 5168.40   2
  -2   0  10 176786. 5521.81   1
  -2   2  10 164290. 5240.77   1
   0  -2  10 162246. 5400.27   1
   2  -2 -10 143622. 4719.32   1
   0  -2  10 152024. 5007.81   2
   0  -2 -10 154103. 4701.29   1
   2   0  10 148194. 5023.33   1
   2  -2  10 150311. 5244.09   1
   0   2  10 165665. 4051.01   2
  -2   2 -10 147609. 5016.65   1
  -2   0  10 151055. 4878.30   2
   0   2 -10 151342. 5036.96   1
  -2   2  11 186860. 5757.39   1
  -2   0  11 169956. 5664.03   1
   2  -2 -11 140236. 4921.07   1
  -2   0  11 159037. 5173.17   2
   0  -2 -11 171108. 5109.83   1
   0  -2  11 148999. 5200.26   2
   0  -2  11 184600. 5955.71   1
   0   2  11 153627. 4231.08   2
   2  -2  11 160739. 5568.64   1
  -2   2 -11 150637. 5232.13   1
   2   0 -11 146667. 5252.14   1
   2  -2  11 165974. 5380.48   2
   0   2  11 191969. 5545.58   1
   0   2 -11 154379. 5346.03   1
  -2   0 -11 147019. 5116.15   1
  -2   2  11 157522. 4558.95   2
   2   0  11 159087. 5046.00   2
   2   0  11 162717. 5411.14   1
   2   0  12 42048.5 2442.70   2
  -2   0  12 41210.6 2620.97   2
   2  -2  12 49646.7 2783.95   2
   2   0 -12 39696.8 2562.57   1
   0   2 -12 47431.7 2712.48   1
  -2   0  12 41446.0 2719.89   1
   2  -2 -12 42496.2 2493.15   1
   0  -2  12 42373.9 2741.97   1
   0  -2 -12 44326.6 2497.14   1
   0   2  12 43826.8 2537.83   1
   0  -2  12 41925.9 2582.92   2
   2   0  12 42926.8 2582.93   1
   2  -2  12 47621.9 2801.21   1
  -2   2  12 39729.6 2686.66   1
  -2   2  12 43688.5 2162.66   2
  -2   2 -12 43837.9 2690.57   1
  -2   0 -12 50873.7 2792.58   1
   0  -2 -13 44477.5 2587.98   1
   2  -2 -13 42379.1 2595.15   1
  -2   2 -13 43842.6 2743.00   1
  -2   0  13 48258.6 2963.97   1
   2  -2  13 41783.1 2664.78   2
   2   0  13 38650.8 2571.92   2
  -2   0  13 48974.4 2848.17   2
   0  -2  13 44657.8 2743.00   2
   0  -2  13 43088.3 2826.15   1
   0   2  13 45063.8 2697.66   1
   2  -2  13 43317.8 2807.89   1
   2   0  13 41257.7 2659.45   1
   2   0 -13 38630.6 2602.86   1
  -2   0 -13 46906.2 2796.95   1
   0   2 -13 43545.7 2788.25   1
  -2   2  13 45033.9 2836.03   1
   2   0  14 122967. 4821.40   2
  -2   0 -14 109325. 4637.91   1
   0  -2  14 98873.4 4642.40   1
   0  -2 -14 101617. 4428.58   1
   2   0 -14 128378. 5018.80   1
   2   0  14 106063. 4688.28   1
  -2   0  14 111742. 4688.74   2
   0  -2  14 121109. 4921.24   2
   2  -2  14 106360. 4777.55   1
   0   2  14 109147. 4690.36   1
  -2   2 -14 111560. 4640.81   1
   2  -2 -14 115690. 4645.41   1
   2  -2  14 113662. 4744.04   2
   0   2 -14 108046. 4645.31   1
  -2   2  14 96001.7 4585.61   1
  -2   0  14 111570. 4979.87   1
   0   2  15 323.862 228.514   1
   2  -2 -15 732.307 325.308   1
  -2   0 -15 1015.50 436.256   1
   2  -2  15 859.939 418.629   1
   2  -2  15 967.625 488.544   2
   0  -2  15 950.111 457.196   2
   2   0 -15 852.370 445.333   1
  -2   2  15 876.529 458.971   1
   0  -2 -15 1175.73 434.314   1
  -2   2 -15 951.657 424.174   1
  -2   0  15 1337.93 377.066   1
   2   0  15 1166.42 479.274   1
   0  -2  15 1531.16 540.027   1
  -2   0  15 810.553 289.405   2
   0   2 -15 913.984 496.850   1
   0  -2 -16 2537.12 667.706   1
   0  -2  16 2439.67 779.377   1
   2   0  16 1717.77 633.602   1
   0  -2  16 1941.23 649.301   2
   2  -2 -16 2943.40 772.758   1
  -2   2 -16 2198.36 724.219   1
   0   2  16 2074.32 691.715   1
  -2   0  16 989.458 540.010   1
  -2   0 -16 1944.52 535.489   1
   2  -2  16 1902.37 669.208   1
   2   0 -16 2022.98 721.514   1
   0   2 -16 2305.31 710.817   1
   2  -2  16 2113.55 705.178   2
  -2   2  16 1759.80 637.000   1
   2  -2  17 20574.1 2130.52   2
   0  -2  17 22904.4 2254.55   2
   0  -2  17 22638.7 2258.50   1
  -2   0 -17 22123.8 2098.77   1
  -2   2  17 23900.0 2384.31   1
   0   2  17 18434.2 2045.47   1
   2  -2 -17 19896.7 2040.64   1
   2   0  17 23663.0 2314.30   1
   0  -2 -17 25254.5 2323.36   1
   2   0 -17 20218.3 2026.10   1
   0   2 -17 20130.9 2044.20   1
  -2   0  17 19497.7 2169.08   1
  -2   2 -17 21370.0 2100.56   1
   2  -2  17 22293.6 2271.71   1
   0  -2  18 52604.7 3596.09   2
   2  -2 -18 48126.8 3320.23   1
  -2   2 -18 51297.0 3384.34   1
  -2   0 -18 44400.9 3149.16   1
  -2   2  18 58144.2 3880.03   1
  -2   0  18 48666.9 3541.23   1
   2   0 -18 52756.4 3443.03   1
   0   2 -18 52466.6 3389.07   1
   2   0  18 53050.3 3506.54   1
   0  -2  18 53975.6 3596.53   1
   2  -2  18 45053.3 3367.83   1
   0   2  18 47957.8 3461.26   1
   0   2 -19 40130.8 3019.90   1
  -2   0 -19 32342.5 2707.85   1
   2   0  19 34304.6 2857.41   1
   2  -2 -19 35424.2 2885.36   1
  -2   0  19 37758.6 3086.31   1
   2   0 -19 36751.3 2914.18   1
  -2   2  19 34973.1 3075.68   1
   0  -2  19 35110.7 2960.05   1
   2  -2  19 31451.6 2825.55   1
  -2   2 -19 36472.7 2866.05   1
   2   0 -20 10105.1 1568.56   1
   0  -2  20 7700.91 1412.84   1
   2  -2 -20 8230.08 1397.03   1
  -2   0 -20 7218.96 1279.01   1
  -2   2 -20 8395.34 1406.34   1
   0   2 -20 11341.7 1608.22   1
   2   0  20 6715.86 1290.74   1
   2  -2  20 8994.97 1494.47   1
  -2   2  20 7787.81 1485.56   1
  -2   0  20 10794.1 1741.39   1
  -2   2  21 5066.78 1176.21   1
   2  -2  21 4874.53 1104.56   1
   2   0 -21 4844.36 1129.51   1
   0  -2  21 7641.66 1400.80   1
   0   2 -21 5603.23 1158.26   1
  -2   0  21 3387.04 964.245   1
  -2   2 -21 5956.63 1198.00   1
  -2   3 -21 16929.1 2041.50   1
  -3   1  21 15149.6 2081.38   1
   1  -3  21 15884.6 2015.58   1
   3  -2 -21 13337.5 1798.31   1
  -3   2  21 10808.9 1794.18   1
  -1   3 -21 17847.8 1985.48   1
   3  -1 -21 15352.4 1901.96   1
   2  -3  21 16818.6 2111.55   1
   3  -2 -20 925.226 574.999   1
  -2   3 -20 1529.37 644.311   1
   3  -1 -20 730.305 377.902   1
  -3   1  20 541.215 456.000   1
   2  -3  20 932.872 443.073   1
  -1   3 -20 1163.00 540.334   1
   1  -3  20 566.477 465.490   1
  -3   2  20 1053.32 597.496   1
  -2   3 -19 14134.3 1776.29   1
  -1   3 -19 16581.7 1866.40   1
   1  -3  19 15583.2 1934.18   1
   3  -1 -19 13248.3 1728.11   1
   2  -3  19 15758.3 1950.29   1
   2  -3  19 13065.5 1874.95   2
  -3   1  19 14475.4 1951.42   1
   1  -3  19 15591.5 2008.04   2
   3  -2 -19 16684.2 1911.59   1
   2  -3  18 95657.2 4917.82   2
  -3   2  18 93651.8 5012.14   1
   1  -3  18 102566. 5043.44   1
   3  -1 -18 82834.3 4476.65   1
   1  -3  18 99854.4 4995.50   2
  -3   1  18 97838.1 5116.13   1
  -1   3 -18 94898.6 4645.55   1
  -2   3 -18 101345. 4831.29   1
   2  -3  18 99996.4 4978.31   1
   3  -2 -18 87730.9 4672.72   1
  -2  -1 -17 9254.36 1331.11   1
  -1   3 -17 9353.48 1404.93   1
  -3   1  17 11179.5 1592.37   1
   2  -3  17 8973.09 1398.12   2
   1  -3  17 9684.90 1417.21   1
   2   1  17 9632.12 1468.33   1
  -2   3 -17 12315.8 1501.35   1
   3  -2 -17 10143.2 1446.48   1
  -3   2  17 11940.4 1647.10   1
   3  -1 -17 10872.3 1459.49   1
   2  -3  17 8519.87 1433.23   1
   1  -3  17 12161.4 1628.80   2
   2   1  16 54696.1 3427.96   1
   3  -2 -16 50645.9 3221.11   1
   1  -3  16 55557.3 3511.60   1
  -3   1  16 47894.6 3355.36   1
   3  -1 -16 50838.3 3279.07   1
   2  -3  16 58401.1 3544.33   2
   1   2  16 60341.8 3534.59   1
  -2  -1 -16 64630.4 3579.85   1
  -3   2  16 54314.5 3551.64   1
  -1   3 -16 52675.8 3342.61   1
  -2   3 -16 51860.2 3271.51   1
   2  -3  16 54059.2 3470.60   1
   1  -3  16 56408.0 3452.79   2
   2  -3  15 19373.6 2035.63   1
  -1   3 -15 18212.5 1850.09   1
   1  -3  15 18109.3 1944.51   2
   3  -2 -15 20560.1 1954.10   1
  -3   1  15 19887.4 2041.82   1
   3  -1 -15 22440.9 2041.11   1
  -1  -2 -15 20269.1 1868.61   1
  -3   2  15 21269.6 2109.07   1
   1   2  15 19459.3 1913.84   1
  -2   3 -15 19073.1 1896.11   1
   2   1  15 22161.2 2038.86   1
  -2  -1 -15 19494.6 1816.99   1
   2  -3  15 18596.8 1914.76   2
   1  -3  15 20331.8 2062.68   1
  -3   1  14 68678.6 3668.11   2
  -1   3 -14 66620.8 3521.45   1
  -2   3 -14 77295.9 3831.61   1
   1   2  14 66331.6 3506.02   1
   2  -3  14 76793.9 3950.34   1
  -3   1  14 74512.0 4020.48   1
   2  -3  14 78286.3 3834.44   2
   3  -2 -14 59185.8 3335.08   1
   3  -1 -14 60474.7 3402.68   1
   2   1  14 67632.5 3590.30   1
   1  -3  14 74015.0 3969.95   1
   1  -3  14 77859.3 3798.21   2
  -2  -1 -14 73423.6 3567.05   1
  -3   2  14 70261.0 3796.61   1
  -1  -2 -14 59945.0 3284.29   1
  -3   1  13 11385.7 1462.30   1
   2  -3  13 10676.8 1369.27   1
  -2   3 -13 10277.8 1315.03   1
   1   2  13 11473.5 1322.91   1
  -1   3 -13 10559.0 1296.08   1
  -2  -1 -13 9078.49 1195.92   1
  -1  -2 -13 11315.1 1308.81   1
   2  -3  13 10955.0 1324.40   2
   1  -3  13 11280.2 1393.39   2
  -3   1  13 12772.0 1390.66   2
   3  -1 -13 9082.92 1220.44   1
   3  -2 -13 8651.28 1196.97   1
  -3   2  13 12923.7 1419.63   1
   1  -3  13 11515.7 1410.55   1
   2   1  13 10297.0 1284.73   1
   2  -3  12 2704.48 667.312   1
   1  -3  12 2049.16 596.930   2
  -3   2  12 1938.15 552.315   2
  -1  -2 -12 2394.61 591.307   1
  -3   1  12 2214.55 625.279   1
   3  -2 -12 1678.69 516.713   1
   2   1  12 2636.72 596.129   1
   2  -3  12 1582.17 540.165   2
  -2   3 -12 2556.41 662.214   1
  -1   3 -12 1982.14 546.561   1
   3  -1 -12 2038.05 625.561   1
  -2  -1 -12 1767.03 511.620   1
  -3   2  12 1600.66 431.528   1
   1   2  12 2243.14 624.907   1
   1  -3  12 1666.69 565.275   1
  -3   1  12 2169.93 527.732   2
   2   1  12 1640.40 429.036   2
   2   1  11 17457.6 1376.34   2
   1  -3  11 20439.2 1723.44   2
   1   2  11 17191.0 1250.10   2
  -1  -2 -11 19159.4 1495.21   1
  -2  -1 -11 21237.2 1668.17   1
  -2   3 -11 15442.0 1544.86   1
  -3   1  11 14800.9 1536.55   2
   1   2  11 23004.3 1723.37   1
  -1   3 -11 17602.8 1590.96   1
   2  -3  11 19282.6 1713.22   1
  -3   1  11 17879.2 1701.59   1
   3  -1 -11 17776.3 1574.45   1
  -3   2  11 16842.1 1612.79   1
  -3   2  11 16492.0 1412.23   2
   3  -2 -11 15290.5 1446.15   1
   2   1  11 19122.9 1605.35   1
   2  -3  11 18355.6 1642.18   2
   1  -3  11 18911.7 1698.63   1
   2   1  10 111437. 4063.98   1
   2   1  10 109897. 3740.61   2
   1  -3  10 112278. 4226.77   2
  -3   1  10 100218. 4198.98   1
   2  -3  10 108261. 4287.21   1
   1   2  10 97225.4 3183.58   2
  -3   2  10 107725. 3698.14   2
   2  -3  10 116121. 4289.85   2
  -1  -2 -10 96465.9 3578.90   1
  -3   2  10 107181. 4195.92   1
  -3   1  10 113597. 3979.95   2
  -1   3 -10 112245. 4287.65   1
   3  -2 -10 96009.9 3812.59   1
  -2   3 -10 106522. 4156.20   1
   1   2  10 114247. 3964.42   1
   1  -3  10 115425. 4381.27   1
  -2  -1 -10 117682. 4000.23   1
   3  -1 -10 108550. 4112.33   1
   2   1   9 298292. 7242.31   1
  -3   1   9 268644. 6999.84   2
  -3   1   9 264679. 7389.35   1
   2  -3   9 258884. 7343.30   1
  -2   3  -9 271850. 7343.27   1
  -1   3  -9 266096. 7353.40   1
   2  -3   9 286211. 7466.44   2
   2   1   9 251256. 6656.76   2
   3  -1  -9 270872. 7188.53   1
   1   2   9 259998. 6680.58   1
  -3   2   9 260626. 6558.11   2
   1  -3   9 281483. 7368.82   2
   3  -2  -9 281190. 7141.87   1
   1  -3   9 266408. 7404.34   1
   2  -3   8 18977.7 1489.52   2
  -3   2   8 20048.7 1582.40   1
  -1   3  -8 17816.0 1476.30   1
   3  -2  -8 15600.4 1294.32   1
  -3   1   8 15076.9 1222.61   2
  -2   3  -8 16743.1 1407.35   1
   1   2   8 15683.5 1196.40   1
   1  -3   8 18235.0 1470.85   2
   2   1   8 14980.6 1233.15   2
  -1  -2  -8 16342.9 1133.84   1
   2   1   8 14798.4 1243.56   1
  -3   2   8 14255.4 1176.65   2
   2  -3   8 17627.8 1489.57   1
   1   2   8 9142.00 762.015   2
  -2  -1  -8 18728.5 1284.62   1
  -3   1   8 16254.2 1392.29   1
   1  -3   8 17828.8 1476.90   1
   3  -1  -8 16854.3 1361.93   1
  -2  -1  -7 433118. 9143.34   1
   3  -2  -5 197508. 5224.85   1
   2  -3   5 195942. 5377.31   1
   3  -1  -5 207038. 5358.18   1
   1  -3   5 192018. 5241.48   1
   2  -3   5 196772. 5297.55   2
  -3   1   5 191551. 5111.23   2
  -3   2   5 237581. 5576.63   1
  -3   1   5 231416. 5675.18   1
   2   1   5 194808. 4684.31   1
  -2   3  -5 198889. 5286.32   1
   1  -3   5 197567. 5304.94   2
  -1   3  -5 182449. 5154.15   1
  -3   2   3 32041.1 1636.59   1
   2   1   3 36292.9 1415.65   1
   1  -3   3 33368.4 1656.79   2
   3  -1  -3 34082.6 1671.96   1
   3  -2  -3 35193.5 1710.33   1
  -1  -2  -3 35615.3 965.869   1
   1   2   3 33978.3 980.467   1
   1  -3   3 30315.4 1501.38   1
  -1   3  -3 33671.1 1574.63   1
  -3   1   3 30579.2 1585.41   1
   2  -3   3 36204.6 1706.32   2
  -3   1   3 35992.2 1774.52   2
  -2   3  -3 34447.5 1648.56   1
  -2  -1  -3 31550.5 1325.61   1
   2  -3   3 35996.1 1699.16   1
   2  -3   1 138348. 3568.66   1
  -3   2   1 136601. 3691.81   1
   2   1   1 130369. 3259.65   1
  -3   1   1 134690. 3667.75   1
  -1  -2  -1 149185. 3518.68   2
   1  -3   1 142404. 3558.69   2
   3  -1  -1 135285. 3789.78   1
   3  -2  -1 134846. 3716.94   1
  -1   3  -1 125619. 3259.70   1
  -2  -1  -1 132423. 3264.82   1
  -2  -1  -1 159589. 3970.84   2
   2   1   0 865.148 249.695   1
  -3   2   0 598.725 227.623   1
  -1  -2   0 752.214 159.654   1
   1   2   0 622.411 151.193   1
   3  -1   0 789.051 277.286   1
   2  -3   0 291.012 143.785   1
  -1   3   0 293.583 119.657   1
  -2   3   0 882.629 262.274   1
   1  -3   0 563.671 142.113   1
  -2  -1   0 926.720 277.868   2
   3  -2   0 830.958 206.627   1
  -1  -2   0 1351.01 267.362   2
  -2  -1   0 596.029 201.253   1
   1  -3   0 576.013 181.666   2
  -3   1   0 381.985 232.236   1
   2  -3   0 612.140 197.207   2
  -3   2  -1 202997. 4970.89   1
  -2  -1   1 195042. 4529.49   1
   2   1  -1 202559. 4631.51   1
  -3   1  -1 201005. 4887.49   1
  -1   3   2 71463.7 1871.96   1
  -1  -2   2 82460.8 2647.39   2
  -3   1  -2 79430.9 2654.36   1
   1  -3  -2 75300.1 1963.68   2
  -1  -2   2 79976.9 2401.72   1
   2  -3  -2 71745.0 2064.75   2
   3  -2   2 85948.8 2780.23   1
   2  -3  -2 76232.8 2256.17   1
  -2   3   2 82037.2 2328.00   1
  -2  -1   2 75643.0 2508.56   1
   3  -1   2 82793.8 2661.81   1
   1   2  -2 78141.0 2420.60   1
   2   1  -2 73689.3 2433.43   1
  -3   2  -2 94671.9 2908.18   1
  -2  -1   2 84889.7 2725.26   2
  -2  -1   4 206773. 5464.45   2
   2   1  -4 218638. 5467.59   1
   3  -2   4 218482. 5557.05   1
  -1  -2   4 215996. 5485.47   2
  -3   2  -4 227583. 5603.27   1
   3  -1   4 233839. 5598.44   1
   1   2  -4 220247. 5442.57   1
  -2   3   4 208064. 4980.39   1
  -3   1  -4 218633. 5418.17   1
  -1  -2   7 120846. 4025.22   2
   3  -1   7 105324. 3757.05   1
  -1   3   7 110876. 3331.94   1
   1   2  -7 108109. 3885.25   1
   2   1  -7 117724. 4038.87   1
   1  -3  -7 110551. 3203.86   1
  -2   3   7 97583.4 3468.29   1
   2  -3  -7 118032. 3522.45   1
  -2  -1   7 113813. 3922.63   2
  -3   2  -7 103843. 3786.25   1
   3  -2   7 107516. 3878.86   1
  -2  -1   7 117309. 4055.57   1
  -1  -2   7 107751. 3880.38   1
   3  -2   7 120094. 3935.80   2
  -3   1  -7 118348. 3838.49   1
  -3   2  -9 33410.8 2074.45   1
   3  -1   9 34991.0 2132.41   1
  -3   1  -9 33274.5 2022.13   1
   3  -1   9 40633.4 2246.13   2
  -2  -1   9 37186.7 2231.86   1
  -2  -1   9 40492.4 2268.76   2
  -2   3   9 33705.5 1976.07   1
   1  -3  -9 43474.2 2014.51   1
  -1  -2   9 37095.1 2300.70   1
  -1   3   9 39048.8 2017.98   1
   3  -2   9 31817.8 2072.29   1
   2  -3  -9 34857.1 1895.50   1
   3  -2   9 34680.2 2136.17   2
  -1  -2   9 33811.8 2133.20   2
   2   1  -9 36371.7 2226.49   1
   1   2  -9 34958.1 2182.53   1
  -3   1 -10 268660. 7099.88   1
   3  -2  10 260495. 7279.65   1
  -1  -2  10 263225. 7306.68   2
  -1   3  10 229106. 6592.86   1
   2   1 -10 258307. 7380.86   1
  -2  -1  10 242798. 7317.29   1
   3  -2  10 266317. 7269.12   2
  -2   3  10 252069. 6984.22   1
   2  -3 -10 256298. 6728.24   1
   1  -3 -10 272487. 6698.92   1
   1   2 -10 269943. 7409.52   1
   3  -1  10 254752. 7131.37   1
  -3   2 -10 282668. 7334.53   1
   3  -1  10 267781. 7146.17   2
  -1  -2  10 221714. 7180.88   1
  -2  -1  10 254659. 7232.51   2
  -1  -2  11 1963.32 651.055   1
  -3   1 -11 1693.49 463.916   1
  -2   3  11 974.098 288.536   1
   3  -1  11 1549.91 513.003   2
  -3   2 -11 710.315 352.874   1
  -2  -1  11 1536.95 511.181   1
   2  -3 -11 1802.12 468.835   1
   3  -2  11 1882.25 601.379   2
   2   1 -11 1927.49 614.164   1
   3  -1  11 1931.59 535.955   1
  -2  -1  11 1652.52 522.148   2
  -1  -2  11 1143.28 451.959   2
   1  -3 -11 1601.31 451.318   1
  -1   3  11 2009.82 535.814   1
   1   2 -11 1434.76 465.594   1
   3  -2  11 1685.77 478.347   1
   3  -1  12 1855.63 501.643   1
  -1  -2  12 1631.08 559.830   1
  -3   1 -12 1644.98 468.058   1
   3  -2  12 2013.88 549.508   2
   1  -3 -12 2486.78 580.176   1
  -2  -1  12 1128.80 323.939   2
  -2  -1  12 1014.27 513.872   1
   3  -1  12 2496.88 607.614   2
   2  -3 -12 1615.72 483.534   1
   1   2 -12 1867.67 586.314   1
  -1   3  12 2278.57 577.608   1
  -2   3  12 1681.65 563.238   1
  -3   2 -12 1484.69 455.058   1
  -1  -2  12 2217.81 572.651   2
   2   1 -12 2316.84 575.625   1
   3  -2  12 2107.51 549.771   1
   2  -3 -13 14804.0 1500.97   1
  -1   3  13 15239.3 1614.81   1
   1   2 -13 14515.7 1623.07   1
  -1  -2  13 12488.2 1514.69   1
  -2  -1  13 14979.8 1628.35   2
   2   1 -13 14932.1 1566.27   1
  -3   2 -13 12713.1 1459.71   1
  -1  -2  13 10524.6 1390.02   2
  -2   3  13 18047.2 1748.52   1
   1  -3 -13 13706.7 1414.26   1
   3  -2  13 15073.3 1598.16   1
   3  -1  13 13180.1 1534.41   1
  -3   1 -13 14904.4 1539.18   1
   3  -1  13 16045.9 1668.73   2
   3  -2  13 13525.8 1620.96   2
  -2  -1  13 15003.0 1652.16   1
  -2  -1  14 46355.9 3044.55   2
   3  -2  14 44116.8 2878.26   1
  -3   2 -14 44490.6 2906.79   1
   3  -2  14 41356.7 2892.40   2
   3  -1  14 45479.6 2950.58   2
   2  -3 -14 52998.5 3025.43   1
   1   2 -14 36607.2 2632.28   1
  -3   1 -14 44492.1 2862.75   1
   1  -3 -14 42494.5 2715.84   1
  -1   3  14 46252.0 2935.57   1
  -2   3  14 50292.5 3049.42   1
   2   1 -14 41800.4 2848.52   1
  -1  -2  14 46695.4 2987.97   2
  -2  -1  14 42606.0 2995.44   1
  -1  -2  14 41948.3 2972.55   1
   3  -1  14 42426.3 2852.52   1
   1   2 -15 93950.0 4388.75   1
  -2  -1  15 94815.7 4571.55   2
   3  -1  15 80458.3 4174.87   1
  -3   2 -15 93714.8 4405.12   1
  -1  -2  15 89511.7 4418.86   2
  -2   3  15 79544.5 4192.96   1
  -3   1 -15 81804.8 4136.10   1
  -2  -1  15 93323.5 4561.89   1
   3  -2  15 93223.0 4514.18   2
   2   1 -15 87788.8 4297.73   1
   2  -3 -15 95302.7 4353.48   1
   3  -1  15 74370.6 4103.53   2
  -1   3  15 89448.5 4390.15   1
  -1  -2  15 93580.4 4640.50   1
   1  -3 -15 89892.7 4240.12   1
   3  -2  15 87755.8 4357.45   1
  -2  -1  16-369.206 321.751   1
  -3   2 -16 527.055 354.896   1
  -2   3  16 305.031 351.967   1
   3  -1  16 764.528 431.678   1
  -1  -2  16 277.039 231.686   2
   2  -3 -16-35.9439 260.204   1
   2   1 -16 963.632 552.279   1
  -1   3  16-218.658 269.046   1
   1   2 -16 179.095 219.785   1
   3  -1  16 162.237 371.729   2
  -3   1 -16 654.513 513.313   1
   3  -2  16 147.805 298.255   1
  -1  -2  16 421.146 259.909   1
   1  -3 -16 104.718 317.622   1
   3  -2  16-36.0258 298.074   2
  -2  -1  16 336.975 387.256   2
   3  -2  17 48354.3 3348.78   2
  -1  -2  17 47044.8 3393.89   2
  -2  -1  17 50868.8 3540.21   2
   3  -1  17 52254.7 3453.89   1
  -2  -1  17 42288.6 3247.35   1
  -1  -2  17 51499.7 3424.85   1
   2  -3 -17 51503.9 3356.06   1
   3  -2  17 48698.3 3385.71   1
  -3   1 -17 52996.6 3352.06   1
   1   2 -17 45220.3 3117.78   1
   2   1 -17 50638.2 3290.98   1
  -3   2 -17 44901.2 3162.08   1
  -2   3  17 46687.5 3357.89   1
  -2   3  18 59567.3 3947.08   1
  -3   2 -18 61999.6 3683.33   1
   3  -2  18 56080.1 3723.96   1
  -1  -2  18 66378.7 4169.17   2
  -1  -2  18 69030.4 4161.02   1
   2   1 -18 61845.4 3800.46   1
  -2  -1  18 69244.6 4211.57   1
   1   2 -18 60240.0 3733.47   1
   3  -1  18 59185.0 3790.86   1
  -3   1 -18 66762.9 3794.47   1
   3  -2  19 4142.21 1024.52   1
  -2  -1  19 4930.73 1147.46   1
  -1  -2  19 6646.94 1284.40   1
   2   1 -19 4794.64 1103.74   1
  -3   1 -19 4656.90 1041.18   1
   1   2 -19 5650.59 1070.47   1
   3  -1  19 3648.47 997.370   1
  -3   2 -19 4200.38 937.385   1
   2   1 -20 20493.9 2187.01   1
   3  -1  20 15649.0 1978.18   1
   3  -2  20 16509.1 2037.41   1
  -3   2 -20 18466.2 2050.18   1
  -2  -1  20 17537.3 2178.29   1
  -1  -2  20 20378.0 2276.82   1
  -3   1 -20 14810.6 1850.59   1
   1   2 -20 18894.0 2110.66   1
  -3   1 -21 1825.72 603.601   1
   2   1 -21 2761.58 781.380   1
  -3   2 -21 1150.72 550.639   1
   3  -2  21 2205.22 691.858   1
  -2  -1  21 1814.82 733.772   1
   3  -1  21 1297.34 574.394   1
  -1  -2  21 2296.87 839.879   1
   0   3  -1 184.128 125.969   1
   3  -3   1 515.882 225.014   2
  -3   0   1 83.6625 139.292   2
   0   3   1 303.056 61.5749   1
  -3   0   1 608.703 274.889   1
   0  -3   1 690.565 186.504   1
  -3   3   1 81.6892 142.437   1
   3  -3  -1 311.044 140.965   1
  -3   3  -1 285.869 197.796   1
   3   0   1 31.3502 123.092   1
   0  -3   1 130.112 119.882   2
  -3   0  -1 85.4125 98.7086   1
   0  -3  -1 267.365 51.5548   1
   0  -3  -1 376.903 165.868   2
   3  -3   1 156.588 118.663   1
   3   0  -1 328.520 295.670   1
  -3   0   2 20570.1 1245.00   1
   0  -3  -2 20562.5 964.144   2
  -3   3   2 18094.1 1153.89   1
  -3   0  -2 22435.6 1237.22   1
   3   0   2 22551.2 1246.32   1
   0   3  -2 22484.0 1178.61   1
   3  -3   2 22179.9 1340.69   2
   0  -3   2 16970.6 1025.61   1
  -3   0   2 25347.9 1484.52   2
   0  -3   2 21327.1 1280.07   2
   3  -3   2 22800.1 1335.78   1
   3   0  -2 18456.2 1256.81   1
  -3   3  -2 20377.6 1292.00   1
   3  -3  -2 21677.6 1258.23   1
   0  -3  -3 16925.5 848.228   2
  -3   0  -3 26187.7 1370.90   1
  -3   3  -3 18207.9 1279.63   1
   3  -3   3 19912.3 1297.66   2
   0  -3   3 18631.6 1168.02   1
   3  -3  -3 23768.9 1322.17   1
   0  -3   3 18973.6 1261.52   2
  -3   3   3 20178.0 1242.96   1
  -3   0   3 19394.0 1282.20   1
   0   3  -3 21950.4 1270.41   1
   3   0   3 18831.4 1198.61   1
   3  -3   3 19087.2 1312.76   1
  -3   0   3 15475.4 1222.99   2
   3   0  -3 18904.1 1287.19   1
   3   0   5 12576.6 1007.63   1
  -3   3   5 12377.3 1047.14   1
   0  -3   5 13641.4 1151.94   1
   3  -3   5 8936.22 1002.05   1
  -3   0   5 12862.2 1082.59   2
   3  -3  -5 11520.8 993.029   1
  -3   0  -5 11456.6 942.440   1
   3  -3   5 12288.3 1050.23   2
   0  -3  -5 13154.3 591.628   1
   3   0  -5 11513.7 1082.26   1
  -3   3  -5 11082.8 1083.20   1
   0  -3   5 11900.0 1091.51   2
   0   3   5 11111.4 583.848   1
   0   3  -5 10631.6 1036.12   1
  -3   0   5 11942.9 1117.86   1
  -3   0   6 9403.69 1006.49   2
   3  -3   6 10506.0 1069.29   2
  -3   0   6 10191.6 1029.46   1
   0  -3  -6 12631.5 702.463   1
   3  -3   6 12145.4 1134.54   1
  -3   3  -6 14435.3 1195.74   1
   0   3  -6 14119.2 1164.83   1
   3   0  -6 11697.4 1114.94   1
   0   3   6 10062.7 691.309   1
   3  -3  -6 13207.1 1060.77   1
  -3   3   6 11998.8 1066.40   1
  -3   0  -6 11570.0 998.792   1
   0  -3   6 12132.7 1081.94   1
   0  -3   6 10934.9 1078.89   2
   3   0   6 11088.4 996.115   1
   0   3   7 6120.35 574.485   1
   3  -3   7 6975.18 894.087   1
  -3   0   7 6710.77 845.944   2
   0   3  -7 5275.74 779.492   1
   3   0   7 7034.64 791.695   1
   3  -3   7 6327.41 806.477   2
   3  -3  -7 7231.43 823.881   1
  -3   0  -7 5017.03 675.454   1
   0  -3   7 6309.18 852.921   1
  -3   0   7 5171.66 788.918   1
   3   0  -7 5709.87 825.486   1
   0  -3  -7 5957.78 563.570   1
   0  -3   7 6515.85 854.394   2
  -3   3  -7 6733.85 834.593   1
  -3   3   7 5925.38 764.555   1
  -3   3   8 487663. 11540.6   1
   0  -3   8 579050. 12190.1   1
  -3   0   9 10412.1 1156.66   2
  -3   0  -9 11375.3 1143.11   1
   3   0   9 10557.7 1107.93   1
   0   3  -9 11352.1 1248.43   1
   3  -3  -9 12969.0 1157.64   1
   0  -3   9 11345.7 1223.73   2
   0  -3  -9 11963.0 998.494   1
  -3   0   9 11963.5 1284.53   1
   0  -3   9 12928.1 1371.03   1
   3  -3   9 11482.0 1239.70   1
   3   0   9 12830.7 1264.65   2
  -3   3   9 10751.8 1178.26   1
   3  -3   9 12523.2 1306.71   2
   3   0  -9 8788.28 1044.05   1
  -3   3  -9 8785.20 1125.97   1
   0   3   9 11519.1 994.706   1
  -3   0  10 607.180 433.598   1
   3  -3  10 350.110 256.269   2
   3  -3  10-198.690 362.407   1
   0  -3  10 212.018 239.807   2
   3   0 -10 19.3306 267.859   1
  -3   3 -10 139.065 230.469   1
  -3   0  10 751.203 360.669   2
  -3   3  10-200.377 292.267   1
  -3   0 -10-102.763 243.503   1
   0   3 -10-318.048 283.308   1
  -3   3  10 89.8820 157.225   2
   3  -3 -10-120.024 185.602   1
   3   0  10 108.292 216.250   2
   3   0  10 53.5489 199.264   1
   0   3  10-66.1250 166.395   1
   0  -3  10-475.296 347.800   1
   0  -3 -10 6.02084 139.368   1
  -3   0  11 25.1402 187.475   2
  -3   0 -11 173.420 210.744   1
  -3   0  11-403.201 275.313   1
   3   0  11-302.247 319.570   1
   3   0 -11 480.216 401.495   1
   3   0  11 112.456 188.326   2
   0  -3 -11 34.5721 153.805   1
  -3   3 -11-415.237 409.703   1
   3  -3  11 58.0734 199.155   1
   0  -3  11-19.5440 250.477   1
  -3   3  11-325.233 295.026   1
   0   3 -11-375.789 312.326   1
   3  -3 -11 95.4709 224.699   1
   0  -3  11-136.455 370.857   2
   3  -3  11 451.214 461.652   2
   0   3  11 166.054 223.296   1
   0  -3  12 230429. 7204.61   1
  -3   0  12 226861. 6919.86   2
  -3   0 -12 194086. 6394.48   1
   0   3 -12 210814. 6820.11   1
   3   0 -12 226538. 6990.19   1
   0  -3  12 215521. 6822.19   2
   3  -3  12 214595. 6944.55   1
   3   0  12 243638. 6798.70   2
   3  -3  12 219283. 6912.61   2
   3  -3 -12 188850. 6233.55   1
  -3   0  12 229359. 7287.27   1
  -3   3 -12 210947. 6686.52   1
   0   3  12 244386. 6710.78   1
   3   0  12 221765. 6830.76   1
  -3   3  12 183197. 6502.84   1
   0  -3 -12 211797. 6282.01   1
   0  -3 -13 612.950 350.289   1
  -3   3  13 487.905 511.781   1
   3   0 -13 455.189 306.518   1
  -3   0  13 620.778 274.589   2
   3  -3  13 328.502 316.624   1
  -3   0 -13 749.019 422.780   1
   0  -3  13 584.505 387.519   2
   3   0  13 203.655 192.135   1
   0   3  13 589.262 314.500   1
  -3   3 -13 95.9722 242.760   1
   3  -3  13 802.891 423.149   2
   3   0  13 750.653 387.556   2
   0   3 -13 400.777 418.226   1
   3  -3 -13 194.482 149.506   1
  -3   0  13 655.504 415.150   1
   0  -3  13 177.075 236.167   1
   3   0 -14 200.413 178.532   1
   3   0  14 309.865 379.733   1
   0  -3  14 141.025 347.030   1
   0  -3  14 475.497 430.185   2
   0   3 -14 203.872 207.747   1
  -3   0 -14 347.313 320.702   1
  -3   0  14 602.407 206.169   1
  -3   3 -14-17.5412 296.744   1
  -3   0  14 293.319 318.524   2
   3  -3  14 904.570 494.365   1
   0   3  14 503.415 273.189   1
   3   0  14 432.835 189.517   2
   3  -3  14 216.712 339.446   2
   3  -3 -14 322.164 359.657   1
  -3   3  14-123.199 388.507   1
   3  -3  15 575.861 379.849   1
  -3   0 -15 419.126 198.307   1
   0  -3  15-52.5516 223.404   2
   0  -3  15 625.775 415.944   1
  -3   0  15 592.929 476.949   2
  -3   3 -15 467.557 243.601   1
   3  -3  15 800.132 506.235   2
   3  -3 -15 836.321 505.732   1
   3   0  15 241.119 225.758   1
   3   0 -15 1032.34 471.774   1
  -3   0  15 824.893 431.630   1
   0   3 -15 791.770 482.294   1
  -3   3  15-31.6066 445.092   1
   0  -3  16 133788. 5695.26   2
  -3   3 -16 133018. 5497.11   1
  -3   3  16 137893. 5870.47   1
  -3   0 -16 125786. 5306.47   1
  -3   0  16 118254. 5594.27   1
   3  -3 -16 136993. 5607.29   1
   3   0  16 125562. 5461.74   1
  -3   0  16 133162. 5750.23   2
   0   3 -16 122815. 5306.92   1
   3  -3  16 127864. 5556.75   1
   0  -3  16 130951. 5548.37   1
   3   0 -16 126932. 5371.28   1
   3  -3  16 123463. 5471.64   2
   3  -3 -17 1067.68 483.233   1
   0  -3  17 587.637 369.527   1
   3  -3  17 300.558 406.935   1
   3   0  17-254.228 339.749   1
   0  -3  17 390.536 305.715   2
   3  -3  17 369.854 480.206   2
   0   3 -17 843.010 393.424   1
  -3   3  17 869.127 543.254   1
  -3   0 -17 85.8744 148.762   1
   3   0 -17 879.246 477.811   1
  -3   3 -17 468.054 375.287   1
  -3   0  17 679.423 448.498   1
   0   3 -18 657.959 422.327   1
  -3   3 -18 299.717 347.019   1
   3   0 -18 1155.76 550.912   1
   3   0  18 243.763 300.044   1
   0  -3  18 19.1691 369.363   2
   3  -3  18 430.283 293.481   1
  -3   0 -18 1072.23 464.912   1
   3  -3 -18 277.827 317.938   1
   0  -3  18 687.099 469.407   1
   3  -3  18 900.548 601.798   2
  -3   3  18 125.948 352.673   1
  -3   0  18 717.801 624.922   1
   3   0 -19 214.540 320.741   1
   3  -3 -19 337.740 303.242   1
   0  -3  19-141.310 285.208   2
   0   3 -19-0.97189 364.237   1
  -3   3 -19 196.449 320.658   1
   3  -3  19 417.716 479.643   1
  -3   3  19-576.778 315.084   1
   3   0  19 78.0290 166.665   1
   0  -3  19 169.868 367.497   1
  -3   0  19 320.088 368.327   1
  -3   3 -20 46847.7 3413.88   1
   3   0 -20 50657.1 3515.89   1
   0   3 -20 51210.4 3511.76   1
   3  -3  20 54187.5 3786.40   1
   0  -3  20 52012.7 3702.04   1
  -3   0  20 46745.9 3660.65   1
  -3   0  21 282.119 533.257   1
  -3   3 -21-138.276 192.590   1
   3  -3  21 938.045 615.281   1
   4  -2 -21 481.305 435.327   1
  -4   2  21-99.0953 307.778   1
   2  -4  20 31788.9 2852.18   1
   4  -2 -20 33362.8 2857.87   1
   2  -4  20 28470.1 2812.04   2
  -2   4 -20 37675.1 2923.91   1
  -4   2  20 36183.5 3178.73   1
   2  -4  19-143.267 186.441   2
  -4   2  19-102.899 305.234   1
  -2   4 -19 270.606 452.029   1
   4  -2 -19 551.304 447.824   1
   2  -4  19 374.564 230.977   1
  -2   4 -18 3780.49 963.193   1
   2  -4  18 3780.47 1010.73   1
  -4   2  18 2411.56 860.077   1
   2  -4  18 2674.88 870.346   2
   4  -2 -18 2881.24 800.512   1
   2  -4  17-472.558 513.508   2
   2  -4  17-15.1323 301.921   1
  -2   4 -17 462.426 366.431   1
  -4   2  17 191.757 360.807   1
   4  -2 -17-294.396 271.864   1
   4  -2 -16 233585. 7810.22   1
   2  -4  16 242933. 7938.92   2
   2  -4  16 232498. 7993.07   1
  -2   4 -16 235138. 7701.48   1
   2  -4  15-21.0086 228.481   1
  -2   4 -15-37.6196 220.569   1
  -4   2  15-346.369 396.834   1
   4  -2 -15 328.319 203.578   1
   2  -4  15-98.9192 292.413   2
   2   2  14 12158.1 1431.96   1
   4  -2 -14 12719.3 1481.68   1
  -4   2  14 12760.7 1635.02   1
   2  -4  14 12702.9 1555.91   2
  -2   4 -14 12295.5 1495.15   1
   2  -4  14 12942.8 1615.77   1
  -2   4 -13 306.934 201.775   1
  -4   2  13-227.780 361.410   1
  -2  -2 -13 113.249 231.289   1
   2  -4  13 83.3501 367.411   1
   4  -2 -13 425.524 408.901   1
   2  -4  13-235.256 316.287   2
   2   2  13-107.540 126.237   1
  -2  -2 -12 24393.7 1804.49   1
   2   2  12 30423.3 2086.13   1
  -4   2  12 33368.1 2233.38   2
  -2   4 -12 29040.0 2195.40   1
   2  -4  12 27585.1 2172.59   2
   2  -4  12 27562.9 2139.58   1
  -4   2  12 25996.3 2176.08   1
   4  -2 -12 27795.8 2124.27   1
   2   2  11-60.6901 105.404   2
  -4   2  11-291.989 216.550   2
  -2   4 -11-153.495 259.658   1
   2   2  11-67.3155 230.453   1
   2  -4  11 295.555 205.560   1
  -4   2  11 139.170 248.155   1
  -2  -2 -11-88.1176 214.499   1
   2  -4  11-551.315 398.337   2
   4  -2 -11 60.9710 305.470   1
  -2   4 -10 44475.7 2591.10   1
   2  -4  10 48230.3 2677.31   2
   2  -4  10 44736.1 2630.68   1
  -4   2  10 44868.5 2711.10   1
  -4   2  10 48938.4 2525.67   2
   2   2  10 47332.3 2358.14   1
  -2  -2 -10 48367.3 2341.53   1
   4  -2 -10 42484.7 2468.32   1
   2  -4   9 124.360 187.643   1
   4  -2  -9-301.982 316.870   1
  -4   2   9-113.841 166.272   2
  -2   4  -9 20.5048 193.022   1
  -2  -2  -9-92.6812 211.100   1
  -4   2   9-72.9186 288.759   1
   2   2   9 0.45678 170.922   2
   2   2   9-152.466 164.663   1
   2  -4   9 9.74400 206.720   2
   4  -2  -7-60.2643 249.336   1
  -2  -2  -7 62.1159 116.397   1
   2  -4   7 283.229 164.411   2
  -4   2   7 19.2856 182.653   2
   2   2   7-75.7713 146.526   1
  -2   4  -7-132.192 191.834   1
  -4   2   7 237.674 193.923   1
   2  -4   6 2084.30 483.860   2
   2  -4   6 2611.19 505.918   1
  -4   2   6 1563.55 443.230   1
   4  -2  -6 2773.63 576.796   1
  -2  -2  -6 1982.85 342.895   1
  -2   4  -6 1951.45 504.590   1
   2   2   6 1782.58 333.870   1
   2  -4   5-178.818 193.645   2
   2  -4   5 59.8117 206.846   1
   2   2   5-10.3389 81.4616   1
  -4   2   5-171.887 171.843   1
  -2   4  -5-6.11157 145.405   1
   4  -2  -5 285.546 232.390   1
  -2  -2  -5 166.013 110.812   1
  -4   2   3-158.220 265.191   1
  -2   4  -3-51.3149 128.034   1
  -2  -2  -3 142.949 112.671   1
   2  -4   3-331.430 209.145   2
   2  -4   3 225.057 153.506   1
   2   2   3 74.6959 80.8258   1
   4  -2  -3 61.6257 167.093   1
   2  -4   1 209.694 158.827   2
  -2   4  -1 1.43970 122.576   1
  -2  -2  -1-62.4843 139.726   2
  -2  -2  -1 30.1036 124.024   1
   2  -4   1 146.625 151.360   1
  -4   2   1-39.6526 177.059   1
   2   2   1-110.080 107.588   1
   4  -2  -1 289.858 114.332   1
  -2  -2   1-60.9211 105.716   2
  -2   4   1 192.469 149.059   1
   2   2  -1 39.1764 138.376   1
  -4   2  -1-167.785 179.073   1
   4  -2   1 264.727 248.618   1
   2  -4  -1 91.3992 155.302   2
   2  -4  -1 334.497 177.052   1
  -2  -2   1 395.115 130.951   1
   2   2  -3-390.965 175.105   1
  -4   2  -3 432.568 326.921   1
   4  -2   3 100.431 271.544   1
  -2   4   3-66.6185 113.760   1
   2  -4  -3 107.901 71.3750   1
  -2  -2   3-353.742 324.991   2
   2  -4  -3-4.52769 82.0572   2
  -2  -2   3 7.08502 129.159   1
   4  -2   5-174.991 191.571   1
  -2   4   5-60.1080 126.989   1
  -2  -2   5-19.9491 153.540   2
  -4   2  -5-146.903 282.358   1
   2   2  -5-44.8324 129.730   1
  -2  -2   5-88.4019 107.526   1
   2  -4  -5 37.3230 118.929   1
   4  -2   6 583.854 294.330   1
  -2   4   6 310.956 168.743   1
  -2  -2   6 214.274 228.930   2
  -2  -2   6 70.3732 239.092   1
   2  -4  -6 432.720 186.862   1
   2   2  -6 390.002 318.709   1
  -4   2  -6 313.618 276.892   1
   4  -2   7 53.4752 270.072   2
  -2  -2   7 127.450 191.880   2
   4  -2   7 46.8512 227.870   1
  -4   2  -7 232.871 291.899   1
   2  -4  -7-24.5726 134.673   1
   2   2  -7-105.230 352.400   1
  -2  -2   7-118.417 223.648   1
  -2   4   7-9.91544 176.250   1
   2   2  -9-62.5579 224.511   1
  -4   2  -9 98.8360 160.518   1
   2  -4  -9 124.623 253.771   1
   4  -2   9-305.747 311.040   1
  -2   4   9 45.4715 183.233   1
   4  -2   9-408.302 351.445   2
  -2  -2   9 519.136 309.366   2
  -2  -2   9 167.621 199.807   1
  -4   2 -10 167561. 5447.03   1
  -2   4  10 154192. 4968.64   1
   2   2 -10 150118. 5401.67   1
  -2  -2  10 143041. 5252.36   2
  -2  -2  10 149521. 5393.55   1
   4  -2  10 143499. 5156.84   2
   2  -4 -10 174261. 4995.63   1
   4  -2  10 145712. 5323.33   1
  -2  -2  11-141.691 209.279   1
   4  -2  11-41.8410 180.291   1
  -2   4  11 375.271 207.685   1
   4  -2  11-104.635 164.973   2
   2  -4 -11-250.612 226.673   1
   2   2 -11-262.247 317.413   1
  -4   2 -11-372.554 325.009   1
  -2  -2  11 185.246 311.548   2
   4  -2  12 73031.2 3655.73   2
  -2  -2  12 72111.9 3717.04   2
  -4   2 -12 60908.3 3306.17   1
   2  -4 -12 84764.6 3597.53   1
   4  -2  12 71850.3 3598.48   1
   2   2 -12 66379.2 3524.60   1
  -2   4  12 72969.9 3483.28   1
  -2  -2  12 74346.6 3737.68   1
   2  -4 -13 87.7834 158.710   1
  -2  -2  13-545.513 388.845   2
   2   2 -13 381.968 381.383   1
   4  -2  13 293.828 409.615   1
  -4   2 -13 41.0959 324.971   1
  -2   4  13-116.155 198.783   1
   4  -2  13-819.988 401.829   2
  -2  -2  13-238.951 261.794   1
   4  -2  14 57534.9 3441.58   1
  -2  -2  14 63372.6 3610.78   2
  -4   2 -14 55392.6 3318.20   1
  -2   4  14 63288.6 3540.67   1
   4  -2  14 62273.2 3623.24   2
   2   2 -14 57060.3 3402.52   1
  -2  -2  14 60081.2 3587.58   1
   2   2 -15-181.394 256.153   1
  -2  -2  15 56.1765 283.248   1
   4  -2  15-110.693 238.683   1
   4  -2  15 142.998 357.223   2
  -4   2 -15 135.951 261.227   1
  -2  -2  15 344.872 322.676   2
  -2  -2  16 139190. 6015.76   1
  -2  -2  16 145846. 6171.79   2
   2   2 -16 147506. 5879.53   1
   4  -2  16 146526. 6126.11   2
  -4   2 -16 143165. 5882.88   1
   4  -2  16 137476. 5846.57   1
   2   2 -17 134.317 249.956   1
   4  -2  17-179.603 364.170   2
  -2  -2  17 311.167 262.102   2
   4  -2  17-137.483 350.744   1
  -2  -2  17 343.742 296.084   1
  -4   2 -17 82.1438 255.294   1
  -2  -2  18 5254.35 1141.99   1
  -4   2 -18 6301.61 1186.25   1
   2   2 -18 6902.34 1173.87   1
   4  -2  18 6251.67 1214.86   1
  -2  -2  18 7040.63 1349.42   2
   4  -2  19 312.107 341.625   1
  -4   2 -19 58.5992 245.729   1
  -2  -2  19-34.1686 231.841   1
   2   2 -19 756.970 475.587   1
   4  -2  20 45841.3 3521.83   1
  -2  -2  20 57672.1 3963.94   1
   2   2 -20 52806.8 3535.55   1
  -4   2 -20 45892.6 3304.67   1
   4  -2  21 81.4929 391.510   1
  -4   2 -21-45.4777 253.054   1
   3  -4  20 825.158 581.380   1
   1  -4  20 177.508 332.513   1
   4  -1 -20-200.157 203.391   1
  -3   4 -20 173.919 178.216   1
  -4   3  20 137.220 320.885   1
  -4   1  20-232.355 508.271   1
   3  -4  20-101.242 353.863   2
   1  -4  20 15.3419 281.886   2
  -1   4 -20 56.6483 267.349   1
   4  -3 -20 217.410 288.917   1
   4  -3 -19 4164.39 994.555   1
  -1   4 -19 5474.27 1121.21   1
  -4   1  19 6468.47 1359.34   1
   3  -4  19 4889.67 1055.91   1
   1  -4  19 5051.28 1123.64   2
  -4   3  19 4274.86 929.422   1
   4  -1 -19 5576.31 1084.56   1
   1  -4  19 4776.23 1136.56   1
   3  -4  19 4698.40 1147.48   2
  -3   4 -19 5130.12 1099.32   1
  -3   4 -18 38651.9 2910.48   1
   4  -3 -18 36687.6 2956.34   1
   3  -4  18 43339.6 3242.86   1
   1  -4  18 40333.7 3135.62   1
   1  -4  18 38087.9 3055.94   2
  -4   1  18 41782.7 3275.67   1
   4  -1 -18 38468.1 2986.58   1
  -1   4 -18 39703.0 2962.14   1
  -4   3  18 41594.8 3285.46   1
   3  -4  18 32993.8 2933.48   2
   1  -4  17 36367.6 2853.21   2
  -4   1  17 34438.8 2928.67   1
   3  -4  17 32880.1 2823.45   2
   4  -3 -17 33553.7 2742.56   1
   4  -1 -17 39864.2 2880.89   1
  -4   3  17 36973.3 2936.88   1
   1  -4  17 36827.2 2812.17   1
  -1   4 -17 35205.0 2693.30   1
   3  -4  17 37263.7 2996.05   1
  -3   4 -17 37574.1 2821.24   1
   4  -3 -16 40117.8 2825.33   1
   3  -4  16 33311.6 2711.89   1
  -4   3  16 33746.9 2784.44   1
  -4   1  16 34456.7 2857.13   1
  -1   4 -16 39322.3 2775.03   1
   4  -1 -16 31511.0 2568.47   1
  -3   4 -16 37654.3 2788.25   1
   3  -4  16 37283.9 2828.00   2
   1  -4  16 37472.8 2788.94   1
   1  -4  16 34254.4 2672.27   2
   1  -4  15 23391.4 2242.48   1
   3  -4  15 20988.9 2046.24   1
  -4   3  15 18525.0 1990.45   1
   1  -4  15 20408.0 2049.11   2
   4  -1 -15 19483.2 1962.24   1
  -3  -1 -15 21496.9 1909.90   1
   3   1  15 22170.7 2077.52   1
  -1   4 -15 19639.4 1983.63   1
  -3   4 -15 23001.6 2082.51   1
   4  -3 -15 19804.2 1921.55   1
   3  -4  15 18500.3 1968.49   2
   3  -4  14 143068. 5690.19   2
   3  -4  14 145996. 5812.09   1
  -4   1  14 167446. 6008.27   2
   3   1  14 149294. 5697.59   1
   4  -1 -14 141460. 5610.54   1
  -3   4 -14 151569. 5860.11   1
   1  -4  14 150527. 5792.78   2
  -1   4 -14 146295. 5663.57   1
   4  -3 -14 150460. 5660.96   1
  -3  -1 -14 159010. 5608.48   1
   1  -4  14 155994. 6063.85   1
  -4   3  14 161199. 6096.22   1
  -3  -1 -13 3039.74 707.330   1
   3  -4  13 2354.49 618.916   1
   3   1  13 3163.16 732.258   1
  -4   3  13 1617.96 441.664   1
   4  -1 -13 3701.94 838.570   1
  -3   4 -13 3973.12 758.283   1
  -1   4 -13 2676.10 697.904   1
   4  -3 -13 2894.52 636.173   1
  -4   1  13 3760.64 825.584   2
   1  -4  13 2749.80 660.376   2
   3  -4  13 2502.10 695.696   2
   1  -4  13 4471.85 1028.55   1
   3   1  12 1830.21 511.374   1
  -3  -1 -12 2496.46 596.421   1
  -4   1  12 3312.80 790.514   1
   4  -3 -12 1738.92 523.212   1
   4  -1 -12 2656.78 711.567   1
   3  -4  12 2251.54 684.837   1
  -4   1  12 2105.51 564.814   2
  -3   4 -12 1536.49 457.269   1
  -1   4 -12 1873.66 514.969   1
   3  -4  12 1893.62 591.905   2
   3   1  12 1174.07 341.181   2
   1  -4  12 1509.79 519.412   2
  -4   3  12 1841.20 628.250   1
   1  -4  12 1922.48 546.028   1
   1  -4  11 74034.0 3549.43   2
   3  -4  11 72033.6 3591.22   1
   1  -4  11 71530.3 3626.88   1
   3   1  11 71530.7 3282.03   1
   4  -1 -11 65829.4 3354.12   1
   3  -4  11 72110.0 3543.62   2
   1   3  11 71314.5 3054.66   1
  -3  -1 -11 77794.5 3322.73   1
  -1   4 -11 68044.5 3489.88   1
  -4   1  11 66792.2 3330.91   2
  -4   1  11 72043.1 3681.89   1
  -4   3  11 86908.6 3967.62   1
   4  -3 -11 69968.0 3308.55   1
  -3   4 -11 68622.6 3417.87   1
   3   1  11 49222.4 2786.44   2
  -4   3  10 67344.0 3385.48   1
  -3  -1 -10 75020.1 3146.08   1
   3   1  10 74728.7 3200.58   1
  -1   4 -10 74436.6 3555.92   1
  -4   1  10 81723.8 3790.85   1
  -3   4 -10 70632.8 3429.01   1
   3   1  10 73921.6 3304.43   2
   3  -4  10 78923.3 3579.38   2
   1  -4  10 75993.6 3619.38   1
   1  -4  10 76376.7 3557.08   2
  -4   1  10 64159.4 3361.24   2
   4  -1 -10 72935.5 3440.80   1
  -1  -3 -10 72262.5 2851.59   1
   4  -3 -10 66231.9 3141.87   1
   3  -4  10 70600.9 3506.30   1
   1   3  10 85864.2 3142.36   1
   1   3   9 259836. 5198.78   1
   4  -1  -9 244360. 6199.54   1
   3  -4   9 220241. 6040.64   1
   3   1   9 219118. 5498.48   1
   1  -4   9 227272. 6148.56   1
  -3  -1  -9 176505. 4902.50   1
  -4   1   9 224663. 5943.81   2
  -4   1   9 221496. 6184.98   1
  -4   3   9 230307. 6080.65   1
  -1   4  -9 212778. 6035.09   1
   3  -4   9 227512. 6023.43   2
  -3   4  -9 212776. 5824.54   1
   4  -3  -9 211443. 5666.69   1
   1  -4   9 222387. 6089.52   2
  -1   4  -8 13758.9 1401.96   1
   3   1   8 15433.7 1263.28   1
  -1  -3  -8 16859.1 1055.53   1
   4  -3  -8 15761.6 1352.46   1
   1  -4   8 19992.9 1641.03   1
   3  -4   8 15300.7 1439.71   2
   1  -4   8 14222.1 1398.49   2
  -4   1   8 14184.7 1441.43   1
   4  -1  -8 12426.2 1283.54   1
  -3   4  -8 15098.9 1421.41   1
  -3  -1  -8 13236.6 1126.46   1
  -4   1   8 14514.0 1384.45   2
   1   3   8 16434.6 1066.21   1
  -4   3   8 15742.8 1417.91   1
   3  -4   8 14463.5 1371.08   1
   1   3   7 124778. 3319.80   1
   3  -4   7 135410. 4549.73   2
   4  -3  -7 119540. 4246.76   1
  -4   1   7 138349. 4749.00   1
  -3   4  -7 130904. 4495.96   1
   1  -4   7 130398. 4475.99   2
   4  -1  -7 134000. 4508.97   1
  -4   3   7 134852. 4492.31   1
  -4   1   7 124131. 4341.20   2
  -1  -3  -7 126421. 3256.53   1
   3   1   7 135438. 4038.28   1
  -3  -1  -7 139110. 4023.47   1
  -1   4  -7 132018. 4553.63   1
   3  -4   7 143718. 4739.80   1
   1  -4   7 140939. 4622.44   1
  -3  -1  -5 22636.8 1279.90   1
   1   3   5 16915.8 705.230   1
  -1   4  -5 20526.0 1469.58   1
   3  -4   5 24453.7 1595.00   1
   3   1   5 21643.9 1291.29   1
  -4   1   5 24464.0 1582.71   1
   4  -3  -5 16651.6 1341.50   1
  -3   4  -5 22479.6 1560.44   1
   1  -4   5 17625.1 1367.49   1
   4  -1  -5 20350.8 1494.99   1
  -4   1   5 22246.9 1580.14   2
   3  -4   5 23013.1 1524.03   2
  -1  -3  -5 18088.0 658.938   1
   1  -4   5 22248.8 1490.45   2
  -4   3   5 21653.9 1537.66   1
   3   1   4 224921. 5186.74   1
  -4   3   4 220031. 5721.99   1
   1  -4   4 207574. 5580.25   2
   1  -4   4 182753. 5199.54   1
   4  -1  -4 193866. 5583.87   1
  -3   4  -4 204335. 5559.59   1
   4  -3  -4 231048. 5833.39   1
   3  -4   4 192997. 5437.73   2
  -1   4  -4 182220. 5253.36   1
  -4   1   4 198174. 5742.66   2
   3  -4   4 232993. 5724.07   1
  -4   1   4 203283. 5599.88   1
   3   1   3 40230.5 1723.58   1
  -1  -3  -3 37878.8 1637.55   2
   3  -4   3 37394.6 1888.84   1
   1  -4   3 39071.5 1931.10   2
   1  -4   3 34127.2 1710.24   1
  -4   3   3 29581.5 1727.68   1
  -4   1   3 33121.4 1857.84   1
   4  -3  -3 36706.2 1919.20   1
  -3  -1  -3 28415.7 1499.72   1
  -1   4  -3 32100.8 1684.61   1
   4  -1  -3 36574.8 1992.01   1
  -3   4  -3 31530.6 1783.39   1
   3  -4   3 31370.8 1748.66   2
  -1  -3  -1 287022. 6301.44   2
  -3  -1  -1 287182. 6133.32   1
   4  -3  -1 267919. 6554.49   1
  -4   1   1 272570. 6484.02   1
  -1   4   0 34574.2 1394.33   1
  -1  -3   0 39265.9 1800.43   2
   1   3   0 37559.4 1369.16   1
  -1  -3   0 41513.6 1417.34   1
  -3  -1   0 40651.5 1744.88   1
   3  -4   0 46829.5 1942.40   1
   4  -3   0 49185.2 2137.29   1
  -4   3   0 38041.7 1940.15   1
   1  -4   0 38864.8 1419.78   1
  -3   4   0 39628.3 1871.87   1
   4  -1   0 45180.5 2010.67   1
   1  -4   0 37919.7 1693.49   2
  -3  -1   0 43637.5 2164.44   2
  -4   1   0 34936.4 1801.61   1
   3  -4   0 37836.5 1701.95   2
   3   1   0 40127.6 1804.41   1
   1   3  -3 126685. 3710.45   1
  -1  -3   3 123611. 3937.37   2
  -4   1  -3 109302. 3791.80   1
  -3  -1   3 126137. 4061.32   2
   3   1  -3 128906. 3931.81   1
   1  -4  -3 132580. 2631.31   1
   4  -1   3 129957. 3975.91   1
  -3   4   3 124308. 3641.13   1
   3  -4  -3 126610. 3580.16   1
   4  -3   3 133317. 4108.37   1
  -1  -3   3 116547. 3606.68   1
   3  -4  -3 128165. 3309.58   2
  -4   3  -3 124589. 3989.19   1
  -3  -1   4 8300.77 912.268   2
   1  -4  -4 8201.17 459.041   1
   1  -4  -4 7626.98 466.276   2
   3  -4  -4 8857.68 800.186   1
  -3   4   4 7837.99 779.678   1
   3  -4  -4 5934.19 548.002   2
  -1  -3   4 7265.57 902.929   2
   4  -3   4 6031.27 820.870   1
   4  -1   4 7972.35 861.062   1
  -3  -1   4 7708.31 848.330   1
   3   1  -4 7204.44 816.594   1
  -4   1  -4 6146.66 785.299   1
  -1  -3   4 6905.12 790.914   1
  -4   3  -4 7368.72 899.039   1
  -1   4   4 8227.00 476.079   1
   1   3  -4 5559.71 759.058   1
   4  -3   4 8733.35 993.204   2
   4  -3   5 197166. 5635.23   2
  -1  -3   5 190302. 5249.92   1
   3  -4  -5 195515. 5064.01   1
  -1  -3   5 204776. 5616.50   2
  -3   4   5 167959. 4863.20   1
   1   3  -5 183772. 5256.58   1
  -3  -1   5 183150. 5402.34   2
   4  -1   5 189970. 5382.78   1
   3   1  -5 194878. 5448.54   1
  -4   1  -5 166926. 5131.63   1
   4  -3   5 184446. 5438.14   1
  -1   4   5 199165. 4036.87   1
  -4   3  -5 177940. 5320.31   1
   4  -1   6 264769. 7042.38   1
  -3  -1   6 285356. 7307.06   2
  -4   3  -6 285127. 7302.32   1
   4  -3   6 298992. 7471.10   1
   1   3  -6 273900. 7207.17   1
  -1   4   6 263933. 5799.96   1
  -3  -1   6 285788. 7381.98   1
  -4   1  -6 303854. 7239.02   1
  -1  -3   6 297543. 7315.51   1
  -1  -3   6 285318. 7421.38   2
  -3   4   6 275598. 6826.43   1
   4  -3   6 309524. 7427.71   2
   3   1  -6 278733. 7294.85   1
   1   3  -7 195467. 5716.68   1
   4  -3   7 196043. 5745.30   1
  -1  -3   7 181588. 5637.45   2
  -4   1  -7 166643. 5199.80   1
  -3   4   7 208395. 5382.27   1
  -3  -1   7 196341. 5775.08   1
  -1  -3   7 159819. 5329.71   1
  -3  -1   7 166270. 5422.11   2
   3  -4  -7 167917. 4997.87   1
   4  -3   7 199796. 5723.10   2
  -1   4   7 184682. 4452.90   1
   4  -1   7 188244. 5499.12   1
  -4   3  -7 195431. 5696.73   1
   3   1  -7 203556. 5793.17   1
   1  -4  -7 157402. 4202.86   1
   4  -1   8 179879. 5606.87   2
  -3  -1   8 162591. 5318.36   2
   4  -1   8 163040. 5176.42   1
  -3  -1   8 149835. 5285.76   1
  -1  -3   8 160078. 5322.06   2
   1   3  -8 162500. 5306.95   1
   3  -4  -8 154057. 4763.46   1
   1  -4  -8 165514. 4253.65   1
  -4   1  -8 185425. 5322.56   1
  -4   3  -8 159761. 5246.50   1
  -1  -3   8 145164. 5129.66   1
   4  -3   8 164830. 5266.41   2
  -3   4   8 165833. 4925.08   1
   4  -3   8 163332. 5387.04   1
  -1   4   8 149444. 4333.87   1
   3   1  -8 159383. 5239.94   1
   4  -1   9 2171.91 504.717   2
   1   3  -9 2102.24 513.581   1
  -3  -1   9 2119.70 549.573   2
   3   1  -9 2412.81 518.874   1
   4  -3   9 2911.20 639.654   1
  -4   1  -9 1597.89 503.170   1
   4  -1   9 2127.49 519.276   1
   3  -4  -9 1889.39 425.972   1
  -1  -3   9 2230.08 623.636   1
  -1   4   9 1923.32 482.635   1
  -1  -3   9 2368.47 571.463   2
   4  -3   9 2569.21 604.841   2
  -3   4   9 1793.17 427.371   1
   1  -4  -9 1983.77 386.748   1
  -3  -1   9 2485.19 651.716   1
  -4   3  -9 2023.33 530.319   1
  -1  -3  10 371165. 9638.87   1
   4  -3  10 374013. 9531.32   2
   4  -1  10 363817. 9527.81   2
  -4   3 -10 344939. 9296.71   1
   3   1 -10 397938. 9804.42   1
  -1  -3  10 382443. 9691.97   2
   4  -3  10 378192. 9735.56   1
  -4   1 -10 351728. 9195.39   1
   1  -4 -10 363140. 8523.40   1
  -3  -1  10 384779. 9682.45   2
   1   3 -10 354161. 9472.79   1
   4  -1  10 377119. 9535.40   1
  -3  -1  10 381271. 9828.23   1
  -3   4  10 352027. 9172.53   1
  -4   3 -11 11785.7 1362.54   1
  -3  -1  11 9295.79 1255.03   1
  -1  -3  11 10781.3 1363.35   1
   4  -3  11 11997.3 1359.28   2
   3  -4 -11 13366.2 1355.66   1
  -3   4  11 12520.6 1346.76   1
   4  -3  11 9248.19 1261.04   1
   4  -1  11 10250.8 1261.12   1
   3   1 -11 11184.4 1326.55   1
  -1  -3  11 10959.0 1341.52   2
   4  -1  11 10419.8 1323.78   2
   1   3 -11 11503.4 1338.01   1
  -3  -1  11 10949.7 1376.32   2
  -4   1 -11 12363.0 1269.28   1
   1  -4 -11 10680.4 1123.10   1
  -1   4  11 13042.2 1271.85   1
  -3  -1  12 9935.78 1344.89   2
   4  -3  12 12278.0 1442.37   1
   4  -1  12 12065.9 1403.83   2
  -1  -3  12 12519.2 1424.78   1
  -4   3 -12 11874.3 1394.48   1
   4  -1  12 9835.21 1292.15   1
  -1   4  12 11230.5 1326.94   1
  -1  -3  12 11110.8 1418.23   2
   4  -3  12 10041.3 1305.45   2
   3   1 -12 13253.5 1530.28   1
  -3  -1  12 11316.1 1478.82   1
   1   3 -12 11243.9 1351.74   1
  -4   1 -12 10957.1 1267.08   1
   3  -4 -12 15927.1 1521.46   1
  -3   4  12 9411.19 1271.51   1
   4  -1  13 111184. 4866.06   1
  -3   4  13 112726. 4883.19   1
  -3  -1  13 134861. 5366.05   2
   4  -3  13 129025. 5321.36   1
  -4   1 -13 115799. 4846.53   1
   1   3 -13 121966. 5030.70   1
   4  -3  13 136414. 5288.98   2
  -1  -3  13 126054. 5246.76   1
  -4   3 -13 128299. 5091.04   1
   3  -4 -13 121023. 4824.91   1
  -1  -3  13 138508. 5375.40   2
  -3  -1  13 121127. 5307.67   1
   3   1 -13 125667. 5139.21   1
   4  -1  13 122543. 5098.14   2
  -4   3 -14 39373.8 2747.64   1
   4  -3  14 46791.3 3015.80   1
  -3  -1  14 40790.3 2920.40   1
  -1  -3  14 34938.6 2744.05   1
   3   1 -14 37472.4 2715.12   1
   1   3 -14 39015.3 2717.56   1
   4  -1  14 41184.0 2863.51   2
   4  -1  14 42169.9 2907.35   1
  -3   4  14 36852.9 2683.14   1
  -1  -3  14 42426.5 2930.81   2
   4  -3  14 38791.8 2876.45   2
  -3  -1  14 45719.1 3071.93   2
   3  -4 -14 47671.1 2913.61   1
  -4   1 -14 38973.3 2699.79   1
  -1  -3  15 52731.9 3476.78   1
   4  -1  15 53055.0 3311.81   1
   3  -4 -15 65983.4 3639.35   1
   4  -3  15 51765.2 3337.54   1
  -4   1 -15 53579.0 3289.91   1
   4  -3  15 59275.0 3568.34   2
  -4   3 -15 57726.9 3448.63   1
  -3  -1  15 56373.2 3632.35   1
  -1  -3  15 53850.5 3461.78   2
  -3   4  15 57341.0 3521.12   1
  -3  -1  15 59605.5 3615.16   2
   4  -1  15 58735.8 3561.06   2
   1   3 -15 45949.7 3158.44   1
   3   1 -15 48852.9 3195.52   1
  -1  -3  16 1829.20 735.824   1
   3  -4 -16 1223.15 570.318   1
   3   1 -16 1539.11 487.274   1
   4  -1  16 1010.44 497.889   1
  -3   4  16 1063.08 499.950   1
  -4   1 -16 1161.04 498.034   1
  -4   3 -16 1146.00 563.412   1
  -3  -1  16 1479.55 622.084   1
   4  -3  16 924.832 475.902   1
   4  -3  16 964.495 456.290   2
  -1  -3  16 1084.71 483.366   2
   1   3 -16 708.813 210.003   1
  -3  -1  16 1526.66 693.829   2
  -1  -3  17 1763.96 586.170   1
  -3  -1  17 2788.35 822.788   1
   3   1 -17 2275.05 677.439   1
  -4   1 -17 1791.13 586.059   1
   4  -1  17 3157.52 839.995   1
  -3  -1  17 1937.60 650.354   2
   4  -3  17 1993.17 695.110   1
   1   3 -17 2707.12 812.029   1
  -1  -3  17 2008.90 740.260   2
   4  -3  17 852.550 555.337   2
  -4   3 -17 2244.12 716.748   1
  -4   1 -18 39789.0 3003.91   1
   4  -1  18 43284.6 3292.44   1
   4  -3  18 53097.4 3633.27   1
   3   1 -18 50540.8 3421.68   1
   4  -3  18 48989.8 3587.30   2
  -3  -1  18 52635.2 3753.67   1
  -1  -3  18 52467.6 3651.62   1
  -1  -3  18 48364.2 3526.77   2
  -4   3 -18 47943.9 3339.30   1
   1   3 -18 56146.5 3629.31   1
  -3  -1  19 5820.97 1272.35   1
  -1  -3  19 4098.95 1044.89   2
  -1  -3  19 4580.77 1060.71   1
   4  -1  19 3068.38 855.768   1
   3   1 -19 3159.53 826.241   1
  -4   1 -19 3622.14 886.508   1
  -4   3 -19 3662.63 931.738   1
   4  -3  19 2928.81 865.430   1
   1   3 -19 4095.29 899.625   1
   3   1 -20 11839.8 1654.64   1
   4  -3  20 10199.3 1624.58   1
  -1  -3  20 9850.94 1561.88   1
  -4   3 -20 11124.9 1584.74   1
   4  -1  20 8253.88 1442.26   1
  -3  -1  20 13768.6 1896.20   1
   1   3 -20 10855.5 1586.91   1
   0  -4   0 27646.0 1543.71   2
  -4   4   0 28660.5 1722.16   1
   0   4   0 32075.3 1231.04   1
   4   0   0 29992.3 1672.58   1
  -4   0   0 28746.9 1581.45   1
   4  -4   0 30807.9 1726.34   1
   0  -4   0 31543.3 1196.63   1
  -4   4  -1 286346. 6949.43   1
   4  -4  -1 281699. 6777.48   1
   4  -4   1 277602. 6771.33   2
  -4   0   1 277808. 6685.09   1
  -4   4   1 273573. 6774.52   1
   4   0  -1 277029. 6788.85   1
   0  -4  -1 273658. 6309.07   2
  -4   0   3 348025. 8107.26   1
   4   0  -3 323474. 8059.92   1
   0  -4   3 346719. 8171.03   2
  -4   4   3 326422. 7862.39   1
   4   0   4 123131. 3960.22   1
  -4   0  -4 118235. 3870.63   1
   0  -4   4 112362. 3773.41   1
  -4   0   4 120303. 4238.06   2
   4  -4   4 121383. 4139.71   1
   4   0  -4 98773.3 3863.65   1
  -4   4  -4 123176. 4148.89   1
   0  -4  -4 114632. 3148.19   2
   0  -4   4 115062. 4086.20   2
  -4   0   4 129840. 4108.44   1
   0   4  -4 130540. 3992.34   1
   4  -4   4 132113. 4143.74   2
   4  -4  -4 137939. 4106.51   1
  -4   4   4 128902. 4063.43   1
   0  -4   5 23297.5 1621.82   1
   0  -4   5 23199.4 1687.72   2
   0   4  -5 24038.4 1638.80   1
   4   0   5 25861.5 1647.11   1
  -4   4  -5 25753.9 1794.74   1
   4   0  -5 24474.4 1724.80   1
  -4   0   5 24910.5 1702.29   1
   4  -4   5 26870.7 1799.39   1
  -4   4   5 23123.7 1632.59   1
  -4   0  -5 25663.4 1630.11   1
  -4   0   5 27783.7 1890.26   2
   4  -4   5 24409.2 1667.66   2
   4  -4  -5 26714.8 1683.85   1
  -4   0   6 30851.5 2023.93   2
  -4   0  -6 33723.8 1883.39   1
  -4   0   6 31823.3 2093.48   1
  -4   4  -6 31401.7 2024.71   1
   4  -4   6 33343.4 2085.30   1
  -4   4   6 34721.6 2069.89   1
   0   4   6 24880.0 822.274   1
   4   0   6 35593.2 1932.21   1
   4   0  -6 31580.9 1973.92   1
   4  -4  -6 36984.6 2119.74   1
   0  -4   6 28747.8 1864.32   1
   0  -4   6 34534.7 2124.19   2
   4  -4   6 34500.4 1997.67   2
   0   4  -6 32188.7 1977.27   1
   0  -4   7 10844.4 1182.82   1
  -4   4  -7 8890.55 1121.01   1
  -4   0   7 10548.7 1213.22   1
  -4   0   7 10435.0 1173.04   2
  -4   0  -7 9214.56 995.773   1
   4  -4   7 11131.7 1183.42   1
   0  -4   7 10103.4 1124.99   2
   0  -4  -7 9438.77 598.740   1
   4   0   7 9349.86 1026.12   1
   4   0  -7 9806.03 1128.44   1
   4  -4  -7 9752.39 1061.07   1
  -4   4   7 8747.34 1060.14   1
   0   4  -7 8894.37 1072.75   1
   4  -4   7 9523.39 1135.63   2
   0   4   7 10227.9 655.011   1
  -4   0   8 2813.14 614.161   2
  -4   0  -8 3998.04 661.573   1
   4   0  -8 3247.56 679.292   1
   0  -4   8 3513.95 716.838   1
   4  -4   8 3503.36 703.313   2
  -4   4  -8 3321.49 673.806   1
   4  -4   8 3202.77 706.173   1
   4  -4  -8 3974.28 719.930   1
   0   4  -8 3956.83 732.864   1
  -4   0   8 3299.95 720.935   1
   4   0   8 3830.56 628.065   1
   0  -4   8 3124.33 673.494   2
   0  -4  -8 3063.31 399.480   1
  -4   4   8 4012.68 661.652   1
  -4   0   9 46793.1 2676.76   2
   0  -4   9 49692.9 2877.84   1
   4  -4   9 44438.7 2770.15   1
   4  -4  -9 49898.2 2597.55   1
   0  -4   9 45753.6 2732.25   2
  -4   0   9 49610.1 2869.41   1
   0   4  -9 42829.8 2598.83   1
  -4   4  -9 42528.1 2616.02   1
  -4   0  -9 54204.4 2649.74   1
   4  -4   9 45925.7 2628.74   2
   0   4   9 49271.6 2047.07   1
   4   0   9 42436.3 2437.03   1
   4   0  -9 47299.4 2709.12   1
  -4   4   9 49771.0 2684.78   1
   0  -4  10 229556. 7250.98   1
   0   4 -10 263913. 7493.71   1
   4  -4  10 235978. 7285.15   1
   4   0  10 218874. 6798.91   1
   0  -4  10 231967. 7188.09   2
  -4   0  10 246099. 7579.32   1
  -4   0 -10 225884. 6695.89   1
  -4   4 -10 235200. 7180.47   1
  -4   0  10 257015. 7394.61   2
   4  -4  10 246768. 7239.28   2
   4   0 -10 224387. 7043.85   1
   4   0  10 251126. 7454.23   2
   4  -4 -10 277194. 7209.13   1
  -4   4  10 253016. 7174.99   1
   4  -4  11 160545. 5818.10   1
   4  -4 -11 155819. 5431.26   1
   0  -4  11 174739. 6010.90   2
  -4   4 -11 157912. 5633.08   1
  -4   0 -11 203882. 5880.67   1
   4  -4  11 176682. 5958.00   2
   4   0  11 171380. 5703.55   1
  -4   4  11 145551. 5544.59   1
   4   0  11 146059. 5442.25   2
   0  -4  11 179845. 6175.72   1
   0   4 -11 170722. 5963.59   1
   4   0 -11 175388. 5930.66   1
  -4   0  11 173216. 5932.16   2
   0  -4  12 44508.2 2897.26   1
   4   0  12 39945.8 2629.69   1
   4  -4 -12 39332.9 2556.53   1
  -4   0 -12 36362.2 2408.04   1
   4  -4  12 40120.5 2710.09   1
   4  -4  12 38843.0 2625.32   2
  -4   4 -12 43611.5 2725.25   1
   0  -4  12 38186.8 2676.36   2
   0   4 -12 41397.6 2730.91   1
  -4   4  12 39206.7 2680.41   1
  -4   0  12 42905.5 2844.29   1
   4   0  12 39167.7 2640.92   2
  -4   0  12 38111.6 2825.56   2
   4   0 -12 45336.5 2821.48   1
  -4   0 -13 82001.5 3814.67   1
   0  -4  13 71570.6 3922.49   1
   0  -4  13 77786.6 4016.30   2
  -4   0  13 75331.5 4035.65   1
   4  -4  13 91103.6 4263.64   1
   4  -4 -13 87122.5 4030.77   1
  -4   4 -13 83907.1 4031.06   1
   4   0  13 75109.8 3835.63   1
   4   0 -13 84741.6 4129.64   1
  -4   0  13 85147.4 4172.06   2
  -4   4  13 76486.8 4021.70   1
   4  -4  13 83338.6 4157.83   2
   4   0  13 81985.3 3991.93   2
   0   4 -13 89392.9 4132.87   1
   4   0 -14 174552. 6261.69   1
  -4   4  14 157606. 6192.13   1
  -4   0 -14 163913. 5851.89   1
  -4   4 -14 179737. 6241.55   1
   4  -4  14 178434. 6423.15   2
   0   4 -14 163633. 6143.33   1
   4   0  14 175555. 6223.72   1
   4  -4  14 151473. 6208.79   1
  -4   0  14 154211. 6384.79   2
   0  -4  14 172386. 6437.47   1
   0  -4  14 157264. 6200.49   2
   4  -4 -14 172268. 6162.32   1
   4   0  14 155158. 6047.56   2
  -4   0  14 173769. 6533.02   1
  -4   4  15 11152.5 1492.30   1
   4   0  15 11197.3 1477.20   1
   0   4 -15 12435.9 1547.26   1
  -4   4 -15 13263.9 1580.32   1
   0  -4  15 10731.1 1510.07   1
  -4   0 -15 12556.9 1503.22   1
  -4   0  15 14418.6 1767.81   2
   0  -4  15 11827.9 1589.55   2
  -4   0  15 12065.8 1600.66   1
   4  -4  15 11998.6 1537.40   1
   4  -4 -15 13667.7 1650.73   1
   4  -4  15 12487.9 1602.64   2
   4   0 -15 12513.5 1582.13   1
  -4   0  16 4338.74 1013.22   1
  -4   0 -16 3867.46 853.462   1
   4   0 -16 4980.99 1011.39   1
   0  -4  16 3806.45 911.676   1
  -4   0  16 3747.48 962.526   2
   4  -4  16 4077.61 955.901   1
   4   0  16 2727.29 723.688   1
   4  -4  16 3548.88 931.279   2
  -4   4  16 4811.42 1070.47   1
  -4   4 -16 4134.32 951.702   1
   0   4 -16 3269.24 856.453   1
   0  -4  16 4702.54 1058.84   2
   4  -4 -16 3801.58 876.522   1
   0  -4  17 4662.07 1068.38   1
   4  -4  17 4445.01 985.906   1
   0  -4  17 3803.15 950.254   2
   4  -4 -17 4453.42 1012.65   1
   4   0  17 3170.35 873.582   1
   4   0 -17 4679.15 991.425   1
  -4   4 -17 4029.33 887.644   1
   0   4 -17 3744.56 899.380   1
   4  -4  17 2942.25 888.611   2
  -4   4  17 4965.16 1036.55   1
   0  -4  18 11475.4 1640.86   1
   0   4 -18 12329.7 1566.62   1
  -4   4  18 11318.7 1715.61   1
   4   0 -18 10175.6 1529.04   1
   4  -4  18 9209.25 1513.73   1
   4  -4  18 9283.99 1599.30   2
   0  -4  18 10088.9 1550.31   2
  -4   4 -18 9412.71 1437.07   1
  -4   4 -19 9797.38 1524.38   1
   4  -4  19 10440.9 1540.85   1
   0  -4  19 9080.90 1511.41   1
  -4   0  19 10829.0 1746.94   1
   4  -4  19 6832.89 1345.79   2
   0   4 -19 9160.35 1433.16   1
   0  -4  19 7991.46 1422.44   2
   4   0 -19 7630.88 1350.47   1
  -4   4 -20 2188.71 697.064   1
   0   4 -20 3013.64 827.415   1
   0  -4  20 2229.34 760.803   1
   4  -4  20 1224.44 522.292   1
   4   0 -20 3131.55 778.685   1
   0  -4  20 1953.76 767.098   2
  -4   0  20 1763.08 822.484   1
   5  -3 -20 3066.46 889.062   1
   3  -5  20 3159.11 974.740   2
   5  -2 -20 3395.95 915.607   1
   2  -5  20 2145.54 710.394   2
  -5   3  20 2956.57 952.804   1
  -5   2  20 3415.44 1078.50   1
   3  -5  19 11526.1 1745.53   1
  -3   5 -19 14258.3 1725.91   1
  -5   3  19 13530.3 1885.91   1
   5  -3 -19 11249.4 1615.23   1
  -5   2  19 11597.3 1818.46   1
   3  -5  19 8957.03 1549.47   2
  -2   5 -19 10835.1 1559.23   1
   2  -5  19 11042.2 1697.21   2
   2  -5  19 12929.8 1773.26   1
   5  -2 -19 9995.20 1540.35   1
   2  -5  18 45334.0 3370.28   1
   3  -5  18 52906.0 3562.56   1
   5  -2 -18 48184.3 3350.19   1
  -2   5 -18 50825.3 3396.65   1
  -3   5 -18 46383.9 3189.98   1
   3  -5  18 45684.7 3290.67   2
  -5   2  18 42954.2 3370.97   1
   5  -3 -18 50713.4 3481.26   1
   2  -5  18 44026.6 3332.68   2
  -5   3  18 56183.6 3824.96   1
   3  -5  17 9829.95 1558.91   1
  -3   5 -17 12074.4 1569.41   1
  -5   3  17 12814.0 1713.46   1
   5  -3 -17 10978.5 1567.64   1
   3  -5  17 10360.7 1562.74   2
  -5   2  17 12549.5 1723.54   1
   2  -5  17 10561.5 1468.86   2
   2  -5  17 12561.4 1727.50   1
  -2   5 -17 11908.5 1572.51   1
   5  -2 -17 12631.0 1588.06   1
   5  -3 -16 3249.85 795.119   1
   3  -5  16 3599.72 913.848   1
  -3   5 -16 2933.94 796.669   1
  -5   3  16 3608.00 880.642   1
  -5   2  16 2587.89 774.674   1
   2  -5  16 3033.44 767.043   2
   2  -5  16 2667.07 826.818   1
  -2   5 -16 4177.92 908.566   1
   3  -5  16 2765.65 710.763   2
   5  -2 -16 3650.02 927.635   1
   2  -5  15 30764.2 2585.97   1
   3  -5  15 31236.7 2576.48   1
   3  -5  15 29979.1 2491.75   2
  -2   5 -15 27211.6 2350.30   1
  -5   2  15 31573.9 2654.95   1
   5  -3 -15 28136.1 2376.64   1
  -5   3  15 33667.3 2706.71   1
   2  -5  15 29024.5 2487.40   2
  -3   5 -15 29916.5 2480.21   1
   5  -2 -15 31441.9 2485.90   1
   3  -5  14 62062.0 3598.83   1
  -5   2  14 65814.0 3875.74   1
   2  -5  14 61544.6 3589.24   2
   5  -3 -14 65974.7 3608.30   1
   2  -5  14 71142.1 3891.04   1
  -5   3  14 65964.6 3788.36   1
   5  -2 -14 65225.3 3605.74   1
   3  -5  14 66150.7 3687.34   2
  -2   5 -14 66217.5 3648.95   1
  -3   5 -14 65285.2 3655.97   1
  -5   2  13 56784.3 3317.32   2
   2  -5  13 47025.0 3082.00   1
  -5   2  13 40176.8 2942.10   1
   2  -5  13 44858.1 2954.80   2
  -3   5 -13 47481.9 3034.43   1
  -2   5 -13 49104.4 3037.26   1
   5  -3 -13 44353.2 2865.82   1
   3  -5  13 46532.4 3106.03   1
   5  -2 -13 44954.5 2900.67   1
  -5   3  13 47206.3 3044.44   1
   3  -5  13 48782.0 3021.97   2
   2  -5  12 22402.3 2038.49   2
  -5   2  12 23663.6 2179.43   1
   2  -5  12 23124.2 2008.97   1
   3  -5  12 24455.8 2095.09   1
   3  -5  12 24091.5 2048.38   2
  -2   5 -12 26270.3 2175.21   1
  -5   2  12 24521.0 2089.24   2
  -5   3  12 26091.3 2174.12   1
  -3   5 -12 25358.6 2078.05   1
   5  -3 -12 24682.3 2039.08   1
   5  -2 -12 26440.0 2058.65   1
  -5   2  11 11919.0 1463.34   1
   2  -5  11 11041.6 1366.38   1
   3   2  11 11321.2 1227.02   1
   3  -5  11 9689.98 1343.15   1
  -3   5 -11 9777.17 1304.67   1
   2  -5  11 8685.31 1222.77   2
   5  -2 -11 9636.84 1215.14   1
   5  -3 -11 9245.93 1211.95   1
  -5   3  11 11416.4 1364.41   1
   3  -5  11 8961.75 1208.09   2
  -2   5 -11 9342.71 1237.67   1
  -5   2  11 10467.0 1297.47   2
   3   2  10 151049. 4547.27   1
   3  -5  10 114007. 4752.70   1
   2  -5  10 117092. 4723.79   2
  -3  -2 -10 138622. 4235.88   1
  -2   5 -10 121639. 4822.84   1
  -3   5 -10 130472. 4860.18   1
  -5   2  10 114696. 4695.83   2
  -5   2  10 131002. 4949.28   1
   2  -5  10 138992. 5063.66   1
   5  -3 -10 144661. 4962.31   1
   3  -5  10 139724. 5086.88   2
   5  -2 -10 124622. 4735.24   1
  -5   3  10 126458. 4833.13   1
  -5   2   9 13262.3 1424.36   1
  -5   2   9 14191.7 1477.13   2
   3  -5   9 13344.5 1421.31   1
   3   2   9 14127.8 1203.58   1
  -2   5  -9 12184.4 1386.41   1
  -3  -2  -9 14668.4 1153.58   1
  -3   5  -9 12807.0 1369.32   1
   3  -5   9 13722.2 1443.76   2
   2  -5   9 12822.3 1417.69   1
  -5   3   9 11852.8 1352.01   1
   2  -5   9 12967.6 1400.25   2
   5  -3  -9 9023.37 1128.23   1
   5  -2  -9 10146.0 1240.14   1
  -3  -2  -8 40648.3 1888.20   1
  -5   3   8 32442.5 2185.05   1
   2  -5   8 31685.3 2139.63   2
  -5   2   8 38181.9 2409.32   2
   2  -5   8 31783.8 2192.16   1
   3  -5   8 34379.5 2239.49   1
  -2   5  -8 28783.7 2123.58   1
  -5   2   8 36943.1 2321.58   1
  -3   5  -8 34144.8 2191.96   1
   2   3   8 33618.4 1627.30   1
   5  -3  -8 28815.1 2063.28   1
   3   2   8 32254.0 1809.26   1
   3  -5   8 36434.6 2279.35   2
   5  -2  -8 33623.8 2215.67   1
  -2   5  -7 132064. 4740.90   1
   3  -5   7 139423. 4778.91   1
  -2  -3  -7 129452. 3496.99   1
   5  -2  -7 136402. 4832.02   1
   2  -5   7 147012. 4908.32   1
  -5   3   7 137700. 4865.40   1
  -3   5  -7 141056. 4802.61   1
   3  -5   7 137737. 4852.77   2
  -5   2   7 131312. 4752.42   1
   2  -5   7 140241. 4854.97   2
   3   2   7 146949. 4151.49   1
   2   3   7 135771. 3586.89   1
  -5   3   6 468356. 10819.7   1
   5  -2  -6 479963. 10929.0   1
   3  -5   6 446282. 10639.1   1
  -5   2   6 447906. 10686.8   1
   3  -5   6 460574. 10691.6   2
   5  -3  -6 464760. 10803.1   1
  -5   3   5 236590. 6775.22   1
  -5   2   5 232586. 6734.12   1
   5  -3  -5 277561. 7304.75   1
   3  -5   5 254131. 6792.19   1
  -2   5  -5 252650. 6647.52   1
   3  -5   5 260438. 6822.99   2
  -3   5  -5 256791. 6784.89   1
   5  -2  -5 226758. 6752.09   1
   2  -5   5 242632. 6572.08   1
   2  -5   5 261648. 6853.98   2
  -5   2   4 31625.0 2010.40   1
  -2  -3  -4 34572.9 1112.86   1
   2  -5   4 29868.2 1801.57   1
   3  -5   4 38577.9 2075.61   1
   3   2   4 29150.8 1457.26   1
  -2   5  -4 37314.3 2014.79   1
   5  -3  -4 33846.1 2015.04   1
   2  -5   4 30340.8 1857.09   2
   2   3   4 25402.2 1033.67   1
   3  -5   4 39398.9 2097.81   2
   5  -2  -4 37841.4 2292.43   1
  -3   5  -4 33001.2 1969.89   1
  -3  -2  -4 33568.6 1535.91   1
  -5   3   4 39327.8 2136.63   1
  -3   5  -3 206594. 5888.22   1
   3  -5   3 233686. 6066.86   1
   2  -5   3 235351. 6152.83   2
   3   2   3 247374. 5439.86   1
   5  -2  -3 230103. 6327.51   1
  -2   5  -3 238027. 6042.74   1
   5  -3  -3 232488. 6271.45   1
  -3  -2  -3 197410. 5197.14   1
  -5   2   3 216801. 6123.68   1
  -5   3   3 230458. 6214.67   1
   2  -5   3 247827. 5965.22   1
   3  -5   3 224246. 6043.57   2
  -5   2   2 380596. 9102.49   1
   5  -2  -2 391302. 9274.11   1
   2  -5   1 78977.9 2878.41   1
   3  -5   1 106696. 3355.74   1
  -3  -2  -1 118791. 3953.61   2
  -3  -2  -1 106306. 3093.15   1
   3  -5   1 86331.0 3172.57   2
   2   3   1 104135. 2777.40   1
  -5   2   1 94907.8 3483.50   1
   5  -3  -1 115507. 3825.78   1
  -2  -3  -1 90952.8 2612.63   1
  -5   3   1 86606.8 3435.06   1
   2  -5   1 100502. 3358.61   2
  -3   5  -1 94016.2 3285.39   1
  -2  -3  -1 110267. 3615.49   2
   5  -2  -1 103255. 3666.10   1
  -2   5  -1 100803. 3181.72   1
   3   2   1 115849. 3240.52   1
  -3  -2   0 33093.0 1603.63   1
   5  -3   0 33617.7 1923.02   1
   3  -5   0 33584.6 1681.98   1
  -2  -3   0 29562.7 1745.55   2
  -5   3   0 30877.5 1834.24   1
  -2  -3   0 25658.9 1253.84   1
  -3  -2   0 31880.0 1929.03   2
  -5   2   0 27399.8 1714.99   1
   5  -2   0 25781.9 1713.68   1
   2  -5   0 32565.1 1492.10   1
  -3   5   0 30486.0 1656.35   1
   2   3   0 26516.6 1337.61   1
   3   2   0 28314.0 1652.44   1
  -2   5   0 31366.7 1521.71   1
   3  -5   0 35100.0 1758.09   2
   2  -5   0 34271.6 1691.91   2
   2  -5  -1 18102.4 1046.22   1
   3  -5  -1 20659.3 1270.36   1
  -5   3  -1 19846.1 1467.68   1
  -2   5   1 21498.6 1168.89   1
  -5   2  -1 24364.6 1639.48   1
  -3  -2   1 19825.7 1226.10   1
  -2  -3   1 23449.9 1559.64   2
   5  -3   1 20219.8 1528.84   1
   2  -5  -1 20887.8 1282.24   2
   3   2  -1 18966.9 1314.40   1
  -3  -2   1 25004.7 1692.33   2
   3  -5  -1 18431.5 1211.38   2
   2   3  -1 21499.4 1258.38   1
  -2  -3   1 19876.3 1200.29   1
   5  -2   1 21959.6 1586.84   1
  -3   5   1 23499.5 1392.97   1
   5  -2   2 223286. 6140.85   1
   3  -5  -2 245424. 5563.61   1
  -2  -3   2 228232. 5648.44   1
   5  -3   2 234199. 6264.03   1
  -5   2  -2 222466. 6106.17   1
  -3   5   2 228424. 5591.41   1
  -2  -3   2 232770. 6115.10   2
  -5   3  -2 249966. 6398.24   1
   2   3  -2 227734. 5606.05   1
   3   2  -2 225363. 5810.88   1
  -3  -2   2 232299. 5741.77   1
  -3  -2   2 227608. 6232.15   2
  -5   3  -3 69739.9 2995.03   1
  -5   2  -3 71245.9 2998.21   1
   2   3  -3 69919.5 2746.80   1
  -3  -2   3 65462.8 2735.55   1
  -3   5   3 66994.5 2490.63   1
   2  -5  -3 70304.1 2266.66   2
   5  -3   3 70458.0 3086.35   1
   5  -2   3 65488.7 2931.92   1
   3  -5  -3 74841.5 2533.10   1
   3  -5  -3 64737.2 2227.35   2
  -2  -3   3 68685.0 2940.63   2
   3   2  -3 63788.9 2687.35   1
  -2  -3   3 70724.1 2724.31   1
  -2   5   3 76100.6 2279.03   1
  -3  -2   3 70765.7 3018.75   2
   2  -5  -3 65110.0 2059.60   1
  -5   2  -4 96963.4 3673.04   1
   5  -3   4 100051. 3810.95   1
  -3   5   4 100594. 3146.70   1
  -2   5   4 92961.1 2703.13   1
  -3  -2   4 101876. 3641.79   1
   2  -5  -4 96331.8 2606.42   1
  -3  -2   4 91393.8 3650.88   2
   3  -5  -4 99613.8 3135.24   1
   2   3  -4 91572.7 3442.79   1
   3   2  -4 97321.9 3568.57   1
  -5   3  -4 100548. 3731.09   1
   3  -5  -4 111682. 2767.65   2
  -2  -3   4 90381.0 3616.86   2
  -2  -3   4 87470.2 3418.07   1
   2  -5  -4 92500.7 2467.08   2
   5  -2   4 101168. 3784.83   1
   2   3  -5 124428. 4192.48   1
   3   2  -5 120267. 4174.02   1
  -3   5   5 111882. 3509.08   1
   5  -3   5 126421. 4454.69   1
   5  -2   5 129168. 4384.68   1
  -2   5   5 124214. 3150.87   1
  -2  -3   5 128643. 4233.67   1
  -3  -2   5 122462. 4347.78   2
   2  -5  -5 111250. 3000.02   1
   3  -5  -5 168140. 3959.61   1
  -5   3  -5 128684. 4408.51   1
  -5   2  -5 129884. 4348.77   1
  -2  -3   5 128623. 4445.95   2
  -3  -2   6 513400. 11902.7   2
   2   3  -6 527334. 11742.8   1
   2  -5  -7 78445.0 2730.91   1
  -5   2  -7 83110.2 3541.18   1
  -2  -3   7 80303.3 3575.94   1
   5  -3   7 82574.2 3624.67   1
   5  -2   7 94782.8 3818.44   1
  -3  -2   7 79792.2 3631.16   2
  -3   5   7 69037.3 2932.80   1
  -2   5   7 98052.4 2928.68   1
  -3  -2   7 88762.3 3725.00   1
  -5   3  -7 83805.1 3659.44   1
   2   3  -7 85195.4 3658.47   1
   3   2  -7 84135.0 3613.59   1
  -2  -3   7 87213.3 3788.02   2
   3  -5  -7 89606.9 3219.36   1
   5  -3   7 99536.3 4015.18   2
  -5   3  -8 39358.6 2406.52   1
  -2  -3   8 34974.8 2259.62   1
   2  -5  -8 43695.4 2109.23   1
   3  -5  -8 45907.6 2431.81   1
   5  -3   8 34876.6 2334.03   1
  -3   5   8 35811.0 2057.72   1
  -5   2  -8 36401.5 2284.79   1
  -3  -2   8 38625.6 2440.66   2
   3   2  -8 35805.9 2360.02   1
   5  -2   8 37183.9 2330.99   1
   5  -3   8 37629.1 2474.89   2
  -3  -2   8 35981.4 2382.48   1
   5  -2   8 43649.4 2574.00   2
  -2   5   8 39541.5 1895.63   1
  -2  -3   8 36590.8 2408.97   2
   2   3  -8 37584.1 2375.09   1
  -3  -2   9 137184. 5246.01   1
   5  -3   9 147771. 5305.82   2
   5  -2   9 135442. 5119.02   1
  -3   5   9 158701. 4962.15   1
  -2   5   9 153147. 4541.90   1
   3  -5  -9 132504. 4655.79   1
  -3  -2   9 137551. 5207.31   2
  -5   3  -9 141268. 5096.87   1
   5  -3   9 132658. 5140.40   1
   5  -2   9 162532. 5585.84   2
   2  -5  -9 166718. 4718.10   1
   2   3  -9 156369. 5449.13   1
   3   2  -9 149636. 5365.31   1
  -2  -3   9 143703. 5299.53   1
  -2  -3   9 145042. 5265.58   2
  -5   2  -9 152421. 5169.04   1
   5  -3  10 138326. 5240.81   1
   5  -2  10 137551. 5197.91   1
   3  -5 -10 149374. 4902.35   1
  -2  -3  10 128235. 5088.90   2
   5  -3  10 120107. 4935.86   2
  -2  -3  10 126288. 5092.60   1
  -2   5  10 147091. 4620.07   1
  -5   3 -10 133084. 5025.42   1
  -5   2 -10 137905. 5097.40   1
   3   2 -10 134584. 5106.60   1
   5  -2  10 145309. 5252.53   2
  -3  -2  10 132856. 5255.36   1
  -3  -2  10 130236. 5178.95   2
  -3   5  10 130059. 4652.48   1
   2   3 -10 137541. 5214.75   1
  -3  -2  11 80336.3 4052.59   1
  -2  -3  11 80246.8 4023.08   1
  -5   3 -11 76379.6 3764.46   1
   5  -3  11 81202.3 4040.87   1
  -3  -2  11 83160.7 4005.14   2
   5  -2  11 84425.0 4017.76   1
  -2  -3  11 86461.7 4091.35   2
   5  -3  11 89544.6 4036.61   2
   2   3 -11 72964.5 3796.57   1
  -5   2 -11 91136.8 4029.60   1
  -3   5  11 84436.4 3725.34   1
   3  -5 -11 78919.0 3592.58   1
   5  -2  11 88519.0 4076.97   2
   3   2 -11 82136.0 3990.95   1
   3  -5 -12 3780.85 771.951   1
   5  -2  12 4476.94 853.147   2
   3   2 -12 3299.68 810.453   1
  -3  -2  12 3275.49 851.411   1
   2   3 -12 4010.20 905.980   1
  -3   5  12 4553.81 823.741   1
  -5   3 -12 4025.70 832.047   1
   5  -3  12 2809.06 748.287   1
   5  -3  12 3375.54 832.502   2
  -2  -3  12 2837.19 773.117   1
  -2  -3  12 3097.01 696.477   2
   5  -2  12 3177.39 787.075   1
  -3  -2  12 2771.19 758.354   2
  -5   2 -12 3439.12 815.510   1
  -3  -2  13 6481.92 1118.35   2
  -3  -2  13 6920.52 1187.43   1
   5  -3  13 6444.91 1050.36   2
  -2  -3  13 7520.07 1198.66   1
  -5   2 -13 7261.10 1153.99   1
   3   2 -13 6915.46 1167.17   1
   5  -2  13 5598.87 970.085   1
   5  -3  13 7771.04 1216.85   1
   5  -2  13 7818.34 1207.56   2
   2   3 -13 6399.24 1094.86   1
  -2  -3  13 6122.82 1100.20   2
  -5   3 -13 5437.82 1023.89   1
   5  -3  14 67555.8 3879.25   1
  -2  -3  14 72830.1 4018.73   2
   5  -2  14 73304.2 3990.07   1
   5  -2  14 84419.9 4249.82   2
  -5   2 -14 69140.7 3720.30   1
  -5   3 -14 65828.9 3691.11   1
   5  -3  14 69752.4 3950.52   2
   3   2 -14 72354.5 3932.08   1
  -3  -2  14 72350.5 4062.99   1
  -3  -2  14 73752.5 4087.03   2
   2   3 -14 80213.2 4124.47   1
  -2  -3  14 68703.7 3961.25   1
  -2  -3  15 7189.84 1277.15   1
   3   2 -15 9392.56 1314.26   1
   5  -3  15 8830.68 1413.56   1
  -5   2 -15 8393.94 1322.76   1
   5  -3  15 7929.82 1391.89   2
  -3  -2  15 9077.27 1416.75   2
  -3  -2  15 9106.08 1434.49   1
   5  -2  15 8745.82 1337.99   1
  -2  -3  15 7212.44 1245.85   2
  -5   3 -15 6428.56 1150.10   1
   2   3 -15 8821.62 1372.70   1
   5  -2  15 8804.24 1413.77   2
  -3  -2  16 15080.4 1856.39   2
  -5   3 -16 14669.5 1724.84   1
   5  -3  16 14194.5 1831.03   2
   5  -2  16 14871.4 1857.02   2
  -3  -2  16 14388.2 1862.63   1
   5  -2  16 16948.6 1902.63   1
  -5   2 -16 13951.8 1710.84   1
  -2  -3  16 13614.8 1806.72   2
  -2  -3  16 15201.1 1901.87   1
   3   2 -16 12931.4 1658.52   1
   5  -3  16 16206.6 1896.90   1
   2   3 -16 15366.0 1793.61   1
  -2  -3  17 18090.7 2163.86   2
  -5   2 -17 17876.6 1981.59   1
  -5   3 -17 18682.2 2008.32   1
   5  -3  17 20241.8 2141.62   1
  -2  -3  17 22359.0 2293.63   1
   5  -2  17 21113.6 2197.27   1
   5  -3  17 19933.6 2282.46   2
   3   2 -17 21913.3 2214.95   1
  -3  -2  17 18099.5 2130.72   2
   2   3 -17 21242.5 2124.85   1
  -3  -2  17 17693.1 2101.47   1
   5  -3  18 41189.3 3183.76   1
  -2  -3  18 39477.9 3271.48   2
   5  -2  18 37231.2 3011.12   1
  -5   2 -18 35613.3 2930.53   1
  -3  -2  18 43766.4 3434.95   2
  -2  -3  18 41052.2 3235.70   1
   5  -3  18 39694.3 3356.28   2
   2   3 -18 45373.7 3209.07   1
  -5   3 -18 36852.8 2996.28   1
  -3  -2  18 47367.1 3465.91   1
  -3  -2  19 8862.27 1494.55   1
  -5   2 -19 6263.33 1226.23   1
  -2  -3  19 10267.7 1594.52   1
   5  -3  19 7723.16 1390.22   1
   2   3 -19 9142.16 1355.64   1
  -5   3 -19 8425.36 1366.54   1
  -2  -3  19 8311.81 1481.83   2
   5  -2  19 8734.37 1466.78   1
   3   2 -19 9026.13 1407.51   1
   5  -2  20 2171.19 736.336   1
   5  -3  20 2408.89 804.785   1
  -5   2 -20 3216.01 860.028   1
  -5   3 -20 2982.08 861.374   1
   4  -5  20 14182.8 2066.04   2
   1  -5  20 18483.4 2122.33   2
   5  -1 -19 1443.53 618.169   1
   1  -5  19 1488.45 675.471   1
  -1   5 -19 767.986 445.664   1
   4  -5  19 382.294 246.031   1
  -4   5 -19 940.725 409.459   1
  -5   1  19 395.715 300.765   1
   5  -4 -19 776.516 460.883   1
   4  -5  19 444.058 422.443   2
  -5   4  19 791.966 485.692   1
   1  -5  19-2.24183 217.258   2
   5  -1 -18 3080.43 945.472   1
   4  -5  18 2393.43 779.827   1
  -5   1  18 3403.86 890.921   1
   5  -4 -18 2707.45 758.673   1
  -5   4  18 3085.47 876.121   1
   4  -5  18 2100.57 767.551   2
   1  -5  18 2414.22 778.575   2
   1  -5  18 2624.31 773.376   1
  -4   5 -18 3654.22 901.786   1
  -1   5 -18 2924.42 814.527   1
   5  -4 -17 195.351 271.270   1
   5  -1 -17 412.209 379.495   1
   4  -5  17 54.8046 378.112   1
   1  -5  17 230.937 415.610   1
   4  -5  17 193.783 279.128   2
  -1   5 -17-11.3249 285.057   1
  -4   5 -17 861.275 494.127   1
  -5   1  17 153.195 373.865   1
  -5   4  17 116.541 237.187   1
   1  -5  17 220.363 325.912   2
  -5   4  16 65953.3 4026.58   1
  -1   5 -16 75038.1 4106.27   1
   1  -5  16 76211.5 4266.60   1
   4  -5  16 72343.6 4140.25   1
  -5   1  16 72938.9 4252.67   1
  -4   5 -16 76933.4 4174.87   1
   1  -5  16 74222.0 4205.37   2
   5  -4 -16 75756.3 4183.76   1
   5  -1 -16 74874.7 4047.11   1
   4  -5  16 73773.8 4213.12   2
   5  -4 -15 213.333 349.757   1
  -5   4  15-195.048 203.919   1
   4  -5  15-430.916 583.342   1
  -1   5 -15 511.545 561.079   1
   1  -5  15 737.483 345.139   2
   4  -5  15 126.039 204.237   2
   5  -1 -15 115.958 308.563   1
   1  -5  15 660.943 362.395   1
  -5   1  15 459.881 452.769   1
  -4   5 -15 332.455 308.580   1
   5  -1 -14 9078.98 1277.59   1
  -1   5 -14 10355.4 1385.62   1
  -4   5 -14 9112.81 1355.39   1
   1  -5  14 9346.38 1409.89   1
  -5   1  14 10819.4 1409.96   2
  -5   4  14 10786.7 1458.17   1
  -5   1  14 9566.37 1304.15   1
   4  -5  14 8607.54 1366.46   2
   5  -4 -14 10888.5 1403.51   1
   4  -5  14 9138.04 1337.77   1
   1  -5  14 11193.0 1441.29   2
  -5   4  13 996.589 465.116   1
   1  -5  13-107.684 256.286   1
   4   1  13 73.5281 259.526   1
  -1   5 -13 854.828 393.516   1
   4  -5  13 175.069 241.212   1
   1  -5  13 573.041 385.144   2
  -4   5 -13 670.334 426.573   1
  -5   1  13 454.337 288.449   2
   5  -4 -13 271.283 268.632   1
  -5   1  13 932.366 642.600   1
   5  -1 -13 654.072 261.676   1
   4  -5  13 353.965 292.483   2
  -1   5 -12 323595. 9392.60   1
   4  -5  12 381026. 10070.0   1
  -5   1  12 392421. 10230.8   1
   5  -1 -12 366807. 9649.15   1
  -4  -1 -12 391539. 9154.81   1
  -4   5 -12 387916. 9910.83   1
  -5   1  12 389403. 10124.7   2
   4  -5  12 427988. 10363.3   2
   5  -4 -12 442153. 10119.7   1
   1  -5  12 400689. 10147.6   2
  -5   4  12 354836. 9625.72   1
   1  -5  12 361888. 9843.54   1
   4  -5  11 4468.99 936.388   2
   4   1  11 2155.69 602.209   2
   1  -5  11 3508.80 810.649   1
   4   1  11 4978.96 813.372   1
  -4   5 -11 3513.88 793.553   1
  -5   1  11 4419.41 874.095   2
  -1   5 -11 3316.78 795.450   1
  -5   4  11 3661.12 824.774   1
   1  -5  11 3183.14 808.055   2
   5  -1 -11 3216.33 768.562   1
  -5   1  11 3406.50 843.785   1
   5  -4 -11 3489.48 765.174   1
  -4  -1 -11 4866.17 786.420   1
   4  -5  11 4826.37 899.514   1
   1  -5  10 5697.50 995.677   2
  -5   1  10 7886.21 1116.42   2
   4   1  10 6619.44 912.618   1
   1  -5  10 5261.16 919.015   1
   4  -5  10 8428.33 1161.24   1
  -5   4  10 7815.54 1127.37   1
   5  -1 -10 6313.63 991.286   1
  -5   1  10 7714.34 1173.37   1
  -4   5 -10 7608.02 1068.03   1
  -4  -1 -10 7426.28 914.224   1
  -1   5 -10 6137.88 997.234   1
   4  -5  10 5812.04 986.518   2
   5  -4 -10 6241.18 978.036   1
   1  -5   9 861.310 473.990   2
   1  -5   9 382.464 295.836   1
   5  -1  -9 478.940 332.972   1
  -5   4   9-91.0081 240.147   1
  -1   5  -9 162.770 188.690   1
   4   1   9 516.675 346.941   1
  -4   5  -9-94.1644 316.490   1
   4  -5   9 348.806 284.744   1
  -5   1   9 468.155 398.388   2
   4  -5   9 435.380 312.506   2
  -4  -1  -9-33.3364 151.395   1
   5  -4  -9 417.918 267.205   1
  -5   1   9-236.457 290.214   1
  -5   1   8 160284. 5510.64   1
  -4  -1  -8 148008. 4708.58   1
   1  -5   8 179440. 5685.55   1
  -1   5  -8 148210. 5329.62   1
   4  -5   8 174873. 5825.29   1
  -5   4   8 172171. 5604.13   1
   5  -4  -8 155653. 5302.49   1
  -5   1   8 175205. 5780.17   2
   5  -1  -8 178102. 5705.96   1
  -4   5  -8 155389. 5416.37   1
   4   1   8 154599. 4901.60   1
   4  -5   8 164412. 5490.14   2
   1  -5   8 155445. 5420.51   2
   5  -4  -7 18231.1 1621.29   1
  -5   4   7 21898.6 1704.78   1
   4   1   7 22837.9 1567.28   1
  -4  -1  -7 22538.5 1486.20   1
   4  -5   7 20053.4 1690.13   2
   1  -5   7 20067.8 1671.00   1
   1  -5   7 22315.4 1758.53   2
  -5   1   7 19583.8 1678.89   1
   5  -1  -7 18197.4 1620.70   1
  -5   1   7 19420.7 1707.66   2
  -4   5  -7 20257.4 1717.20   1
  -1   5  -7 24067.2 1796.69   1
   4  -5   7 19930.4 1668.08   1
  -5   4   6 23778.4 1824.11   1
  -4   5  -6 25849.7 1845.64   1
   1  -5   6 29298.4 1882.17   1
   4  -5   6 21191.3 1757.22   1
  -1   5  -6 25910.3 1878.36   1
   4   1   6 24251.2 1573.00   1
  -5   1   6 22807.2 1870.50   2
   5  -4  -6 24221.0 1748.05   1
  -4  -1  -6 28477.8 1655.89   1
   5  -1  -6 23502.2 1809.04   1
   1  -5   6 25819.2 1836.56   2
   4  -5   6 24351.4 1728.52   2
  -5   1   6 25302.0 1862.94   1
   1  -5   5 2609.77 609.418   2
  -4   5  -5 2167.06 520.349   1
   1  -5   5 1185.15 281.271   1
  -5   1   5 2784.75 603.141   1
   5  -4  -5 3524.77 610.961   1
   4  -5   5 1764.02 446.600   1
   4   1   5 2409.57 470.092   1
  -5   4   5 2825.81 599.045   1
  -4  -1  -5 2334.46 479.650   1
   4  -5   5 1771.80 462.464   2
  -1   5  -5 1878.41 460.743   1
  -5   1   5 1075.97 358.167   2
   5  -1  -5 2670.18 663.917   1
  -5   1   4 343669. 8537.51   1
  -4   5  -4 317654. 8343.55   1
   4  -5   4 332551. 8290.32   2
  -5   4   4 331504. 8349.23   1
  -4   5  -3 3969.04 704.908   1
  -4  -1  -3 5947.67 759.417   1
  -5   1   3 3433.69 616.145   1
   1  -5   3 4157.87 583.518   1
   4   1   3 5418.23 669.293   1
   4  -5   3 3439.83 635.917   1
  -1   5  -3 4060.93 589.300   1
   1  -5   3 4322.11 701.072   2
   5  -4  -3 4837.24 771.337   1
  -1  -4  -3 4796.15 630.505   2
   4  -5   3 5293.95 745.527   2
   5  -1  -3 5688.01 860.007   1
  -5   4   3 3751.26 678.218   1
   1  -5   2 54473.2 2233.95   1
   4  -5   2 49851.4 2473.83   1
  -1  -4  -2 51429.3 2254.74   2
  -1   5  -2 66704.1 2455.42   1
   4   1   2 58257.0 2456.78   1
  -5   4   2 52511.2 2559.35   1
   5  -4  -2 50884.6 2503.60   1
  -4   5  -2 48681.8 2464.05   1
   1  -5   2 55739.5 2533.21   2
   4  -5   2 70939.7 2731.57   2
  -5   1   2 55329.7 2551.66   1
  -4  -1  -2 49544.7 2246.75   1
   5  -1  -2 61822.6 2790.80   1
   4  -5   1 10517.7 1044.52   1
  -4  -1  -1 9718.42 915.250   1
   1  -5   1 9237.77 783.733   1
  -5   1   1 9692.28 989.634   1
   4   1   1 8965.93 870.709   1
  -1  -4  -1 8188.00 876.104   2
  -1   5  -1 6893.91 693.664   1
  -1  -4  -1 10047.0 557.095   1
   1   4   1 8269.46 569.308   1
  -5   4   1 11295.4 1104.98   1
   5  -4  -1 9530.22 1048.53   1
   1  -5   1 8077.70 903.430   2
   5  -1  -1 8049.32 947.691   1
  -4   5  -1 10038.4 997.321   1
   4  -5   1 9632.45 917.362   2
   4  -5  -1 912.840 290.103   2
  -1  -4   1 887.146 277.235   1
   5  -1   1 1041.63 361.625   1
   1   4  -1 417.010 148.006   1
  -5   4  -1 823.340 331.049   1
   1  -5  -1 997.320 214.311   1
  -4  -1   1 1474.77 462.237   2
  -1   5   1 691.422 180.095   1
  -4   5   1 623.210 279.119   1
   4  -5  -1 666.244 130.330   1
  -4  -1   1 593.112 252.445   1
   1  -5  -1 868.934 286.626   2
   5  -4   1 1264.59 411.734   1
  -1  -4   1 1196.47 386.881   2
   4   1  -1 861.519 289.511   1
  -5   1  -1 1178.71 381.040   1
  -1   5   2 43118.9 1365.98   1
  -5   4  -2 50648.0 2517.13   1
   1  -5  -2 48147.2 1370.05   1
  -1  -4   2 50618.1 2414.04   2
  -4   5   2 48604.2 2253.53   1
  -4  -1   2 48617.9 2286.94   1
  -5   1  -2 54069.0 2481.50   1
   5  -4   2 53148.6 2612.23   1
  -4  -1   2 57760.3 2781.18   2
   5  -1   2 45057.6 2341.03   1
   1   4  -2 45335.9 2016.59   1
  -1  -4   2 42222.7 1945.59   1
   4  -5  -2 55016.2 2364.96   1
   1  -5  -2 47311.2 1978.14   2
   4   1  -2 47392.6 2360.75   1
   4  -5  -2 44870.1 2138.08   2
  -1  -4   3 2339.61 478.916   1
   4  -5  -3 1896.73 381.785   2
  -4   5   3 3384.07 562.803   1
   5  -1   3 2354.26 553.841   1
   1   4  -3 2495.74 480.839   1
  -4  -1   3 3104.93 566.894   1
   5  -4   3 2236.02 519.799   1
  -4  -1   3 2531.19 598.742   2
  -5   4  -3 2903.52 605.227   1
  -5   1  -3 3217.63 615.057   1
   1  -5  -3 2888.90 387.516   2
   4  -5  -3 2701.55 486.203   1
  -1  -4   3 3272.97 604.894   2
   4   1  -3 2650.33 578.042   1
  -5   1  -4 307481. 7911.83   1
  -4  -1   4 355323. 8520.44   2
   5  -4   4 354234. 8445.49   1
   5  -1   4 311676. 7964.05   1
  -1  -4   4 313631. 8078.53   2
  -4  -1   4 294983. 7757.98   1
   1   4  -4 316290. 7662.13   1
   4   1  -4 306880. 7998.65   1
  -5   4  -4 310240. 7999.62   1
   5  -4   4 331338. 8225.21   2
  -4   5   4 308075. 7598.81   1
   1   4  -5 22104.1 1555.82   1
  -4  -1   5 22202.6 1723.94   1
  -1  -4   5 22034.4 1742.97   2
  -4   5   5 17388.7 1382.12   1
  -4  -1   5 20467.1 1703.87   2
   4   1  -5 19993.7 1605.31   1
   5  -4   5 23049.4 1779.11   1
   4  -5  -5 12866.3 990.569   2
  -5   1  -5 15589.0 1380.52   1
   5  -1   5 21438.9 1601.68   1
  -5   4  -5 21869.0 1684.18   1
  -1  -4   5 21999.1 1598.34   1
   1  -5  -5 19708.8 883.414   2
   5  -4   5 22437.3 1701.31   2
   4  -5  -5 19744.1 1401.37   1
   5  -4   6 8822.81 1058.97   1
  -4  -1   6 8958.94 1118.11   1
  -5   4  -6 8696.58 1041.26   1
   5  -1   6 8896.52 1076.29   1
   1   4  -6 5784.02 849.031   1
  -4  -1   6 7663.57 986.692   2
   4  -5  -6 8390.21 934.346   1
  -5   1  -6 7274.94 979.021   1
  -4   5   6 8751.92 1023.17   1
  -1  -4   6 8594.29 1045.87   1
   4   1  -6 7493.49 1003.85   1
  -1  -4   6 8186.84 1092.10   2
   5  -4   6 8121.82 1022.24   2
  -5   4  -7 6849.88 1016.85   1
   5  -4   7 8743.67 1189.77   1
   5  -1   7 9616.61 1096.03   1
  -4  -1   7 7905.58 1073.58   1
   1   4  -7 7578.36 1001.39   1
  -4  -1   7 6520.88 977.237   2
  -1  -4   7 7280.26 1001.36   1
   4   1  -7 5878.19 958.305   1
   4  -5  -7 8051.41 954.695   1
  -1  -4   7 6691.27 992.616   2
   5  -4   7 8539.39 1050.63   2
  -5   1  -7 7232.26 971.616   1
  -4   5   7 6037.96 850.140   1
   1   4  -8 139624. 5071.25   1
   5  -4   8 134138. 5133.54   1
   5  -1   8 144626. 5011.01   1
  -1  -4   8 162218. 5352.87   1
  -4  -1   8 138569. 5206.96   1
   4  -5  -8 160744. 5130.65   1
  -5   1  -8 141981. 4936.44   1
  -1  -4   8 144869. 5255.65   2
  -5   4  -8 145959. 5141.33   1
  -4   5   8 140771. 4914.71   1
  -4  -1   8 149538. 5307.76   2
   4   1  -8 139421. 5072.64   1
   5  -4   8 149098. 5143.49   2
  -5   4  -9 5073.55 884.345   1
  -5   1  -9 4356.56 783.615   1
  -4   5   9 2711.88 703.023   1
   4   1  -9 3680.72 844.919   1
  -1  -4   9 3601.88 724.165   1
   5  -1   9 3886.53 775.877   1
  -4  -1   9 4701.49 933.382   1
   5  -4   9 4718.48 899.099   1
  -1  -4   9 5208.01 948.041   2
  -4  -1   9 4150.55 761.525   2
   1   4  -9 3800.01 789.391   1
   4  -5  -9 5361.75 815.082   1
   5  -4   9 4558.66 791.025   2
   4  -5 -10 1099.58 345.680   1
   4   1 -10 680.676 405.238   1
  -1  -4  10 1146.56 461.680   1
  -4   5  10 1422.50 435.538   1
  -4  -1  10 1238.78 496.334   2
   1   4 -10 1115.02 429.027   1
  -5   1 -10 1161.94 316.632   1
   5  -1  10 1789.28 516.522   1
  -1  -4  10 1846.76 587.970   2
   5  -4  10 1366.97 512.824   1
   5  -1  10 1362.96 413.996   2
   5  -4  10 1307.79 475.002   2
  -5   4 -10 1985.11 605.280   1
   5  -1  11 2731.59 730.450   1
   4   1 -11 2567.37 649.935   1
  -1  -4  11 2094.71 682.417   1
  -1  -4  11 3075.56 788.366   2
  -5   4 -11 3073.40 773.638   1
  -4  -1  11 4270.36 942.271   1
  -4   5  11 2908.59 663.910   1
   5  -4  11 3438.80 798.352   1
   1   4 -11 2561.00 634.885   1
  -4  -1  11 2429.97 675.427   2
   4  -5 -11 3357.07 721.470   1
   5  -4  11 2573.42 714.646   2
  -5   1 -11 1759.86 508.550   1
   5  -1  11 2924.58 714.467   2
  -1  -4  12 474774. 12784.7   1
   1   4 -12 533173. 12865.9   1
   5  -4  12 502056. 12761.9   1
  -4  -1  12 487927. 12897.8   2
  -5   4 -12 490947. 12542.0   1
   5  -1  12 499252. 12872.0   2
   4  -5 -12 563090. 12862.5   1
   5  -4  12 556156. 13100.1   2
   4   1 -12 548038. 13062.8   1
  -1  -4  12 500345. 12754.2   2
  -4  -1  12 529040. 13206.3   1
  -1  -4  13 2.70312 217.425   1
  -5   1 -13 72.1857 186.966   1
   5  -1  13 180.196 133.242   1
   1   4 -13-54.9131 252.958   1
   5  -1  13-119.748 370.081   2
  -4  -1  13 89.9643 243.218   1
  -4   5  13 227.914 379.119   1
  -1  -4  13 77.4220 257.254   2
   4  -5 -13 13.0233 262.202   1
   5  -4  13 42.3293 201.597   1
  -5   4 -13 382.437 385.861   1
  -4  -1  13 35.1581 323.979   2
   4   1 -13 931.149 517.215   1
   5  -4  13 776.481 447.286   2
   4  -5 -14-272.189 263.853   1
  -4  -1  14 219.274 197.567   1
  -1  -4  14 179.644 346.957   1
  -5   1 -14 278.841 225.687   1
  -4   5  14 20.6808 150.631   1
   5  -1  14 252.274 369.189   1
   5  -4  14 52.0294 246.066   1
   1   4 -14 278.868 296.831   1
  -5   4 -14 425.817 252.033   1
  -1  -4  14 101.087 289.347   2
  -4  -1  14-146.734 503.117   2
   5  -4  14-255.421 241.031   2
   5  -1  14 192.809 248.885   2
   4   1 -14-170.176 201.362   1
  -1  -4  15 92.2781 320.746   1
   4   1 -15-163.874 291.980   1
   5  -1  15-115.872 159.843   2
   5  -4  15 351.530 493.530   2
   5  -1  15-119.032 214.032   1
   1   4 -15 313.227 398.713   1
  -5   1 -15 423.069 398.947   1
  -4   5  15 271.734 270.030   1
  -5   4 -15 217.493 256.579   1
  -4  -1  15 548.436 386.489   2
  -4  -1  15 197.351 212.393   1
  -1  -4  15-54.7323 193.661   2
   5  -4  15 201.452 366.116   1
   1   4 -16 34716.3 2805.48   1
  -1  -4  16 39411.2 2963.27   2
   5  -4  16 38825.1 3019.14   1
  -1  -4  16 36599.1 2880.34   1
  -4  -1  16 40615.5 3212.63   2
   5  -4  16 32664.5 2911.95   2
  -5   4 -16 39954.6 2964.21   1
  -5   1 -16 41288.3 2916.05   1
   4   1 -16 35880.4 2762.16   1
   5  -1  16 34050.4 2775.68   1
  -4  -1  16 44495.1 3268.32   1
  -4  -1  17 1312.78 704.902   1
  -1  -4  17 651.556 565.046   1
  -5   4 -17 130.693 219.079   1
   4   1 -17-147.401 210.869   1
  -4  -1  17 864.515 538.945   2
   5  -1  17 126.320 183.296   1
   1   4 -17 603.696 373.356   1
  -1  -4  17 1113.38 617.073   2
   5  -4  17 420.427 390.239   2
  -5   1 -17-141.448 168.393   1
   5  -4  17 648.839 354.627   1
   5  -1  18 171.522 238.369   1
  -1  -4  18 1295.35 625.262   1
   4   1 -18 228.359 353.393   1
   5  -4  18 211.349 347.972   2
  -5   4 -18-53.8931 337.353   1
  -1  -4  18-42.2535 304.438   2
   5  -4  18 453.632 399.738   1
   1   4 -18 153.204 165.041   1
  -1  -4  19 1060.80 643.289   1
   5  -4  19 891.135 521.242   1
   5  -4  19 618.536 628.231   2
  -1  -4  19 252.897 282.681   2
  -5   4 -19 558.283 437.296   1
   1   4 -19-24.7929 264.289   1
   4   1 -19 395.613 338.547   1
  -1  -4  20 37983.7 3228.55   2
   0  -5   0 111770. 3013.38   1
  -5   5   0 107578. 4000.86   1
   5   0   0 122424. 4113.26   1
   0  -5   0 128353. 4039.53   2
  -5   0   0 113138. 3883.92   1
   5  -5   0 115951. 4088.68   1
   0   5   0 111218. 3007.63   1
  -5   5  -1 329702. 8041.78   1
  -5   0   1 310353. 7628.56   1
  -5   5   1 336514. 7946.24   1
   5  -5   1 282440. 7692.55   1
   5  -5   1 326029. 7986.10   2
   5   0  -1 278875. 7570.08   1
  -5   0   3 162780. 5195.75   1
  -5   0  -3 159714. 5059.14   1
   5  -5   3 175119. 5455.87   1
   0  -5  -3 172041. 4564.12   2
   5   0  -3 177764. 5499.99   1
   5   0   3 178480. 5180.35   1
  -5   5   3 160231. 5082.10   1
   5  -5  -3 168363. 5232.62   1
   5  -5   3 195501. 5454.10   2
   0  -5   3 169528. 4828.70   1
   0   5  -3 150271. 4652.15   1
   0  -5   3 189746. 5476.07   2
  -5   5  -3 159201. 5229.86   1
   0  -5   4 19156.7 1450.56   1
  -5   0  -4 18332.2 1515.45   1
   0   5  -4 17882.6 1428.78   1
   0  -5  -4 22303.5 1267.94   2
   5  -5   4 18842.4 1531.50   2
  -5   0   4 17079.1 1670.99   2
  -5   0   4 19641.0 1543.33   1
   0  -5   4 21520.7 1710.19   2
   5   0   4 20720.1 1609.61   1
  -5   5   4 21125.7 1614.25   1
   5  -5  -4 17550.4 1448.56   1
  -5   5  -4 19610.8 1595.80   1
   5   0  -4 22316.2 1728.72   1
   5  -5   4 20562.2 1632.12   1
   0  -5   5 6792.04 950.290   2
  -5   5   5 5783.66 864.901   1
   0  -5   5 5558.47 830.005   1
   5   0  -5 5294.54 842.694   1
   5   0   5 5258.44 803.796   1
   5  -5  -5 5638.81 853.091   1
  -5   0   5 6051.50 915.798   1
   0   5  -5 6024.36 800.469   1
   5  -5   5 4793.02 818.152   1
  -5   5  -5 4827.52 827.523   1
  -5   0   5 5712.18 915.557   2
   5  -5   5 5086.16 811.870   2
  -5   0  -5 6744.49 871.621   1
  -5   0  -6 891.672 351.436   1
   0  -5   6 1074.44 367.576   1
  -5   5  -6 406.073 253.889   1
  -5   5   6 530.761 289.702   1
  -5   0   6 908.997 400.686   1
   5  -5   6 1142.94 388.603   1
   0   5  -6 857.521 280.809   1
  -5   0   6 461.460 205.403   2
   5   0   6 984.254 372.740   1
   5  -5  -6 1353.61 491.582   1
   0  -5   6 1307.00 452.110   2
   5   0  -6 696.967 358.013   1
   5  -5   6 654.641 470.488   2
   5   0  -7 81.3703 155.874   1
  -5   5  -7 666.016 327.035   1
   0  -5   7 577.758 385.839   1
  -5   0  -7 747.551 408.745   1
   0   5  -7 559.470 297.250   1
   5   0   7 710.529 358.775   1
  -5   5   7 166.349 288.053   1
  -5   0   7 384.324 362.038   2
   0  -5   7 432.462 329.600   2
   5  -5   7 405.730 381.538   2
   5  -5  -7 317.786 127.794   1
   5  -5   7 590.898 308.307   1
  -5   0   7-175.785 232.142   1
   0  -5   8 290.973 321.568   1
  -5   0   8-386.092 403.408   1
   0   5  -8 608.852 464.165   1
  -5   0  -8-115.418 344.036   1
   5  -5   8-26.7197 268.952   1
   5   0   8 76.8710 210.222   1
  -5   0   8 260.108 278.380   2
   5   0  -8 336.469 159.281   1
  -5   5  -8 441.891 326.560   1
   5  -5  -8 325.976 311.673   1
   0  -5   8 403.697 326.158   2
  -5   5   8 257.477 222.751   1
   5  -5   8 519.152 301.494   2
   0  -5   9 51144.3 3094.45   1
  -5   0   9 63638.1 3431.38   1
   0   5  -9 59342.3 3248.21   1
  -5   5   9 67934.3 3469.98   1
   5  -5   9 55429.1 3237.61   1
   5   0   9 60707.2 3086.62   1
  -5   0   9 63678.3 3370.86   2
  -5   0  -9 74025.0 3218.61   1
   5   0  -9 53132.0 3073.60   1
  -5   5  -9 56531.5 3156.72   1
   5  -5   9 66658.3 3305.11   2
   0  -5   9 57327.7 3220.42   2
   5  -5  -9 72139.7 3528.88   1
   0  -5  10 260790. 8120.64   1
   0   5 -10 267861. 8187.35   1
  -5   0  10 282792. 8547.47   1
   5  -5  10 295371. 8605.41   1
  -5   5  10 309875. 8431.77   1
   5   0  10 287430. 8045.55   1
  -5   5 -10 261719. 8086.24   1
   5  -5 -10 308958. 8373.25   1
  -5   0 -10 298279. 7902.05   1
  -5   0  10 275736. 8457.63   2
   5  -5  10 271663. 8142.75   2
   5   0 -10 280396. 8279.45   1
   0  -5  10 280364. 8321.79   2
   0  -5  11 128368. 5178.34   1
   0   5 -11 128429. 5126.39   1
   5  -5  11 130039. 5278.66   1
   5   0  11 121713. 4880.60   1
  -5   0  11 126307. 5228.00   1
  -5   5  11 124990. 5029.05   1
   5   0 -11 127832. 5094.74   1
  -5   5 -11 130103. 5116.99   1
  -5   0 -11 109206. 4455.54   1
   5  -5 -11 121983. 4931.55   1
   5  -5  11 129846. 5116.99   2
  -5   0  11 134059. 5341.59   2
   0  -5  11 140938. 5415.83   2
   5  -5 -12 53405.6 3202.93   1
   0  -5  12 56613.0 3413.96   1
  -5   0  12 61436.8 3502.74   2
   0   5 -12 60162.1 3419.99   1
   5  -5  12 63008.2 3569.41   1
   5   0  12 60606.6 3288.28   1
   0  -5  12 58045.6 3453.14   2
  -5   0  12 62226.8 3637.93   1
  -5   5  12 57748.5 3381.38   1
  -5   5 -12 56793.4 3297.94   1
  -5   0 -12 61503.2 3177.33   1
   5  -5  12 58562.4 3453.33   2
   5   0 -12 56927.0 3366.52   1
   5   0  12 56216.4 3423.35   2
   0  -5  13 50858.1 3268.80   1
   0   5 -13 52011.0 3240.78   1
   5  -5  13 56136.7 3454.99   1
  -5   0 -13 50218.2 2944.61   1
  -5   0  13 58388.8 3579.92   1
   5  -5 -13 60383.6 3439.15   1
  -5   5  13 57608.7 3422.20   1
  -5   5 -13 61670.1 3433.86   1
  -5   0  13 56771.7 3525.82   2
   0  -5  13 57625.9 3404.14   2
   5   0  13 53831.5 3169.21   1
   5  -5  13 59480.9 3432.98   2
   5   0 -13 59048.2 3402.50   1
   0  -5  14 139099. 5876.99   1
   0   5 -14 132515. 5560.79   1
   5   0  14 127814. 5417.82   1
   5  -5  14 135903. 5788.94   1
  -5   0 -14 121922. 5027.41   1
  -5   5 -14 145847. 5786.19   1
  -5   0  14 149855. 6133.66   2
  -5   0  14 142157. 5968.91   1
  -5   5  14 154510. 6043.58   1
   5  -5 -14 129472. 5560.01   1
   0  -5  14 126632. 5578.54   2
   5  -5  14 139281. 5870.39   2
   5   0 -14 143189. 5747.34   1
   5  -5  15 9533.98 1493.65   1
   5   0  15 10105.0 1389.69   1
   5   0 -15 11158.9 1544.09   1
  -5   5 -15 9807.08 1436.37   1
   0   5 -15 7791.48 1303.14   1
   5  -5 -15 13072.6 1682.36   1
   0  -5  15 10001.8 1426.99   1
  -5   0  15 12354.0 1721.10   1
  -5   5  15 11471.1 1596.19   1
   0  -5  15 8839.73 1380.22   2
   5  -5  15 7943.88 1367.34   2
  -5   0  15 10612.8 1572.18   2
   5  -5 -16 2865.46 864.748   1
   5  -5  16 2340.46 782.621   2
   0  -5  16 3209.72 841.762   1
   5  -5  16 3064.02 877.984   1
   0   5 -16 3209.57 852.084   1
  -5   0  16 2005.66 745.961   2
  -5   5  16 2798.94 707.418   1
  -5   5 -16 3992.34 1018.02   1
  -5   0  16 3530.46 970.528   1
   0  -5  16 2982.39 887.217   2
   5   0 -16 2358.81 751.991   1
  -5   0  17 4574.37 1073.66   1
   5   0 -17 2319.18 684.072   1
   0  -5  17 2436.56 731.085   1
   5  -5  17 3821.17 970.014   1
   0   5 -17 4315.56 957.819   1
  -5   5 -17 4457.89 1044.32   1
   5  -5  17 4281.78 1134.65   2
   0  -5  17 3854.50 977.189   2
  -5   0  18 3294.96 974.540   1
   0  -5  18 5362.79 1093.58   1
   5  -5  18 4781.84 1081.91   1
  -5   5 -18 6234.01 1256.22   1
   0   5 -18 4573.47 1005.13   1
   0  -5  18 5514.99 1141.80   2
   5   0 -18 5233.43 1082.02   1
   5  -5  18 3489.74 1042.63   2
   0   5 -19 6136.52 1203.91   1
  -5   5 -19 5688.57 1219.31   1
   5  -5  19 5729.53 1153.96   1
   0  -5  19 4226.56 998.614   2
   5   0 -19 5582.57 1118.94   1
   0  -5  19 6959.12 1326.98   1
   5  -5  19 3368.72 1049.33   2
  -5   0  19 4640.58 1322.91   1
   5  -5  20 1037.88 740.725   2
   0  -5  20 150.455 197.485   2
   6  -3 -19 2.21506 238.570   1
  -6   3  19-271.031 309.127   1
   3  -6  19-301.047 308.012   2
   6  -3 -18 208.209 219.022   1
   3  -6  18-283.972 244.501   2
   3  -6  18 410.073 486.628   1
  -3   6 -18 427.665 399.149   1
  -6   3  18 130.629 286.888   1
   6  -3 -17-101.117 340.156   1
   3  -6  17-697.108 411.042   1
  -6   3  17-194.506 387.394   1
  -3   6 -17 358.402 405.180   1
   3  -6  17 402.811 431.225   2
  -6   3  16 50915.5 3463.81   1
   3  -6  16 45238.9 3286.99   1
  -3   6 -16 48139.4 3225.61   1
   3  -6  16 48999.9 3314.73   2
   6  -3 -16 49116.2 3301.79   1
   6  -3 -15-340.076 394.439   1
   3  -6  15-184.588 320.574   1
  -6   3  15 342.971 592.196   1
  -3   6 -15-344.210 311.898   1
   3  -6  15 286.707 188.764   2
   3  -6  14 34218.9 2785.55   1
   3  -6  14 37231.5 2792.47   2
  -3   6 -14 41188.4 2850.02   1
  -6   3  14 39622.4 2869.20   1
   6  -3 -14 40576.7 2854.21   1
   3  -6  13 472.607 404.821   2
   6  -3 -13-557.101 273.246   1
   3  -6  13 325.793 399.194   1
  -3   6 -13 159.870 198.814   1
  -6   3  13 104.410 206.181   1
   3  -6  12 137930. 5700.89   1
  -3   6 -12 161951. 6086.06   1
   3  -6  12 164609. 6076.72   2
  -6   3  12 167435. 6055.89   1
   6  -3 -12 141715. 5590.99   1
   6  -3 -11 605.810 404.650   1
   3  -6  11-105.027 164.620   1
  -6   3  11 92.4085 212.105   1
   3  -6  11 333.845 293.602   2
  -3   6 -11-171.299 192.041   1
   6  -3 -10 176258. 6110.95   1
   3  -6  10 183614. 6330.01   1
  -6   3  10 177869. 6245.39   1
   3  -6  10 174493. 6118.47   2
  -3   6 -10 195264. 6414.39   1
   3  -6   9 229.242 299.368   1
  -6   3   9 282.188 184.028   1
  -3   6  -9-423.221 347.674   1
   3  -6   9-308.555 257.225   2
   6  -3  -9 193.410 155.612   1
   3  -6   8 244075. 7418.08   1
  -6   3   8 242812. 7482.74   1
  -3   6  -8 267534. 7638.93   1
   6  -3  -8 271464. 7759.47   1
   3  -6   8 265365. 7549.81   2
  -6   3   7-181.540 281.287   1
   3  -6   7 10.7613 181.854   1
   6  -3  -7-91.6615 188.016   1
  -3   6  -7 680.806 494.880   1
   3  -6   7 31.1867 171.589   2
  -6   3   6 36310.0 2318.43   1
   3  -6   6 34998.8 2214.92   1
   3  -6   6 40253.6 2412.67   2
   6  -3  -6 38368.2 2464.73   1
  -6   3   5-160.214 262.890   1
  -3  -3  -5 83.2734 89.4377   1
   3  -6   5 186.237 184.440   2
   3  -6   5-125.664 183.257   1
   3   3   5 129.692 110.494   1
   6  -3  -5-99.1456 209.664   1
  -3   6  -5 229.307 158.078   1
  -3   6  -3 106.865 169.581   1
  -6   3   3 104.100 319.086   1
   3  -6   3-49.2366 207.041   1
   3   3   3 172.219 129.557   1
  -3  -3  -3 65.5412 68.1366   1
   3  -6   3 139.704 222.013   2
   6  -3  -3 5.78061 227.422   1
  -3   6  -2 127986. 4195.20   1
   3  -6   2 129425. 4144.03   1
  -3  -3  -2 138257. 3664.44   1
   3   3   2 122236. 3618.51   1
   6  -3  -2 133942. 4607.80   1
  -6   3   2 132093. 4585.31   1
   3  -6   2 141832. 4622.83   2
  -3   6  -1 343.781 235.949   1
  -3  -3  -1 190.255 195.576   1
  -3  -3  -1-29.5142 234.446   2
   3  -6   1-235.654 252.829   1
  -6   3   1-201.718 237.724   1
   6  -3  -1-93.3717 274.603   1
   3   3   1 142.916 122.383   1
   3  -6   1-104.392 188.103   2
  -3  -3   0 63357.8 2438.63   1
   3  -6   0 58764.6 2617.11   2
   3  -6   0 65994.3 2546.45   1
  -6   3   0 62047.1 2930.30   1
   6  -3   0 68616.7 3114.30   1
  -3  -3   0 71472.6 3156.94   2
  -3   6   0 66456.0 2630.60   1
  -6   3  -1-48.7383 235.867   1
  -3  -3   1-190.670 139.673   1
  -3   6   1-150.341 163.247   1
  -3  -3   1 148.481 191.891   2
   3  -6  -1 17.8155 136.918   1
   3  -6  -1 11.1446 126.914   2
   6  -3   1 497.510 328.883   1
   3   3  -1-15.4573 174.493   1
   3  -6  -2 137414. 3980.32   1
  -6   3  -2 160220. 5037.86   1
  -3  -3   2 137988. 4815.04   2
   6  -3   2 149732. 4983.26   1
  -3  -3   2 148849. 4443.26   1
   3  -6  -2 138047. 4098.75   2
   3   3  -2 146262. 4503.80   1
  -3   6   2 161807. 4288.13   1
   3   3  -3 179.519 222.798   1
   3  -6  -3-21.9031 90.5840   1
  -3  -3   3-7.97945 123.833   1
   3  -6  -3 59.2519 131.468   2
  -3  -3   3 19.7627 280.308   2
  -3   6   3 99.6842 96.8475   1
   6  -3   3-92.0463 210.597   1
  -6   3  -3-303.986 304.704   1
   3   3  -5 61.6336 256.608   1
  -6   3  -5-29.9816 237.938   1
   6  -3   5 394.390 236.320   1
   3  -6  -5 61.4849 94.4911   1
  -3  -3   5-113.935 335.096   2
  -3   6   5-44.6521 134.261   1
   6  -3   6 55217.5 3005.93   1
  -3   6   6 55422.8 2251.88   1
   3  -6  -6 53044.2 2177.36   1
  -3  -3   6 47844.4 2812.43   2
   3   3  -6 49736.9 2760.74   1
  -6   3  -6 51352.5 2801.23   1
  -3  -3   6 51312.4 2756.18   1
  -3  -3   7 772.293 407.746   1
   6  -3   7 233.276 378.044   1
  -3  -3   7 43.0032 209.518   2
   3   3  -7-198.622 371.115   1
   3  -6  -7 77.8199 158.750   1
  -3   6   7-73.1519 77.7960   1
  -6   3  -7 635.858 480.444   1
   6  -3   8 447610. 11453.5   1
  -6   3  -8 467899. 11473.5   1
  -3  -3   8 484716. 11822.6   2
  -3  -3   8 467444. 11727.7   1
   6  -3   9 346.217 362.174   2
  -3  -3   9 522.091 462.165   1
  -6   3  -9-9.25627 281.228   1
   3   3  -9-293.299 285.794   1
   6  -3   9 328.146 404.933   1
  -3  -3   9 317.021 291.172   2
   6  -3  10 197510. 6634.67   1
   3   3 -10 182207. 6404.03   1
   6  -3  10 199459. 6626.65   2
  -3  -3  10 175932. 6372.24   2
  -6   3 -10 191649. 6460.32   1
  -3  -3  10 175897. 6441.72   1
  -6   3 -11-47.8979 213.021   1
  -3  -3  11 217.158 287.316   1
   3   3 -11 391.140 388.495   1
   6  -3  11 437.483 451.137   1
  -3  -3  11 99.1770 223.027   2
   6  -3  11 45.8581 367.827   2
   6  -3  12 60573.3 3468.93   2
   6  -3  12 59455.5 3578.29   1
  -6   3 -12 58720.6 3365.47   1
  -3  -3  12 64167.6 3723.55   2
  -3  -3  12 58797.0 3550.34   1
   3   3 -12 54984.2 3415.02   1
  -3  -3  13 326.477 243.826   1
   3   3 -13 419.234 294.691   1
   6  -3  13-318.299 361.988   1
   6  -3  13 122.142 228.254   2
  -3  -3  13 405.969 248.895   2
  -6   3 -13 18.0544 253.291   1
  -3  -3  14 75166.2 4285.60   1
   6  -3  14 73622.2 4121.35   1
  -6   3 -14 66895.0 3800.11   1
   6  -3  14 76115.4 4205.20   2
  -3  -3  14 78240.4 4334.68   2
   3   3 -14 76650.4 4123.40   1
  -3  -3  15 242.173 369.003   1
   6  -3  15-65.9798 401.914   1
   3   3 -15-351.598 210.928   1
  -3  -3  15-124.259 333.016   2
  -6   3 -15-240.590 412.157   1
   6  -3  15-52.5447 497.967   2
   6  -3  16 121822. 5751.96   2
  -6   3 -16 113370. 5309.94   1
  -3  -3  16 106958. 5501.70   2
   6  -3  16 119359. 5593.06   1
   3   3 -16 131456. 5646.73   1
  -3  -3  16 124208. 5828.50   1
  -3  -3  17 270.355 265.218   1
  -3  -3  17 158.811 340.219   2
   6  -3  17-52.6015 198.445   1
  -6   3 -17-329.795 336.846   1
   3   3 -17 291.213 227.850   1
   6  -3  17 332.408 320.286   2
  -3  -3  18 1634.38 716.071   1
   3   3 -18 2251.38 722.638   1
   6  -3  18 1744.26 700.847   1
  -3  -3  18 1663.75 624.370   2
  -6   3 -18 1910.79 674.184   1
  -6   3 -19-176.182 321.276   1
   6  -3  19-19.3168 237.493   1
  -3  -3  19 299.565 300.060   2
   6  -2 -19 9690.00 1544.45   1
   6  -4 -19 6297.64 1304.35   1
   4  -6  19 6924.79 1381.86   2
  -6   4  19 5812.28 1240.30   1
   2  -6  19 7252.57 1361.61   2
  -6   2  19 7832.69 1486.84   1
   2  -6  18 26022.1 2513.44   1
   4  -6  18 26053.2 2489.94   1
  -4   6 -18 23634.9 2283.61   1
   6  -4 -18 20620.9 2252.51   1
  -6   2  18 25211.7 2522.79   1
  -6   4  18 18445.2 2201.79   1
  -2   6 -18 24546.0 2302.86   1
   2  -6  18 23881.9 2438.10   2
   6  -2 -18 25555.6 2471.21   1
   4  -6  18 19936.1 2282.05   2
   2  -6  17 14454.5 1882.79   1
   4  -6  17 14932.3 1898.75   1
  -2   6 -17 16617.4 1908.79   1
  -6   2  17 18265.4 2081.82   1
  -4   6 -17 17259.0 1982.22   1
  -6   4  17 14765.3 1889.04   1
   2  -6  17 13600.0 1790.85   2
   4  -6  17 12292.2 1827.46   2
   6  -4 -17 14201.5 1847.82   1
   6  -2 -17 15045.1 1847.63   1
   6  -4 -16 80.3840 196.465   1
  -6   2  16 393.707 345.739   1
   2  -6  16-450.510 330.971   1
   4  -6  16 190.937 443.245   1
  -4   6 -16-277.641 186.687   1
   4  -6  16 51.9347 429.028   2
  -2   6 -16 531.072 512.163   1
  -6   4  16 97.8638 184.314   1
   6  -2 -16-391.974 460.757   1
   2  -6  16 535.719 379.062   2
   2  -6  15 19414.3 2072.09   1
  -2   6 -15 22076.4 2131.53   1
   6  -2 -15 20200.9 2059.63   1
  -4   6 -15 23300.8 2197.45   1
   2  -6  15 20957.7 2099.03   2
  -6   4  15 22265.0 2141.84   1
   6  -4 -15 18876.9 1974.78   1
   4  -6  15 17787.5 2016.91   2
  -6   2  15 22779.3 2245.95   1
   4  -6  15 20603.8 2115.51   1
   2  -6  14 45469.6 3194.56   1
   4  -6  14 54614.3 3487.32   1
  -4   6 -14 56937.7 3500.60   1
  -6   4  14 49889.5 3303.92   1
   6  -2 -14 50155.2 3262.67   1
   6  -4 -14 48164.3 3188.84   1
   4  -6  14 52260.6 3360.91   2
   2  -6  14 49161.5 3233.48   2
  -6   2  14 61940.3 3624.91   1
  -2   6 -14 53988.4 3339.97   1
   2  -6  13 15899.1 1802.09   1
   4  -6  13 17493.5 1930.93   1
  -2   6 -13 16616.8 1794.09   1
  -4   6 -13 13776.1 1598.82   1
  -6   2  13 14646.9 1884.32   2
  -6   4  13 13948.7 1681.94   1
   2  -6  13 14285.2 1690.17   2
   6  -4 -13 16607.7 1758.41   1
   4  -6  13 14797.4 1763.01   2
   6  -2 -13 13828.5 1650.48   1
  -6   2  13 15235.5 1740.82   1
   2  -6  12 13394.1 1645.44   1
   4  -6  12 14493.3 1715.11   1
   4  -6  12 15110.0 1710.75   2
  -2   6 -12 14644.5 1640.54   1
  -4   6 -12 16253.7 1784.90   1
   6  -2 -12 14961.0 1701.61   1
   2  -6  12 14005.2 1612.39   2
  -6   4  12 15534.0 1709.40   1
  -6   2  12 13535.0 1629.03   2
  -6   2  12 16684.3 1754.63   1
   6  -4 -12 12996.9 1562.92   1
   4  -6  11 40185.0 2726.40   1
   2  -6  11 35197.0 2613.11   1
   6  -2 -11 36857.8 2597.51   1
  -2   6 -11 43652.2 2870.83   1
   4  -6  11 39255.2 2682.71   2
  -4   6 -11 43052.9 2811.49   1
  -6   4  11 44934.9 2890.75   1
  -6   2  11 38091.8 2676.08   1
  -6   2  11 40529.7 2826.29   2
   6  -4 -11 33602.2 2489.83   1
   2  -6  11 41700.7 2755.90   2
   2  -6  10 198123. 6498.21   1
  -6   2  10 199211. 6533.13   1
   4  -6  10 189533. 6422.77   1
  -2   6 -10 186596. 6463.95   1
   6  -4 -10 196587. 6448.95   1
  -6   4  10 194845. 6544.83   1
  -4   6 -10 167666. 6144.34   1
   2  -6  10 175212. 6181.96   2
   4  -6  10 183482. 6334.48   2
   6  -2 -10 173917. 6163.70   1
   2  -6   9 21596.6 1917.96   1
  -6   4   9 22212.9 1969.62   1
   4  -6   9 20958.2 1885.89   1
  -4   6  -9 24915.4 1975.55   1
   4  -6   9 21402.2 1934.17   2
   6  -4  -9 21052.6 1885.27   1
  -6   2   9 25711.4 2058.88   1
   6  -2  -9 22326.9 1932.92   1
   2  -6   9 22723.6 1925.30   2
  -2   6  -9 23556.9 2025.40   1
   2  -6   8 73146.0 3538.17   1
  -6   4   8 83755.9 3865.84   1
   4  -6   8 84096.7 3842.57   1
   4   2   8 84407.8 3157.98   1
   2  -6   8 76842.9 3605.93   2
  -4   6  -8 72859.7 3569.48   1
  -6   2   8 80821.0 3743.23   1
  -4  -2  -8 62987.6 2685.49   1
   6  -2  -8 81133.7 3808.79   1
   6  -4  -8 76222.2 3662.00   1
  -2   6  -8 81833.4 3794.20   1
   4  -6   8 80551.4 3692.56   2
   2  -6   7 14567.0 1431.97   1
   4  -6   7 12730.1 1387.50   1
   2  -6   7 14151.7 1509.70   2
   4   2   7 13512.2 1128.43   1
  -2   6  -7 11455.5 1327.51   1
  -6   2   7 11268.4 1322.21   1
  -4   6  -7 13333.9 1392.56   1
  -6   4   7 15661.6 1560.02   1
   6  -2  -7 12803.3 1442.64   1
  -4  -2  -7 12526.9 1030.69   1
   6  -4  -7 12988.9 1414.37   1
   4  -6   7 12300.0 1354.90   2
   2  -6   6 207010. 6245.56   1
  -6   2   6 205676. 6479.00   1
   4  -6   6 212461. 6498.02   1
   4   2   6 246084. 5778.85   1
   6  -4  -6 177874. 6109.73   1
  -2   6  -6 207626. 6364.24   1
  -4   6  -6 192000. 6278.86   1
   6  -2  -6 224919. 6814.39   1
   2  -6   6 218693. 6479.14   2
   4  -6   6 218454. 6403.14   2
  -4  -2  -6 199844. 5300.31   1
  -6   4   6 227340. 6702.04   1
  -6   2   5 281485. 7674.73   1
   2  -6   5 276308. 7249.10   1
  -4  -2  -5 316708. 6701.61   1
  -2   6  -5 295860. 7543.37   1
   4   2   5 226547. 6265.44   1
  -4   6  -5 259814. 7334.71   1
   2  -6   5 264986. 7351.09   2
   6  -4  -5 252276. 7289.97   1
   6  -2  -5 277522. 7941.36   1
   4  -6   5 245270. 7128.74   2
  -6   4   5 243029. 7245.59   1
   4  -6   5 288234. 7568.97   1
  -4   6  -4 729.221 435.869   1
  -6   4   4 350.772 194.695   1
   2  -6   4 176.633 283.714   1
   4  -6   4-112.026 289.521   1
   4   2   4 99.5230 194.799   1
  -6   2   4-48.0653 239.081   1
   6  -2  -4 530.341 412.227   1
  -2   6  -4 520.189 329.112   1
   6  -4  -4-199.061 294.859   1
   2  -6   4 328.470 194.389   2
  -4  -2  -4 193.480 167.438   1
   4  -6   4 461.490 194.330   2
   2  -6   3 323767. 7660.27   1
   4  -6   3 330779. 7989.16   1
   6  -4  -3 295322. 7926.46   1
  -6   4   3 277835. 7954.82   1
   2  -6   3 282434. 7751.76   2
   6  -2  -3 324785. 8326.72   1
  -6   2   3 321836. 8165.36   1
  -4   6  -3 344214. 8219.00   1
   2  -6   2 321210. 7078.02   1
   4  -6   2 233984. 6919.10   1
  -2   6  -2 280455. 6892.44   1
  -6   4   2 278410. 7586.98   1
   4   2   2 266443. 6860.55   1
   6  -4  -2 321890. 7889.53   1
   2  -6   2 309125. 7542.36   2
  -4   6  -2 313400. 7565.51   1
   4  -6   2 270656. 7263.83   2
  -6   2   2 262601. 7381.40   1
   6  -2  -2 302986. 7764.84   1
  -2  -4  -2 289525. 7332.86   2
   2  -6   1 2758.62 482.993   1
  -4   6  -1 2808.46 587.839   1
  -6   4   1 2181.22 488.811   1
   2   4   1 2939.46 386.156   1
   4  -6   1 2917.83 607.603   1
  -2  -4  -1 3161.78 651.292   2
   4   2   1 2897.11 523.808   1
   6  -4  -1 2946.21 652.245   1
   6  -2  -1 2458.74 634.690   1
   2  -6   1 2564.52 561.405   2
  -6   2   1 2410.04 491.780   1
  -2  -4  -1 2738.12 373.329   1
  -2   6  -1 3009.36 506.485   1
  -4  -2  -1 3877.94 560.826   1
   4  -6   1 3011.24 576.492   2
   2  -6   0 5297.69 627.255   1
  -6   4   0 4816.14 769.801   1
  -6   2   0 6009.73 832.704   1
   4  -6   0 6210.75 785.325   1
   6  -2   0 5957.73 864.335   1
  -4   6   0 6756.71 878.508   1
  -4  -2   0 5378.44 716.179   1
  -2  -4   0 5467.95 808.012   2
  -2   6   0 4812.22 626.490   1
   4   2   0 5894.05 780.030   1
   6  -4   0 5444.98 867.550   1
   4  -6   0 7951.13 891.012   2
   2   4   0 5726.99 619.724   1
  -2  -4   0 6628.64 632.156   1
  -4  -2   0 6940.04 1030.65   2
   2  -6   0 5568.49 721.116   2
  -4  -2   1 20694.4 1513.45   1
  -6   4  -1 27059.4 1904.49   1
   2  -6  -1 31467.8 1454.87   1
   4  -6  -1 27331.2 1686.54   2
   4  -6  -1 26783.7 1616.54   1
   2   4  -1 31808.1 1610.91   1
   6  -4   1 29402.3 1983.55   1
   6  -2   1 26305.8 1846.69   1
  -2   6   1 22701.7 1287.88   1
  -4  -2   1 27341.7 2008.76   2
   2  -6  -1 23962.8 1578.66   2
   4   2  -1 32491.5 1958.29   1
  -6   2  -1 25205.6 1808.42   1
  -2  -4   1 25593.8 1811.88   2
  -2  -4   1 26539.0 1492.84   1
  -4   6   1 26174.3 1667.73   1
  -4   6   2 320156. 7846.38   1
  -6   4  -2 331652. 8557.29   1
  -6   2  -2 318550. 8338.10   1
  -2  -4   2 348203. 7897.64   1
   6  -2   2 321609. 8412.53   1
  -2  -4   2 347895. 8523.59   2
  -4  -2   2 348744. 8820.73   2
   2   4  -2 332581. 7719.45   1
  -6   4  -3 152050. 4949.24   1
  -6   2  -3 140250. 4813.07   1
  -4   6   3 172508. 4653.91   1
  -4  -2   3 154218. 5194.94   2
   2  -6  -3 126555. 3262.86   1
   6  -4   3 157455. 5151.86   1
   6  -2   3 158171. 5039.00   1
   4  -6  -3 131800. 4158.38   1
   4   2  -3 159283. 4898.50   1
  -4  -2   3 138209. 4498.57   1
  -2  -4   3 153821. 5005.69   2
   4  -6  -3 154111. 4229.65   2
   2  -6  -3 159750. 4057.82   2
   2   4  -3 150463. 4521.50   1
  -2  -4   3 129713. 4340.77   1
  -6   2  -4 251269. 6887.24   1
  -4   6   4 278950. 6396.49   1
  -2  -4   4 272483. 7108.83   2
   6  -4   4 257915. 6997.78   1
   6  -2   4 242286. 6874.19   1
   4   2  -4 243253. 6715.05   1
  -4  -2   4 259026. 7105.23   2
  -6   4  -4 234325. 6722.11   1
  -4  -2   4 239723. 6521.37   1
   2   4  -4 249087. 6495.89   1
  -2  -4   4 251713. 6614.94   1
  -2  -4   5 59526.3 2860.71   1
  -4  -2   5 55058.9 2842.47   1
  -4  -2   5 45882.6 2730.26   2
   6  -4   5 50923.6 2875.61   1
   6  -2   5 52775.9 2809.94   1
  -4   6   5 54701.6 2484.66   1
  -2  -4   5 47546.3 2751.20   2
   4  -6  -5 55959.8 2507.77   1
   4  -6  -5 55724.8 1994.09   2
   2   4  -5 53787.1 2746.42   1
  -6   4  -5 56494.6 2876.53   1
   4   2  -5 50393.1 2715.97   1
  -6   2  -5 52569.5 2795.32   1
  -2  -4   6 311958. 8299.56   2
  -4  -2   6 297019. 8063.94   1
   6  -4   6 285267. 8088.13   1
   6  -2   6 276841. 7930.59   1
  -4  -2   6 297207. 8198.64   2
  -4   6   6 251691. 7016.59   1
   4  -6  -6 302692. 7289.55   1
   2   4  -6 280730. 7818.37   1
   6  -4   6 321747. 8467.27   2
   4   2  -6 276843. 7893.58   1
  -6   4  -6 280299. 7946.06   1
  -6   2  -6 292314. 7940.00   1
  -2  -4   6 310232. 8030.55   1
  -2  -4   7 104317. 4315.98   1
   4   2  -7 104931. 4324.40   1
   6  -4   7 98779.5 4340.98   1
   6  -2   7 97558.0 4194.95   1
   4  -6  -7 122056. 4039.35   1
  -4  -2   7 110266. 4499.75   1
  -4  -2   7 111772. 4541.37   2
  -2  -4   7 106227. 4425.52   2
  -6   4  -7 105050. 4295.80   1
  -6   2  -7 101964. 4255.57   1
   6  -4   7 111980. 4537.08   2
   2   4  -7 109104. 4408.08   1
  -2  -4   8 5686.91 969.094   1
   4   2  -8 5203.89 950.535   1
  -6   4  -8 4768.09 886.976   1
  -6   2  -8 5097.46 899.853   1
   2   4  -8 4874.98 871.780   1
  -4   6   8 5365.95 861.363   1
   6  -4   8 4357.48 803.835   1
   6  -2   8 5158.95 887.515   1
   4  -6  -8 4865.39 764.547   1
  -4  -2   8 4616.66 895.210   2
  -2  -4   8 4314.06 891.341   2
  -4  -2   8 4872.44 909.190   1
   6  -4   8 5548.55 930.440   2
  -4  -2   9 118495. 4911.68   2
   6  -4   9 111284. 4710.19   2
   4   2  -9 121109. 4885.78   1
   6  -4   9 102294. 4597.32   1
  -4   6   9 129235. 4572.30   1
  -6   2  -9 120518. 4751.66   1
  -2  -4   9 122476. 4980.21   2
  -2  -4   9 117180. 4827.60   1
   6  -2   9 106633. 4539.74   1
   4  -6  -9 121391. 4414.39   1
  -6   4  -9 112292. 4655.78   1
  -4  -2   9 118361. 4872.36   1
   6  -2   9 120859. 5107.60   2
   2   4  -9 112626. 4683.83   1
  -4   6  10 106593. 4392.97   1
   6  -4  10 105623. 4658.42   1
   6  -2  10 107617. 4626.90   1
  -6   2 -10 113113. 4626.85   1
   6  -4  10 103002. 4541.56   2
  -2  -4  10 90411.6 4333.92   2
   4  -6 -10 100698. 4220.57   1
  -6   4 -10 98885.8 4451.25   1
  -4  -2  10 102283. 4658.89   2
  -2  -4  10 97276.7 4519.90   1
   4   2 -10 102595. 4578.66   1
   6  -2  10 116903. 4987.43   2
   2   4 -10 99163.1 4514.35   1
  -2  -4  11 23465.4 2127.29   1
   6  -2  11 25282.2 2137.00   1
   6  -2  11 26073.9 2161.51   2
  -6   4 -11 24830.0 2053.20   1
  -6   2 -11 26622.0 2217.81   1
  -4  -2  11 22935.4 2156.22   2
   6  -4  11 23183.9 2139.48   1
  -2  -4  11 24466.8 2179.20   2
   6  -4  11 22552.0 2026.31   2
   4   2 -11 25677.5 2139.21   1
   2   4 -11 22613.3 2096.30   1
  -4  -2  11 21153.7 2081.02   1
  -2  -4  12 15574.5 1763.44   1
   6  -4  12 14411.1 1735.97   1
   6  -2  12 13569.2 1635.03   1
  -4  -2  12 14554.0 1767.80   2
   6  -4  12 15939.9 1742.86   2
  -6   4 -12 14354.8 1633.25   1
  -6   2 -12 14346.7 1653.41   1
  -2  -4  12 13422.9 1657.99   2
   4   2 -12 14506.2 1691.87   1
   6  -2  12 17027.4 1831.89   2
   2   4 -12 16130.0 1709.48   1
  -4  -2  12 14525.3 1736.68   1
  -2  -4  13 15895.3 1836.51   1
  -4  -2  13 13672.3 1720.83   2
   6  -4  13 12682.5 1633.32   1
   6  -2  13 14524.8 1721.78   1
  -2  -4  13 15488.7 1832.96   2
   6  -4  13 13475.2 1663.40   2
  -6   4 -13 15810.4 1700.73   1
  -6   2 -13 16848.3 1799.79   1
   4   2 -13 15358.8 1724.13   1
   6  -2  13 16311.5 1814.29   2
   2   4 -13 16052.7 1781.62   1
  -4  -2  13 13682.7 1746.47   1
  -2  -4  14 77920.9 4211.10   1
   6  -2  14 74021.5 4027.42   1
   6  -4  14 72125.5 4059.88   1
  -6   4 -14 69918.0 3888.66   1
  -6   2 -14 64699.5 3716.62   1
   4   2 -14 74185.9 4004.21   1
  -2  -4  14 66736.7 3974.71   2
  -4  -2  14 61593.0 3896.02   2
   6  -4  14 73928.1 4113.84   2
  -4  -2  14 72528.0 4133.02   1
   6  -2  14 78306.4 4193.53   2
   2   4 -14 66337.8 3881.16   1
  -4  -2  15 8581.63 1428.94   1
  -2  -4  15 7399.08 1339.77   1
   6  -2  15 7692.28 1371.67   1
   4   2 -15 8354.75 1379.44   1
   6  -4  15 10706.2 1550.44   1
   2   4 -15 8884.60 1380.48   1
  -6   2 -15 9223.41 1379.39   1
  -6   4 -15 8309.19 1338.89   1
   6  -2  15 9348.21 1454.18   2
  -4  -2  15 10223.2 1468.92   2
  -2  -4  15 8037.62 1373.52   2
   6  -4  15 7675.65 1304.32   2
  -2  -4  16 20680.4 2227.74   1
   6  -2  16 19863.6 2120.88   1
   6  -4  16 18839.4 2103.21   1
   6  -2  16 19745.3 2201.88   2
  -6   4 -16 18831.2 2029.27   1
  -6   2 -16 22029.7 2169.10   1
  -4  -2  16 19374.1 2252.30   2
  -4  -2  16 18948.3 2198.77   1
  -2  -4  16 19547.1 2191.23   2
   6  -4  16 20732.2 2307.56   2
   2   4 -16 23849.5 2278.61   1
   4   2 -16 19461.4 2118.33   1
  -4  -2  17 7736.28 1370.01   1
  -2  -4  17 5696.38 1144.46   1
   4   2 -17 5948.66 1108.83   1
  -4  -2  17 6270.88 1325.78   2
   6  -2  17 7574.66 1340.80   1
   6  -4  17 6692.07 1286.79   1
   6  -4  17 5617.21 1266.82   2
  -6   2 -17 5668.07 1108.39   1
  -6   4 -17 7775.93 1302.75   1
   2   4 -17 7192.62 1329.63   1
  -2  -4  17 6903.47 1336.14   2
  -2  -4  18 34394.3 3003.30   1
   2   4 -18 39447.8 3051.06   1
   6  -2  18 30072.9 2773.93   1
   6  -4  18 36254.0 3063.71   1
  -6   2 -18 31700.6 2711.94   1
  -6   4 -18 36953.4 3018.64   1
  -4  -2  18 35578.7 3093.28   2
   6  -4  18 29452.6 2953.75   2
   4   2 -18 39081.6 3052.27   1
  -2  -4  18 32756.1 2984.81   2
   6  -2  19 18644.8 2175.54   1
   6  -4  19 19250.3 2219.63   1
  -6   4 -19 19614.2 2237.76   1
   6  -4  19 16178.1 2184.74   2
  -2  -4  19 18068.4 2229.19   2
   1  -6  19 4139.82 1062.74   2
   5  -6  19 4618.87 1123.14   2
   1  -6  18 14719.7 1899.63   1
  -1   6 -18 15831.7 1901.74   1
  -5   6 -18 15908.3 1911.00   1
  -6   5  18 15861.7 2024.45   1
   1  -6  18 14526.5 1860.57   2
   6  -1 -18 18032.6 1976.53   1
   5  -6  18 14568.8 2029.17   2
  -6   1  18 14426.8 2030.17   1
   5  -6  18 13797.1 1836.04   1
   6  -5 -17 9636.91 1561.52   1
   6  -1 -17 13004.2 1701.49   1
  -1   6 -17 10475.5 1533.53   1
   5  -6  17 12307.8 1730.10   1
   1  -6  17 12819.7 1629.97   1
  -5   6 -17 11234.8 1639.70   1
  -6   5  17 11754.9 1693.18   1
   1  -6  17 10902.2 1638.77   2
   5  -6  17 8926.22 1546.40   2
  -6   1  17 14831.2 1958.09   1
   1  -6  16 9390.44 1545.51   1
   6  -1 -16 11175.5 1479.56   1
  -1   6 -16 10945.0 1514.45   1
   5  -6  16 11764.2 1652.81   1
  -5   6 -16 10496.0 1539.76   1
  -6   5  16 8720.79 1415.45   1
   6  -5 -16 9499.80 1540.10   1
   1  -6  16 9476.21 1480.42   2
  -6   1  16 10252.6 1525.29   1
   5  -6  16 9451.00 1492.47   2
   1  -6  15 13625.3 1694.79   1
  -1   6 -15 13246.0 1694.28   1
  -5   6 -15 13231.8 1687.31   1
  -6   5  15 12602.6 1647.74   1
   1  -6  15 13891.4 1679.79   2
  -6   1  15 18535.6 2073.89   1
   6  -5 -15 13336.2 1768.35   1
   5  -6  15 12901.5 1765.41   2
   6  -1 -15 12854.3 1664.37   1
   5  -6  15 15188.2 1775.37   1
   1  -6  14 69473.4 4094.76   1
   5  -6  14 74053.0 4174.68   1
  -5   6 -14 78576.2 4171.51   1
  -6   5  14 93157.9 4681.91   1
   1  -6  14 67629.7 3967.69   2
   6  -5 -14 78977.1 4266.82   1
  -1   6 -14 82290.6 4290.59   1
  -6   1  14 80317.3 4492.67   2
   5  -6  14 72051.3 4139.27   2
   6  -1 -14 73743.2 4093.06   1
  -6   1  14 94941.4 4657.94   1
   1  -6  13 15205.1 1810.44   1
  -1   6 -13 14977.0 1713.17   1
   5  -6  13 14640.3 1724.47   1
  -6   5  13 16541.7 1837.65   1
  -5   6 -13 14842.2 1719.42   1
  -6   1  13 16691.6 1915.50   2
   1  -6  13 14249.0 1710.90   2
   6  -5 -13 13523.4 1646.89   1
   5  -6  13 13194.1 1705.53   2
   6  -1 -13 14757.7 1699.15   1
  -6   1  13 14821.2 1708.60   1
   1  -6  12 16002.2 1818.17   1
  -1   6 -12 18126.6 1881.10   1
   5  -6  12 17628.7 1893.17   1
  -6   5  12 18236.5 1882.21   1
  -6   1  12 15477.1 1700.28   2
  -5   6 -12 17096.3 1845.51   1
  -6   1  12 17911.7 1888.81   1
   6  -1 -12 17500.8 1836.72   1
   5  -6  12 16221.9 1819.39   2
   6  -5 -12 15042.5 1695.65   1
   1  -6  12 19256.3 1897.77   2
   1  -6  11 31836.8 2561.31   1
  -1   6 -11 33627.0 2471.55   1
   5  -6  11 36466.7 2632.81   1
   5   1  11 33446.2 2277.63   1
  -6   5  11 36950.5 2717.60   1
   1  -6  11 34523.8 2589.16   2
   6  -5 -11 34278.6 2557.21   1
   6  -1 -11 37886.4 2714.45   1
  -5   6 -11 37065.4 2589.04   1
  -6   1  11 39008.0 2800.15   2
  -6   1  11 34993.0 2611.89   1
   5  -6  11 34523.6 2568.21   2
   1  -6  10 168644. 6186.65   1
  -6   5  10 182907. 6366.18   1
   6  -1 -10 179043. 6233.53   1
  -1   6 -10 172007. 6147.24   1
   5  -6  10 167440. 6151.60   1
   5   1  10 152930. 5446.75   1
  -6   1  10 172759. 6144.37   1
  -5   6 -10 168561. 6111.76   1
  -5  -1 -10 192035. 5587.41   1
  -6   1  10 169608. 6330.00   2
   1  -6  10 173854. 6207.33   2
   5  -6  10 164273. 5951.57   2
   6  -5 -10 181431. 6444.80   1
  -6   5   9 133865. 5341.13   1
   1  -6   9 154795. 5612.33   1
  -1   6  -9 133610. 5262.94   1
   5  -6   9 123026. 5279.33   1
   5   1   9 141918. 4890.59   1
  -6   1   9 157272. 5856.52   2
  -6   1   9 151053. 5504.47   1
  -5   6  -9 146534. 5420.78   1
  -5  -1  -9 141702. 4723.98   1
   6  -5  -9 140715. 5317.43   1
   1  -6   9 149408. 5480.92   2
   6  -1  -9 146637. 5431.65   1
   5  -6   9 143818. 5351.16   2
   6  -5  -8 15121.7 1516.67   1
   1  -6   8 14471.0 1554.53   1
  -1   6  -8 13150.1 1437.52   1
   5  -6   8 12415.4 1504.22   1
   1  -6   8 12210.0 1419.72   2
   5   1   8 13398.7 1271.12   1
  -5  -1  -8 14191.2 1283.58   1
  -5   6  -8 14862.2 1556.72   1
  -6   1   8 17268.7 1706.58   2
  -6   1   8 15442.5 1569.85   1
   6  -1  -8 16366.7 1620.47   1
   5  -6   8 14009.7 1519.61   2
  -6   5   8 14296.0 1517.98   1
   1  -6   7 60815.8 3223.16   1
  -1   6  -7 74167.4 3464.51   1
   5  -6   7 80512.3 3702.56   1
   6  -1  -7 72411.1 3623.65   1
   5   1   7 77509.2 3259.08   1
  -6   1   7 69926.6 3462.88   1
  -5   6  -7 67193.1 3439.83   1
   1  -6   7 75293.2 3548.09   2
   6  -5  -7 69416.6 3394.49   1
  -5  -1  -7 70453.3 3046.09   1
   5  -6   7 71664.0 3419.37   2
  -6   5   7 67021.7 3445.09   1
   1  -6   6 108788. 4319.09   1
  -6   5   6 116387. 4484.17   1
  -1   6  -6 111702. 4335.23   1
   5  -6   6 114453. 4553.60   1
   6  -5  -6 126724. 4571.81   1
  -6   1   6 106582. 4341.27   1
   5   1   6 139314. 4467.93   1
   1  -6   6 99195.7 4326.65   2
   6  -1  -6 94002.3 4310.73   1
  -5  -1  -6 118848. 4082.36   1
   5  -6   6 110994. 4343.01   2
  -5   6  -6 97987.0 4204.48   1
  -6   1   5 3828.55 750.536   1
  -6   5   5 3616.27 719.972   1
  -5   6  -5 3462.23 750.844   1
   1  -6   5 4021.86 671.570   1
   5  -6   5 4027.24 745.162   1
  -1   6  -5 4093.55 705.083   1
  -5  -1  -5 4640.17 756.860   1
   6  -5  -5 3203.74 610.567   1
   6  -1  -5 3658.36 803.224   1
   5   1   5 4570.64 727.158   1
   1  -6   5 4383.54 836.427   2
   5  -6   5 4625.53 772.004   2
  -6   5   4 8221.11 1081.25   1
  -6   1   4 9734.40 1182.49   1
   1  -6   4 11310.9 1129.17   1
   6  -1  -4 10218.6 1260.55   1
  -1   6  -4 11575.1 1169.15   1
  -5  -1  -4 12871.4 1214.41   1
   5   1   4 13031.9 1195.44   1
   1  -6   4 11065.3 1205.58   2
   5  -6   4 9541.64 1100.76   2
   6  -5  -4 9909.38 1122.33   1
  -5   6  -4 10234.7 1215.41   1
   5  -6   4 11029.0 1243.16   1
  -1  -5  -4 11603.3 1104.84   2
   1  -6   3 52721.6 2426.10   1
  -1   6  -3 57887.4 2569.13   1
  -5  -1  -3 53177.1 2545.46   1
   5  -6   3 44049.4 2533.11   1
  -1  -5  -3 54859.2 2492.60   2
   5   1   3 50055.9 2510.21   1
  -6   5   3 47337.5 2625.50   1
   1  -6   3 50866.5 2676.66   2
   6  -5  -3 55123.4 2784.10   1
   6  -1  -3 44522.5 2626.73   1
  -5   6  -3 48644.5 2668.36   1
   5  -6   3 58438.0 2748.96   2
  -6   1   3 46595.6 2576.60   1
   1  -6   2 236691. 5657.94   1
  -5   6  -2 185985. 5888.41   1
  -1   6  -2 200810. 5411.08   1
   5  -6   2 151038. 5490.58   1
  -5  -1  -2 186721. 5625.77   1
  -6   5   2 209974. 6184.57   1
   5   1   2 216664. 5951.88   1
   6  -5  -2 226918. 6382.27   1
  -1  -5  -2 204140. 5656.15   2
   6  -1  -2 219105. 6292.59   1
  -6   1   2 202073. 5968.51   1
   5  -6   2 210369. 5961.19   2
   1  -6   2 205961. 6018.93   2
   1  -6   1 303299. 7763.51   2
  -6   5   1 324594. 8096.90   1
   5  -6   1 324486. 7984.49   1
  -6   1   1 299263. 7761.89   1
   6  -5  -1 290177. 7873.10   1
  -5  -1  -1 363485. 7938.56   1
   6  -1  -1 323725. 8155.00   1
  -1  -5  -1 315813. 7693.05   2
  -5   6  -1 359906. 8237.35   1
  -5   6   0 154776. 5186.09   1
   5   1   0 185116. 5410.69   1
   1  -6   0 174143. 4400.43   1
  -1  -5   0 184232. 4302.20   1
  -6   5   0 186330. 5686.31   1
  -5  -1   0 183030. 5290.79   1
   5  -6   0 156245. 5169.17   1
   6  -5   0 170945. 5484.88   1
  -6   1   0 171412. 5460.00   1
   6  -1   0 185199. 5599.16   1
   1  -6   0 214118. 5596.48   2
  -1  -5   0 174287. 5409.18   2
   5  -6   0 190078. 5505.12   2
   1  -6  -1 67159.6 1978.17   1
  -5   6   1 58271.7 2812.41   1
  -6   5  -1 58741.0 2921.22   1
   5   1  -1 57952.9 2797.65   1
  -1   6   1 59400.1 1925.10   1
  -6   1  -1 46552.8 2572.69   1
   5  -6  -1 52341.4 2653.36   1
   6  -5   1 53956.7 2827.31   1
   6  -1   1 54293.8 2821.80   1
  -1  -5   1 59085.6 2843.99   2
   1  -6  -1 54313.8 2506.72   2
  -5  -1   1 47254.2 2509.20   1
   5  -6  -1 64978.9 2829.47   2
   1   5  -1 57886.9 2239.93   1
  -1  -5   1 60446.2 2292.16   1
  -1  -5   3 14452.2 1235.86   1
   6  -5   3 17184.6 1516.13   2
  -6   1  -3 17334.0 1471.53   1
  -5  -1   3 14006.0 1301.45   1
   5   1  -3 16286.6 1484.17   1
  -5   6   3 14563.1 1304.92   1
  -6   5  -3 12957.1 1323.57   1
   6  -5   3 13074.4 1391.20   1
   6  -1   3 12196.6 1279.81   1
   5  -6  -3 13354.2 1237.85   1
  -5  -1   3 14142.3 1554.35   2
   1  -6  -3 16340.2 1149.77   2
   5  -6  -3 15332.4 1275.20   2
  -1  -5   3 11032.5 1283.19   2
   1   5  -3 14091.9 1202.62   1
  -5  -1   4 2888.70 718.984   2
  -1  -5   4 3514.50 661.256   1
   1   5  -4 3092.60 558.833   1
  -5  -1   4 2832.38 550.206   1
   5  -6  -4 2095.85 479.616   1
  -5   6   4 3658.32 600.215   1
   5  -6  -4 2608.90 517.688   2
  -6   5  -4 3538.78 692.858   1
   6  -5   4 4710.17 862.567   1
   1  -6  -4 3126.57 452.523   2
   6  -1   4 3208.42 741.226   1
  -1  -5   4 2789.82 614.988   2
  -6   1  -4 3349.73 635.725   1
   6  -5   4 2765.33 669.364   2
   5   1  -4 3269.49 672.254   1
   1   5  -5 155210. 4997.25   1
  -1  -5   5 159887. 5349.03   2
   6  -5   5 165140. 5424.72   1
   6  -1   5 159652. 5186.60   1
  -5   6   5 137246. 4648.94   1
   5   1  -5 139620. 5070.25   1
   5  -6  -5 165636. 4983.82   1
  -5  -1   5 155696. 5080.39   1
  -5  -1   5 152692. 5389.37   2
   6  -5   5 140811. 4973.86   2
  -1  -5   5 162388. 5054.63   1
  -6   5  -5 151116. 5178.35   1
  -6   1  -5 151735. 5014.92   1
  -1  -5   6 23243.5 1839.35   1
   5   1  -6 23570.6 1938.71   1
  -1  -5   6 26806.8 2006.84   2
   6  -5   6 20853.8 1841.04   1
   6  -1   6 22076.2 1780.90   1
  -5  -1   6 21425.6 1794.47   1
   5  -6  -6 24858.3 1769.80   1
   1   5  -6 23948.4 1820.20   1
  -5   6   6 19819.3 1674.78   1
  -6   5  -6 21799.8 1768.39   1
  -5  -1   6 26600.6 2080.80   2
  -6   1  -6 20533.2 1727.72   1
   6  -5   6 24663.6 1905.98   2
  -6   1  -7 79939.8 3671.52   1
   6  -5   7 84607.0 3823.85   2
   6  -5   7 83974.2 3871.16   1
   1   5  -7 86739.5 3813.84   1
   6  -1   7 88146.5 3870.31   1
   5  -6  -7 87218.3 3627.90   1
  -6   5  -7 83492.7 3824.45   1
  -1  -5   7 84271.5 3948.84   2
  -5  -1   7 90607.4 4169.62   2
  -5   6   7 86079.3 3704.08   1
  -5  -1   7 83327.4 3827.99   1
   5   1  -7 77988.5 3771.50   1
  -1  -5   7 90528.1 3974.53   1
  -5  -1   8 17999.1 1764.38   1
   1   5  -8 12638.8 1436.00   1
   6  -5   8 13854.9 1563.43   1
   6  -1   8 16791.3 1619.03   1
  -1  -5   8 16259.6 1668.70   2
  -5  -1   8 15296.0 1666.44   2
  -1  -5   8 13378.5 1528.20   1
  -6   1  -8 16011.0 1575.44   1
   5  -6  -8 16535.2 1496.56   1
   5   1  -8 16906.1 1683.13   1
  -5   6   8 17684.4 1625.41   1
   6  -5   8 14587.1 1499.35   2
  -6   5  -8 14504.4 1543.36   1
   1   5  -9 12282.5 1429.45   1
  -6   5  -9 15006.2 1547.68   1
  -5  -1   9 14232.7 1618.87   1
  -6   1  -9 14032.7 1463.97   1
  -1  -5   9 13725.9 1574.99   2
   6  -5   9 14941.9 1592.09   1
   6  -1   9 12930.9 1422.65   1
  -1  -5   9 12878.1 1520.89   1
  -5  -1   9 14804.2 1577.09   2
   5  -6  -9 13885.6 1510.86   1
   5   1  -9 15390.1 1643.08   1
   6  -5   9 12210.1 1405.26   2
  -5   6   9 13628.2 1494.81   1
   1   5 -10 217538. 7156.22   1
  -1  -5  10 224101. 7333.59   1
  -5  -1  10 198207. 7135.16   2
   6  -5  10 212685. 7277.86   1
  -5  -1  10 215629. 7302.17   1
   6  -1  10 221864. 7114.43   1
   5  -6 -10 249694. 7335.30   1
  -6   1 -10 226048. 6996.38   1
  -6   5 -10 214071. 7102.48   1
  -1  -5  10 197801. 7010.14   2
   6  -5  10 217117. 7071.46   2
   5   1 -10 209560. 7108.11   1
   1   5 -11 23853.8 2106.66   1
  -1  -5  11 22498.6 2083.49   1
  -5   6  11 25950.7 2172.10   1
   6  -1  11 17773.6 2030.38   2
   6  -5  11 24544.0 2171.54   1
   6  -1  11 23180.9 2074.46   1
  -5  -1  11 23264.2 2139.98   1
  -5  -1  11 19575.0 1997.55   2
  -6   5 -11 22772.9 2030.03   1
  -6   1 -11 21397.5 1963.58   1
  -1  -5  11 21049.5 2024.89   2
   5  -6 -11 18913.9 1939.40   1
   6  -5  11 24234.9 2108.74   2
   5   1 -11 20473.1 1997.26   1
   1   5 -12 34848.7 2625.91   1
  -1  -5  12 31212.2 2599.71   1
  -5   6  12 39613.6 2838.62   1
   6  -5  12 35932.8 2699.21   1
   6  -1  12 39136.4 2789.31   1
  -5  -1  12 32884.5 2663.91   1
  -6   5 -12 37648.6 2720.73   1
  -6   1 -12 38407.0 2657.30   1
   5  -6 -12 38503.8 2860.90   1
  -1  -5  12 38637.5 2753.19   2
   5   1 -12 36086.9 2701.56   1
  -5  -1  12 37769.6 2808.92   2
   6  -5  12 42017.6 2829.43   2
   6  -1  12 34993.3 2727.38   2
   1   5 -13 38156.2 2807.58   1
  -1  -5  13 28258.7 2561.02   1
  -5   6  13 42577.6 3006.34   1
   6  -5  13 34868.0 2761.82   1
   6  -1  13 35138.6 2614.46   1
  -5  -1  13 33043.2 2729.09   2
   5   1 -13 32038.9 2631.05   1
  -6   5 -13 36349.6 2707.64   1
  -6   1 -13 40646.1 2754.94   1
  -5  -1  13 32239.7 2663.86   1
  -1  -5  13 35139.9 2759.49   2
   6  -5  13 34243.4 2721.46   2
   6  -1  13 38583.8 2904.16   2
   6  -5  14 65473.6 3928.57   1
   6  -1  14 62388.3 3650.82   1
  -6   5 -14 69967.2 3889.10   1
  -6   1 -14 63762.2 3572.50   1
  -5  -1  14 63625.2 3914.28   1
  -1  -5  14 63848.9 3864.43   2
   6  -1  14 52124.0 3490.52   2
  -5  -1  14 60216.4 3870.69   2
   1   5 -14 66110.4 3856.89   1
   5   1 -14 70041.6 3939.42   1
   6  -5  14 69067.9 3944.35   2
  -1  -5  14 58486.6 3719.69   1
   6  -1  15 22693.9 2241.52   1
   6  -5  15 21032.7 2218.92   1
   5   1 -15 25469.2 2323.75   1
   1   5 -15 22629.8 2231.94   1
  -6   1 -15 22165.9 2103.62   1
  -6   5 -15 24701.3 2326.59   1
  -5  -1  15 25076.2 2410.39   1
  -1  -5  15 21830.4 2195.61   2
  -1  -5  15 23645.7 2359.62   1
   6  -5  15 21618.0 2257.09   2
   6  -1  15 18622.8 2055.72   2
  -5  -1  15 24466.9 2420.66   2
   5   1 -16 2768.41 854.860   1
  -1  -5  16 2759.17 813.299   1
   6  -1  16 1870.93 586.037   1
  -5  -1  16 2892.81 921.907   1
   1   5 -16 2555.37 793.450   1
   6  -5  16 2374.47 818.657   1
  -1  -5  16 1221.32 492.624   2
  -5  -1  16 1915.04 740.285   2
  -6   5 -16 2321.02 749.507   1
   6  -5  16 1287.07 751.106   2
   6  -5  17 4032.32 1184.37   2
   5   1 -17 5566.78 1122.09   1
  -1  -5  17 7002.56 1304.11   1
  -1  -5  17 5510.83 1213.46   2
  -5  -1  17 6127.60 1353.89   1
  -5  -1  17 5492.74 1254.75   2
   6  -5  17 5615.74 1184.83   1
   1   5 -17 6120.89 1177.05   1
  -6   5 -17 6734.25 1220.28   1
  -1  -5  18 25524.6 2500.84   2
  -1  -5  18 25663.0 2623.64   1
   6  -5  18 29130.7 2703.41   1
  -6   5 -18 28257.1 2625.18   1
  -5  -1  18 27468.6 2772.18   1
   5   1 -18 27082.9 2480.85   1
   6  -5  18 22982.7 2622.81   2
   1   5 -18 26874.2 2580.01   1
  -1  -5  19 3976.39 1070.16   2
   6  -5  19 2396.23 817.125   2
  -6   0   1 2057.70 542.755   1
   0   6  -1 2924.71 471.869   1
  -6   6  -1 1638.47 493.387   1
   6  -6  -1 2304.92 515.832   1
  -6   0  -1 2309.37 543.107   1
   0  -6   1 1921.53 407.732   1
   6  -6   1 3199.66 641.637   1
   6  -6  -1 2358.64 615.428   2
   0  -6  -1 2511.48 598.186   2
   6   0   1 2302.89 522.743   1
   0  -6   1 2821.38 617.972   2
   6   0  -1 2105.97 519.886   1
  -6   6   1 2122.51 580.043   1
   6  -6   1 2877.39 633.024   2
   0  -6   2 6491.46 786.100   1
  -6   6   2 7102.62 974.471   1
   6  -6   2 10258.0 1125.53   2
  -6   0  -2 7340.61 984.088   1
   6  -6  -2 5244.95 852.868   1
   0   6  -2 8217.12 874.833   1
   6   0  -2 7909.31 1045.21   1
   0  -6  -2 6869.23 902.071   2
   6   0   2 7994.42 974.214   1
   6  -6   2 6602.86 982.913   1
  -6   6  -2 8098.24 1029.33   1
   0  -6   2 9223.24 1108.34   2
  -6   0   2 8353.97 1084.70   1
   6  -6  -2 8280.28 1096.97   2
  -6   0  -3 5502.58 835.414   1
   0   6  -3 5265.30 736.823   1
   0  -6   3 4314.39 708.081   1
  -6   6   3 4343.47 793.308   1
   0  -6   3 3870.98 759.247   2
   0  -6  -3 3402.72 588.784   2
  -6   6  -3 4118.49 783.747   1
   6  -6   3 4468.77 821.666   1
   6   0   3 4100.16 738.668   1
  -6   0   3 3958.82 748.624   1
   6  -6  -3 3605.51 696.871   1
   6   0  -3 3935.99 781.242   1
   6  -6   3 4186.84 747.177   2
   0  -6   4 181165. 5447.05   1
   0   6  -4 183836. 5502.84   1
   0  -6   4 190516. 6001.34   2
  -6   0  -4 161538. 5474.54   1
  -6   0   4 167891. 5632.76   1
   6  -6   4 163621. 5710.18   1
   6   0   4 159281. 5439.08   1
  -6   6   4 160270. 5538.33   1
   0  -6  -4 165457. 4921.07   2
   6  -6  -4 181683. 5741.71   1
   6   0  -4 191600. 6230.06   1
  -6   6  -4 175055. 5748.73   1
   6  -6   4 171217. 5609.61   2
  -6   0   5 2867.60 717.006   1
   0  -6   5 3736.46 752.299   1
  -6   0  -5 3454.99 667.204   1
  -6   6  -5 2856.79 711.731   1
   0  -6   5 2810.72 796.605   2
   0   6  -5 2838.74 601.444   1
   6  -6   5 2703.69 622.241   1
   6   0   5 3457.97 702.090   1
  -6   6   5 2543.44 673.353   1
   6  -6   5 3250.37 702.281   2
   6   0  -5 3470.53 729.895   1
   6  -6  -5 2350.38 506.687   1
   0  -6   6 11678.5 1314.93   1
   0   6  -6 11602.8 1280.00   1
   6  -6   6 12439.5 1465.00   1
   6   0   6 11693.5 1280.22   1
  -6   0   6 9544.32 1203.30   1
   6  -6  -6 12180.0 1306.37   1
  -6   0   6 11883.6 1486.07   2
  -6   6   6 9794.47 1250.24   1
   6   0  -6 11346.6 1418.35   1
  -6   6  -6 11220.5 1324.64   1
   6  -6   6 10266.7 1218.90   2
  -6   0  -6 12596.6 1371.77   1
   0  -6   6 12280.1 1451.54   2
  -6   6   7 1896.79 588.389   1
  -6   6  -7 1445.95 600.980   1
   0  -6   7 1752.61 562.035   1
  -6   0  -7 1690.72 530.023   1
  -6   0   7 2034.12 649.971   1
   0   6  -7 2041.98 589.013   1
   6  -6   7 1803.37 572.332   1
   6   0   7 1607.34 473.919   1
  -6   0   7 1818.61 582.091   2
   6   0  -7 2045.57 526.093   1
   0  -6   7 2263.67 641.484   2
   6  -6  -7 2101.60 582.234   1
   6  -6   7 1885.20 587.450   2
   0  -6   8 272568. 7879.38   1
   0   6  -8 283060. 7961.31   1
   6  -6   8 278186. 8153.07   1
   6   0   8 266181. 7570.85   1
  -6   6  -8 250863. 7711.09   1
  -6   0   8 254047. 8052.25   2
   6  -6  -8 215688. 7167.16   1
  -6   0   8 256993. 7769.91   1
   0  -6   8 234644. 7617.22   2
  -6   0  -8 266458. 7452.93   1
   6  -6   8 260086. 7671.30   2
   6   0  -8 278004. 8072.20   1
  -6   6   8 262384. 7743.83   1
  -6   6  -9 3148.60 755.884   1
  -6   0  -9 3303.03 740.128   1
   0  -6   9 3791.68 759.507   1
   6  -6   9 3650.92 805.548   1
   0   6  -9 3325.96 780.697   1
   6   0   9 2964.93 661.545   1
  -6   6   9 3125.97 792.931   1
   6  -6   9 2040.00 533.564   2
  -6   0   9 3600.26 796.618   2
   6  -6  -9 2410.54 574.857   1
   6   0  -9 3321.20 758.177   1
  -6   0   9 3975.39 852.519   1
   0  -6   9 2706.38 724.187   2
   6   0 -10 1740.52 567.120   1
   0  -6  10 2424.30 742.178   1
   6  -6  10 2117.31 604.719   1
  -6   0 -10 2115.91 539.123   1
   6   0  10 2090.35 582.683   1
   0   6 -10 1424.62 416.854   1
  -6   0  10 1570.24 566.853   2
  -6   6  10 2499.32 750.446   1
   0  -6  10 2269.04 620.488   2
   6  -6 -10 3191.77 792.675   1
  -6   0  10 1868.25 593.806   1
   6  -6  10 2065.34 619.626   2
  -6   6 -10 1616.58 526.180   1
  -6   0  11 281.682 280.916   1
   6   0 -11-94.0948 282.552   1
   0  -6  11 658.012 477.658   1
   6  -6  11 403.608 280.524   2
   6  -6  11 46.3054 207.102   1
   6   0  11 331.193 405.795   1
   0   6 -11 228.505 279.586   1
  -6   0  11 62.9096 398.205   2
   0  -6  11 347.512 402.104   2
  -6   6  11 691.232 457.886   1
   6  -6 -11 307.399 312.800   1
  -6   6 -11-380.165 354.436   1
  -6   0 -11 506.703 401.989   1
  -6   6  12 205448. 7118.12   1
   0  -6  12 175423. 6564.44   1
   0   6 -12 180524. 6609.46   1
   6  -6  12 187842. 6795.61   1
   6   0  12 181002. 6335.48   1
  -6   0  12 187465. 6923.02   2
  -6   6 -12 183560. 6534.57   1
  -6   0 -12 153706. 5776.09   1
   6  -6 -12 173424. 6599.58   1
   0  -6  12 184322. 6663.34   2
   6   0 -12 176747. 6571.85   1
   6  -6  12 181952. 6526.41   2
  -6   0  12 195011. 6906.98   1
   6   0 -13-224.501 298.909   1
   0  -6  13-171.780 218.892   1
  -6   0  13-65.6235 253.073   1
   6  -6  13-291.805 372.453   1
   0   6 -13 165.875 316.231   1
   6  -6  13 160.161 297.103   2
   6  -6 -13-154.146 182.120   1
  -6   6 -13-291.859 242.232   1
   0  -6  13-111.202 276.146   2
   6   0  13 186.221 288.004   2
  -6   0  13 84.9679 343.203   2
  -6   6  13-15.8334 189.591   1
   6   0 -14 1478.79 488.458   1
  -6   6  14 4030.56 1045.14   1
   0  -6  14 1340.31 549.715   1
  -6   0  14 2708.68 740.642   1
   6  -6  14 1568.82 601.770   1
   0   6 -14 2120.01 603.261   1
   6  -6  14 2633.27 802.767   2
   0  -6  14 3178.75 858.529   2
  -6   6 -14 3045.29 797.637   1
   6  -6 -14 3016.03 882.811   1
  -6   0  14 2765.34 855.711   2
   6   0 -15 157.048 365.608   1
   0  -6  15-412.805 484.773   1
  -6   0  15-178.584 397.378   1
   6  -6  15 636.303 510.064   1
   0   6 -15 594.955 477.810   1
   0  -6  15 353.205 240.248   2
   6  -6  15-25.1981 227.640   2
  -6   0  15 342.270 350.126   2
  -6   6 -15 286.214 400.187   1
  -6   6  15 655.765 528.177   1
  -6   0  16 66144.3 4103.07   1
   0  -6  16 54119.4 3769.85   1
   0   6 -16 59881.5 3706.41   1
   6  -6  16 63626.6 3989.63   1
  -6   6 -16 64506.3 3871.46   1
   0  -6  16 56462.2 3719.26   2
   6  -6  16 46141.9 3673.93   2
   6   0 -16 58743.4 3789.37   1
  -6   0  16 49973.3 3778.24   2
   6   0 -17 362.907 278.419   1
   0  -6  17-72.4276 347.917   1
  -6   6 -17 238.681 326.076   1
   6  -6  17 533.401 387.316   1
   0  -6  17 895.076 380.351   2
  -6   0  17-251.112 391.118   1
   0   6 -17 556.346 313.736   1
   6  -6  17 756.576 594.788   2
   6   0 -18 31.1309 432.651   1
   0  -6  18 457.429 290.352   1
  -6   0  18 607.833 451.154   1
   6  -6  18 1074.11 471.453   1
   0   6 -18 837.937 482.752   1
  -6   6 -18 309.673 272.621   1
   0  -6  18-278.505 455.270   2
   6  -6  18 614.867 365.259   2
   3  -7  18 52997.1 3723.66   1
  -3   7 -18 54484.9 3570.05   1
  -7   4  18 44616.6 3431.46   1
  -7   3  18 52217.2 3697.29   1
   3  -7  18 49432.0 3512.05   2
   4  -7  18 49871.2 3580.58   2
   7  -4 -18 38493.4 3220.33   1
   7  -3 -18 52780.2 3578.48   1
   7  -3 -17 9940.25 1489.60   1
   4  -7  17 9626.41 1560.74   1
  -3   7 -17 10967.0 1578.93   1
  -4   7 -17 10925.3 1630.77   1
   3  -7  17 9230.62 1531.28   1
  -7   4  17 9234.61 1432.19   1
  -7   3  17 10828.8 1660.57   1
   7  -4 -17 8342.88 1415.27   1
   3  -7  17 10900.7 1558.90   2
   4  -7  17 10944.4 1618.26   2
   7  -3 -16 368.445 308.252   1
   3  -7  16 574.650 423.486   1
  -7   4  16 582.192 529.282   1
  -7   3  16 474.307 375.989   1
  -3   7 -16 869.079 518.673   1
  -4   7 -16 495.054 311.680   1
   4  -7  16 1236.53 479.932   2
   3  -7  16 584.316 387.310   2
   4  -7  16 460.654 360.738   1
   7  -4 -16 904.268 359.804   1
   3  -7  15 21003.3 2214.20   1
  -3   7 -15 18317.3 2038.72   1
  -4   7 -15 19230.2 2101.60   1
  -7   4  15 15062.2 1846.81   1
  -7   3  15 17631.6 1967.03   1
   3  -7  15 19133.8 2010.93   2
   4  -7  15 19112.7 2011.19   2
   7  -3 -15 19574.9 2087.63   1
   4  -7  15 23688.3 2241.73   1
   7  -4 -15 16040.2 1882.38   1
   3  -7  14 19909.5 2137.37   1
   4  -7  14 18925.0 2039.09   1
  -3   7 -14 20938.1 2169.47   1
  -4   7 -14 20994.7 2113.47   1
   3  -7  14 19759.5 2050.37   2
  -7   4  14 18848.2 2046.99   1
  -7   3  14 19094.6 2040.05   1
   7  -4 -14 16861.1 1927.73   1
   7  -3 -14 21141.8 2039.67   1
   4  -7  14 17439.1 1954.05   2
   3  -7  13 40605.3 3016.63   1
  -3   7 -13 47350.6 3219.54   1
  -4   7 -13 43333.9 3100.71   1
  -7   4  13 47115.5 3198.41   1
  -7   3  13 46905.8 3124.34   1
   4  -7  13 42359.3 3073.71   1
   7  -3 -13 43803.1 3032.77   1
   4  -7  13 37021.4 2852.52   2
   3  -7  13 41685.7 2952.84   2
   7  -4 -13 39441.6 2917.57   1
  -7   4  12 5793.61 1181.76   1
   3  -7  12 5902.00 1121.53   1
   4  -7  12 6443.41 1192.11   1
  -7   3  12 6828.45 1149.66   1
  -4   7 -12 6266.27 1131.34   1
   7  -3 -12 4994.18 990.231   1
   4  -7  12 5328.96 1026.11   2
  -3   7 -12 7603.78 1272.06   1
   3  -7  12 6521.54 1090.79   2
   7  -4 -12 5728.63 1067.48   1
   3  -7  11 15041.4 1701.75   1
   4  -7  11 15237.8 1727.02   1
  -7   4  11 16890.7 1815.79   1
  -3   7 -11 16752.9 1835.29   1
  -4   7 -11 16458.0 1728.26   1
  -7   3  11 15453.8 1787.76   1
   7  -4 -11 19743.7 1922.55   1
   7  -3 -11 12699.9 1584.42   1
   4  -7  11 14066.5 1620.63   2
   3  -7  11 17496.2 1763.56   2
   3  -7  10 131014. 5352.70   1
   4  -7  10 121922. 5223.57   1
  -7   4  10 147159. 5624.12   1
   7  -4 -10 121655. 5225.04   1
  -7   3  10 129940. 5346.54   1
  -3   7 -10 144090. 5616.05   1
  -4   7 -10 141803. 5540.34   1
   7  -3 -10 121147. 5160.91   1
   3  -7  10 129415. 5213.56   2
   4  -7  10 124410. 5103.92   2
  -7   3   9 1883.29 629.760   1
   3  -7   9 1382.99 525.758   1
   4  -7   9 1529.57 516.308   1
   7  -4  -9 1082.34 465.848   1
  -3   7  -9 919.202 336.726   1
  -4   7  -9 1698.55 515.164   1
   3  -7   9 919.642 341.619   2
   4  -7   9 1846.84 568.205   2
  -7   4   9 1605.88 575.272   1
   7  -3  -9 1138.39 402.372   1
  -7   4   8 124474. 4994.24   1
   4  -7   8 126068. 4856.06   2
   3  -7   8 105238. 4590.77   1
  -7   3   8 119928. 4930.20   1
   4  -7   8 106956. 4632.57   1
   7  -4  -8 127288. 4974.63   1
  -3   7  -8 102810. 4559.58   1
  -4   7  -8 122183. 4884.38   1
   7  -3  -8 132836. 5220.97   1
   3  -7   8 109050. 4619.50   2
  -7   3   7 56669.6 3176.99   1
   3  -7   7 64015.3 3284.50   1
   4  -7   7 51674.8 2925.09   1
  -3   7  -7 63966.2 3312.19   1
  -4   7  -7 60751.6 3248.39   1
   7  -4  -7 51612.9 3028.93   1
   7  -3  -7 62516.7 3336.44   1
   3  -7   7 50130.4 2947.33   2
   4  -7   7 41863.3 2752.40   2
  -7   4   7 49755.6 3027.76   1
   3  -7   6 291810. 8062.99   1
   4  -7   6 273161. 8014.38   1
  -3   7  -6 280273. 8102.91   1
  -4   7  -6 322820. 8571.00   1
   7  -3  -6 291856. 8331.82   1
   7  -4  -6 296045. 8365.10   1
  -7   4   6 287610. 8278.28   1
   3  -7   6 295198. 8262.85   2
   4  -7   6 299802. 8352.36   2
  -7   3   6 299374. 8375.96   1
  -7   3   5 164806. 5671.19   1
   3  -7   5 148861. 5192.86   1
   4  -7   5 162620. 5535.09   1
  -3   7  -5 182608. 5664.89   1
  -4   7  -5 159665. 5479.08   1
   7  -3  -5 156649. 5539.67   1
   7  -4  -5 148267. 5402.55   1
   3  -7   5 173403. 5688.43   2
  -7   4   5 147055. 5445.71   1
   4  -7   5 161360. 5521.39   2
  -7   4   4 1926.85 516.939   1
  -7   3   4 1352.09 576.446   1
   3  -7   4 1606.45 471.380   1
   4  -7   4 1695.03 484.886   1
  -4   7  -4 1233.71 424.547   1
   7  -3  -4 1151.63 350.473   1
   7  -4  -4 1128.92 421.830   1
  -3   7  -4 1082.78 407.286   1
   3  -7   4 718.365 320.662   2
   4  -7   4 1258.04 384.119   2
  -4  -3  -3 83376.6 2918.85   1
   3  -7   3 77356.6 3332.68   1
   4  -7   3 90018.6 3625.73   1
  -3   7  -3 73309.4 3343.11   1
   4   3   3 84229.2 3004.38   1
   7  -4  -3 78346.9 3647.67   1
  -7   4   3 91054.8 3881.09   1
  -7   3   3 94656.2 3890.69   1
   3  -7   3 81281.9 3575.56   2
   4  -7   3 77993.9 3505.20   2
   7  -3  -3 89764.6 3852.88   1
  -4   7  -3 102776. 3879.44   1
   3  -7   2 92443.5 3533.48   1
   4  -7   2 92481.4 3605.91   1
  -4  -3  -2 101661. 3333.69   1
  -3   7  -2 99204.9 3715.88   1
  -7   4   2 92080.2 3922.95   1
   4   3   2 79000.1 3131.50   1
   4  -7   2 88534.4 3739.52   2
   7  -4  -2 90981.8 3934.24   1
   7  -3  -2 84208.3 3750.97   1
  -7   3   2 83666.8 3700.40   1
  -4   7  -2 92066.4 3679.11   1
  -3  -4  -2 104482. 4224.04   2
   3  -7   2 96321.0 3812.11   2
   3  -7   1 58421.5 2570.17   1
   4  -7   1 41134.9 2262.96   1
  -3  -4  -1 51530.0 2822.11   2
  -7   4   1 49798.0 2771.41   1
   3   4   1 53527.4 2191.34   1
  -7   3   1 49301.9 2711.88   1
   7  -4  -1 53408.7 2907.52   1
  -3   7  -1 49069.0 2432.17   1
   7  -3  -1 47591.5 2811.51   1
   4   3   1 51149.6 2352.86   1
  -3  -4  -1 47839.2 1984.27   1
  -4  -3  -1 62492.4 2514.14   1
  -4   7  -1 45226.5 2453.59   1
   3  -7   1 41451.3 2417.70   2
   4  -7   1 61193.9 2882.82   2
  -3  -4   0 5036.68 661.245   1
   3  -7   0 4943.80 762.289   2
  -7   4   0 4893.94 841.737   1
   3  -7   0 5586.76 720.550   1
   4  -7   0 5251.69 753.821   1
   4   3   0 6999.40 833.142   1
  -7   3   0 5605.14 902.922   1
   3   4   0 7248.18 862.210   1
  -3   7   0 7211.66 865.780   1
  -4  -3   0 6066.17 982.945   2
  -3  -4   0 5641.61 893.243   2
   7  -4   0 6042.57 932.099   1
   7  -3   0 5761.98 967.522   1
  -4   7   0 6037.30 803.716   1
  -4  -3   0 7281.66 863.424   1
   4  -7   0 5298.48 805.354   2
  -4  -3   1 26790.4 1761.31   1
  -7   4  -1 30411.6 2142.94   1
   3  -7  -1 26792.7 1564.93   1
  -7   3  -1 29204.2 2070.18   1
   4  -7  -1 36567.6 1958.70   1
  -3   7   1 34932.1 1827.54   1
  -3  -4   1 28952.8 1690.39   1
   7  -4   1 29186.2 2152.36   1
   7  -3   1 32943.6 2196.51   1
  -3  -4   1 27816.1 2058.32   2
   4   3  -1 36660.9 2208.43   1
  -4  -3   1 32666.5 2266.29   2
   3   4  -1 29334.4 1789.07   1
   4  -7  -1 28936.5 1873.52   2
  -4   7   1 33709.8 1962.04   1
   3  -7  -1 31362.3 1879.78   2
  -7   4  -2 188100. 5998.05   1
  -7   3  -2 169131. 5780.39   1
  -4  -3   2 206668. 5779.65   1
   4  -7  -2 157592. 4961.94   1
   7  -4   2 197807. 6123.43   1
   7  -3   2 205672. 6171.34   1
   3  -7  -2 201682. 4921.35   1
  -4  -3   2 182097. 6094.71   2
  -3  -4   2 196167. 6094.26   2
  -3   7   2 188106. 4995.92   1
   4   3  -2 187586. 5718.49   1
   3   4  -2 197889. 5590.85   1
   4  -7  -2 172399. 5213.09   2
  -4   7   2 195850. 5448.29   1
  -3  -4   2 192170. 5379.36   1
   3  -7  -2 173838. 5107.79   2
  -3  -4   3 31471.2 1990.60   1
  -7   4  -3 31903.3 2140.65   1
  -7   3  -3 28105.2 2029.34   1
  -4  -3   3 28962.3 2191.91   2
   3   4  -3 31300.8 1943.67   1
   4  -7  -3 25706.4 1634.17   1
   7  -4   3 30590.0 2183.95   1
   7  -3   3 29006.7 2107.77   1
  -3   7   3 22853.3 1390.11   1
  -4  -3   3 26721.5 1819.53   1
   3  -7  -3 29928.1 1631.71   2
  -3  -4   3 27507.1 2066.12   2
   4   3  -3 32895.8 2120.48   1
   4  -7  -3 29633.7 1720.52   2
  -4   7   3 31848.1 1827.30   1
  -7   3  -4 208243. 6337.47   1
  -4   7   4 201761. 5490.46   1
  -3  -4   4 210163. 6158.03   1
   7  -4   4 182688. 6180.08   1
   7  -3   4 184789. 6211.43   1
   4  -7  -4 164417. 5026.52   1
  -4  -3   4 201276. 6439.72   2
  -4  -3   4 192701. 5945.09   1
   4   3  -4 201128. 6128.95   1
   3   4  -4 190795. 5862.92   1
  -3  -4   4 186916. 6252.88   2
  -7   4  -4 192127. 6178.75   1
  -4   7   5 65458.8 2840.74   1
  -7   3  -5 70508.0 3465.57   1
   7  -4   5 74007.4 3572.14   1
   7  -3   5 70540.1 3530.41   1
   4  -7  -5 86348.1 3030.23   1
  -4  -3   5 71008.8 3552.97   2
  -3  -4   5 73763.5 3609.02   2
  -7   4  -5 66671.4 3345.32   1
   4   3  -5 65679.0 3334.26   1
   3   4  -5 73288.3 3423.52   1
  -4  -3   5 81451.5 3664.94   1
  -3  -4   5 79483.8 3605.32   1
  -4  -3   6 411672. 10442.3   1
   7  -4   6 422217. 10664.3   1
   7  -3   6 395167. 10372.4   1
  -4  -3   6 385523. 10340.0   2
  -7   4  -6 398251. 10259.1   1
  -3  -4   6 389335. 10361.0   2
  -7   3  -6 425203. 10390.9   1
   4   3  -6 378425. 10065.6   1
   3   4  -6 393810. 10148.3   1
  -7   3  -7 83463.7 3842.36   1
   7  -4   7 78648.5 3872.98   1
   7  -3   7 75303.2 3797.47   1
  -7   4  -7 80403.8 3794.58   1
  -4  -3   7 83017.8 3898.59   1
  -3  -4   7 80529.8 3962.56   2
  -4  -3   7 72886.0 3780.84   2
   4   3  -7 75832.9 3745.94   1
   3   4  -7 76200.0 3743.18   1
   7  -4   7 90818.1 4183.51   2
  -3  -4   7 84909.2 3983.52   1
  -3  -4   8-51.2920 217.834   1
   4   3  -8 175.185 186.721   1
  -3  -4   8 242.648 303.483   2
   3   4  -8 39.6604 243.097   1
  -7   4  -8 953.273 477.577   1
  -7   3  -8 178.426 163.659   1
   7  -4   8-24.8132 257.181   1
   7  -3   8-49.7458 234.545   1
  -4  -3   8 297.647 391.753   1
  -4  -3   8-145.421 228.347   2
   7  -4   8 456.064 539.796   2
  -4  -3   9 65208.8 3655.21   1
   7  -4   9 64897.7 3538.54   1
   3   4  -9 66996.5 3605.86   1
   7  -3   9 61783.4 3505.80   1
  -3  -4   9 58527.4 3499.43   1
  -4  -3   9 61794.1 3600.47   2
  -3  -4   9 60766.6 3537.78   2
  -7   4  -9 62056.2 3399.77   1
  -7   3  -9 62770.7 3461.17   1
   4   3  -9 59320.4 3427.90   1
   7  -4   9 67005.4 3652.42   2
   7  -3   9 66277.2 3715.33   2
   7  -4  10 21348.7 2050.04   1
   7  -3  10 20468.2 2015.88   1
  -3  -4  10 20697.1 2043.99   2
  -4  -3  10 18317.8 1988.00   2
  -7   4 -10 17517.6 1812.62   1
   3   4 -10 20671.6 1931.05   1
  -4  -3  10 21293.0 2090.25   1
   4   3 -10 18835.6 1882.28   1
   7  -4  10 21157.5 2037.11   2
  -7   3 -10 19045.2 1861.21   1
   7  -3  10 20344.2 2062.36   2
  -3  -4  10 18792.0 1946.32   1
   7  -4  11 34904.3 2712.00   1
   7  -3  11 35687.7 2726.08   1
   3   4 -11 34214.8 2666.94   1
  -7   4 -11 37578.6 2719.87   1
  -7   3 -11 36246.8 2608.60   1
  -4  -3  11 32160.5 2716.62   2
  -3  -4  11 35991.4 2784.26   1
   7  -4  11 40717.2 2860.26   2
   4   3 -11 35844.2 2751.75   1
   7  -3  11 35947.4 2667.53   2
  -3  -4  11 36759.0 2823.01   2
  -7   3 -12 4712.02 1027.15   1
  -4  -3  12 4935.83 1065.35   1
  -3  -4  12 5074.33 1079.10   1
   4   3 -12 4412.88 852.546   1
   3   4 -12 4787.25 998.508   1
   7  -4  12 6098.94 1142.25   1
   7  -3  12 4890.59 988.237   1
  -3  -4  12 5583.25 1155.13   2
  -4  -3  12 5329.31 1101.21   2
   7  -4  12 4635.74 927.296   2
   7  -3  12 6186.04 1094.20   2
  -7   4 -12 5333.74 1051.47   1
  -4  -3  13 3067.10 818.352   2
  -4  -3  13 3923.51 980.630   1
  -3  -4  13 3505.83 935.327   1
   4   3 -13 2646.02 632.708   1
   3   4 -13 3500.41 850.002   1
   7  -4  13 2849.78 786.368   1
   7  -3  13 4452.11 951.067   1
  -3  -4  13 3706.50 897.594   2
   7  -3  13 2706.16 816.070   2
  -7   4 -13 3504.32 866.211   1
   7  -4  13 3444.25 794.056   2
  -7   3 -13 3431.78 896.805   1
   7  -4  14 69689.9 4093.82   1
   7  -3  14 69640.4 4096.45   1
   7  -4  14 70405.8 4114.75   2
  -4  -3  14 64133.0 4025.29   2
  -7   4 -14 67915.5 3987.11   1
  -7   3 -14 76284.6 4150.00   1
  -3  -4  14 63186.5 3931.75   2
   7  -3  14 68923.8 4037.81   2
   4   3 -14 74135.2 4125.85   1
   3   4 -14 73548.5 4142.18   1
  -4  -3  14 71969.1 4253.69   1
  -3  -4  14 77195.4 4439.60   1
  -7   3 -15 5272.03 1121.72   1
  -4  -3  15 5454.80 1147.54   1
  -3  -4  15 5908.67 1186.31   1
   4   3 -15 6029.49 1050.53   1
   3   4 -15 4424.87 983.802   1
   7  -3  15 6007.63 1129.68   2
   7  -4  15 5383.90 1162.33   1
   7  -3  15 4475.86 947.857   1
  -3  -4  15 4546.28 1043.38   2
  -4  -3  15 5849.89 1175.49   2
  -7   4 -15 4130.73 974.399   1
   7  -4  15 4373.80 1040.78   2
  -7   3 -16 20270.0 2171.14   1
  -7   4 -16 19921.8 2090.06   1
   7  -4  16 15741.5 2051.37   2
  -4  -3  16 17083.0 2076.71   2
   7  -4  16 19677.8 2210.53   1
   7  -3  16 17806.0 2135.16   2
   7  -3  16 18273.2 2139.78   1
   4   3 -16 21578.2 2242.16   1
   3   4 -16 20931.3 2162.92   1
  -3  -4  16 19491.1 2188.57   2
  -4  -3  16 19868.7 2229.58   1
  -3  -4  16 19033.6 2215.48   1
   7  -3  17 25627.6 2526.53   1
   7  -4  17 27417.0 2655.47   1
  -7   3 -17 23473.4 2350.77   1
  -7   4 -17 23335.2 2422.69   1
  -3  -4  17 25195.0 2595.35   2
   3   4 -17 27455.0 2542.99   1
  -4  -3  17 22567.9 2461.85   2
   7  -4  17 23136.3 2536.86   2
   7  -3  17 23028.2 2488.00   2
  -3  -4  17 27057.6 2645.61   1
   4   3 -17 25909.5 2493.55   1
  -3  -4  18 41369.8 3386.68   2
   7  -3  18 41895.7 3366.12   1
   7  -4  18 47789.7 3564.24   1
  -7   3 -18 42470.4 3249.82   1
  -7   4 -18 43943.9 3337.19   1
   7  -4  18 33049.4 3196.96   2
  -4  -3  18 41604.7 3458.30   2
   3   4 -18 47812.6 3451.87   1
  -3  -4  18 44152.0 3480.72   1
   7  -3  19-138.365 168.028   1
  -7   5  18 1278.47 583.296   1
   2  -7  18 1726.16 610.078   2
   7  -5 -18 1636.51 683.642   1
   5  -7  18 1129.16 628.666   2
   7  -2 -17 569.252 393.925   1
   7  -5 -17 606.003 486.591   1
  -7   5  17 1133.10 563.405   1
   2  -7  17 515.064 306.764   1
   5  -7  17 527.248 371.948   1
  -2   7 -17 1190.31 643.140   1
  -7   2  17 591.101 260.718   1
  -5   7 -17 326.776 254.079   1
   2  -7  17 930.166 592.348   2
   5  -7  17 801.027 422.721   2
   2  -7  16 73685.6 4295.15   1
  -2   7 -16 75512.9 4243.10   1
   5  -7  16 71855.4 4266.49   1
  -7   5  16 64018.1 4100.63   1
  -5   7 -16 80441.9 4461.97   1
   7  -5 -16 70410.7 4242.90   1
  -7   2  16 75097.9 4339.02   1
   2  -7  16 68305.3 4176.74   2
   5  -7  16 66610.9 4203.15   2
   7  -2 -16 76397.5 4280.25   1
   7  -2 -15 411.885 278.037   1
  -7   5  15 120.798 175.856   1
   2  -7  15 473.735 455.254   1
   5  -7  15 1103.08 609.505   1
  -2   7 -15 631.610 334.449   1
  -7   2  15 377.261 237.282   1
   2  -7  15 194.787 289.437   2
   5  -7  15 708.717 508.412   2
  -5   7 -15 533.230 422.304   1
   7  -5 -15 301.251 353.067   1
   7  -2 -14 66.4840 227.950   1
  -7   5  14-201.633 334.940   1
   2  -7  14 59.9231 190.722   1
   5  -7  14 280.517 269.859   1
  -2   7 -14 280.827 274.047   1
  -7   2  14 79.4562 372.275   1
  -5   7 -14 182.412 227.619   1
   2  -7  14 520.543 400.002   2
   5  -7  14-245.252 420.966   2
   7  -5 -14 442.020 342.849   1
   7  -2 -13 272.499 281.684   1
  -7   5  13-91.6731 227.619   1
   2  -7  13 13.7533 200.251   1
   5  -7  13 175.101 354.896   2
   5  -7  13 330.922 240.713   1
   7  -5 -13 450.128 324.176   1
  -7   2  13 171.014 408.446   1
  -2   7 -13 597.750 489.856   1
  -5   7 -13 568.442 515.275   1
   2  -7  13 708.561 529.102   2
   2  -7  12 62065.6 3769.62   1
  -7   5  12 63043.0 3863.07   1
   5  -7  12 69862.6 3864.35   1
  -5   7 -12 62397.9 3647.24   1
   7  -2 -12 59389.6 3585.19   1
  -7   2  12 75005.2 3977.14   1
   7  -5 -12 67238.0 3925.48   1
   2  -7  12 65506.1 3688.55   2
   5  -7  12 60456.6 3643.36   2
  -2   7 -12 62820.8 3701.86   1
   2  -7  11 949.143 560.169   1
   2  -7  11 278.064 309.469   2
   5  -7  11 865.958 509.561   1
   7  -5 -11 1390.44 645.730   1
  -7   2  11 695.201 275.152   1
   7  -2 -11 659.487 339.790   1
  -2   7 -11 1047.33 563.698   1
   5  -7  11 518.194 392.236   2
  -5   7 -11 673.196 388.768   1
  -7   5  11 105.669 382.389   1
   2  -7  10 683.446 412.710   1
   2  -7  10 781.474 198.892   2
  -7   2  10 342.932 345.578   1
   5  -7  10 720.194 443.074   1
  -7   5  10 978.848 420.115   1
  -5   7 -10 901.200 533.453   1
  -2   7 -10 338.493 302.076   1
   7  -5 -10 505.003 343.183   1
   5  -7  10 1131.44 496.307   2
   7  -2 -10 852.547 440.840   1
  -7   2   9 2773.22 706.188   1
   2  -7   9 3339.77 781.559   1
   5  -7   9 3340.25 845.839   1
  -2   7  -9 3090.54 786.477   1
  -7   5   9 3464.08 712.308   1
   2  -7   9 3473.78 743.234   2
   7  -5  -9 2938.42 765.408   1
  -5   7  -9 3114.90 755.376   1
   5  -7   9 2705.09 693.294   2
   7  -2  -9 3554.02 815.633   1
   2  -7   8 424672. 11246.2   1
   7  -5  -8 498056. 11735.0   1
   5  -7   8 442602. 11595.1   1
  -7   2   8 468009. 11728.5   1
  -2   7  -8 441136. 11566.9   1
  -5   7  -8 493244. 11922.1   1
   7  -2  -8 443736. 11589.2   1
   2  -7   8 462142. 11529.8   2
   5  -7   8 452688. 11441.0   2
  -7   5   8 440033. 11549.9   1
   2  -7   7 7947.98 1139.17   1
   7  -5  -7 6590.40 1020.52   1
   5  -7   7 7600.48 1170.39   1
  -7   5   7 6690.97 1050.01   1
   2  -7   7 6146.64 982.406   2
   5  -7   7 6384.00 996.478   2
   7  -2  -7 5821.88 998.069   1
  -2   7  -7 7175.64 1093.35   1
  -7   2   7 5933.74 993.220   1
  -5   7  -7 6750.12 1052.68   1
  -5   7  -6 649.657 374.427   1
   7  -5  -6 490.444 216.327   1
  -7   5   6 580.643 494.869   1
   2  -7   6 26.6637 172.761   1
   5  -7   6 257.909 259.136   1
   5   2   6 234.629 172.007   1
  -2   7  -6 542.734 409.774   1
   2  -7   6 851.997 551.377   2
  -7   2   6 504.174 331.790   1
   7  -2  -6-335.813 326.283   1
   5  -7   6-523.897 262.392   2
  -5   7  -5 1736.49 534.089   1
   2  -7   5 2233.22 574.621   1
  -5  -2  -5 1829.21 432.439   1
   5  -7   5 1689.23 595.303   2
   5  -7   5 2569.03 570.124   1
  -2   7  -5 2058.83 541.157   1
  -7   2   5 1883.07 473.524   1
   7  -5  -5 2065.33 521.522   1
   2  -7   5 1159.88 489.576   2
   7  -2  -5 1749.71 522.099   1
   5   2   5 2220.89 477.440   1
  -7   5   5 2161.39 608.471   1
  -5  -2  -4 169482. 5404.47   1
   2  -7   4 201067. 6050.12   1
   5  -7   4 216143. 6444.39   1
  -2   7  -4 213958. 6229.41   1
   2  -7   4 225272. 6599.96   2
   5   2   4 231593. 6136.78   1
   5  -7   4 214536. 6459.72   2
   7  -5  -4 191457. 6255.48   1
  -7   5   4 189632. 6328.15   1
  -5   7  -4 196368. 6267.99   1
   7  -2  -4 205925. 6537.80   1
  -7   2   4 204016. 6413.87   1
  -5  -2  -3 2835.76 531.575   1
  -2   7  -3 3243.36 677.678   1
   2  -7   3 2685.21 570.156   2
  -5   7  -3 2416.50 566.072   1
  -7   2   3 3399.40 770.501   1
   2  -7   3 2606.92 546.728   1
   5  -7   3 2667.63 603.883   1
   7  -2  -3 3917.21 784.052   1
  -7   5   3 3624.25 790.396   1
  -2  -5  -3 3552.75 702.808   2
   5   2   3 3280.97 608.070   1
   7  -5  -3 2739.83 617.255   1
   5  -7   3 3928.83 734.515   2
   2  -7   2 5769.50 792.034   1
  -7   2   2 6074.64 936.689   1
  -2   7  -2 6277.67 834.555   1
  -5  -2  -2 4507.89 713.158   1
  -5   7  -2 5783.78 891.555   1
  -7   5   2 5666.01 945.671   1
   5  -7   2 5616.11 841.108   1
   7  -5  -2 5500.46 915.932   1
  -2  -5  -2 6364.92 885.944   2
   5   2   2 5052.69 772.957   1
   7  -2  -2 6008.09 925.285   1
   2  -7   2 4835.53 845.838   2
   5  -7   2 7003.01 928.031   2
   2  -7   1 4657.32 669.124   1
  -7   5   1 4581.42 835.761   1
  -2  -5  -1 4657.46 846.128   2
  -5   7  -1 4992.31 787.645   1
   5  -7   1 5224.71 791.145   1
   2  -7   1 3944.18 747.441   2
   7  -2  -1 5215.62 876.547   1
  -5  -2  -1 4899.40 728.822   1
   7  -5  -1 4696.92 816.144   1
  -7   2   1 3693.30 660.655   1
  -2   7  -1 4448.83 653.216   1
   5   2   1 4477.58 696.394   1
   5  -7   1 5074.49 783.558   2
  -7   5   0 319125. 8768.17   1
   2  -7   0 354000. 8576.34   2
  -7   2   0 349684. 8933.77   1
   7  -5   0 344022. 9032.28   1
   7  -2   0 327425. 8925.38   1
  -2  -5   0 338490. 8718.46   2
   5  -7   0 327246. 8549.05   2
   5   2   0 375764. 8739.82   1
  -5  -2   0 326202. 8273.73   1
   2   5  -1-76.3313 90.3270   1
  -7   2  -1 47.1939 204.176   1
   5  -7  -1 134.543 273.901   1
  -5   7   1 34.7677 180.853   1
  -5  -2   1 36.7813 302.177   1
   7  -5   1-9.71472 272.649   1
  -2  -5   1 45.9101 203.304   2
  -7   5  -1 79.8589 307.107   1
   2  -7  -1 267.453 148.547   2
  -2  -5   1 183.643 170.139   1
   5   2  -1-165.093 291.286   1
   7  -2   1-108.186 245.598   1
   5  -7  -1 0.54662 210.389   2
  -7   5  -2 345.339 297.824   1
  -7   2  -2-131.131 184.078   1
   2   5  -2-173.256 179.415   1
  -5  -2   2-544.959 314.579   2
  -2  -5   2-277.329 271.095   2
   5  -7  -2 775.225 290.666   1
   7  -5   2-8.77689 174.806   1
  -2  -5   2 218.518 175.561   1
   2  -7  -2 23.2494 170.857   2
   7  -2   2 533.558 366.051   1
  -5   7   2-154.844 177.803   1
  -5  -2   2 148.900 137.894   1
   5   2  -2-330.588 201.303   1
   5  -7  -2-129.724 214.124   2
  -5  -2   3 4715.04 797.301   1
   2   5  -3 4237.80 664.944   1
   5  -7  -3 4629.13 736.108   1
   7  -5   3 3464.85 673.499   1
  -5  -2   3 2873.06 735.200   2
   7  -2   3 4589.20 854.354   1
   2  -7  -3 4456.09 605.326   2
  -7   5  -3 4355.98 825.133   1
  -5   7   3 4624.54 744.069   1
  -7   2  -3 5110.59 885.664   1
  -2  -5   3 4249.36 779.640   2
   5  -7  -3 4586.64 686.890   2
   5   2  -3 3797.45 729.769   1
  -5  -2   4 396710. 10592.6   2
  -5   7   4 437054. 9846.66   1
   7  -5   4 407143. 10306.8   1
   7  -2   4 384813. 10117.6   1
  -5  -2   4 431140. 10147.5   1
   5   2  -4 383845. 10121.8   1
  -2  -5   4 406024. 10343.8   2
  -7   2  -4 379170. 10025.7   1
   2   5  -4 393783. 9732.66   1
  -7   5  -4 383670. 9986.41   1
  -2  -5   4 438848. 10038.7   1
  -5  -2   5 10275.0 1361.88   2
  -5   7   5 11579.4 1202.89   1
   7  -5   5 13580.0 1500.22   1
   7  -2   5 12389.1 1369.81   1
   5  -7  -5 13311.9 1245.79   1
  -5  -2   5 11807.1 1338.91   1
  -2  -5   5 12019.8 1427.61   2
   5   2  -5 11690.4 1354.23   1
  -7   5  -5 13106.6 1377.56   1
   7  -5   5 12539.0 1377.51   2
   2   5  -5 12366.2 1276.02   1
  -7   2  -5 12464.6 1388.07   1
  -2  -5   5 11684.6 1283.87   1
  -2  -5   6 11034.4 1277.69   1
   7  -5   6 12103.2 1444.80   1
  -5   7   6 10754.0 1214.83   1
   7  -2   6 10280.1 1267.54   1
   2   5  -6 10880.2 1240.93   1
   5  -7  -6 10393.0 1154.02   1
  -2  -5   6 10436.0 1331.67   2
  -5  -2   6 9600.29 1234.84   1
   7  -5   6 13489.3 1489.41   2
   5   2  -6 10926.0 1362.31   1
  -7   5  -6 9708.91 1273.19   1
  -5  -2   6 9854.39 1358.79   2
  -7   2  -6 9323.53 1236.71   1
  -5  -2   7 896.182 437.457   1
   5   2  -7 836.011 284.622   1
   2   5  -7 1331.15 523.411   1
  -7   5  -7 231.086 211.485   1
  -7   2  -7 854.922 434.891   1
  -2  -5   7 795.913 423.171   2
   7  -5   7 335.725 360.066   1
  -2  -5   7 1322.53 528.110   1
   7  -2   7 358.887 259.982   1
  -5   7   7 739.341 283.554   1
  -5  -2   7 398.907 386.235   2
   5  -7  -7 747.596 289.345   1
   7  -5   7 1435.78 556.084   2
  -2  -5   8 296748. 8690.03   1
  -5  -2   8 302627. 8889.39   1
   7  -5   8 285442. 8631.80   1
   7  -2   8 279356. 8490.57   1
  -7   5  -8 300235. 8591.33   1
  -5   7   8 355685. 8646.84   1
   5  -7  -8 265867. 7802.68   1
  -5  -2   8 268749. 8604.89   2
  -2  -5   8 279104. 8637.24   2
  -7   2  -8 362246. 9161.68   1
   5   2  -8 273687. 8486.76   1
   7  -5   8 307338. 8687.16   2
   2   5  -8 280579. 8453.86   1
   5   2  -9 3553.66 856.145   1
  -2  -5   9 3417.48 788.750   1
  -7   5  -9 3038.53 771.868   1
  -7   2  -9 3735.39 823.007   1
   2   5  -9 4108.36 891.202   1
   7  -5   9 3112.91 795.371   1
   7  -2   9 4156.14 852.336   1
  -5  -2   9 4137.28 936.270   1
  -5  -2   9 3141.20 828.647   2
  -2  -5   9 4228.86 888.198   2
   7  -5   9 5128.17 968.965   2
  -2  -5  10 20653.9 2011.07   1
  -5  -2  10 17975.9 1995.64   1
   7  -5  10 19800.1 1994.84   1
  -2  -5  10 21332.9 1969.69   2
   7  -2  10 20726.4 2003.50   1
  -7   2 -10 20838.0 1971.15   1
  -5  -2  10 17525.4 1888.16   2
  -7   5 -10 22297.1 1998.39   1
   5   2 -10 21460.1 2029.17   1
   7  -5  10 21346.7 1974.87   2
   7  -2  10 15300.7 1776.21   2
   2   5 -10 19771.9 1981.95   1
  -7   5 -11 647.870 549.644   1
  -7   2 -11 225.830 146.683   1
   5   2 -11 383.283 428.770   1
  -2  -5  11 846.545 533.713   1
   2   5 -11-87.5405 180.548   1
  -5  -2  11 261.620 307.733   2
   7  -5  11 19.2490 297.038   1
   7  -2  11-96.1143 319.650   1
  -2  -5  11 850.256 487.320   2
  -5  -2  11 646.519 551.465   1
   7  -5  11 1355.39 553.431   2
   7  -2  11 288.580 175.775   2
  -2  -5  12 56131.7 3679.13   1
   7  -5  12 64420.7 3905.43   1
   7  -2  12 67882.1 3890.64   1
  -5  -2  12 49880.9 3459.10   1
   7  -5  12 75371.2 3904.45   2
  -7   5 -12 61881.4 3615.69   1
  -7   2 -12 56775.7 3448.52   1
  -5  -2  12 62858.7 3796.38   2
  -2  -5  12 57970.8 3616.37   2
   5   2 -12 71579.2 3902.38   1
   7  -2  12 58923.7 3615.81   2
   2   5 -12 61585.2 3686.69   1
  -5  -2  13 47.6431 428.286   1
  -2  -5  13-112.360 338.140   1
   5   2 -13-387.334 457.873   1
  -5  -2  13 404.664 502.677   2
   2   5 -13 732.211 491.357   1
   7  -5  13 168.616 274.517   1
   7  -2  13 453.310 357.399   1
  -2  -5  13 666.182 458.195   2
   7  -5  13 232.726 327.465   2
  -7   2 -13 371.884 200.151   1
   7  -2  13 434.985 408.785   2
  -7   5 -13 133.881 263.412   1
  -2  -5  14 930.522 411.184   1
  -5  -2  14 1372.26 488.047   2
   5   2 -14 1383.46 512.948   1
  -5  -2  14 923.617 445.933   1
   2   5 -14 1591.38 649.068   1
   7  -5  14 1563.68 578.557   1
   7  -2  14 246.323 305.472   1
  -2  -5  14 679.283 367.718   2
  -7   5 -14 1818.41 616.324   1
  -7   2 -14 937.337 450.235   1
   7  -5  14 2441.43 779.857   2
   7  -2  14 1495.55 619.009   2
  -2  -5  15 1529.51 703.783   1
   5   2 -15 404.543 203.629   1
  -7   5 -15 718.102 390.644   1
   2   5 -15 915.660 408.918   1
  -5  -2  15 296.172 399.079   1
   7  -5  15 662.149 468.177   1
   7  -2  15 434.333 360.786   1
  -5  -2  15 925.475 517.226   2
  -2  -5  15 758.335 565.732   2
  -7   2 -15 454.758 338.664   1
   7  -5  15 123.933 244.340   2
   7  -2  15 23.3447 271.780   2
  -2  -5  16 93649.8 5111.99   1
   7  -2  16 94769.4 4981.37   1
   7  -5  16 109974. 5386.35   1
  -7   2 -16 88886.6 4642.88   1
  -7   5 -16 107979. 5231.00   1
  -5  -2  16 106664. 5448.83   1
   7  -2  16 76986.6 4725.70   2
   5   2 -16 113240. 5400.77   1
  -5  -2  16 104364. 5439.63   2
   7  -5  16 96961.8 5173.40   2
   2   5 -16 102831. 5143.32   1
  -2  -5  16 99200.6 5193.19   2
  -2  -5  17 1956.04 714.387   1
  -5  -2  17 2671.89 930.980   1
   5   2 -17 1827.88 664.698   1
   2   5 -17 1835.33 581.426   1
   7  -2  17 2171.86 764.245   1
   7  -5  17 2621.34 770.740   1
  -5  -2  17 2100.41 800.323   2
  -2  -5  17 1951.41 598.845   2
  -7   5 -17 1649.64 689.369   1
   7  -5  17 1144.90 467.718   2
   7  -5  18 634.147 615.426   1
   7  -5  18 84.2805 287.184   2
  -7   5 -18-609.816 561.546   1
  -5  -2  18 634.134 488.059   2
  -2  -5  18 116.243 299.056   2
   7  -1 -17 2423.28 736.848   1
   1  -7  17 3219.66 835.203   1
   6  -7  17 3710.99 989.042   1
  -1   7 -17 3577.94 871.297   1
  -6   7 -17 3551.22 950.682   1
  -7   1  17 4649.98 1098.20   1
   1  -7  17 2712.01 783.938   2
   6  -7  17 2348.98 842.474   2
   7  -1 -16 8990.56 1380.55   1
   1  -7  16 10551.2 1622.62   1
  -1   7 -16 11591.0 1631.99   1
   6  -7  16 12674.6 1784.44   1
  -6   7 -16 10517.0 1600.85   1
  -7   1  16 11737.3 1725.63   1
   6  -7  16 11113.5 1652.14   2
   1  -7  16 9187.20 1487.58   2
  -7   6  16 8506.58 1583.30   1
   7  -1 -15 6092.73 1179.18   1
   1  -7  15 5066.36 1081.68   1
   6  -7  15 6073.77 1188.94   1
  -1   7 -15 6557.23 1224.41   1
  -7   1  15 3591.16 897.952   1
  -6   7 -15 5402.48 1115.31   1
   6  -7  15 3816.82 1015.59   2
   1  -7  15 5757.02 1115.43   2
  -7   6  15 3474.49 1008.74   1
   7  -6 -15 5118.54 1140.43   1
  -7   6  14 37933.7 3027.56   1
   1  -7  14 33265.1 2765.62   1
  -1   7 -14 31669.4 2623.42   1
  -7   1  14 34044.0 3054.27   2
   6  -7  14 36202.3 2945.81   1
   7  -6 -14 35665.3 2931.74   1
  -6   7 -14 33423.0 2754.09   1
   1  -7  14 31226.7 2672.90   2
  -7   1  14 38509.1 2954.10   1
   7  -1 -14 32117.8 2691.58   1
   6  -7  14 29436.7 2801.16   2
  -7   6  13 14939.1 1926.85   1
  -7   1  13 11492.7 1723.21   2
  -1   7 -13 12399.4 1650.68   1
   6  -7  13 14652.8 1777.04   1
   1  -7  13 10240.9 1523.06   1
  -6   7 -13 12883.2 1651.94   1
  -7   1  13 13628.9 1701.73   1
   7  -6 -13 16659.6 1912.92   1
   1  -7  13 12279.6 1635.22   2
   7  -1 -13 15934.6 1851.21   1
   6  -7  13 11145.0 1549.07   2
   7  -1 -12 10339.8 1434.55   1
  -1   7 -12 9249.32 1414.70   1
   1  -7  12 7303.09 1262.05   1
  -7   1  12 7929.13 1398.36   2
   6  -7  12 7835.42 1362.41   1
  -7   1  12 7974.44 1274.64   1
  -7   6  12 7359.30 1298.92   1
  -6   7 -12 9023.25 1282.96   1
   7  -6 -12 8307.81 1274.40   1
   1  -7  12 10544.4 1456.38   2
   6  -7  12 8918.52 1392.04   2
   1  -7  11 23889.2 2302.61   1
  -1   7 -11 25051.9 2285.81   1
   6  -7  11 25788.0 2315.96   1
   6  -7  11 23029.1 2139.73   2
  -6   7 -11 23573.5 2156.91   1
  -7   1  11 19049.9 1988.75   1
   7  -6 -11 25450.3 2229.23   1
   1  -7  11 27196.5 2326.82   2
   7  -1 -11 23742.9 2206.69   1
  -7   6  11 20241.5 2147.65   1
   1  -7  10 93713.5 4545.37   1
  -1   7 -10 94190.2 4454.61   1
   6  -7  10 84139.3 4356.70   1
   7  -1 -10 88137.9 4354.57   1
  -7   1  10 91589.1 4362.25   1
  -6   7 -10 87260.2 4300.34   1
   1  -7  10 91212.9 4410.17   2
   7  -6 -10 83725.3 4188.11   1
   6  -7  10 94614.1 4321.77   2
  -7   6  10 90950.1 4495.40   1
   1  -7   9 48239.7 3083.32   1
  -1   7  -9 48477.6 3066.63   1
   6  -7   9 45127.4 3060.97   1
  -7   1   9 48288.6 3015.24   1
   1  -7   9 50549.7 3160.59   2
  -6   7  -9 48056.3 3052.23   1
   7  -6  -9 53297.9 3159.04   1
   7  -1  -9 50275.2 3178.32   1
  -7   6   9 45141.1 3013.03   1
   6  -7   9 48445.6 2959.53   2
  -6   7  -8 830.767 434.002   1
  -7   1   8 224.468 195.203   1
   1  -7   8 270.830 352.935   1
  -7   6   8 170.333 225.966   1
   6  -7   8-152.170 353.209   1
   6   1   8 714.943 360.325   1
  -1   7  -8 738.353 394.170   1
   1  -7   8 888.887 482.641   2
   7  -6  -8 975.767 424.964   1
   6  -7   8 864.040 412.434   2
   7  -1  -8 374.632 356.311   1
   1  -7   7 189364. 6178.64   1
  -1   7  -7 146091. 5402.66   1
  -7   1   7 147852. 5611.08   1
   6  -7   7 154890. 5770.51   1
   6   1   7 151921. 5254.94   1
  -7   6   7 173758. 6019.44   1
  -6   7  -7 134331. 5408.35   1
   1  -7   7 158527. 5837.82   2
   7  -1  -7 166097. 6030.69   1
  -6  -1  -7 150416. 5051.95   1
   6  -7   7 147621. 5488.32   2
   7  -6  -7 150313. 5567.52   1
   1  -7   6 199929. 6377.53   1
  -7   1   6 191946. 6472.29   1
  -1   7  -6 175794. 6006.44   1
   6  -7   6 166528. 6141.67   1
   6   1   6 210718. 6246.58   1
   7  -6  -6 182113. 6188.23   1
  -6   7  -6 199398. 6471.66   1
   1  -7   6 209998. 6652.57   2
   7  -1  -6 200437. 6886.04   1
   6  -7   6 164577. 5944.42   2
  -6  -1  -6 191264. 5825.47   1
  -7   6   6 194262. 6429.36   1
  -7   1   5 83651.5 3963.92   1
   1  -7   5 97571.5 4035.05   1
  -1   7  -5 94169.0 3904.30   1
   6  -7   5 95460.3 4122.79   1
   6   1   5 94142.8 3911.58   1
  -7   6   5 92085.5 4115.82   1
   7  -6  -5 84422.1 3865.97   1
   7  -1  -5 100131. 4321.68   1
  -6   7  -5 88095.0 3993.63   1
   1  -7   5 76215.3 3795.02   2
   6  -7   5 71054.2 3575.53   2
  -6  -1  -5 85160.7 3581.47   1
   1  -7   4 73139.1 3317.08   1
  -6  -1  -4 81250.1 3439.35   1
  -1   7  -4 74348.6 3271.77   1
   6  -7   4 63883.9 3306.85   1
   6  -7   4 52446.4 2979.05   2
   6   1   4 65956.0 3204.07   1
  -7   6   4 69040.8 3426.92   1
   7  -6  -4 56272.4 3150.90   1
   7  -1  -4 69588.6 3545.28   1
   1  -7   4 52518.4 3077.60   2
  -1  -6  -4 73643.2 3232.37   2
  -6   7  -4 71462.3 3451.65   1
  -7   1   4 63159.7 3300.23   1
  -6  -1  -3 1846.75 504.910   1
   1  -7   3 2383.01 538.806   1
  -7   6   3 1777.42 514.541   1
  -1  -6  -3 2223.90 574.669   2
  -6   7  -3 1400.01 471.916   1
  -7   1   3 2233.38 586.763   1
   6  -7   3 1866.99 564.053   1
  -1   7  -3 1622.55 392.264   1
   7  -6  -3 1877.10 541.448   1
   6   1   3 2328.51 517.788   1
   1  -7   3 1478.36 454.102   2
   7  -1  -3 2094.91 617.734   1
   6  -7   3 2170.64 633.154   2
   1  -7   2 196208. 5780.83   1
  -1   7  -2 251200. 6096.42   1
   7  -1  -2 225165. 6808.19   1
  -7   6   2 238026. 6888.43   1
  -6  -1  -2 208500. 6312.65   1
   6  -7   2 252463. 7056.79   1
   7  -6  -2 211031. 6611.41   1
   6   1   2 210448. 6406.30   1
  -1  -6  -2 221724. 6439.27   2
   1  -7   2 164169. 6003.97   2
  -7   1   2 212897. 6542.41   1
  -6   7  -2 216607. 6638.53   1
   6  -7   2 217936. 6544.37   2
  -7   6   1-270.622 285.925   1
  -1  -6  -1 384.609 258.725   2
  -6  -1  -1 545.151 369.463   1
  -6   7  -1 445.243 302.183   1
   6  -7   1 478.015 284.845   1
   7  -6  -1 439.308 171.225   1
   6   1   1 566.777 288.197   1
   1  -7   1 422.107 286.034   2
   7  -1  -1 418.654 324.357   1
  -7   1   1 361.276 395.010   1
   6  -7   1 612.113 335.894   2
  -7   6   0 31412.5 2223.97   1
   1  -7   0 31052.0 2091.90   2
   6  -7   0 36295.8 2285.96   1
   7  -6   0 33454.5 2265.77   1
  -7   1   0 30560.8 2188.13   1
   7  -1   0 29471.2 2155.77   1
   6   1   0 31939.2 2126.48   1
  -6  -1   0 36066.0 2226.30   1
  -1  -6   0 33472.2 2199.85   2
   6  -7   0 25650.4 1911.72   2
  -6   7   0 32332.4 2131.23   1
  -6   7   1 131995. 5063.10   1
  -7   6  -1 157283. 5521.56   1
   6   1  -1 150594. 5293.92   1
  -7   1  -1 148050. 5278.18   1
   6  -7  -1 178057. 5541.47   1
   7  -6   1 174729. 5755.34   1
   7  -1   1 157058. 5506.23   1
  -1  -6   1 153559. 5349.95   2
   1  -7  -1 157148. 5182.62   2
  -6  -1   1 179129. 5534.00   1
   6  -7  -1 180732. 5602.54   2
   7  -6   1 181811. 6050.90   2
  -6   7   2 117702. 4422.23   1
  -7   1  -2 100495. 4143.09   1
   7  -6   2 101289. 4303.13   1
   6  -7  -2 100728. 4083.89   1
   7  -1   2 108942. 4352.53   1
   6   1  -2 126319. 4626.92   1
  -1  -6   2 107100. 4411.68   2
  -6  -1   2 106563. 4213.89   1
   6  -7  -2 110818. 4235.86   2
   1   6  -2 103438. 3640.08   1
   7  -6   2 123460. 4712.25   2
   1  -7  -2 111901. 4000.01   2
  -7   6  -2 102274. 4237.43   1
  -1  -6   3 181666. 5495.28   1
  -6  -1   3 160639. 5698.55   1
  -1  -6   3 181663. 6039.77   2
  -7   1  -3 221090. 6378.36   1
  -6   7   3 177769. 5719.88   1
   1  -7  -3 187211. 5302.90   2
   7  -6   3 161654. 5799.83   1
   6  -7  -3 185822. 5710.04   1
   7  -1   3 182311. 5936.13   1
   6   1  -3 187107. 6143.35   1
   6  -7  -3 147014. 5326.58   2
   7  -6   3 182301. 6008.26   2
  -7   6  -3 177009. 5847.78   1
   1   6  -3 179990. 5408.42   1
  -1  -6   4 6910.71 986.405   1
  -7   1  -4 6908.64 1041.50   1
  -6   7   4 6488.84 965.867   1
  -6  -1   4 7391.12 1098.55   1
   6  -7  -4 7427.46 990.083   1
  -7   6  -4 6893.85 979.536   1
   7  -6   4 6639.51 1054.09   1
   7  -1   4 7008.72 1077.64   1
  -6  -1   4 6767.18 1133.31   2
  -1  -6   4 6477.50 1065.71   2
   6   1  -4 7745.82 1187.97   1
   6  -7  -4 4535.85 826.632   2
   1   6  -4 8008.44 1053.78   1
   7  -6   4 5227.83 810.964   2
  -1  -6   5 72338.4 3422.63   1
  -6  -1   5 80027.3 3715.42   1
   7  -6   5 71554.3 3672.09   1
  -6   7   5 65663.6 3282.62   1
   7  -1   5 73822.0 3623.36   1
   6  -7  -5 87091.9 3632.49   1
  -7   6  -5 73256.4 3550.88   1
  -6  -1   5 74009.6 3889.75   2
  -1  -6   5 72027.3 3685.42   2
   6   1  -5 68780.7 3613.49   1
   7  -6   5 71684.4 3508.24   2
  -7   1  -5 75973.2 3577.65   1
   1   6  -5 68864.7 3363.41   1
  -1  -6   6 257539. 7637.47   1
  -1  -6   6 241763. 7706.14   2
   7  -6   6 275591. 8004.44   1
   7  -6   6 281332. 7948.07   2
   7  -1   6 250407. 7644.23   1
  -6  -1   6 271845. 8393.22   2
  -6  -1   6 260646. 7710.36   1
  -6   7   6 273934. 7700.53   1
   6  -7  -6 245442. 7347.96   1
   6   1  -6 285547. 8196.70   1
  -7   6  -6 246199. 7612.73   1
  -7   1  -6 247420. 7506.72   1
   1   6  -6 246921. 7448.17   1
   1   6  -7 51604.5 3019.07   1
  -1  -6   7 53912.8 3125.87   1
   7  -6   7 50805.2 3130.54   1
   7  -1   7 59606.1 3306.53   1
  -6   7   7 54896.8 3104.77   1
  -6  -1   7 53150.1 3106.30   1
   6  -7  -7 46778.9 2777.39   1
  -6  -1   7 48320.0 3089.54   2
  -1  -6   7 49085.0 3113.63   2
   6   1  -7 49918.8 3082.98   1
  -7   1  -7 50343.3 2972.50   1
  -7   6  -7 49800.2 3008.52   1
   7  -6   7 47289.5 2835.94   2
   1   6  -8 72183.5 3674.89   1
  -1  -6   8 66331.0 3629.20   1
   7  -6   8 67919.0 3627.56   1
   7  -1   8 70529.0 3619.61   1
  -7   6  -8 63008.8 3443.88   1
   6  -7  -8 63298.7 3354.55   1
  -6   7   8 60379.7 3303.53   1
  -6  -1   8 61401.2 3589.21   2
  -1  -6   8 67165.4 3670.13   2
  -7   1  -8 73248.4 3613.78   1
   6   1  -8 69254.1 3721.66   1
   7  -6   8 63067.5 3387.03   2
  -6  -1   8 58932.4 3399.57   1
   1   6  -9 22182.5 2000.87   1
  -1  -6   9 20906.2 2050.02   1
   7  -6   9 21185.2 2061.98   1
   7  -1   9 20591.2 1951.91   1
   6  -7  -9 18427.7 1786.30   1
  -6  -1   9 20350.4 2045.65   2
  -7   6  -9 20126.4 1911.79   1
  -6   7   9 22997.6 2019.54   1
  -1  -6   9 19502.5 1962.11   2
  -7   1  -9 19289.0 1816.73   1
  -6  -1   9 19324.1 1916.19   1
   6   1  -9 20528.7 2022.48   1
   7  -6   9 19400.0 1799.44   2
   1   6 -10 73185.8 3948.43   1
  -1  -6  10 77211.1 4102.06   1
  -7   1 -10 77977.7 3829.16   1
   7  -6  10 70923.5 4001.14   1
   7  -1  10 64764.3 3648.09   1
  -7   6 -10 72695.9 3923.92   1
  -6  -1  10 61932.5 3862.05   2
  -6   7  10 89211.8 4234.32   1
   6   1 -10 78569.3 4094.78   1
  -6  -1  10 74663.1 3989.76   1
   7  -6  10 70197.3 3705.69   2
   6  -7 -10 79968.6 3995.22   1
  -1  -6  10 75521.9 4028.52   2
  -6  -1  11 6231.82 1157.41   1
   6   1 -11 5500.20 1075.10   1
  -7   1 -11 5302.97 977.028   1
  -1  -6  11 6466.43 1176.33   1
   7  -6  11 4912.56 1003.98   2
  -6   7  11 6369.27 1115.60   1
   1   6 -11 6318.86 1061.57   1
   7  -6  11 6067.89 1124.45   1
   7  -1  11 5077.83 967.868   1
  -6  -1  11 5543.19 1109.17   2
  -1  -6  11 5402.02 1136.19   2
   7  -1  11 2423.19 856.157   2
  -7   6 -11 5081.71 1027.96   1
   1   6 -12 10951.8 1522.12   1
  -1  -6  12 14109.4 1719.26   1
  -6  -1  12 9349.59 1413.11   1
   7  -6  12 12213.3 1663.91   1
   7  -1  12 10933.1 1502.14   1
  -7   6 -12 10365.1 1465.41   1
  -7   1 -12 10290.9 1367.07   1
  -6  -1  12 12530.0 1707.38   2
   6   1 -12 12162.0 1576.58   1
   7  -6  12 13830.8 1611.56   2
   7  -1  12 8073.64 1391.27   2
  -1  -6  12 11070.9 1537.44   2
  -1  -6  13 6786.74 1288.94   1
   7  -6  13 10041.7 1522.04   1
   1   6 -13 7679.73 1312.81   1
   7  -1  13 7753.54 1241.45   1
  -1  -6  13 8122.34 1261.00   2
  -7   1 -13 9441.42 1336.80   1
   6   1 -13 9132.89 1459.33   1
  -6  -1  13 7610.72 1336.20   2
   7  -6  13 10445.1 1483.02   2
  -7   6 -13 9134.74 1379.89   1
  -6  -1  13 9331.08 1456.18   1
   7  -1  13 2375.41 839.676   2
  -1  -6  14 35966.8 3015.71   1
   7  -6  14 46844.7 3347.77   1
   7  -1  14 44767.4 3101.38   1
  -7   6 -14 47515.0 3202.58   1
  -1  -6  14 41802.2 3140.04   2
  -6  -1  14 42584.7 3353.95   2
   6   1 -14 43413.5 3170.25   1
   7  -6  14 43297.5 3252.82   2
  -6  -1  14 50185.1 3407.91   1
   1   6 -14 44506.1 3258.48   1
  -6  -1  15 27520.1 2607.38   1
  -1  -6  15 20864.1 2308.32   1
   7  -6  15 25190.1 2498.78   1
  -7   6 -15 26328.4 2432.63   1
  -6  -1  15 22454.9 2435.34   2
  -1  -6  15 20902.0 2297.67   2
   6   1 -15 22856.4 2304.85   1
   7  -6  15 21589.1 2277.24   2
   1   6 -15 22699.8 2340.45   1
   6   1 -16 511.843 590.317   1
  -1  -6  16 241.846 372.299   1
   1   6 -16 1043.53 532.341   1
   7  -6  16 1585.42 748.789   1
  -6  -1  16 758.332 433.088   1
  -1  -6  16 36.5200 235.916   2
  -7   6 -16 413.693 269.045   1
   7  -6  16 417.653 524.341   2
  -6  -1  16 1000.29 572.318   2
  -1  -6  17 24159.5 2534.94   1
  -6  -1  17 31781.0 2862.04   1
   7  -6  17 23698.6 2455.16   1
  -7   6 -17 24173.1 2464.01   1
  -1  -6  17 26033.2 2543.98   2
   7  -6  17 22936.7 2590.38   2
   6   1 -17 26372.1 2512.77   1
  -6  -1  17 18624.8 2355.26   2
   1   6 -17 25918.1 2544.24   1
   7  -7   0 72.5319 199.571   1
  -7   0   0 122.001 303.885   1
   0  -7   0-85.2907 268.624   2
  -7   7   0 21.9877 301.697   1
   7   0   0 196.565 264.160   1
   7  -7   0 329.978 218.334   2
  -7   0  -1 1804.89 529.006   1
  -7   7  -1 453.618 267.265   1
   0  -7  -1 1007.77 365.554   2
   7   0   1 1194.48 430.968   1
   0  -7   1 1887.63 588.641   2
   7   0  -1 1427.88 479.041   1
  -7   7   1 1025.51 425.711   1
  -7   0   1 1174.39 501.621   1
   7  -7   1 1156.35 499.684   1
   7  -7  -1 1724.15 433.792   1
   7  -7   1 1609.19 483.171   2
   7  -7  -1 1954.54 574.822   2
  -7   7   2 115124. 4626.80   1
  -7   0  -2 125573. 4633.33   1
   7  -7  -2 128240. 5014.48   2
   7  -7   2 112834. 4571.90   1
   7  -7  -2 143221. 4954.52   1
  -7   0   2 104394. 4397.89   1
   7   0   2 100412. 4321.04   1
   0  -7  -2 109884. 4252.25   2
   0  -7   2 119305. 4722.57   2
   7   0  -2 95739.3 4300.93   1
  -7   7  -2 111092. 4458.94   1
   7  -7   2 119260. 4694.41   2
  -7   0  -3 180756. 5857.51   1
  -7   7   3 174194. 5893.18   1
   7  -7   3 164709. 5903.15   1
   7   0   3 165430. 5786.95   1
   7  -7  -3 155839. 5584.05   1
   7   0  -3 182018. 6163.62   1
  -7   0   3 170710. 5819.89   1
  -7   7  -3 154144. 5669.83   1
   7  -7   3 197970. 6192.01   2
   7  -7  -3 152314. 6176.71   2
   0  -7   3 205836. 6375.08   2
  -7   0  -4 77237.8 3547.42   1
  -7   7   4 60457.1 3215.98   1
   7  -7   4 64101.2 3413.97   1
   7   0   4 62694.4 3292.84   1
   0   7  -4 77562.0 3313.30   1
   0  -7   4 65685.5 3480.51   2
   7  -7  -4 74676.5 3528.32   1
   7   0  -4 67855.5 3490.16   1
  -7   7  -4 64696.3 3369.68   1
   7  -7   4 48105.2 2901.42   2
   7  -7  -4 35243.0 2729.18   2
  -7   0   4 57170.0 3228.98   1
   0  -7   5 99355.6 4153.46   1
   0   7  -5 87712.8 3837.64   1
  -7   0   5 82202.4 4020.67   1
   7  -7   5 85241.3 4132.38   1
  -7   7   5 91175.1 4190.20   1
   7   0   5 109791. 4475.56   1
   7  -7  -5 106574. 4370.29   1
   7   0  -5 104317. 4723.38   1
   0  -7   5 84421.8 4154.22   2
  -7   7  -5 95728.3 4244.57   1
   7  -7   5 83086.5 3854.70   2
  -7   0  -5 106734. 4292.68   1
   0  -7   6 184256. 6095.55   1
   0   7  -6 151722. 5562.06   1
  -7   0   6 160561. 6004.14   1
   7  -7   6 169993. 6121.81   1
   7   0   6 180023. 6068.78   1
  -7   7   6 163244. 5937.18   1
   7  -7  -6 155621. 5826.99   1
   0  -7   6 164130. 6099.42   2
  -7   7  -6 159800. 5903.72   1
   7   0  -6 176308. 6442.64   1
   7  -7   6 170813. 5861.53   2
  -7   0  -6 172836. 5819.65   1
   0  -7   7 12352.3 1519.81   1
   0   7  -7 14962.3 1571.48   1
  -7   0   7 11879.5 1502.00   1
   7  -7   7 15268.4 1682.43   1
   7   0   7 15279.6 1643.55   1
  -7   7   7 15360.3 1695.79   1
   7  -7  -7 14908.5 1590.54   1
  -7   7  -7 13564.1 1526.68   1
   7   0  -7 14544.2 1647.96   1
   0  -7   7 13743.2 1619.24   2
   7  -7   7 13719.4 1523.38   2
  -7   0  -7 15287.9 1550.89   1
   0  -7   8 11018.3 1430.45   1
   0   7  -8 11907.4 1433.97   1
  -7   7  -8 10781.3 1420.65   1
   7  -7   8 13649.7 1634.77   1
   7   0   8 10291.9 1335.11   1
  -7   0   8 16205.3 1664.82   1
   7  -7  -8 16613.8 1712.77   1
   0  -7   8 10466.7 1482.24   2
  -7   0  -8 10857.5 1340.12   1
   7  -7   8 10673.3 1352.45   2
   7   0  -8 12206.4 1626.59   1
  -7   7   8 11390.5 1460.29   1
   0  -7   9 39524.5 2836.97   1
   0   7  -9 42564.9 2887.44   1
   7  -7   9 44657.0 3063.89   1
   7   0   9 37873.5 2661.04   1
  -7   0   9 46153.9 3028.92   1
  -7   7  -9 43833.4 2975.50   1
   7  -7  -9 42540.2 2825.35   1
  -7   7   9 41789.6 2955.78   1
   0  -7   9 42455.2 2902.89   2
  -7   0  -9 43664.1 2683.85   1
   7   0  -9 49475.8 3145.51   1
  -7   0   9 36417.9 2881.78   2
   7  -7   9 36469.3 2672.39   2
   0  -7  10 67385.2 3867.90   1
   0   7 -10 76643.3 4015.49   1
   7  -7  10 78201.9 4165.34   1
   7   0  10 66275.2 3667.78   1
   7  -7 -10 87373.7 4320.08   1
  -7   0  10 69170.6 3883.52   1
   7  -7  10 73370.5 3891.01   2
  -7   0  10 66956.0 4102.51   2
  -7   7 -10 72904.8 3909.34   1
   0  -7  10 74526.3 4028.20   2
  -7   7  10 89598.3 4408.30   1
   7   0 -10 70744.6 4024.79   1
   0  -7  11 11453.1 1576.03   1
   0   7 -11 12744.4 1608.12   1
   7  -7  11 12775.8 1703.20   1
   7   0 -11 12411.8 1595.68   1
  -7   7 -11 14764.6 1619.95   1
  -7   0  11 11416.8 1534.02   1
   7  -7 -11 12363.4 1562.80   1
   0  -7  11 12271.5 1593.58   2
  -7   7  11 14044.8 1699.72   1
  -7   0  11 11763.9 1708.03   2
   7  -7  11 11184.8 1504.95   2
   7   0 -12 5399.93 1007.10   1
   0  -7  12 4912.75 1085.37   1
  -7   7 -12 6116.48 1109.75   1
  -7   7  12 4660.30 1046.51   1
   7  -7  12 4877.79 1006.23   1
   0   7 -12 4889.80 973.080   1
   0  -7  12 5552.48 1160.64   2
  -7   0  12 4945.57 1108.85   2
  -7   0  12 4666.09 1007.56   1
   7  -7 -12 4467.95 1003.21   1
   7  -7  12 4082.78 890.869   2
   7   0  12 1196.64 692.644   2
   7   0 -13 5373.21 1171.81   1
   0  -7  13 5822.38 1186.20   1
   7  -7  13 8497.51 1327.85   1
   0   7 -13 5533.73 1125.95   1
  -7   7  13 5500.64 1212.38   1
  -7   7 -13 5525.80 1039.91   1
  -7   0  13 6996.54 1224.73   1
  -7   0  13 7394.79 1298.63   2
   0  -7  13 6808.54 1254.93   2
   7  -7  13 6394.21 1283.76   2
   0   7 -14 40841.0 3110.40   1
   0  -7  14 39342.7 3120.12   1
   7  -7  14 46463.3 3363.81   1
  -7   7 -14 45280.4 3210.97   1
   0  -7  14 43113.8 3193.93   2
  -7   0  14 39412.7 3312.40   2
  -7   0  14 44060.2 3174.67   1
   7   0 -14 44323.6 3194.73   1
   7  -7  14 47078.1 3393.82   2
   0   7 -15 13908.0 1850.16   1
   0  -7  15 15905.2 1967.63   1
   7  -7  15 18459.9 2121.92   1
  -7   0  15 15794.1 2130.25   2
   7   0 -15 17736.5 2087.67   1
  -7   7 -15 15822.7 1931.75   1
   0  -7  15 18322.7 2094.31   2
  -7   0  15 17305.2 2052.61   1
   7  -7  15 13229.2 1927.94   2
   7   0 -16 6679.29 1226.90   1
   0  -7  16 4231.96 1025.80   1
   7  -7  16 6061.90 1243.40   1
   0   7 -16 4611.97 1082.61   1
  -7   0  16 4888.48 1213.72   2
  -7   0  16 5431.38 1108.83   1
  -7   7 -16 5909.16 1164.01   1
   0  -7  16 4553.22 1055.35   2
   7  -7  16 3437.30 1033.83   2
   0   7 -17 9892.51 1564.01   1
   0  -7  17 9834.73 1546.16   1
  -8   4  17-460.938 498.482   1
   8  -4 -17-12.2603 224.702   1
   4  -8  16 82679.1 4650.55   1
  -4   8 -16 80925.6 4527.22   1
  -8   4  16 90584.4 4808.37   1
   8  -4 -16 69690.8 4254.22   1
   4  -8  16 74979.6 4293.24   2
  -8   4  15-54.4221 372.131   1
   4  -8  15-169.314 242.642   1
  -4   8 -15-266.548 410.487   1
   4  -8  15 77.5925 200.924   2
   8  -4 -15 267.030 246.636   1
  -8   4  14 3210.92 847.625   1
   4  -8  14 2234.95 709.960   1
  -4   8 -14 2756.52 826.842   1
   4  -8  14 3023.62 807.285   2
   8  -4 -14 2061.41 694.527   1
  -8   4  13 878.097 602.667   1
   4  -8  13 116.977 268.642   1
  -4   8 -13 278.776 232.122   1
   4  -8  13 53.9105 253.119   2
   8  -4 -13 323.783 350.740   1
   4  -8  12 109271. 5129.40   1
  -8   4  12 117578. 5366.12   1
  -4   8 -12 113932. 5310.22   1
   8  -4 -12 112236. 5328.07   1
   4  -8  12 104974. 4887.04   2
   4  -8  11 428.349 428.559   1
  -4   8 -11 385.249 286.365   1
   4  -8  11 17.3034 363.241   2
  -8   4  11-22.4708 136.836   1
   8  -4 -11-45.9638 275.699   1
   4  -8  10 668.056 461.603   1
  -4   8 -10-94.2182 239.678   1
  -8   4  10 151.589 287.315   1
   4  -8  10 67.5658 241.375   2
   8  -4 -10 111.014 227.489   1
   4  -8   9 184.703 270.246   1
  -8   4   9-73.2604 368.632   1
  -4   8  -9 245.699 339.685   1
   4  -8   9-208.072 324.588   2
   8  -4  -9 408.631 338.258   1
   4  -8   8 172955. 6269.93   2
  -4   8  -8 189358. 6559.76   1
   8  -4  -8 167450. 6230.39   1
  -8   4   8 178585. 6487.07   1
   4  -8   7 58.3115 217.774   1
  -4   8  -7 100.192 225.878   1
   8  -4  -7-303.318 245.485   1
   4  -8   7-192.918 223.227   2
   4  -8   6 38890.6 2555.24   1
  -4   8  -6 35028.1 2443.48   1
   8  -4  -6 38632.3 2664.01   1
  -8   4   6 33985.2 2531.37   1
   4  -8   6 33617.0 2485.93   2
  -8   4   5 179.982 260.339   1
   4  -8   5-371.784 330.628   1
   8  -4  -5 595.250 444.911   1
  -4   8  -5 572.019 450.194   1
   4  -8   5 570.674 454.458   2
   4  -8   4 193753. 6083.08   1
  -4   8  -4 173823. 6055.97   1
   8  -4  -4 176789. 6109.42   1
   4  -8   4 173341. 6059.01   2
  -8   4   4 183154. 6216.45   1
   4  -8   3 125.598 235.872   1
   8  -4  -3 403.704 303.888   1
  -8   4   3 134.980 211.058   1
   4  -8   3 226.599 384.569   2
  -4   8  -3 213.263 237.866   1
   4  -8   2 63683.5 3085.74   1
  -8   4   2 65442.5 3394.15   1
  -4   8  -2 67239.6 3222.45   1
   8  -4  -2 62273.5 3384.71   1
   4  -8   2 73172.6 3437.72   2
  -4   8  -1-131.709 172.010   1
  -8   4   1-148.935 302.319   1
   4  -8   1 305.087 246.734   1
  -4  -4  -1-170.459 216.600   2
   8  -4  -1 143.424 268.458   1
   4  -8   1 447.056 282.947   2
  -8   4   0 433701. 11076.8   1
   8  -4   0 454359. 11298.9   1
   4  -8   0 476684. 10933.4   2
  -4  -4   0 465801. 11625.5   2
  -8   4  -1 444.942 348.098   1
  -4   8   1 1.57458 186.356   1
  -4  -4   1-65.5794 286.353   2
   4  -8  -1-68.5286 120.321   1
   8  -4   1 273.844 292.120   1
  -4  -4   1 47.5479 190.260   1
   4  -8  -1 138.010 140.019   2
   4   4  -1 0.58259 245.129   1
  -8   4  -2 12828.2 1398.83   1
  -4  -4   2 13962.9 1328.52   1
   8  -4   2 14462.0 1544.86   1
  -4  -4   2 15621.5 1617.66   2
   4   4  -2 14367.0 1399.84   1
   4  -8  -2 12213.3 1188.31   2
   4   4  -3 28.0257 141.337   1
  -4  -4   3 19.3945 231.129   1
   8  -4   3 25.3104 180.520   1
  -8   4  -3 49.1950 181.070   1
  -4  -4   3-624.028 390.070   2
  -8   4  -4 293376. 8117.17   1
   8  -4   4 249874. 7897.42   1
  -4  -4   4 291082. 7859.15   1
  -4  -4   4 274013. 8278.89   2
   4   4  -4 262330. 7749.08   1
  -4  -4   5 334.006 394.945   2
   4   4  -5-294.368 217.188   1
  -4  -4   5 201.965 226.020   1
   8  -4   5 171.957 268.910   1
  -8   4  -5 507.754 387.821   1
   4   4  -6 3512.40 746.970   1
  -4  -4   6 5579.65 1005.33   1
  -8   4  -6 3227.24 713.463   1
   8  -4   6 3716.49 880.979   1
  -4  -4   6 2432.71 693.491   2
   4   4  -7 90.1107 259.969   1
  -8   4  -7 21.1359 230.770   1
   8  -4   7-168.258 325.755   1
  -4  -4   7 264.320 398.254   2
  -4  -4   7-140.023 254.642   1
   8  -4   8 98312.1 4592.55   1
  -4  -4   8 106927. 4838.09   2
  -8   4  -8 97901.0 4487.18   1
   4   4  -8 101510. 4623.46   1
   8  -4   8 106512. 4956.28   2
   4   4  -9-70.9927 363.054   1
  -8   4  -9-21.7697 349.132   1
   8  -4   9-481.455 357.336   1
  -4  -4   9-208.789 431.156   1
  -4  -4   9 168.371 339.712   2
   8  -4   9 271.531 321.845   2
  -4  -4  10 463.958 406.236   1
   4   4 -10 1496.37 613.407   1
  -8   4 -10 1210.46 487.900   1
   8  -4  10 1312.82 588.913   1
  -4  -4  10 1202.51 453.609   2
   8  -4  10 1318.69 485.631   2
  -8   4 -11 181.398 234.252   1
   4   4 -11 921.369 551.740   1
   8  -4  11-434.546 390.793   1
  -4  -4  11-157.298 216.116   2
  -4  -4  11 576.446 648.325   1
   8  -4  11-170.065 218.146   2
   8  -4  12 134494. 5929.29   1
  -8   4 -12 136099. 5821.15   1
  -4  -4  12 131436. 6020.60   1
  -4  -4  12 133782. 5901.13   2
   8  -4  12 149314. 6097.46   2
   4   4 -12 147796. 6095.56   1
   4   4 -13-209.803 302.668   1
   8  -4  13 225.191 418.872   1
  -4  -4  13-733.921 541.862   2
   8  -4  13 359.318 427.991   2
  -8   4 -13 348.656 334.083   1
   4   4 -14-346.998 346.555   1
   8  -4  14 852.554 633.889   1
  -4  -4  14 173.802 412.933   2
  -8   4 -14 306.708 321.320   1
   8  -4  14 270.311 295.464   2
   4   4 -15 190.070 418.306   1
   8  -4  15 817.268 607.563   1
  -4  -4  15-338.785 241.159   2
  -8   4 -15-99.8031 297.187   1
   8  -4  15-141.747 212.781   2
   8  -4  16 78899.4 4575.73   1
  -8   4 -16 63511.8 4052.87   1
  -4  -4  16 82439.9 4861.89   1
  -4  -4  16 79917.9 4626.97   2
   8  -4  16 60147.6 4113.36   2
   4   4 -16 78527.6 4472.77   1
   4   4 -17 206.117 355.894   1
   8  -4  17 116.192 313.663   1
  -4  -4  17-772.104 509.157   2
  -8   4 -17 84.1336 192.739   1
   8  -4  17 1.24511 231.650   2
  -8   5  17 12663.5 1811.68   1
   8  -5 -17 12935.7 1860.02   1
   3  -8  16 26043.4 2541.29   1
   5  -8  16 26077.8 2470.75   1
  -8   5  16 18356.1 2150.49   1
  -3   8 -16 23312.2 2290.99   1
  -5   8 -16 24092.2 2429.61   1
  -8   3  16 22933.4 2389.52   1
   8  -5 -16 27328.9 2713.86   1
   5  -8  16 20876.2 2215.03   2
   8  -3 -16 22883.5 2352.25   1
   3  -8  16 22165.9 2245.36   2
   3  -8  15 30651.0 2802.25   1
  -8   5  15 31290.5 2784.40   1
   5  -8  15 35340.0 2879.07   1
  -3   8 -15 34633.9 2796.37   1
  -5   8 -15 35579.3 2910.75   1
  -8   3  15 34735.6 2917.95   1
   8  -5 -15 28542.0 2726.03   1
   3  -8  15 33036.0 2712.23   2
   8  -3 -15 31806.5 2746.17   1
   5  -8  15 32745.9 2658.37   2
   3  -8  14 38750.6 3107.78   1
  -8   5  14 40315.8 3155.65   1
   5  -8  14 41603.1 3166.10   1
  -3   8 -14 38490.5 3000.36   1
  -8   3  14 41072.1 3089.67   1
  -5   8 -14 42031.9 3181.71   1
   8  -5 -14 41409.7 3187.12   1
   3  -8  14 41237.7 3043.41   2
   8  -3 -14 42183.8 3083.83   1
   5  -8  14 38838.6 2958.52   2
  -8   3  13 2939.40 811.963   1
   3  -8  13 3758.86 941.362   1
   5  -8  13 2543.41 823.235   1
  -3   8 -13 4117.11 984.771   1
  -5   8 -13 2473.22 705.587   1
   3  -8  13 2870.22 787.560   2
  -8   5  13 2253.25 816.801   1
   5  -8  13 2890.94 919.638   2
   8  -5 -13 2260.04 725.785   1
   8  -3 -13 2472.95 705.388   1
  -8   3  12-331.845 508.317   1
   3  -8  12-525.965 535.285   1
   5  -8  12 777.729 477.148   1
  -3   8 -12 700.382 388.778   1
  -5   8 -12 128.788 369.535   1
  -8   5  12 288.564 276.395   1
   3  -8  12 360.517 234.125   2
   5  -8  12-63.1374 347.332   2
   8  -5 -12 305.136 238.630   1
   8  -3 -12 608.348 513.409   1
  -8   3  11 6952.43 1269.49   1
   3  -8  11 7652.01 1283.47   1
   5  -8  11 6030.74 1129.00   1
  -3   8 -11 8206.70 1290.91   1
  -8   5  11 6342.93 1227.44   1
  -5   8 -11 7810.44 1291.02   1
   3  -8  11 6011.93 1124.76   2
   5  -8  11 5759.57 1060.94   2
   8  -5 -11 8081.25 1280.40   1
   8  -3 -11 7762.08 1262.13   1
   3  -8  10 64732.3 3698.24   1
  -8   3  10 74603.7 4018.46   1
   5  -8  10 63171.4 3700.78   1
  -3   8 -10 64775.9 3779.54   1
  -5   8 -10 64510.9 3763.79   1
   8  -5 -10 55142.8 3391.49   1
   3  -8  10 66841.3 3710.86   2
   5  -8  10 67855.0 3705.85   2
  -8   5  10 53041.8 3526.95   1
   8  -3 -10 68495.9 3977.56   1
  -8   3   9 117599. 5122.72   1
   3  -8   9 111995. 4939.85   1
   5  -8   9 107319. 4868.62   1
  -3   8  -9 117431. 5132.61   1
  -5   8  -9 105639. 4812.33   1
   8  -5  -9 111940. 4870.33   1
   3  -8   9 111581. 4873.56   2
   5  -8   9 108284. 4827.59   2
  -8   5   9 122095. 5171.73   1
   8  -3  -9 111538. 4961.85   1
  -8   3   8 16649.7 1931.54   1
   3  -8   8 23235.5 2081.62   1
   5  -8   8 24261.4 2117.34   1
  -3   8  -8 21267.3 1996.49   1
  -5   8  -8 24008.5 2081.62   1
   8  -5  -8 21985.1 2014.25   1
   8  -3  -8 22366.6 2080.51   1
   3  -8   8 20161.3 1970.70   2
   5  -8   8 17024.2 1879.55   2
  -8   5   8 25809.9 2166.26   1
   3  -8   7 29522.0 2337.97   1
   5  -8   7 35237.1 2552.83   1
  -3   8  -7 28657.9 2297.99   1
  -5   8  -7 33373.9 2465.64   1
   8  -3  -7 33185.1 2496.03   1
  -8   5   7 29773.4 2423.13   1
   3  -8   7 32993.7 2417.54   2
   5  -8   7 32995.4 2402.55   2
   8  -5  -7 29099.6 2288.28   1
  -8   3   7 32377.7 2490.28   1
   3  -8   6 209506. 6664.66   1
   5  -8   6 171206. 6286.36   1
   8  -5  -6 171666. 6238.20   1
  -5   8  -6 200420. 6700.83   1
   8  -3  -6 190490. 6590.11   1
  -8   3   6 204255. 6710.83   1
  -8   5   6 190962. 6621.10   1
   3  -8   6 189138. 6534.83   2
   5  -8   6 188407. 6474.12   2
  -5   8  -5 327.788 239.346   1
   3  -8   5 458.102 284.204   2
   3  -8   5 789.294 412.261   1
  -8   3   5 179.688 338.771   1
   5  -8   5 1108.31 432.486   1
   8  -5  -5 896.312 468.263   1
  -3   8  -5 583.755 385.755   1
   8  -3  -5 604.426 291.077   1
  -8   5   5-152.164 227.864   1
   5  -8   5 674.136 348.014   2
   3  -8   4 41950.1 2523.09   1
   5  -8   4 37549.9 2460.83   1
  -3   8  -4 41306.7 2555.30   1
   8  -3  -4 36584.9 2576.32   1
  -8   5   4 35502.9 2477.33   1
   8  -5  -4 39101.2 2576.34   1
   5  -8   4 33894.8 2436.37   2
  -5   8  -4 39434.1 2588.97   1
   3  -8   4 35349.3 2410.93   2
  -8   3   4 38427.1 2589.29   1
   3  -8   3 88024.8 3737.02   1
   5  -8   3 106133. 4201.24   1
   3  -8   3 92234.8 4035.53   2
  -3   8  -3 100471. 4019.38   1
  -8   5   3 91770.7 4131.34   1
   8  -5  -3 100245. 4382.21   1
   8  -3  -3 83210.8 3967.83   1
  -5   8  -3 81762.6 3780.97   1
  -8   3   3 92788.3 4153.94   1
   5  -8   3 102843. 4316.37   2
   3  -8   2 81154.8 3439.34   1
  -8   5   2 81151.9 3907.44   1
  -3   8  -2 76346.6 3407.21   1
   8  -5  -2 95534.8 4186.45   1
  -8   3   2 86766.2 3936.03   1
   8  -3  -2 88397.7 3984.81   1
  -3  -5  -2 91054.4 4096.41   2
  -5   8  -2 83721.8 3742.73   1
   3  -8   2 88759.9 3903.41   2
   5  -8   2 81416.3 3854.22   2
   5  -8   1 93959.8 3989.85   1
  -8   5   1 108723. 4495.72   1
  -3   8  -1 128008. 4206.40   1
  -8   3   1 90025.9 4159.60   1
  -5  -3  -1 105341. 3950.71   1
   8  -5  -1 115463. 4664.83   1
   8  -3  -1 116012. 4704.99   1
   5   3   1 120822. 4289.20   1
  -3  -5  -1 108921. 4622.52   2
  -5   8  -1 120075. 4448.22   1
   3  -8   1 123353. 4510.89   2
   5  -8   1 92483.0 4121.77   2
  -5  -3   0 4572.35 709.268   1
  -8   5   0 4093.51 773.878   1
  -8   3   0 4189.69 785.799   1
  -5   8   0 3450.85 723.775   1
   5  -8   0 3962.77 715.180   1
   5   3   0 5059.38 759.815   1
  -3  -5   0 4222.95 893.224   2
   8  -5   0 4498.50 826.871   1
   8  -3   0 3424.59 756.956   1
   3  -8   0 4487.58 792.750   2
   5  -8   0 4722.59 845.275   2
  -5  -3   1 10157.8 1330.70   2
  -8   5  -1 9447.91 1266.05   1
  -8   3  -1 10734.9 1267.04   1
   5  -8  -1 10915.4 1155.32   1
   8  -5   1 9855.36 1298.64   1
   8  -3   1 11236.9 1304.59   1
  -3  -5   1 10547.0 1349.16   2
   5   3  -1 10885.6 1206.89   1
   3  -8  -1 6666.32 998.891   2
  -5   8   1 12124.9 1274.63   1
   5  -8  -1 11035.8 1236.71   2
  -5  -3   1 9427.72 1100.13   1
  -5  -3   2 287205. 7739.36   1
  -8   5  -2 250268. 7775.14   1
  -8   3  -2 282475. 7962.27   1
   5  -8  -2 290430. 7429.75   1
   8  -5   2 257574. 7968.23   1
   8  -3   2 272788. 7895.36   1
  -3  -5   2 287468. 8241.28   2
   5   3  -2 262900. 7827.18   1
  -5  -3   2 276679. 8371.90   2
   5  -8  -2 289747. 7489.80   2
  -5   8   2 249193. 7157.36   1
  -8   5  -3 41190.0 2669.73   1
  -8   3  -3 41759.4 2663.51   1
  -5  -3   3 44356.3 2603.31   1
   5  -8  -3 37957.1 2197.39   1
   8  -5   3 40230.1 2707.46   1
   8  -3   3 40978.1 2661.14   1
  -5  -3   3 42664.3 2796.62   2
  -3  -5   3 42889.1 2844.37   2
   5   3  -3 51648.7 2914.46   1
   3   5  -3 47045.7 2612.31   1
  -3  -5   3 47691.7 2565.83   1
  -5   8   3 34673.2 2173.11   1
  -8   3  -4 10105.6 1265.81   1
  -3  -5   4 11116.8 1293.44   1
  -5  -3   4 8818.20 1198.63   1
   8  -5   4 8374.91 1179.64   1
   8  -3   4 8095.21 1186.06   1
  -5  -3   4 6604.87 1145.51   2
  -3  -5   4 9068.83 1214.14   2
   5   3  -4 7909.18 1162.06   1
   3   5  -4 9328.96 1126.28   1
  -8   5  -4 10209.9 1287.34   1
  -5   8   4 11223.3 1182.42   1
  -5  -3   5 81080.6 4152.71   2
   8  -5   5 89678.2 4185.02   1
   8  -3   5 83649.7 4022.97   1
  -3  -5   5 98310.7 4227.60   1
  -5  -3   5 99660.9 4197.28   1
  -3  -5   5 91494.2 4254.83   2
   5   3  -5 79091.7 3917.51   1
   3   5  -5 80363.6 3779.89   1
  -8   5  -5 79978.3 3850.81   1
  -8   3  -5 86928.7 4028.16   1
   8  -5   6 80444.0 3977.95   1
  -5  -3   6 77609.6 3992.93   2
   8  -3   6 77245.6 3904.22   1
  -3  -5   6 79545.7 4004.54   1
  -3  -5   6 76143.0 3977.74   2
  -5  -3   6 77443.4 3800.98   1
   5   3  -6 79771.2 3917.09   1
  -8   5  -6 74167.4 3790.41   1
   3   5  -6 78057.1 3796.46   1
  -8   3  -6 78137.2 3786.33   1
   8  -5   6 77203.7 3959.48   2
   8  -5   7 48960.3 3108.89   1
   8  -3   7 56487.7 3299.07   1
  -5  -3   7 47886.5 3194.43   2
  -3  -5   7 49328.9 3207.38   2
  -8   5  -7 52095.7 3080.11   1
   5   3  -7 53252.8 3260.11   1
  -5  -3   7 57366.3 3289.37   1
  -8   3  -7 47329.6 2999.95   1
   3   5  -7 49989.8 3058.37   1
   8  -5   7 54927.0 3360.09   2
   8  -5   8 41743.0 2881.71   1
   8  -3   8 44440.6 2913.73   1
  -5  -3   8 39234.4 2936.10   2
  -3  -5   8 39668.1 2916.30   2
  -8   5  -8 40039.5 2751.00   1
  -8   3  -8 39222.1 2750.69   1
   5   3  -8 42069.9 2902.07   1
   3   5  -8 42392.5 2825.76   1
   8  -5   8 44117.4 3000.32   2
  -5  -3   8 48495.7 3121.11   1
  -3  -5   8 42576.0 2973.02   1
  -5  -3   9 15469.2 1768.54   1
   8  -5   9 12970.7 1592.87   1
   8  -3   9 14294.0 1695.34   1
  -3  -5   9 13826.0 1628.89   2
  -8   5  -9 12140.4 1540.07   1
  -8   3  -9 13431.1 1638.94   1
  -5  -3   9 14214.9 1718.03   2
   5   3  -9 15361.9 1723.78   1
   8  -5   9 16868.5 1784.13   2
   3   5  -9 15187.4 1734.85   1
  -3  -5   9 14238.9 1689.60   1
  -5  -3  10 95187.7 4781.36   1
  -3  -5  10 105256. 4944.97   2
   8  -5  10 100551. 4808.11   1
   8  -3  10 98055.2 4693.24   1
  -5  -3  10 102949. 4946.15   2
  -8   5 -10 92151.6 4572.24   1
  -8   3 -10 120671. 5099.94   1
   5   3 -10 101017. 4830.01   1
   8  -5  10 104313. 4826.80   2
   3   5 -10 98064.7 4687.37   1
   8  -3  10 99246.1 4928.21   2
  -3  -5  10 97934.0 4887.45   1
  -8   5 -11 528.922 322.207   1
  -3  -5  11 1275.05 468.183   1
   5   3 -11 660.751 456.536   1
  -8   3 -11 1030.01 394.634   1
   3   5 -11 1019.19 550.281   1
   8  -5  11 1390.59 741.178   1
   8  -3  11 1067.59 483.663   1
  -5  -3  11 733.217 275.703   1
  -5  -3  11 1211.56 373.895   2
  -3  -5  11 1670.63 647.600   2
   8  -5  11 818.052 483.418   2
   8  -3  11 364.819 364.503   2
  -8   5 -12 447.984 336.542   1
  -8   3 -12 724.184 327.483   1
  -3  -5  12 1456.87 591.016   1
   5   3 -12 1678.37 631.897   1
   3   5 -12 1083.93 443.924   1
   8  -5  12 934.826 674.565   1
   8  -3  12 1769.11 632.744   1
  -5  -3  12 1366.20 593.596   2
  -3  -5  12 1005.99 513.801   2
  -5  -3  12 981.205 444.174   1
   8  -5  12 1654.64 677.401   2
   8  -3  12 1528.24 550.321   2
   8  -5  13 24314.0 2364.25   1
   8  -3  13 22155.7 2277.89   1
  -5  -3  13 25060.3 2490.48   1
  -8   5 -13 25106.2 2347.13   1
  -8   3 -13 21163.0 2110.94   1
  -3  -5  13 25827.8 2454.71   2
  -5  -3  13 22712.6 2350.07   2
   5   3 -13 27050.6 2488.44   1
   8  -5  13 24309.0 2306.65   2
   8  -3  13 23583.2 2368.80   2
   3   5 -13 22912.4 2297.69   1
  -3  -5  13 23171.9 2400.66   1
  -3  -5  14 47593.9 3353.92   2
   8  -5  14 40282.6 3149.06   1
   8  -3  14 35849.9 3002.36   1
  -5  -3  14 34156.7 2951.04   1
  -8   5 -14 38247.3 3022.89   1
  -8   3 -14 33786.0 2777.03   1
  -5  -3  14 36769.1 3073.33   2
   8  -5  14 38723.9 3038.44   2
   5   3 -14 43809.5 3182.50   1
   8  -3  14 37774.9 3019.90   2
   3   5 -14 37197.6 2908.23   1
  -3  -5  14 35513.1 3033.62   1
   8  -5  15 55676.6 3759.94   1
   8  -3  15 46713.5 3477.98   1
  -5  -3  15 56913.6 3864.19   1
  -3  -5  15 50387.9 3627.43   2
  -8   5 -15 53361.1 3590.53   1
  -8   3 -15 49945.5 3458.93   1
  -5  -3  15 46942.4 3490.24   2
   8  -5  15 54859.7 3750.64   2
   5   3 -15 51905.4 3599.82   1
   8  -3  15 41513.7 3329.56   2
   3   5 -15 49926.9 3551.84   1
  -3  -5  15 44446.8 3465.21   1
  -5  -3  16 6176.63 1272.13   1
  -3  -5  16 3690.97 1010.88   1
   5   3 -16 5248.30 1118.68   1
   3   5 -16 4798.28 1048.80   1
   8  -5  16 3424.05 925.151   1
   8  -3  16 3252.70 930.914   1
  -5  -3  16 3111.72 955.937   2
  -3  -5  16 2813.02 777.392   2
  -8   5 -16 4318.94 1005.65   1
  -8   3 -16 2688.61 789.578   1
   8  -5  16 3346.56 1027.17   2
   8  -3  16 2731.79 723.821   2
   3   5 -17 1620.21 633.718   1
   8  -3  17 1951.10 617.785   1
   8  -5  17 2607.66 797.941   1
  -3  -5  17 2259.54 726.448   2
  -5  -3  17 2359.33 862.544   2
  -8   3 -17 2132.01 736.935   1
  -8   5 -17 1783.40 666.682   1
   8  -5  17 1728.45 689.545   2
  -8   6  17 4993.09 1259.34   1
  -8   6  16 11579.8 1789.22   1
   2  -8  16 14246.6 1941.86   1
  -2   8 -16 16483.4 1996.33   1
   6  -8  16 18187.9 2053.99   1
  -6   8 -16 19033.8 2099.30   1
  -8   2  16 19803.0 2234.92   1
   8  -6 -16 15684.9 2028.69   1
   2  -8  16 17095.8 2016.74   2
   8  -2 -16 16793.3 2057.91   1
   6  -8  16 13550.2 1924.16   2
   2  -8  15 599.300 376.837   1
  -8   2  15 1031.17 464.956   1
   6  -8  15 1122.27 585.089   1
  -2   8 -15 1276.85 562.647   1
   8  -2 -15 1726.24 641.947   1
  -6   8 -15 816.291 481.532   1
  -8   6  15 844.113 450.701   1
   2  -8  15 887.877 513.085   2
   6  -8  15 1628.34 650.974   2
   8  -6 -15 963.622 450.856   1
   2  -8  14 34705.4 2894.04   1
  -2   8 -14 35579.2 2933.40   1
   6  -8  14 40604.7 3113.55   1
  -6   8 -14 41422.1 3139.05   1
  -8   2  14 47944.8 3373.01   1
   8  -6 -14 40784.5 3144.11   1
   2  -8  14 37065.5 2903.63   2
   8  -2 -14 36243.6 2974.55   1
   6  -8  14 38003.1 2918.55   2
  -8   6  14 39301.7 3088.83   1
   2  -8  13 6444.65 1281.36   1
  -8   2  13 9187.39 1416.58   1
   6  -8  13 7628.32 1303.83   1
  -6   8 -13 7566.28 1324.45   1
  -8   6  13 6475.54 1245.43   1
  -2   8 -13 6203.70 1172.60   1
   2  -8  13 8545.79 1365.90   2
   8  -6 -13 6538.05 1219.65   1
   6  -8  13 6902.12 1293.81   2
   8  -2 -13 7529.92 1292.96   1
  -8   2  12 3731.96 878.251   1
   2  -8  12 2378.03 740.219   1
   6  -8  12 2994.90 789.176   1
  -2   8 -12 2284.32 675.411   1
  -8   6  12 2571.85 816.172   1
  -6   8 -12 4106.31 981.422   1
   2  -8  12 2205.04 650.498   2
   8  -6 -12 2981.93 805.553   1
   6  -8  12 3321.88 932.135   2
   8  -2 -12 3720.08 828.166   1
   2  -8  11 25016.7 2372.00   1
  -2   8 -11 22545.2 2208.83   1
   6  -8  11 22191.9 2212.18   1
  -8   2  11 28286.9 2507.38   1
  -6   8 -11 26464.7 2352.17   1
   8  -6 -11 22121.7 2119.35   1
   2  -8  11 25799.5 2319.67   2
   8  -2 -11 25510.9 2350.14   1
   6  -8  11 27371.0 2377.52   2
  -8   6  11 23441.6 2339.95   1
   2  -8  10 29498.0 2506.41   1
  -2   8 -10 31120.3 2510.52   1
   6  -8  10 27620.8 2405.32   1
  -8   2  10 30651.7 2520.99   1
  -6   8 -10 29923.5 2485.62   1
   8  -6 -10 24154.3 2206.19   1
   2  -8  10 31744.6 2570.17   2
   8  -2 -10 33709.9 2662.09   1
  -8   6  10 30279.9 2559.17   1
   6  -8  10 25817.1 2329.45   2
   2  -8   9 34798.6 2715.05   1
  -8   2   9 42954.9 2950.57   1
   8  -6  -9 37036.5 2713.25   1
  -2   8  -9 46065.4 2993.77   1
   6  -8   9 47223.3 3110.94   1
  -6   8  -9 44764.7 2998.41   1
   8  -2  -9 45149.5 3175.47   1
   2  -8   9 40255.6 2931.55   2
   6  -8   9 38338.2 2830.22   2
  -8   6   9 42217.8 3015.19   1
  -8   6   8 164.757 202.884   1
   2  -8   8 242.500 245.568   1
   6  -8   8-0.88327 205.348   1
  -2   8  -8 253.540 198.066   1
   8  -6  -8 310.962 251.498   1
   2  -8   8 299.537 324.210   2
  -8   2   8-12.9846 295.597   1
   8  -2  -8 82.5384 249.111   1
   6  -8   8 449.258 406.373   2
  -6   8  -8 943.613 501.469   1
   2  -8   7 102267. 4555.53   1
  -2   8  -7 95243.3 4414.39   1
   6  -8   7 93594.8 4479.82   1
  -6   8  -7 101352. 4572.76   1
   8  -6  -7 108992. 4566.59   1
  -8   6   7 95113.3 4473.86   1
   8  -2  -7 94896.3 4454.24   1
   2  -8   7 90229.8 4320.16   2
   6  -8   7 85417.2 4121.60   2
  -8   2   7 96777.9 4487.58   1
   2  -8   6 199286. 6797.09   1
  -2   8  -6 215249. 6939.36   1
   6  -8   6 214526. 7133.80   1
  -8   6   6 215630. 7170.21   1
   8  -6  -6 229624. 7152.46   1
  -6   8  -6 209280. 7047.18   1
   8  -2  -6 212758. 7168.61   1
   2  -8   6 213717. 7085.47   2
   6  -8   6 207641. 6894.82   2
  -8   2   6 218943. 7130.02   1
   2  -8   5 62043.5 3297.91   1
  -2   8  -5 68844.5 3450.77   1
   6  -8   5 66487.8 3511.64   1
  -8   6   5 63516.4 3518.03   1
   8  -6  -5 74490.0 3738.94   1
  -6   8  -5 69896.3 3553.45   1
   8  -2  -5 70049.4 3650.03   1
   2  -8   5 61415.4 3412.28   2
   6  -8   5 58093.1 3307.35   2
  -8   2   5 69782.4 3608.39   1
   2  -8   4 120974. 4626.92   1
  -2   8  -4 134424. 4896.57   1
   6  -8   4 131197. 5028.19   1
   6   2   4 123379. 4660.67   1
  -8   6   4 121296. 5045.86   1
   8  -2  -4 130346. 5117.58   1
  -6   8  -4 130653. 5058.98   1
   2  -8   4 123410. 5004.00   2
  -8   2   4 122835. 4963.74   1
   6  -8   4 127444. 5018.97   2
  -6   8  -3 241.786 164.602   1
  -8   6   3 919.437 411.628   1
   6  -8   3 744.003 384.939   1
   6   2   3 389.292 242.113   1
  -2  -6  -3 155.888 269.826   2
   8  -6  -3 651.672 405.459   1
   2  -8   3 667.569 326.557   2
   8  -2  -3 330.497 404.359   1
   6  -8   3 299.694 264.531   2
  -8   2   3 550.497 394.337   1
  -6  -2  -3 480.373 308.193   1
   6  -8   2 172837. 5858.46   2
  -8   6   2 150372. 5628.60   1
   6  -8   2 163193. 5609.67   1
  -6  -2  -2 160498. 5248.90   1
   2  -8   2 172790. 5822.53   2
   8  -6  -2 171379. 5864.09   1
   6   2   2 175057. 5643.98   1
   8  -2  -2 160751. 5749.00   1
  -8   2   2 139838. 5358.41   1
  -2  -6  -2 154170. 5590.81   2
  -6   8  -2 157717. 5554.46   1
  -8   6   1 456.584 251.481   1
  -6   8  -1 230.222 214.394   1
  -6  -2  -1 13.4353 166.480   1
   6  -8   1 20.1204 205.987   1
  -8   2   1 27.2792 241.577   1
  -2  -6  -1-112.489 313.273   2
   6   2   1 89.7287 294.877   1
   8  -2  -1-360.892 172.713   1
   8  -6  -1-27.0428 169.266   1
   2  -8   1-26.2192 215.013   2
   6  -8   1 332.912 383.291   2
   2  -8   0 8874.76 1098.71   2
   6  -8   0 8863.71 1145.44   1
  -8   2   0 6667.63 1046.25   1
   8  -6   0 8464.89 1209.10   1
   8  -2   0 10197.0 1359.06   1
   6   2   0 10765.3 1248.73   1
  -2  -6   0 8726.56 1258.19   2
  -6  -2   0 8437.12 1112.39   1
   6  -8   0 8254.74 1120.61   2
  -6   8   0 9867.68 1203.38   1
  -8   6   0 9216.10 1220.53   1
  -8   6  -1 69721.8 3577.48   1
  -8   2  -1 70245.7 3460.95   1
   6  -8  -1 74265.4 3384.45   1
   8  -6   1 71552.2 3605.02   1
   8  -2   1 76431.8 3660.83   1
   6   2  -1 74175.2 3536.77   1
   2  -8  -1 66143.9 3176.38   2
  -6  -2   1 72429.4 3413.14   1
  -2  -6   1 72632.7 3640.12   2
   6  -8  -1 68915.9 3438.53   2
  -6   8   1 74483.1 3428.34   1
  -8   6  -2 35108.8 2432.22   1
  -8   2  -2 37216.9 2500.82   1
   6  -8  -2 36714.5 2286.47   1
   8  -6   2 34828.4 2449.02   1
   8  -2   2 36420.5 2478.78   1
   6   2  -2 33731.5 2394.63   1
   6  -8  -2 35799.3 2331.83   2
  -6  -2   2 32112.5 2266.16   1
  -2  -6   2 38688.1 2645.45   2
  -6   8   2 38798.0 2382.08   1
  -6  -2   3 135164. 5091.66   1
  -6   8   3 147749. 5091.91   1
  -8   2  -3 131952. 5096.17   1
   8  -6   3 126152. 5104.97   1
   6  -8  -3 139793. 4866.87   1
   8  -2   3 129676. 5069.11   1
  -2  -6   3 128627. 5153.67   2
  -6  -2   3 133333. 5527.91   2
   6   2  -3 130899. 5239.56   1
  -8   6  -3 116452. 4879.07   1
   8  -6   3 148348. 5526.96   2
   2   6  -4 2694.64 618.765   1
  -8   6  -4 1880.85 598.831   1
   8  -6   4 2764.87 758.857   1
   8  -2   4 2333.85 649.185   1
   6  -8  -4 2775.90 592.320   1
  -6  -2   4 2080.81 722.624   2
  -2  -6   4 2833.81 702.721   2
  -8   2  -4 1677.09 528.580   1
  -6   8   4 2705.19 636.945   1
   6   2  -4 2946.04 744.737   1
  -6  -2   4 2516.65 657.650   1
   8  -6   4 2512.68 679.157   2
  -6   8   5 100128. 4133.23   1
  -6  -2   5 103086. 4457.73   1
   8  -6   5 92751.0 4332.04   1
   8  -2   5 100714. 4390.55   1
   6  -8  -5 78343.8 3651.21   1
  -6  -2   5 96448.2 4561.42   2
  -2  -6   5 92896.6 4431.94   2
   6   2  -5 95618.0 4422.50   1
  -8   6  -5 92217.6 4197.51   1
   2   6  -5 91076.6 3981.59   1
   8  -6   5 86374.7 4152.32   2
  -8   2  -5 99042.5 4323.90   1
  -2  -6   5 96129.3 4214.38   1
  -6   8   6 242071. 7127.58   1
   8  -6   6 240034. 7601.04   1
   8  -2   6 234464. 7493.59   1
  -6  -2   6 230561. 7412.86   1
   6  -8  -6 221080. 6803.08   1
  -6  -2   6 226471. 7698.87   2
  -2  -6   6 231005. 7583.07   2
   6   2  -6 249108. 7859.23   1
  -8   6  -6 220658. 7224.75   1
   8  -6   6 243430. 7560.88   2
  -8   2  -6 224303. 7258.37   1
   2   6  -6 239915. 7293.31   1
  -2  -6   6 235223. 7492.08   1
   8  -6   7 26682.1 2313.72   1
   8  -2   7 25632.9 2264.46   1
  -6  -2   7 28760.4 2459.18   2
  -6  -2   7 23049.4 2109.03   1
  -2  -6   7 27753.0 2314.20   2
  -8   6  -7 23762.6 2103.61   1
   6   2  -7 29197.2 2415.14   1
  -8   2  -7 26729.9 2244.26   1
   8  -6   7 28816.6 2246.36   2
   2   6  -7 32361.6 2386.32   1
  -2  -6   7 30381.3 2459.01   1
  -2  -6   8 83421.0 4297.40   1
   8  -6   8 80160.1 4126.47   1
   8  -2   8 75324.3 3975.44   1
  -2  -6   8 70109.1 4026.36   2
  -8   6  -8 77997.4 3944.95   1
  -6  -2   8 82296.8 4284.69   2
  -6  -2   8 81157.7 4073.48   1
  -8   2  -8 85039.6 4125.15   1
   6   2  -8 85551.0 4291.91   1
   8  -6   8 88458.3 4213.92   2
   2   6  -8 78289.2 3986.87   1
   6   2  -9 3451.70 818.277   1
  -2  -6   9 2109.76 645.286   1
  -8   6  -9 1552.02 474.916   1
   2   6  -9 2129.62 652.671   1
  -8   2  -9 2234.36 601.468   1
   8  -6   9 1671.05 583.225   1
   8  -2   9 2463.12 579.339   1
  -6  -2   9 2319.39 694.140   2
  -2  -6   9 2020.22 561.202   2
  -6  -2   9 2106.23 639.792   1
   8  -6   9 2819.39 740.441   2
  -2  -6  10 70325.0 4094.90   1
   8  -6  10 76506.7 4072.09   1
   8  -2  10 63953.7 3721.44   1
  -6  -2  10 66557.9 4028.01   2
  -8   2 -10 71559.7 3895.52   1
  -6  -2  10 67128.6 3933.68   1
   6   2 -10 71488.8 4039.42   1
   8  -6  10 67078.9 3730.67   2
  -8   6 -10 75311.5 3947.41   1
   2   6 -10 72640.7 3980.91   1
  -2  -6  10 65688.4 3921.70   2
  -8   6 -11 6755.07 1210.36   1
   6   2 -11 7921.80 1304.64   1
  -6  -2  11 5562.69 1156.80   2
  -8   2 -11 6147.42 1065.73   1
  -2  -6  11 6432.51 1256.65   1
   2   6 -11 7305.69 1214.25   1
   8  -6  11 6425.44 1198.50   1
   8  -2  11 6418.50 1171.00   1
  -2  -6  11 7271.87 1320.49   2
   8  -6  11 6082.70 1111.92   2
   8  -2  11 4544.85 1159.79   2
  -6  -2  11 7351.54 1265.16   1
  -8   2 -12 8040.49 1264.36   1
   6   2 -12 7186.85 1280.16   1
  -6  -2  12 6461.45 1264.10   1
  -2  -6  12 5621.74 1140.00   1
   2   6 -12 4803.97 981.132   1
   8  -6  12 5964.90 1232.06   1
   8  -2  12 6424.42 1248.55   1
  -6  -2  12 5993.65 1166.02   2
  -2  -6  12 5599.82 1115.81   2
   8  -6  12 5972.77 1040.00   2
   8  -2  12 4750.03 1136.95   2
  -8   6 -12 4940.73 997.400   1
  -2  -6  13 20812.3 2309.82   1
   8  -6  13 23356.3 2382.38   1
   8  -2  13 23033.5 2301.17   1
  -8   6 -13 22311.7 2245.50   1
  -8   2 -13 25575.9 2327.19   1
  -6  -2  13 16246.9 2030.16   2
  -2  -6  13 21116.6 2265.99   2
   6   2 -13 24572.1 2355.33   1
   8  -6  13 22052.9 2289.88   2
   8  -2  13 15637.4 1996.08   2
  -6  -2  13 21023.4 2277.40   1
   2   6 -13 22523.4 2273.41   1
  -2  -6  14 25300.1 2525.07   1
   8  -6  14 28412.3 2634.65   1
   8  -2  14 22761.8 2352.41   1
  -8   6 -14 28473.3 2538.36   1
  -8   2 -14 19055.8 2064.41   1
  -2  -6  14 27043.4 2517.82   2
  -6  -2  14 23263.2 2509.21   2
   6   2 -14 26419.1 2512.12   1
   8  -6  14 26865.4 2586.09   2
   8  -2  14 14267.4 1913.16   2
  -6  -2  14 28928.0 2702.03   1
   2   6 -14 25258.9 2469.79   1
  -2  -6  15 14441.9 1950.70   1
   8  -6  15 18717.9 2131.54   1
   8  -2  15 14132.4 1825.27   1
  -8   6 -15 17265.7 1964.70   1
  -6  -2  15 15947.0 2052.27   2
  -2  -6  15 18248.7 2081.82   2
   6   2 -15 19439.0 2133.99   1
   8  -6  15 15681.3 2094.22   2
   2   6 -15 15415.3 1942.18   1
  -6  -2  15 21373.2 2327.68   1
   6   2 -16 493.611 447.769   1
  -2  -6  16 162.594 350.095   1
   2   6 -16-325.954 339.679   1
  -6  -2  16 315.945 440.285   1
   8  -6  16 532.270 219.300   1
  -6  -2  16-763.382 449.683   2
  -2  -6  16 838.358 531.101   2
  -8   6 -16 41.9148 280.086   1
   8  -6  16 833.793 554.214   2
  -6  -2  17 12925.3 1957.58   2
   1  -8  16 48337.6 3660.69   1
  -1   8 -16 46837.2 3469.02   1
   1  -8  15 82.2230 149.731   1
   7  -8  15-54.3903 168.494   1
  -8   1  15-21.6424 238.661   1
  -1   8 -15 140.047 277.645   1
  -7   8 -15-72.7835 236.557   1
   1  -8  15 684.413 444.073   2
   7  -8  15-320.301 413.654   2
   8  -1 -15-538.167 422.652   1
   1  -8  14 2093.18 764.680   1
  -8   1  14 3254.25 899.022   1
   7  -8  14 3498.74 957.037   1
  -1   8 -14 1303.30 526.784   1
  -8   7  14 996.471 413.643   1
   1  -8  14 2036.59 775.211   2
  -7   8 -14 2054.69 759.358   1
   7  -8  14 1208.39 569.408   2
   8  -1 -14 1950.58 625.867   1
   1  -8  13 106.244 164.230   1
  -8   1  13 52.2698 244.366   1
   7  -8  13 120.891 169.931   1
  -8   7  13 568.819 405.738   1
  -1   8 -13-396.408 460.246   1
   1  -8  13-604.582 384.913   2
  -7   8 -13 413.649 438.936   1
   8  -7 -13 264.887 355.345   1
   7  -8  13-28.6458 346.142   2
   8  -1 -13 86.3879 331.487   1
   1  -8  12 72453.4 4289.99   1
  -1   8 -12 73056.8 4226.97   1
   7  -8  12 73062.7 4217.72   1
  -8   1  12 69760.4 4105.46   1
  -7   8 -12 76668.3 4217.25   1
   8  -7 -12 61128.5 3875.37   1
   1  -8  12 74363.3 4200.75   2
   8  -1 -12 77112.2 4344.38   1
   7  -8  12 72425.1 4140.24   2
  -8   7  12 74976.1 4294.15   1
  -8   7  11-221.184 390.499   1
   1  -8  11 66.0287 212.044   1
  -8   1  11-2.93958 433.856   1
   7  -8  11 373.219 438.070   1
  -1   8 -11 208.264 420.762   1
   1  -8  11 735.710 266.248   2
   8  -7 -11 13.4734 295.477   1
  -7   8 -11 275.391 201.733   1
   7  -8  11-241.157 236.088   2
   8  -1 -11 239.609 485.297   1
  -8   7  10 4490.28 980.527   1
  -8   1  10 5596.62 1112.76   1
   1  -8  10 6444.83 1170.61   1
   7  -8  10 5679.53 1104.10   1
  -1   8 -10 4985.57 1030.78   1
   1  -8  10 4672.55 1000.85   2
   8  -7 -10 5718.57 1053.88   1
   7  -8  10 4163.46 933.914   2
   8  -1 -10 4504.88 993.235   1
  -7   8 -10 5779.21 1152.96   1
  -8   1   9 4190.51 942.893   1
   1  -8   9 4500.49 888.539   1
   7  -8   9 4896.41 1060.44   1
  -1   8  -9 4555.89 978.860   1
   1  -8   9 4860.65 1036.57   2
   8  -7  -9 5213.33 987.846   1
  -8   7   9 5673.23 1111.96   1
   7  -8   9 3767.57 870.636   2
   8  -1  -9 3851.41 985.299   1
  -7   8  -9 4876.02 902.210   1
   1  -8   8 118092. 5135.97   1
  -8   1   8 122323. 5287.38   1
  -1   8  -8 123848. 5231.77   1
   7  -8   8 108518. 5076.87   1
  -7   8  -8 122109. 5216.09   1
  -8   7   8 134046. 5540.32   1
   8  -7  -8 126636. 5269.96   1
   1  -8   8 113887. 5145.60   2
   8  -1  -8 135710. 5864.70   1
   7  -8   8 113207. 4973.25   2
  -7   8  -7 283.119 250.808   1
   1  -8   7 399.167 322.380   1
   7  -8   7-62.2344 245.937   1
  -1   8  -7 283.878 223.231   1
  -8   7   7-353.479 394.864   1
   8  -7  -7 378.141 353.026   1
   1  -8   7-73.2936 339.302   2
  -8   1   7 607.939 487.138   1
   8  -1  -7 516.143 194.228   1
   7  -8   7 532.140 237.924   2
  -7   8  -6 735.665 302.085   1
   7  -8   6 403.994 284.189   1
  -1   8  -6 145.475 133.592   1
  -8   7   6 207.128 242.354   1
   7   1   6 1161.45 438.715   1
  -8   1   6 354.537 320.126   1
   8  -7  -6 857.568 369.252   1
   1  -8   6 664.053 366.473   2
   7  -8   6 431.816 257.203   2
  -7   8  -5 4439.72 931.878   1
  -8   7   5 2676.18 725.887   1
   7  -8   5 2180.29 624.351   1
   7   1   5 4169.40 839.154   1
  -8   1   5 3455.89 793.677   1
  -7  -1  -5 3426.29 747.401   1
   8  -7  -5 4760.64 942.595   1
   1  -8   5 3514.52 760.708   2
   8  -1  -5 3737.42 859.252   1
   7  -8   5 4762.60 906.454   2
  -7  -1  -4 404395. 9960.09   1
   7  -8   4 419992. 10436.5   1
  -8   7   4 366022. 10082.0   1
   7   1   4 304407. 9407.31   1
   8  -7  -4 361741. 9921.30   1
   8  -1  -4 367938. 10136.0   1
   1  -8   4 366926. 10154.5   2
  -7   8  -4 416697. 10352.0   1
  -8   1   4 366861. 10031.0   1
   7  -8   4 378595. 10043.4   2
  -8   1   3 2139.49 653.388   1
  -8   7   3 2947.24 730.182   1
  -7   8  -3 2726.75 708.341   1
   7  -8   3 2212.88 613.476   1
   8  -7  -3 2144.66 688.310   1
   7   1   3 2664.51 753.893   1
   1  -8   3 2535.48 735.265   2
   8  -1  -3 2257.08 683.543   1
   7  -8   3 2147.98 617.848   2
  -7  -1  -3 2856.43 714.524   1
  -8   7   2 96896.3 4298.18   1
  -7  -1  -2 100462. 4155.27   1
   7  -8   2 74107.7 3797.48   1
   8  -7  -2 87306.8 4073.55   1
   7   1   2 95503.0 4182.49   1
   8  -1  -2 92577.8 4221.65   1
  -8   1   2 82440.2 3961.64   1
  -1  -7  -2 96555.1 4185.46   2
   1  -8   2 101479. 4383.21   2
  -7   8  -2 86206.6 4031.63   1
   7  -8   2 113673. 4577.79   2
  -7  -1  -1 190.404 137.456   1
  -7   8  -1 347.886 378.730   1
   7  -8   1 375.859 235.921   1
  -8   1   1 165.154 254.880   1
  -1  -7  -1 57.1413 223.495   2
   7   1   1 292.895 142.092   1
   1  -8   1 53.9387 191.924   2
   8  -1  -1-125.840 267.640   1
   8  -7  -1 134.695 199.623   1
  -8   7   1 272.538 406.252   1
   7  -8   1 554.545 337.671   2
   8  -7  -1 14.2568 317.936   2
  -8   7   0 73125.0 3730.09   1
  -1  -7   0 84016.6 3924.23   2
   7  -8   0 90588.0 3941.31   1
   8  -7   0 77680.4 3828.37   1
  -8   1   0 88060.5 3954.45   1
  -7  -1   0 83084.2 3780.27   1
   8  -1   0 81792.2 3971.32   1
   7   1   0 79250.6 3805.30   1
   1  -8   0 62285.2 3393.49   2
   7  -8   0 73890.2 3709.90   2
   8  -7   0 78977.0 4211.39   2
  -7   8   0 79081.7 3714.48   1
  -8   1  -1 100.406 177.773   1
   8  -7   1-256.777 310.023   1
  -7   8   1 319.414 164.985   1
  -8   7  -1 552.240 374.649   1
   8  -1   1-101.018 308.268   1
  -1  -7   1 92.1136 164.995   2
   1  -8  -1 306.326 153.318   2
   7   1  -1 36.2405 275.632   1
   7  -8  -1 477.803 301.775   1
  -7  -1   1 399.393 277.892   1
   7  -8  -1 109.689 168.531   2
   8  -7   1-20.3458 289.347   2
  -7   8   2 129620. 5056.02   1
  -1  -7   2 138106. 5356.10   2
  -8   1  -2 132851. 5099.65   1
   8  -7   2 122553. 5049.32   1
   7  -8  -2 151076. 5287.99   1
   8  -1   2 127929. 5068.80   1
   7   1  -2 134225. 5192.44   1
  -7  -1   2 134484. 5086.72   1
   7  -8  -2 137640. 5208.95   2
   8  -7   2 133906. 5327.58   2
  -8   7  -2 130917. 5070.05   1
   7  -8  -3 7241.51 1080.24   1
  -7  -1   3 7227.73 1043.79   1
  -8   7  -3 4952.26 908.641   1
   8  -7   3 5151.57 863.527   1
   8  -1   3 5472.43 936.251   1
  -1  -7   3 5752.28 999.260   2
   7   1  -3 5565.82 973.190   1
  -7   8   3 4653.90 835.405   1
  -8   1  -3 6884.79 1064.48   1
   7  -8  -3 6610.07 1022.53   2
   8  -7   3 5688.14 1011.59   2
  -8   1  -4 291455. 8436.19   1
  -7   8   4 262452. 8006.22   1
   8  -7   4 283898. 8549.71   1
   8  -1   4 265081. 8207.61   1
   7  -8  -4 246577. 7698.42   1
  -1  -7   4 295798. 8706.43   2
   7   1  -4 281168. 8441.95   1
  -8   7  -4 281864. 8277.53   1
   8  -7   4 323342. 8648.50   2
  -7  -1   4 274846. 8199.15   1
  -7   8   5 434.727 210.749   1
  -8   7  -5 122.964 246.857   1
   8  -7   5 547.958 216.710   1
   8  -1   5 164.678 185.010   1
   7  -8  -5 400.098 313.541   1
  -8   1  -5 907.109 507.751   1
  -1  -7   5 510.599 431.756   2
  -7  -1   5-25.8555 255.870   1
   7   1  -5 881.216 503.243   1
   8  -7   5 1215.43 581.834   2
  -1  -7   6 28388.1 2410.36   2
  -7  -1   6 32733.6 2532.43   1
  -7   8   6 31485.4 2331.48   1
   8  -7   6 31400.9 2468.04   1
   8  -1   6 29276.2 2328.15   1
   7  -8  -6 23625.3 2047.41   1
   7   1  -6 26022.0 2335.41   1
  -8   7  -6 27484.0 2232.74   1
   8  -7   6 32977.4 2377.42   2
  -8   1  -6 32027.1 2386.48   1
   1   7  -6 25925.9 2155.40   1
  -1  -7   7 3411.99 797.823   1
  -7  -1   7 3156.77 759.961   1
  -8   7  -7 3219.79 798.477   1
   1   7  -7 3362.38 751.564   1
  -7   8   7 2848.65 714.677   1
  -7  -1   7 3514.39 828.354   2
  -8   1  -7 2571.94 697.430   1
   8  -7   7 2796.80 762.644   1
   8  -1   7 3203.73 767.246   1
   7  -8  -7 3085.87 742.347   1
  -1  -7   7 2480.65 739.846   2
   8  -7   7 2938.70 699.832   2
   7   1  -7 3830.82 900.472   1
  -1  -7   8 161276. 6317.81   1
   8  -7   8 168752. 6312.50   1
   8  -1   8 182532. 6479.09   1
  -7  -1   8 160709. 6240.54   1
  -8   7  -8 147778. 6052.68   1
  -7   8   8 173618. 6365.87   1
   7  -8  -8 193468. 6601.18   1
  -7  -1   8 177431. 6850.24   2
  -1  -7   8 167183. 6418.59   2
   7   1  -8 143356. 6112.61   1
  -8   1  -8 183497. 6319.99   1
   8  -7   8 135414. 5607.55   2
   1   7  -8 156489. 6122.77   1
  -8   7  -9 1849.17 623.902   1
  -1  -7   9 1661.95 637.172   1
  -8   1  -9 1622.61 513.568   1
   1   7  -9 1731.03 610.300   1
  -7  -1   9 1453.36 548.246   1
   8  -7   9 1952.74 708.114   1
   8  -1   9 2009.07 623.069   1
  -7   8   9 2203.93 699.550   1
  -7  -1   9 1549.39 650.141   2
  -1  -7   9 1291.81 601.246   2
   8  -7   9 2559.57 815.194   2
   7   1  -9 1217.89 553.044   1
   7   1 -10 3651.13 919.727   1
  -8   7 -10 4379.41 998.763   1
  -1  -7  10 5267.31 1090.69   1
  -8   1 -10 4101.57 876.751   1
   1   7 -10 5433.82 1046.38   1
   8  -7  10 3909.38 933.837   1
  -7  -1  10 4732.26 1040.07   1
   8  -1  10 4152.58 968.492   1
  -7  -1  10 2506.04 671.286   2
  -1  -7  10 3869.67 906.869   2
   8  -7  10 3654.42 872.286   2
  -8   7 -11 41.1749 143.356   1
   7   1 -11 954.795 525.795   1
  -8   1 -11 181.940 171.089   1
  -1  -7  11 242.210 190.271   1
   1   7 -11 371.957 263.420   1
   8  -7  11 451.074 387.647   1
   8  -1  11 248.590 197.888   1
  -7  -1  11 35.4496 211.188   1
  -7  -1  11 324.376 274.063   2
  -1  -7  11 752.961 461.794   2
   8  -7  11 274.510 264.563   2
  -1  -7  12 53440.0 3756.91   1
   8  -7  12 76491.7 4305.47   1
   7   1 -12 72601.3 4125.80   1
  -8   7 -12 73705.7 4042.56   1
  -7  -1  12 56453.4 3903.47   2
  -7  -1  12 73893.6 4108.24   1
  -1  -7  12 71000.8 4102.07   2
   8  -7  12 69904.8 3955.22   2
   1   7 -12 65014.7 3968.68   1
   7   1 -13-47.3342 273.835   1
  -1  -7  13-123.098 256.549   1
   1   7 -13 189.612 281.482   1
   8  -7  13-332.331 394.350   1
  -7  -1  13-275.561 459.877   1
  -7  -1  13-153.032 357.575   2
  -1  -7  13 258.382 313.595   2
  -8   7 -13-77.2077 392.774   1
   8  -7  13-242.425 292.895   2
   8  -1  13-582.354 470.199   2
   7   1 -14 1994.28 747.586   1
  -1  -7  14 1449.80 616.253   1
   1   7 -14 2187.15 771.327   1
   8  -7  14 2464.90 819.549   1
  -7  -1  14 1118.44 665.426   2
  -7  -1  14 2495.87 685.520   1
  -1  -7  14 2206.64 730.053   2
  -8   7 -14 2658.66 790.351   1
   8  -7  14 1845.77 681.995   2
   8  -1  14 513.091 271.011   2
   7   1 -15 1391.07 536.298   1
  -1  -7  15 1390.48 715.441   1
   1   7 -15 718.165 383.305   1
   8  -7  15 1691.73 712.323   1
  -7  -1  15 846.240 690.547   2
  -7  -1  15 744.417 453.334   1
  -1  -7  15 996.321 576.253   2
  -8   7 -15 1481.55 614.124   1
   8  -7  15 303.648 424.357   2
  -1  -7  16 48850.3 3721.09   1
  -7  -1  16 38459.5 3449.72   2
   1   7 -16 50580.3 3594.91   1
  -8   0   0 1533.11 529.266   1
   8  -8   0 1716.12 581.959   1
  -8   8   0 1167.18 536.222   1
   0  -8   0 1885.57 601.155   2
   8   0   0 2169.43 590.421   1
   8  -8   0 2199.09 657.873   2
  -8   8   1 64034.1 3532.63   1
  -8   0  -1 68797.3 3592.63   1
   8  -8   1 70440.2 3695.44   1
   8  -8  -1 80336.4 3891.74   1
   8   0   1 68629.6 3665.26   1
  -8   0   1 73112.6 3675.90   1
   8   0  -1 75904.1 3817.57   1
   0  -8  -1 73362.3 3708.15   2
   8  -8   1 93555.5 4347.29   2
   0  -8   1 62159.6 3526.03   2
   8  -8  -1 85564.5 4309.48   2
  -8   8  -1 73815.8 3679.52   1
  -8   8   2 98541.4 4459.42   1
  -8   0  -2 104331. 4526.46   1
   8  -8   2 101540. 4581.47   1
   8  -8  -2 109959. 4658.28   1
   8   0   2 104518. 4543.84   1
   8   0  -2 108130. 4641.35   1
  -8   0   2 109642. 4657.70   1
   0  -8   2 103847. 4706.73   2
   8  -8   2 97351.6 4531.96   2
  -8   8  -2 102942. 4517.62   1
   8  -8  -2 116733. 5213.31   2
  -8   8   3 11440.0 1438.56   1
  -8   0  -3 10813.8 1356.93   1
   8  -8   3 10733.0 1423.50   1
   8  -8  -3 10623.6 1371.15   1
   8   0   3 10916.3 1379.11   1
   8   0  -3 10727.6 1403.13   1
   0  -8   3 9078.01 1386.82   2
  -8   0   3 9222.12 1279.84   1
  -8   8  -3 9606.05 1313.90   1
   8  -8   3 9926.46 1300.09   2
   8  -8  -3 12924.6 1622.09   2
  -8   0  -4 19468.9 1837.09   1
  -8   8   4 16669.0 1749.45   1
   8  -8   4 17535.7 1779.45   1
   8   0   4 18038.9 1816.32   1
   8  -8  -4 16523.1 1697.01   1
   8   0  -4 15193.6 1656.33   1
   0  -8   4 16530.9 1795.17   2
  -8   8  -4 15610.2 1704.65   1
  -8   0   4 14919.0 1663.34   1
   8  -8   4 15769.2 1675.34   2
  -8   8   5 30938.4 2423.15   1
   8  -8   5 32766.4 2456.85   1
   8   0   5 30684.1 2464.76   1
   8  -8  -5 29354.1 2355.18   1
   8   0  -5 32104.9 2474.25   1
   0  -8   5 29412.6 2458.77   2
  -8   8  -5 33612.4 2462.88   1
   8  -8   5 34961.9 2479.59   2
  -8   0   5 26313.8 2294.45   1
  -8   0  -5 26562.5 2157.93   1
   8  -8   6 105263. 4893.21   1
  -8   8   6 120200. 5126.87   1
   8   0   6 116509. 5036.67   1
   0  -8   6 113774. 5178.93   2
   8   0  -6 115033. 5226.00   1
  -8   8  -6 113543. 4881.65   1
   8  -8   6 113506. 4891.63   2
  -8   0  -6 124891. 4968.30   1
  -8   0   6 111062. 4941.71   1
  -8   0   7 23745.8 2231.07   1
   8  -8   7 19287.7 1997.08   1
   8   0   7 28355.1 2383.57   1
  -8   8   7 29053.0 2442.57   1
   8  -8  -7 24117.6 2208.73   1
  -8   8  -7 24692.4 2200.84   1
   0  -8   7 23193.6 2246.00   2
   8   0  -7 27342.0 2407.54   1
  -8   0  -7 25754.7 2131.91   1
   8  -8   7 22768.2 2069.44   2
  -8   0   8 20555.0 2102.56   1
   8  -8   8 23961.0 2275.95   1
  -8   8   8 21755.3 2133.06   1
   8  -8  -8 18204.3 1960.71   1
   0  -8   8 19272.3 2002.05   2
   8   0  -8 26134.0 2470.81   1
  -8   8  -8 18470.5 1914.79   1
   8  -8   8 17280.6 1830.22   2
  -8   0   9 3358.66 900.264   1
  -8   8  -9 3991.77 900.503   1
   0   8  -9 3938.81 900.010   1
   8  -8   9 2789.10 797.110   1
  -8   8   9 4147.07 1028.31   1
   8  -8  -9 4182.21 949.518   1
   0  -8   9 3437.54 900.835   2
   8  -8   9 2348.10 746.679   2
   8   0  -9 4583.82 1039.79   1
   0   8 -10 37907.8 2939.20   1
   0  -8  10 47889.9 3372.24   1
  -8   0  10 42408.5 3044.73   1
   8  -8  10 44971.8 3260.26   1
  -8   8  10 39817.0 3131.65   1
  -8   8 -10 45219.8 3131.29   1
   8  -8 -10 47132.2 3269.61   1
   0  -8  10 41977.7 3137.35   2
   8   0 -10 45950.8 3280.20   1
   8  -8  10 38895.9 2938.59   2
   0   8 -11 20981.8 2239.92   1
   0  -8  11 28735.6 2656.70   1
   8  -8  11 30699.0 2700.55   1
  -8   0  11 30520.8 2646.20   1
  -8   8 -11 30314.3 2560.00   1
   0  -8  11 28306.7 2592.23   2
   8   0 -11 32490.7 2810.01   1
   8  -8  11 25567.9 2359.18   2
   0  -8  12 1964.98 704.998   1
  -8   0  12 2178.82 792.437   1
   0   8 -12 2257.07 692.352   1
   8  -8  12 1787.90 617.211   1
   0  -8  12 1906.48 746.712   2
   8  -8  12 936.609 459.786   2
  -8   8 -12 3544.00 871.465   1
   8   0 -12 2291.62 752.634   1
   8   0  12-428.777 474.543   2
   0   8 -13 18581.7 2169.41   1
   0  -8  13 19126.8 2260.61   1
   8  -8  13 26762.2 2570.37   1
  -8   0  13 32701.7 2747.74   1
  -8   8 -13 26318.0 2420.87   1
   0  -8  13 21532.7 2260.95   2
   8   0 -13 28277.4 2657.86   1
   8  -8  13 25008.9 2383.12   2
   0   8 -14 33524.7 2901.61   1
   0  -8  14 27999.3 2697.01   1
   8  -8  14 39944.3 3130.33   1
  -8   8 -14 39695.8 3002.47   1
  -8   0  14 47915.4 3366.66   1
   0  -8  14 37073.6 3003.05   2
   8   0 -14 40787.2 3220.40   1
   8  -8  14 35969.7 3046.49   2
   0  -8  15 4167.36 1073.09   1
   0   8 -15 4010.60 1035.97   1
   4  -9  15 5306.29 1160.73   1
   5  -9  15 3425.60 900.852   1
  -4   9 -15 5010.28 1115.32   1
  -5   9 -15 5081.10 1080.88   1
  -9   5  15 5600.57 1128.48   1
   4  -9  15 4853.79 1024.60   2
   5  -9  15 5820.43 1144.03   2
  -9   4  15 4830.91 1064.48   1
   9  -5 -15 5416.44 1129.54   1
   9  -4 -15 3584.78 829.919   1
  -9   4  14 90833.1 4845.41   1
   4  -9  14 81065.5 4684.67   1
   5  -9  14 77653.0 4515.11   1
  -4   9 -14 79875.5 4578.14   1
  -5   9 -14 91014.2 4878.19   1
   9  -5 -14 69841.8 4203.56   1
   9  -4 -14 100721. 4974.84   1
   4  -9  14 82880.7 4464.91   2
   5  -9  14 86033.2 4503.19   2
  -9   5  14 95766.6 4904.79   1
  -9   4  13 28189.3 2558.17   1
   4  -9  13 22145.0 2361.84   1
   5  -9  13 24697.6 2391.68   1
  -4   9 -13 26704.5 2486.21   1
  -5   9 -13 28146.0 2619.37   1
   9  -5 -13 27616.6 2410.53   1
   9  -4 -13 27196.0 2460.27   1
   4  -9  13 28761.3 2430.10   2
   5  -9  13 27057.3 2447.01   2
  -9   5  13 22085.0 2275.27   1
   4  -9  12 9083.27 1477.17   1
  -4   9 -12 11748.2 1671.84   1
  -5   9 -12 12715.2 1708.67   1
   5  -9  12 10205.0 1522.02   1
   4  -9  12 12723.3 1596.01   2
   5  -9  12 10343.6 1490.95   2
   9  -5 -12 10018.4 1441.12   1
  -9   5  12 12608.0 1760.08   1
   9  -4 -12 12675.5 1644.26   1
  -9   4  12 12308.1 1619.17   1
   4  -9  11 59299.8 3704.10   1
   5  -9  11 59130.4 3802.70   1
  -4   9 -11 62260.0 3889.04   1
  -5   9 -11 65667.9 3897.84   1
   9  -5 -11 60483.4 3627.23   1
   9  -4 -11 67117.9 3828.92   1
   4  -9  11 59603.9 3607.89   2
   5  -9  11 60703.3 3647.15   2
  -9   5  11 48072.5 3451.60   1
  -9   4  11 61934.4 3780.77   1
   4  -9  10 51942.2 3480.30   1
   5  -9  10 60665.5 3813.20   1
  -4   9 -10 73422.0 4135.80   1
  -5   9 -10 71975.4 3989.56   1
   9  -5 -10 61023.1 3611.86   1
   9  -4 -10 59639.4 3546.38   1
   4  -9  10 59933.0 3574.96   2
   5  -9  10 61922.0 3641.56   2
  -9   5  10 62677.6 3752.97   1
  -9   4  10 60843.4 3733.54   1
   4  -9   9 12867.8 1649.84   1
  -4   9  -9 8495.37 1405.56   1
   5  -9   9 7670.41 1298.15   1
  -5   9  -9 11350.8 1533.66   1
   9  -5  -9 11121.9 1454.85   1
   9  -4  -9 10548.7 1454.20   1
   4  -9   9 10220.9 1462.82   2
   5  -9   9 11663.0 1498.63   2
  -9   5   9 11320.4 1479.47   1
  -9   4   9 10627.5 1455.70   1
  -9   5   8 3394.99 867.083   1
   4  -9   8 3652.88 892.209   1
   5  -9   8 4461.26 879.827   1
  -9   4   8 4547.08 1033.13   1
  -4   9  -8 4488.08 963.272   1
  -5   9  -8 3761.10 875.195   1
   9  -5  -8 4214.62 890.876   1
   9  -4  -8 4067.60 897.634   1
   4  -9   8 4429.21 896.819   2
   5  -9   8 4664.44 990.842   2
  -9   5   7-168.993 289.260   1
  -9   4   7 288.303 275.233   1
   4  -9   7 303.734 260.268   1
   5  -9   7 1301.37 516.284   1
  -4   9  -7 589.321 400.183   1
   9  -5  -7 686.880 460.641   1
   9  -4  -7 930.205 346.560   1
  -5   9  -7 861.621 427.639   1
   4  -9   7 545.468 349.754   2
   5  -9   7 481.718 318.087   2
   4  -9   6 27739.9 2309.23   1
   5  -9   6 29323.0 2324.65   1
  -4   9  -6 25351.5 2244.34   1
  -5   9  -6 29905.9 2403.18   1
   9  -5  -6 26988.9 2240.30   1
   9  -4  -6 24672.0 2174.39   1
  -9   5   6 28422.2 2366.67   1
   4  -9   6 24254.1 2157.49   2
  -9   4   6 24676.6 2201.38   1
   5  -9   6 24127.9 2208.89   2
   4  -9   5 21751.9 1952.44   1
   5  -9   5 24824.8 2095.10   1
  -4   9  -5 24050.2 2125.17   1
  -5   9  -5 29804.9 2352.61   1
  -9   5   5 27038.9 2273.97   1
   9  -5  -5 24666.9 2099.28   1
  -9   4   5 25353.4 2151.54   1
   4  -9   5 21148.8 2037.95   2
   5  -9   5 23838.0 2115.01   2
   9  -4  -5 23976.5 2051.50   1
   4  -9   4 18672.2 1749.27   1
   5  -9   4 17382.0 1772.51   1
  -4   9  -4 17534.2 1783.30   1
  -9   5   4 19511.2 1894.85   1
  -5   9  -4 14756.0 1606.28   1
   9  -5  -4 21545.3 1929.15   1
  -9   4   4 20462.4 1924.94   1
   9  -4  -4 19235.1 1841.69   1
   4  -9   4 18672.4 1838.06   2
   5  -9   4 19937.9 1900.64   2
   5  -9   3 29476.5 2217.43   1
  -4   9  -3 25767.1 2101.09   1
  -9   5   3 28579.8 2305.37   1
  -9   4   3 26516.8 2167.33   1
  -5   9  -3 25041.5 2075.49   1
   9  -5  -3 25856.5 2215.27   1
   9  -4  -3 26534.7 2203.06   1
   4  -9   3 25207.1 2121.03   2
   5  -9   3 25756.3 2167.62   2
   5  -9   2 232680. 7084.68   1
  -9   5   2 238898. 7493.34   1
  -9   4   2 211020. 7171.13   1
   9  -5  -2 234201. 7465.15   1
   9  -4  -2 227702. 7481.54   1
  -5   9  -2 217692. 7079.06   1
   4  -9   2 224341. 7176.80   2
   5  -9   1 37390.0 2394.34   1
  -9   5   1 37602.1 2553.95   1
  -9   4   1 34216.8 2520.73   1
   9  -5  -1 40856.0 2711.57   1
   9  -4  -1 37486.0 2586.01   1
  -5   9  -1 34774.2 2373.26   1
  -4  -5  -1 37238.4 2755.68   2
   4  -9   1 37644.1 2498.05   2
   5  -9   1 36731.9 2504.60   2
  -9   4   0 9350.76 1227.02   1
  -9   5   0 10270.9 1357.27   1
   9  -5   0 12292.0 1478.57   1
   9  -4   0 12251.0 1473.66   1
  -4  -5   0 12143.2 1513.53   2
   4  -9   0 10407.1 1285.64   2
   5  -9   0 10550.3 1254.97   2
  -9   4  -1 104123. 4555.71   1
  -4  -5   1 100633. 4684.77   2
   9  -5   1 103796. 4537.15   1
   9  -4   1 110006. 4625.82   1
  -5  -4   1 97924.9 4732.93   2
  -9   5  -2 156385. 5667.97   1
  -9   4  -2 148048. 5514.23   1
   9  -5   2 147713. 5591.42   1
   9  -4   2 136193. 5315.97   1
  -4  -5   2 136788. 5650.57   2
  -5  -4   2 130539. 5535.38   2
  -9   5  -3 54677.4 3192.66   1
  -9   4  -3 50440.0 3052.56   1
   9  -5   3 55631.1 3263.95   1
   9  -4   3 57191.2 3264.51   1
  -5  -4   3 57163.9 3458.52   2
  -4  -5   3 53428.6 3372.52   2
   5   4  -3 50972.5 3207.10   1
  -9   4  -4 23763.1 2026.08   1
  -5  -4   4 24481.3 2067.93   1
   9  -5   4 20656.6 1933.17   1
   9  -4   4 22593.0 2074.21   1
  -5  -4   4 19885.5 2096.91   2
  -4  -5   4 23380.2 2126.67   2
   5   4  -4 22025.2 2005.66   1
  -9   5  -4 24069.7 2011.39   1
   4   5  -5 3718.57 836.798   1
  -5  -4   5 4265.15 856.203   1
  -9   5  -5 4202.10 804.483   1
   9  -5   5 3596.57 782.853   1
   9  -4   5 3935.77 864.408   1
  -9   4  -5 5899.49 959.488   1
  -5  -4   5 3299.41 832.677   2
  -4  -5   5 4234.76 1006.16   2
   5   4  -5 4928.98 971.459   1
  -4  -5   6 31270.4 2596.56   2
   9  -5   6 33216.8 2628.38   1
   9  -4   6 35593.5 2664.54   1
  -5  -4   6 30857.3 2503.71   2
  -5  -4   6 37882.4 2680.66   1
   5   4  -6 34775.1 2664.03   1
   4   5  -6 32007.3 2514.38   1
  -9   5  -6 33179.7 2533.75   1
  -4  -5   6 38114.5 2739.28   1
  -9   4  -6 29007.8 2342.77   1
   5   4  -7 1972.21 713.048   1
   4   5  -7 2011.91 625.103   1
  -9   5  -7 1346.65 516.886   1
  -4  -5   7 1187.98 523.643   1
  -9   4  -7 659.841 346.850   1
   9  -5   7 2494.21 650.535   1
   9  -4   7 1595.08 571.127   1
  -5  -4   7 2289.44 562.415   2
  -4  -5   7 713.471 300.846   2
  -5  -4   7 1322.28 558.503   1
   9  -5   7 1512.65 530.473   2
   5   4  -8 2946.05 765.940   1
   4   5  -8 2728.78 745.257   1
  -9   5  -8 2284.61 601.805   1
  -9   4  -8 2255.94 668.518   1
   9  -5   8 2795.93 727.289   1
   9  -4   8 3223.11 811.062   1
  -4  -5   8 3629.69 865.766   1
  -5  -4   8 1854.57 646.260   2
  -4  -5   8 1275.99 572.380   2
  -5  -4   8 2334.50 727.281   1
   9  -5   8 2439.35 852.360   2
   9  -5   9 10255.1 1487.10   1
   9  -4   9 10487.1 1495.00   1
  -4  -5   9 11243.8 1615.21   1
  -4  -5   9 9249.26 1443.79   2
  -5  -4   9 9597.96 1443.62   2
  -9   5  -9 9301.81 1352.91   1
  -9   4  -9 10366.1 1434.16   1
   5   4  -9 9383.11 1421.38   1
   4   5  -9 10984.0 1500.60   1
   9  -5   9 9100.40 1382.13   2
  -5  -4   9 11823.5 1598.16   1
   9  -4   9 11006.0 1503.95   2
  -5  -4  10 80924.0 4556.44   1
   9  -5  10 82853.5 4297.92   1
   9  -4  10 82625.4 4411.16   1
  -4  -5  10 77353.9 4455.95   1
  -5  -4  10 91985.0 4672.17   2
  -4  -5  10 85462.6 4525.88   2
  -9   5 -10 86288.7 4341.04   1
  -9   4 -10 87642.4 4437.38   1
   5   4 -10 80856.6 4422.19   1
   4   5 -10 77419.4 4271.61   1
   9  -5  10 85263.6 4350.46   2
   9  -4  10 75880.0 4401.80   2
  -5  -4  11 46361.4 3452.52   1
   9  -5  11 52711.2 3518.15   1
   9  -4  11 50319.4 3452.02   1
  -9   5 -11 49211.6 3272.02   1
  -4  -5  11 48051.0 3517.41   1
  -5  -4  11 52485.5 3537.34   2
  -4  -5  11 44036.3 3252.22   2
  -9   4 -11 53071.7 3407.88   1
   5   4 -11 44811.5 3257.49   1
   4   5 -11 47530.8 3310.87   1
   9  -5  11 47111.1 3270.53   2
   9  -4  11 46095.1 3271.03   2
  -9   5 -12 9236.33 1420.14   1
   5   4 -12 9673.22 1468.76   1
   4   5 -12 8848.05 1439.69   1
   9  -5  12 11859.9 1664.38   1
   9  -4  12 10231.7 1479.33   1
  -5  -4  12 6924.58 1341.11   1
  -9   4 -12 11941.4 1632.02   1
  -5  -4  12 9154.27 1520.48   2
  -4  -5  12 10178.0 1517.08   2
  -4  -5  12 6332.68 1241.95   1
   9  -5  12 9849.29 1523.61   2
   9  -4  12 8828.52 1396.76   2
   9  -5  13 45500.4 3345.64   1
   9  -4  13 50549.5 3581.39   1
  -5  -4  13 40579.5 3267.97   1
  -9   5 -13 45772.4 3259.86   1
  -9   4 -13 39189.3 3038.22   1
  -4  -5  13 26318.3 2747.72   1
  -5  -4  13 52976.1 3607.90   2
  -4  -5  13 43545.6 3299.65   2
   5   4 -13 49015.1 3418.50   1
   9  -5  13 40895.9 3131.32   2
   4   5 -13 41233.3 3198.03   1
   9  -4  13 37117.8 3013.92   2
  -4  -5  14 48798.4 3669.12   1
   9  -5  14 67817.1 4224.12   1
   9  -4  14 63488.3 4081.22   1
  -5  -4  14 51463.4 3758.34   1
  -9   5 -14 63409.6 3970.45   1
  -9   4 -14 57470.4 3780.09   1
  -5  -4  14 55070.2 3809.17   2
  -4  -5  14 59866.8 3951.54   2
   5   4 -14 62918.5 4003.92   1
   9  -5  14 60633.7 3875.25   2
   9  -4  14 45935.6 3446.45   2
   4   5 -14 60707.0 3883.27   1
   5   4 -15 1789.15 586.449   1
  -4  -5  15 4300.14 1034.09   1
   4   5 -15 2734.09 793.630   1
   9  -5  15 3390.79 954.253   1
   9  -4  15 4506.65 1073.92   1
  -5  -4  15 2586.57 836.939   2
  -4  -5  15 4536.29 1066.70   2
  -5  -4  15 2534.74 822.118   1
  -9   5 -15 3571.56 894.736   1
  -9   4 -15 2367.75 741.765   1
   9  -5  15 3390.09 943.021   2
   9  -4  15 1770.23 698.649   2
   9  -4  16 4542.81 1091.27   1
  -9   4 -16 5442.09 1098.85   1
   9  -4  16 4044.03 1075.96   2
   9  -6 -16 55720.1 3841.45   1
  -9   6  16 58633.0 4013.75   1
   3  -9  15 278.245 269.137   1
   6  -9  15-307.715 392.890   1
  -3   9 -15 440.999 474.171   1
  -9   6  15 282.313 235.693   1
  -6   9 -15 317.501 307.978   1
   9  -6 -15 61.5790 199.752   1
   9  -3 -15 621.017 560.220   1
  -9   3  15 820.408 536.326   1
  -9   3  14 12102.2 1761.27   1
   3  -9  14 8252.61 1409.99   1
   6  -9  14 9002.28 1451.32   1
  -3   9 -14 8403.22 1418.08   1
  -9   6  14 7351.09 1392.08   1
   9  -3 -14 11408.8 1711.02   1
   3  -9  14 9887.77 1489.98   2
   6  -9  14 9387.23 1473.73   2
  -6   9 -14 8891.95 1415.30   1
   9  -6 -14 7430.45 1332.96   1
   3  -9  13 161.853 178.775   1
   6  -9  13-3.21750 250.818   1
  -3   9 -13 72.6296 301.662   1
  -9   6  13-355.759 439.774   1
  -6   9 -13 376.782 402.213   1
   3  -9  13 297.728 367.159   2
   9  -6 -13 326.382 293.203   1
   6  -9  13 116.608 403.505   2
  -9   3  13 264.930 471.445   1
   9  -3 -13 245.875 485.771   1
  -9   3  12 75867.0 4205.99   1
   3  -9  12 59776.0 3846.29   1
   6  -9  12 62244.3 3965.72   1
  -3   9 -12 62737.3 3905.06   1
  -6   9 -12 73774.1 4226.51   1
   9  -6 -12 58079.0 3669.26   1
   9  -3 -12 72918.4 4135.49   1
   3  -9  12 69633.9 3927.11   2
   6  -9  12 59787.7 3767.48   2
  -9   6  12 69430.7 4099.05   1
   3  -9  11 1117.92 542.700   1
   6  -9  11 1950.87 627.462   1
  -9   6  11 1910.76 672.650   1
  -3   9 -11 2342.46 785.598   1
  -6   9 -11 1867.64 633.638   1
  -9   3  11 907.495 424.866   1
   3  -9  11 648.269 195.408   2
   9  -6 -11 699.548 364.044   1
   6  -9  11 1495.94 644.840   2
   9  -3 -11 1425.15 522.820   1
  -9   6  10 6418.83 1113.56   1
   3  -9  10 7009.23 1252.01   1
   6  -9  10 5434.95 1157.61   1
  -9   3  10 7489.34 1268.14   1
   3  -9  10 6207.49 1113.79   2
   9  -6 -10 6002.18 1110.24   1
  -6   9 -10 6671.58 1203.51   1
   9  -3 -10 5965.43 1117.55   1
   6  -9  10 5654.80 1184.22   2
  -3   9 -10 7443.95 1234.15   1
  -9   6   9 6421.97 1157.82   1
   3  -9   9 7630.26 1298.82   1
   6  -9   9 4993.78 1034.86   1
  -3   9  -9 6163.47 1133.75   1
  -9   3   9 5809.46 1128.93   1
   9  -6  -9 4123.50 872.984   1
   3  -9   9 5998.60 1045.54   2
  -6   9  -9 5619.25 1049.30   1
   9  -3  -9 6621.81 1153.27   1
   6  -9   9 7306.29 1205.17   2
   3  -9   8 112351. 5070.55   1
   6  -9   8 117518. 5132.76   1
  -3   9  -8 114928. 5169.82   1
  -6   9  -8 106572. 4950.17   1
   9  -6  -8 108627. 4828.55   1
  -9   6   8 115437. 5174.03   1
   9  -3  -8 106516. 4902.86   1
   3  -9   8 100198. 4762.81   2
   6  -9   8 96552.1 4787.70   2
  -9   3   8 112389. 5034.84   1
   3  -9   7 2720.21 731.749   1
   6  -9   7 1451.73 501.658   1
  -9   3   7 1986.31 656.794   1
  -3   9  -7 2080.66 603.837   1
   9  -6  -7 1439.62 467.689   1
  -9   6   7 2267.12 813.510   1
   3  -9   7 2449.88 722.157   2
   9  -3  -7 2520.72 728.277   1
   6  -9   7 2289.34 729.718   2
  -6   9  -7 2119.24 709.853   1
  -9   3   6 700.749 413.842   1
   3  -9   6 951.495 437.168   1
   6  -9   6 1134.97 530.917   1
  -3   9  -6 941.173 442.575   1
  -9   6   6 1535.66 524.614   1
   9  -6  -6 787.042 464.525   1
   3  -9   6 1098.18 648.259   2
   9  -3  -6 1277.74 550.810   1
   6  -9   6 674.192 475.754   2
  -6   9  -6 1524.52 566.284   1
   6  -9   5 11490.8 1490.79   1
  -9   6   5 14178.3 1639.20   1
   9  -6  -5 13826.7 1588.57   1
  -6   9  -5 14446.3 1685.19   1
   9  -3  -5 15127.2 1665.59   1
  -9   3   5 13345.6 1606.41   1
   3  -9   5 15359.8 1702.66   2
   6  -9   5 14140.4 1641.80   2
   6  -9   4 242187. 7444.04   1
  -9   6   4 226037. 7546.91   1
   9  -6  -4 223952. 7489.90   1
  -6   9  -4 251629. 7668.30   1
   9  -3  -4 210837. 7205.55   1
  -9   3   4 218619. 7321.63   1
   3  -9   4 234399. 7576.83   2
   6  -9   4 208906. 7233.85   2
  -6   9  -3-178.841 268.405   1
  -9   6   3-55.6593 289.716   1
   6  -9   3-267.728 269.408   1
  -9   3   3 348.770 248.382   1
   9  -6  -3 154.156 251.587   1
   9  -3  -3 189.290 179.286   1
   3  -9   3 223.637 308.888   2
   6  -9   3 84.7735 226.896   2
  -6   9  -2 3054.23 711.489   1
  -9   6   2 3449.09 789.917   1
   6  -9   2 3419.91 753.757   1
  -9   3   2 4467.41 866.420   1
  -3  -6  -2 4146.13 873.156   2
   9  -6  -2 2983.02 734.124   1
   9  -3  -2 4108.45 880.328   1
   3  -9   2 4964.07 955.720   2
   6  -9   2 3926.28 888.509   2
  -9   6   1 371.841 251.610   1
  -6   9  -1 535.855 420.209   1
  -9   3   1 693.165 195.693   1
  -3  -6  -1 1661.94 550.048   2
   6  -9   1 544.189 360.260   1
   9  -6  -1 284.486 304.746   1
   9  -3  -1 1438.95 646.194   1
   3  -9   1 701.187 449.540   2
   6  -9   1 575.486 272.714   2
  -9   6   0 241937. 7652.57   1
   6  -9   0 264651. 7412.98   1
  -9   3   0 296786. 8127.83   1
   9  -6   0 234111. 7534.63   1
   9  -3   0 218812. 7400.07   1
  -3  -6   0 238635. 7859.69   2
   3  -9   0 257918. 7451.32   2
  -6   9   0 216175. 7050.96   1
   6  -9   0 242444. 7730.38   2
  -9   3  -1 3200.27 791.253   1
  -6   9   1 3863.40 753.515   1
   6  -9  -1 6048.15 890.151   1
   9  -6   1 3882.04 845.414   1
  -3  -6   1 3460.28 871.762   2
   9  -3   1 3083.94 680.067   1
   6   3  -1 3215.88 751.978   1
  -9   6  -1 3915.73 861.769   1
   6  -9  -1 4119.06 798.045   2
  -6   9   2 3495.34 738.650   1
  -6  -3   2 3792.07 784.613   1
   9  -6   2 3943.68 868.189   1
   9  -3   2 3791.49 863.269   1
  -3  -6   2 3149.76 758.336   2
  -9   6  -2 3335.04 822.594   1
   6   3  -2 3199.35 772.187   1
  -9   3  -2 3690.30 843.261   1
   9  -6   3 7721.19 1210.74   1
   9  -3   3 7666.05 1162.83   1
  -6  -3   3 7950.07 1333.55   2
   6   3  -3 9297.66 1269.18   1
  -3  -6   3 6903.65 1212.16   2
  -6  -3   3 7724.96 1122.48   1
  -9   3  -3 7434.45 1162.43   1
  -9   6  -3 8000.31 1206.00   1
  -9   3  -4 110461. 4779.97   1
  -6  -3   4 115783. 4922.05   1
   9  -6   4 116537. 4920.79   1
   9  -3   4 98430.5 4604.42   1
  -6  -3   4 114508. 5233.34   2
  -3  -6   4 113519. 5031.72   2
   6   3  -4 109283. 5093.89   1
  -9   6  -4 105869. 4608.65   1
   9  -6   4 106563. 4951.85   2
  -6  -3   5 758.963 409.372   1
  -9   6  -5 15.8402 137.309   1
   9  -6   5 967.669 471.492   1
   9  -3   5 532.535 278.156   1
  -6  -3   5 501.081 193.172   2
  -9   3  -5 840.032 445.516   1
  -3  -6   5 692.662 270.814   2
   6   3  -5 938.007 451.023   1
   9  -6   5 75.9324 250.839   2
  -6  -3   6 33.6215 169.481   1
  -9   6  -6-0.81970 244.599   1
   9  -6   6-639.294 421.185   1
  -9   3  -6 275.372 354.522   1
   9  -3   6 365.162 336.176   1
  -6  -3   6 64.8662 268.476   2
  -3  -6   6 615.484 365.739   2
   9  -6   6 5.43587 313.030   2
   6   3  -6-257.099 307.674   1
   9  -6   7 12536.7 1578.02   1
   9  -3   7 12153.3 1572.24   1
  -6  -3   7 12765.5 1589.45   1
  -6  -3   7 12993.7 1681.31   2
  -3  -6   7 11375.6 1577.71   2
   6   3  -7 10677.2 1498.19   1
  -9   6  -7 12160.8 1517.49   1
  -9   3  -7 10283.2 1430.61   1
   3   6  -7 11027.4 1493.33   1
   9  -6   7 12996.5 1608.15   2
   9  -6   8 154339. 6044.95   1
   9  -3   8 168761. 6295.31   1
  -3  -6   8 164203. 6541.93   1
  -6  -3   8 155526. 6189.89   1
  -6  -3   8 150819. 6304.08   2
  -3  -6   8 159767. 6402.83   2
  -9   6  -8 128609. 5521.98   1
   6   3  -8 142465. 6040.85   1
  -9   3  -8 155706. 6108.46   1
   3   6  -8 160240. 6138.94   1
   9  -6   8 148147. 5911.82   2
   6   3  -9 802.843 425.782   1
   3   6  -9 1043.24 364.084   1
  -9   6  -9 915.787 320.758   1
  -9   3  -9 1056.12 503.030   1
  -6  -3   9 2072.26 700.399   1
   9  -6   9 927.828 478.692   1
   9  -3   9 1299.91 520.630   1
  -6  -3   9 802.555 473.184   2
  -3  -6   9-6.86764 323.097   2
   9  -6   9 991.522 439.370   2
   6   3 -10 7080.45 1236.99   1
  -3  -6  10 8037.46 1350.61   1
  -9   6 -10 6953.82 1151.10   1
   3   6 -10 7992.95 1334.58   1
  -9   3 -10 8067.41 1293.36   1
  -3  -6  10 7555.09 1347.61   2
   9  -6  10 7323.08 1318.15   1
   9  -3  10 5595.66 1058.97   1
  -6  -3  10 6141.46 1200.80   2
  -6  -3  10 7099.84 1232.84   1
   9  -6  10 8047.98 1279.80   2
   9  -3  10 6969.03 1343.91   2
   6   3 -11 643.172 442.324   1
  -3  -6  11 1129.25 553.288   1
  -9   6 -11 583.889 302.083   1
  -9   3 -11 1170.39 529.438   1
   3   6 -11 246.514 297.054   1
   9  -6  11 1047.37 508.436   1
   9  -3  11 790.973 424.477   1
  -6  -3  11 2381.17 816.993   2
  -3  -6  11 1071.80 366.875   2
  -6  -3  11 527.868 383.589   1
   9  -6  11 806.481 521.292   2
   9  -3  11 1415.97 728.917   2
   9  -6  12 121343. 5513.46   1
   9  -3  12 108909. 5350.39   1
  -3  -6  12 115205. 5487.57   2
  -9   6 -12 112919. 5307.47   1
  -9   3 -12 102555. 5062.88   1
  -6  -3  12 103586. 5288.05   2
   6   3 -12 112052. 5469.37   1
  -6  -3  12 103767. 5244.75   1
   9  -6  12 121490. 5373.44   2
   9  -3  12 83330.1 4908.75   2
   3   6 -12 106572. 5244.31   1
  -3  -6  12 96269.5 5212.72   1
  -9   3 -13 1301.85 607.675   1
  -6  -3  13 2125.58 776.501   1
   6   3 -13 1608.95 649.234   1
  -3  -6  13 1291.37 593.072   1
   3   6 -13 1336.92 533.319   1
   9  -6  13 2455.39 870.103   1
   9  -3  13 1901.19 665.855   1
  -6  -3  13 1628.15 656.911   2
  -3  -6  13 1392.29 618.755   2
   9  -6  13 1557.58 488.205   2
   9  -3  13 1442.48 651.052   2
  -9   6 -13 1755.47 607.329   1
   6   3 -14 4446.62 1070.05   1
  -3  -6  14 3352.04 959.724   1
  -6  -3  14 4195.61 1019.56   1
   3   6 -14 4095.10 1005.57   1
   9  -6  14 3803.26 986.465   1
   9  -3  14 3580.05 952.481   1
  -6  -3  14 4022.61 1050.47   2
  -3  -6  14 3646.60 939.532   2
  -9   6 -14 3830.21 1003.17   1
   9  -6  14 3732.39 969.622   2
  -9   3 -14 3385.60 898.827   1
   9  -3  14 941.188 552.298   2
   6   3 -15 2271.62 689.325   1
  -3  -6  15 2724.68 899.820   1
  -6  -3  15 2831.58 875.396   1
   3   6 -15 2377.81 752.410   1
   9  -6  15 2757.49 827.382   1
   9  -3  15 2706.43 833.987   1
  -6  -3  15 3041.32 994.467   2
  -3  -6  15 2284.35 759.273   2
  -9   6 -15 2398.19 758.106   1
  -9   3 -15 1369.72 592.884   1
   9  -6  15 2470.66 949.533   2
   9  -3  15 1318.98 527.614   2
   2  -9  15 1870.32 723.417   1
  -9   7  15 1983.93 732.618   1
  -2   9 -15 1904.17 674.668   1
   2  -9  14 37341.2 3154.52   1
  -2   9 -14 39741.4 3200.03   1
   7  -9  14 48213.1 3543.03   1
  -9   2  14 57277.0 3754.18   1
  -7   9 -14 47451.2 3362.42   1
   9  -7 -14 40814.3 3245.81   1
   2  -9  14 47283.5 3374.83   2
   9  -2 -14 49627.1 3545.19   1
  -9   7  14 32123.8 3037.97   1
   7  -9  14 40335.3 3232.25   2
   2  -9  13 3074.30 873.913   1
  -9   7  13 3204.18 917.286   1
   7  -9  13 4894.08 1107.41   1
  -2   9 -13 3975.30 966.482   1
  -7   9 -13 4113.55 994.127   1
   2  -9  13 3820.80 901.746   2
   9  -7 -13 4262.00 1026.39   1
   7  -9  13 2989.55 825.076   2
   9  -2 -13 3779.76 940.579   1
  -9   2  13 5372.23 1035.93   1
  -2   9 -12 7462.41 1389.69   1
  -9   7  12 6333.34 1240.36   1
   2  -9  12 5703.78 1153.87   1
   7  -9  12 8501.80 1428.64   1
   2  -9  12 7466.78 1378.17   2
   9  -7 -12 6538.15 1259.42   1
  -7   9 -12 9110.56 1420.22   1
   7  -9  12 7411.39 1411.24   2
   9  -2 -12 9807.48 1598.87   1
  -9   2  12 7567.11 1409.48   1
   2  -9  11 14149.0 1804.90   1
  -9   2  11 15996.2 2030.83   1
  -2   9 -11 17208.9 1999.34   1
   7  -9  11 17223.2 2028.51   1
  -7   9 -11 17599.5 1967.16   1
  -9   7  11 16656.1 1966.27   1
   9  -7 -11 16176.7 1906.61   1
   9  -2 -11 20418.0 2239.03   1
   2  -9  11 17101.2 1966.36   2
   7  -9  11 14306.9 1850.75   2
  -9   2  10 14310.4 1855.79   1
   2  -9  10 14890.7 1790.10   1
  -2   9 -10 15999.5 1926.84   1
   7  -9  10 13449.5 1769.31   1
  -7   9 -10 17637.6 1954.71   1
   9  -7 -10 12594.1 1636.63   1
  -9   7  10 16111.0 1852.81   1
   9  -2 -10 16644.1 1950.55   1
   2  -9  10 16894.1 1930.07   2
   7  -9  10 14679.1 1870.19   2
  -2   9  -9 22516.2 2175.94   1
   7  -9   9 17767.6 2010.57   1
  -7   9  -9 19893.4 2040.99   1
   9  -7  -9 14846.6 1774.40   1
  -9   7   9 18575.0 2037.37   1
   9  -2  -9 22620.1 2227.27   1
   2  -9   9 20704.4 2131.50   2
   7  -9   9 19465.5 2069.41   2
  -9   2   9 21888.1 2137.23   1
   7  -9   8 496.711 394.387   1
  -2   9  -8 450.807 391.322   1
  -9   2   8 652.481 332.377   1
  -9   7   8 350.314 376.922   1
   9  -7  -8 327.124 243.521   1
   2  -9   8 233.213 319.409   2
   9  -2  -8 959.402 544.296   1
   7  -9   8 455.430 395.925   2
  -7   9  -8 465.489 360.011   1
   7  -9   7 16480.5 1881.78   1
  -9   7   7 22992.5 2186.10   1
  -7   9  -7 19829.4 2019.99   1
   9  -7  -7 21043.3 2080.26   1
   9  -2  -7 19348.7 2036.51   1
   2  -9   7 23996.6 2231.30   2
   7  -9   7 19426.6 1997.87   2
  -9   2   7 19731.6 2021.42   1
   7  -9   6 150822. 5841.90   1
  -9   7   6 138969. 5708.92   1
   9  -7  -6 119181. 5336.64   1
   9  -2  -6 151945. 5832.59   1
   2  -9   6 134963. 5697.31   2
  -9   2   6 136676. 5518.88   1
   7  -9   6 122425. 5314.42   2
  -7   9  -6 131300. 5422.90   1
   7  -9   5 53192.2 3313.31   1
  -9   7   5 59461.7 3578.64   1
   9  -7  -5 54798.6 3359.02   1
   9  -2  -5 59699.8 3479.92   1
  -7   9  -5 58099.4 3311.27   1
   2  -9   5 66850.0 3686.47   2
  -9   2   5 66430.5 3651.49   1
   7  -9   5 54337.6 3366.85   2
   7  -9   4 63205.3 3581.93   1
  -9   7   4 86354.6 4238.45   1
   9  -7  -4 73153.5 3913.76   1
   9  -2  -4 78287.8 4039.49   1
  -9   2   4 93832.5 4284.75   1
  -7   9  -4 73422.8 3792.22   1
   2  -9   4 78687.3 4055.58   2
   7  -9   4 75138.7 3951.76   2
  -9   7   3 59484.2 3435.13   1
   7  -9   3 58032.1 3307.53   1
   9  -7  -3 67936.5 3596.81   1
  -9   2   3 53549.8 3189.58   1
   9  -2  -3 60541.4 3433.17   1
   2  -9   3 56944.7 3385.84   2
  -7   9  -3 47634.4 2987.64   1
   7  -9   3 58853.9 3465.42   2
  -9   7   2 149292. 5846.60   1
   7  -9   2 147531. 5583.09   1
   9  -7  -2 169955. 6055.48   1
  -9   2   2 157492. 5917.42   1
   9  -2  -2 143428. 5714.88   1
  -2  -7  -2 174262. 6145.99   2
   2  -9   2 161506. 5946.36   2
  -7   9  -2 155958. 5743.15   1
   7  -9   2 159787. 6007.36   2
  -7   9  -1 461.330 347.172   1
  -9   2   1 480.031 319.957   1
   7  -9   1 1247.10 491.113   1
   9  -7  -1 1300.43 560.462   1
  -2  -7  -1 434.440 337.295   2
   7   2   1 562.689 362.792   1
   9  -2  -1 950.387 485.559   1
   2  -9   1 516.907 248.715   2
  -9   7   1 926.048 518.559   1
   7  -9   1 900.312 449.285   2
  -9   2   0 87.4958 185.845   1
  -7   9   0 85.0352 157.316   1
   7  -9   0 532.118 375.309   1
  -7  -2   0 731.686 435.799   1
   9  -7   0 329.618 201.762   1
  -2  -7   0 189.929 318.609   2
   9  -2   0 372.686 245.088   1
   7   2   0 78.3448 243.168   1
  -9   7   0 314.335 303.772   1
   7  -9   0 616.260 352.996   2
  -9   2  -1 3279.55 672.897   1
  -7   9   1 3486.86 761.488   1
   7  -9  -1 3420.72 750.324   1
   9  -7   1 3162.44 821.138   1
  -2  -7   1 3420.60 866.082   2
   9  -2   1 3992.43 823.100   1
  -9   7  -1 3237.95 706.212   1
   7   2  -1 3773.91 889.732   1
  -7  -2   1 2918.18 690.505   1
   7  -9  -1 2855.76 759.182   2
   9  -7   1 3768.89 973.872   2
  -9   2  -2 33489.0 2418.59   1
   7  -9  -2 35357.2 2406.33   1
   9  -7   2 28387.9 2337.38   1
   9  -2   2 29196.4 2298.81   1
   7   2  -2 32145.8 2440.15   1
  -2  -7   2 31887.2 2510.96   2
  -7  -2   2 34466.2 2466.38   1
  -7   9   2 27990.2 2135.70   1
   9  -7   2 30780.1 2600.50   2
  -9   7  -2 30122.3 2347.70   1
  -9   2  -3 102878. 4539.25   1
   9  -7   3 89134.3 4315.67   1
   7  -9  -3 80900.5 3847.83   1
   9  -2   3 80930.4 4059.80   1
  -2  -7   3 92004.0 4528.54   2
   7   2  -3 86649.7 4298.44   1
  -7  -2   3 91555.6 4254.65   1
   9  -7   3 91194.8 4517.67   2
  -9   7  -3 93648.7 4219.00   1
  -7   9   3 100284. 4306.43   1
  -7   9   4 8789.69 1233.05   1
  -9   2  -4 8122.26 1236.24   1
   7  -9  -4 9765.20 1220.02   1
  -9   7  -4 7742.74 1229.63   1
   9  -7   4 8055.82 1226.42   1
   9  -2   4 6904.31 1152.89   1
   7   2  -4 8173.30 1282.03   1
  -2  -7   4 7567.92 1275.48   2
  -7  -2   4 10161.4 1363.85   1
   9  -7   4 8525.29 1253.69   2
  -7  -2   5 65924.5 3672.06   1
   9  -7   5 61459.8 3604.31   1
   9  -2   5 56977.5 3431.47   1
  -2  -7   5 57970.4 3543.43   2
   7   2  -5 60806.1 3653.78   1
  -9   7  -5 58028.8 3415.05   1
   9  -7   5 60955.7 3424.39   2
  -9   2  -5 61992.6 3523.76   1
  -7  -2   6 139548. 5718.33   1
   9  -7   6 119561. 5253.53   1
   9  -2   6 121954. 5251.12   1
  -7  -2   6 121648. 5664.98   2
  -2  -7   6 123999. 5446.89   2
   7   2  -6 131877. 5769.82   1
  -9   7  -6 111422. 4947.72   1
   9  -7   6 124554. 5194.18   2
  -9   2  -6 124468. 5181.92   1
  -7  -2   7 3957.03 889.254   1
  -9   7  -7 4146.96 906.699   1
  -9   2  -7 6077.16 1108.91   1
   9  -7   7 5801.64 1073.20   1
   9  -2   7 4766.24 955.564   1
  -7  -2   7 4637.68 1095.57   2
  -2  -7   7 5883.05 1193.60   2
   7   2  -7 7180.27 1250.81   1
   9  -7   7 5629.71 1063.46   2
   9  -7   8 24090.5 2289.01   1
  -7  -2   8 23826.9 2288.31   1
   9  -2   8 27180.3 2361.60   1
  -7  -2   8 23981.6 2396.93   2
  -2  -7   8 23932.2 2382.93   2
  -9   7  -8 26460.7 2293.50   1
   7   2  -8 25282.6 2402.99   1
  -9   2  -8 25810.5 2310.29   1
   9  -7   8 23552.7 2171.96   2
   9  -7   9 13455.4 1703.73   1
   9  -2   9 10423.5 1527.89   1
  -7  -2   9 10945.1 1556.18   1
  -7  -2   9 11730.9 1661.21   2
  -2  -7   9 10518.6 1549.67   2
  -9   7  -9 11895.8 1539.06   1
  -9   2  -9 10152.9 1438.97   1
   7   2  -9 13116.7 1741.40   1
   9  -7   9 11521.5 1487.22   2
   2   7  -9 11507.8 1570.42   1
   9  -7  10 85269.2 4432.28   1
   9  -2  10 75887.4 4224.44   1
  -7  -2  10 79889.8 4351.90   1
  -7  -2  10 74052.9 4351.49   2
  -9   7 -10 82581.4 4178.97   1
  -2  -7  10 75469.3 4390.20   2
  -9   2 -10 73534.7 4091.95   1
   7   2 -10 80149.8 4427.10   1
   9  -7  10 73269.6 4039.54   2
   2   7 -10 73107.8 4179.75   1
   9  -7  11 28023.9 2601.58   1
   9  -2  11 27436.7 2466.88   1
  -7  -2  11 24406.1 2356.41   1
  -9   7 -11 30777.6 2648.03   1
  -7  -2  11 23299.4 2521.33   2
  -9   2 -11 28310.5 2469.72   1
  -2  -7  11 30252.2 2693.14   2
   7   2 -11 31136.4 2755.78   1
   9  -7  11 27523.5 2400.81   2
   2   7 -11 30945.8 2654.39   1
  -2  -7  11 29861.0 2763.69   1
   7   2 -12 5452.40 1168.49   1
  -9   2 -12 3908.26 891.966   1
  -2  -7  12 3618.97 1035.91   1
   2   7 -12 5290.17 1075.54   1
   9  -7  12 4498.71 1042.72   1
   9  -2  12 4744.58 1020.81   1
  -7  -2  12 6207.00 1197.08   1
  -7  -2  12 4612.40 1100.03   2
  -2  -7  12 5240.08 1200.77   2
   9  -7  12 4028.49 884.019   2
   9  -2  12 2376.05 701.436   2
  -9   7 -12 3865.95 917.883   1
   9  -7  13 13239.2 1795.62   1
   9  -2  13 11184.2 1693.03   1
  -9   7 -13 11938.4 1584.14   1
  -7  -2  13 11738.1 1777.18   2
  -7  -2  13 10461.9 1603.72   1
  -2  -7  13 13373.5 1804.66   2
   7   2 -13 14165.7 1779.36   1
   9  -7  13 11557.3 1655.01   2
   2   7 -13 12353.6 1701.45   1
  -2  -7  13 9490.08 1646.97   1
   9  -7  14 17474.1 2140.66   1
  -9   7 -14 19347.3 2093.35   1
  -7  -2  14 18425.9 2276.68   2
  -7  -2  14 21302.0 2300.25   1
   7   2 -14 16011.8 1958.77   1
   9  -7  14 22221.4 2281.41   2
  -2  -7  14 18252.2 2075.29   2
   2   7 -14 16971.1 2060.11   1
  -2  -7  14 13746.0 1963.85   1
  -2  -7  15 4063.24 1083.52   1
   2   7 -15 4337.64 1062.27   1
  -7  -2  15 4296.37 1117.23   2
  -1   9 -15 758.720 444.241   1
  -1   9 -14 24855.0 2509.62   1
   1  -9  14 18114.7 2311.42   1
  -1   9 -13 22745.8 2387.52   1
   8  -9  13 29668.2 2626.56   1
  -9   1  13 29897.0 2748.49   1
  -8   9 -13 24427.4 2377.99   1
   1  -9  13 25377.0 2484.74   2
   9  -1 -13 29876.1 2804.68   1
   8  -9  13 25870.0 2431.56   2
   8  -9  12 3955.43 936.059   1
  -1   9 -12 3598.85 901.376   1
   1  -9  12 3525.96 978.126   2
  -9   8  12 2521.87 792.625   1
  -8   9 -12 3034.62 789.749   1
   8  -9  12 2762.69 876.789   2
   9  -1 -12 4195.67 1139.87   1
  -9   1  12 3465.59 927.888   1
   8  -9  11 4129.24 1023.85   1
  -9   8  11 3852.13 977.347   1
   9  -8 -11 2313.07 758.359   1
   1  -9  11 2872.34 879.625   2
  -9   1  11 3884.10 1000.82   1
   8  -9  11 1872.45 691.667   2
   9  -1 -11 5417.24 1066.94   1
  -8   9 -11 3778.75 937.474   1
  -9   1  10 46040.3 3414.62   1
   8  -9  10 49749.4 3532.71   1
  -9   8  10 57792.6 3748.19   1
  -8   9 -10 48775.6 3307.15   1
   9  -8 -10 50974.5 3536.56   1
   1  -9  10 56234.5 3566.51   2
   9  -1 -10 52562.7 3612.62   1
   8  -9  10 49728.8 3402.82   2
   8  -9   9 14515.5 1811.30   1
  -9   8   9 12307.4 1709.21   1
  -8   9  -9 12597.0 1615.67   1
   9  -8  -9 15836.3 1915.36   1
   1  -9   9 14953.5 1781.32   2
   9  -1  -9 15963.5 1917.17   1
   8  -9   9 13146.8 1717.51   2
  -9   1   9 13016.4 1730.97   1
  -8   9  -8 2321.22 817.103   1
   8  -9   8 2498.01 739.260   1
  -9   8   8 2026.16 729.495   1
  -9   1   8 2986.10 843.245   1
   9  -8  -8 2012.76 737.008   1
   1  -9   8 1611.52 507.511   2
   9  -1  -8 1558.40 605.841   1
   8  -9   8 1656.69 713.436   2
   8  -9   7 23368.3 2266.75   1
  -9   8   7 22616.9 2193.60   1
   9  -8  -7 33359.2 2653.66   1
  -8   9  -7 25282.9 2241.99   1
   9  -1  -7 26742.6 2408.48   1
   1  -9   7 25129.4 2389.62   2
   8  -9   7 26044.8 2313.54   2
  -9   1   7 28572.5 2403.94   1
   8  -9   6 47055.9 3222.74   1
  -9   8   6 51391.8 3350.35   1
   9  -8  -6 48380.3 3199.02   1
   9  -1  -6 59716.1 3518.12   1
  -8   9  -6 49736.1 3203.64   1
   1  -9   6 55868.2 3464.11   2
  -9   1   6 48121.3 3213.86   1
   8  -9   6 57233.7 3417.88   2
  -9   8   5 9413.65 1385.02   1
   8  -9   5 11388.9 1428.52   1
   9  -1  -5 9473.68 1378.55   1
   1  -9   5 10866.5 1511.37   2
  -8   9  -5 10346.3 1437.47   1
   9  -8  -5 7528.18 1188.12   1
  -9   1   5 11822.3 1525.59   1
   8  -9   5 12677.4 1553.00   2
  -9   8   4 38330.4 2801.41   1
   8  -9   4 40450.6 2809.76   1
   9  -8  -4 32056.2 2518.21   1
   9  -1  -4 37513.0 2771.68   1
   1  -9   4 37663.3 2773.49   2
  -9   1   4 34076.6 2613.69   1
  -8   9  -4 40315.0 2780.65   1
  -9   8   3 23465.9 2149.34   1
   8  -9   3 29108.0 2288.05   1
   8   1   3 19803.1 1959.49   1
   9  -8  -3 21443.3 1994.60   1
   9  -1  -3 21851.5 2068.77   1
   1  -9   3 21189.0 2064.15   2
  -8   9  -3 22336.3 2026.34   1
   8  -9   3 30976.7 2492.74   2
   9  -8  -3 12542.2 1925.26   2
  -9   1   3 23355.3 2120.46   1
  -9   8   2 128281. 5260.08   1
  -8  -1  -2 107528. 4706.94   1
   8  -9   2 116251. 4899.14   1
   9  -8  -2 126796. 5199.81   1
   8   1   2 127719. 5221.86   1
  -9   1   2 118318. 5046.32   1
   9  -1  -2 107652. 4859.50   1
   1  -9   2 125294. 5280.88   2
  -8   9  -2 100310. 4606.57   1
   8  -9   2 155925. 5875.60   2
   9  -8  -2 73215.8 4697.25   2
  -9   8   1 42490.9 2888.04   1
  -8  -1  -1 43875.5 2849.73   1
   8  -9   1 46235.1 2931.08   1
   9  -8  -1 42987.8 2922.95   1
  -9   1   1 40205.8 2793.06   1
   8   1   1 39589.1 2817.05   1
   9  -1  -1 44597.0 2999.94   1
   1  -9   1 36548.4 2704.84   2
  -8   9  -1 36608.2 2633.36   1
   8  -9   1 49500.8 3236.35   2
   9  -8  -1 38106.3 3082.67   2
  -9   1   0 5896.03 1034.77   1
  -8  -1   0 6952.16 1054.50   1
  -8   9   0 4990.27 919.563   1
   8  -9   0 4109.49 814.687   1
   9  -8   0 4771.87 959.794   1
  -1  -8   0 4538.88 1068.71   2
  -9   8   0 5745.08 1042.97   1
   9  -1   0 5617.90 1038.54   1
   8   1   0 6822.37 1151.81   1
   8  -9   0 9058.36 1312.03   2
   9  -8   0 6467.94 1083.15   2
  -9   1  -1 33462.8 2513.93   1
   8  -9  -1 34823.5 2518.75   1
   9  -8   1 32656.2 2459.57   1
   9  -1   1 33798.3 2570.47   1
  -8  -1   1 38938.1 2696.05   1
   8   1  -1 24084.2 2241.97   1
  -1  -8   1 31954.6 2679.51   2
   8  -9  -1 32854.3 2614.94   2
   9  -8   1 34704.5 2692.43   2
  -8   9   1 32446.2 2390.42   1
  -9   8  -1 31824.1 2451.14   1
  -9   1  -2 56884.8 3397.00   1
   9  -8   2 52399.5 3323.44   1
   8  -9  -2 62073.5 3456.15   1
   9  -1   2 74662.4 3870.79   1
   8   1  -2 59072.6 3495.53   1
  -8  -1   2 75448.3 3870.05   1
  -1  -8   2 70636.4 3976.91   2
   9  -8   2 61463.7 3717.75   2
  -9   8  -2 64666.0 3525.45   1
  -8   9   2 70413.1 3640.35   1
  -8   9   3 37061.5 2626.74   1
  -9   1  -3 39774.2 2793.29   1
   9  -8   3 39932.0 2798.40   1
   8  -9  -3 27947.0 2356.33   1
   9  -1   3 34044.6 2616.48   1
   8   1  -3 34663.9 2638.18   1
  -1  -8   3 38416.3 2913.94   2
  -8  -1   3 44399.9 2941.98   1
  -9   8  -3 36969.3 2618.52   1
   9  -8   3 38970.8 2832.22   2
  -8  -1   4 615.226 351.537   1
  -9   8  -4 1944.08 507.619   1
   9  -8   4 1516.51 573.146   1
   9  -1   4 1145.66 543.626   1
   8  -9  -4 1559.81 521.365   1
  -1  -8   4 1557.98 644.659   2
  -9   1  -4 1515.82 612.250   1
  -8   9   4 1862.06 674.473   1
   8   1  -4 1724.45 575.043   1
   9  -8   4 2855.14 741.066   2
  -8   9   5 8370.67 1295.60   1
   9  -8   5 8896.79 1339.93   1
  -9   8  -5 8486.21 1254.32   1
   9  -1   5 8045.47 1242.83   1
  -1  -8   5 10566.4 1515.06   2
   8  -9  -5 6886.79 1101.12   1
  -8  -1   5 9714.69 1416.84   1
   9  -8   5 8859.03 1326.19   2
   8   1  -5 6817.79 1253.46   1
  -9   1  -5 7113.06 1208.58   1
  -8   9   6 69776.8 3846.24   1
   9  -8   6 58463.9 3620.63   1
   9  -1   6 68840.3 3867.48   1
   8  -9  -6 74868.5 3921.68   1
  -1  -8   6 66107.4 3910.30   2
   8   1  -6 76910.0 4159.83   1
  -9   8  -6 65889.8 3676.85   1
   9  -8   6 58863.2 3485.42   2
  -9   1  -6 56273.8 3496.64   1
  -8  -1   6 68016.7 3842.39   1
  -9   8  -7 3667.13 877.056   1
  -9   1  -7 3674.63 880.497   1
   9  -8   7 4575.69 1008.33   1
   9  -1   7 4564.00 947.596   1
  -1  -8   7 4315.58 976.572   2
  -8  -1   7 3733.82 874.199   1
   8   1  -7 3633.39 888.419   1
   9  -8   7 4664.91 917.573   2
  -8  -1   8 31420.6 2714.68   1
   9  -8   8 40849.8 2956.05   1
   9  -1   8 30356.0 2564.62   1
  -1  -8   8 36015.7 2921.03   2
  -9   8  -8 34345.2 2666.13   1
   8   1  -8 43612.4 3320.88   1
  -9   1  -8 37720.1 2755.19   1
   9  -8   8 35323.1 2720.67   2
  -8  -1   9 42832.3 3111.36   1
   9  -8   9 40601.1 3061.01   1
   9  -1   9 34855.2 2816.78   1
  -9   8  -9 39852.6 2900.05   1
  -1  -8   9 44338.2 3246.37   2
   8   1  -9 41513.9 3201.61   1
   9  -8   9 44063.4 2958.88   2
  -8  -1  10 52388.1 3595.71   1
   9  -8  10 55432.6 3657.59   1
  -9   8 -10 57160.4 3575.03   1
  -1  -8  10 52898.1 3647.42   2
   8   1 -10 54390.7 3698.74   1
   9  -8  10 54359.4 3448.86   2
   9  -8  11 24846.7 2453.79   1
  -8  -1  11 18944.2 2198.71   1
  -9   8 -11 24459.7 2309.61   1
  -1  -8  11 21516.5 2313.58   2
   8   1 -11 22715.3 2344.25   1
   9  -8  11 22228.4 2182.16   2
  -8  -1  12 1366.73 492.357   1
   9  -8  12 274.736 199.305   1
  -1  -8  12 767.253 399.530   2
   9  -8  12 1234.71 591.447   2
   8   1 -12 870.000 463.470   1
  -9   8 -12 984.319 535.938   1
   9  -1  12 334.160 489.435   2
   1   8 -13 3545.68 935.406   1
  -8  -1  13 5459.06 1139.79   1
   9  -8  13 4362.76 1020.37   1
  -8  -1  13 3605.05 1072.19   2
  -1  -8  13 3486.84 955.557   2
  -9   8 -13 4585.06 1084.22   1
   9  -8  13 4276.33 1053.68   2
   9  -1  13 349.908 309.504   2
   8   1 -13 5024.39 1082.32   1
  -8  -1  14 28733.7 2883.52   2
   1   8 -14 29333.4 2761.66   1
  -9   0   0 497085. 12975.2   1
   9  -9   0 512701. 13034.0   1
   9   0   0 484504. 13053.6   1
  -9   9   0 525031. 12935.9   1
  -9   0  -1 486.670 228.876   1
  -9   0   1 129.820 326.984   1
  -9   9  -1 261.421 379.729   1
   9  -9   1 410.829 401.339   1
   9  -9  -1 712.072 455.427   1
  -9   9   1 122.710 257.435   1
   9   0   1 564.407 364.482   1
   0  -9   1 313.340 366.616   2
   9   0  -1 553.565 354.566   1
   9  -9   1 764.260 557.175   2
   9  -9  -1 644.149 569.826   2
  -9   0  -2-306.697 319.854   1
  -9   9  -2 327.320 203.859   1
   9  -9   2 265.172 359.145   1
   9  -9  -2-130.253 355.278   1
  -9   0   2 536.748 414.918   1
   9   0   2 507.217 409.384   1
  -9   9   2 461.639 313.845   1
   0  -9   2 69.5269 187.429   2
   9   0  -2 48.7151 247.197   1
   9  -9   2 371.282 470.350   2
  -9   9  -3 732.930 413.602   1
   9  -9   3 627.088 459.084   1
   9  -9  -3 850.239 445.798   1
   9   0   3 314.838 229.746   1
   0  -9   3 138.917 291.641   2
   9   0  -3 1247.04 613.352   1
  -9   9   3 388.233 242.286   1
  -9   0   3 514.657 480.834   1
  -9   0  -3 666.054 443.509   1
   9  -9   3 748.727 362.390   2
  -9   0  -4 21886.6 2010.22   1
  -9   9   4 20528.6 2093.34   1
   9  -9   4 16587.4 1865.41   1
   9   0   4 19460.2 2002.44   1
   9  -9  -4 22051.7 2054.96   1
   9   0  -4 21863.2 2073.02   1
   0  -9   4 18851.5 2029.83   2
  -9   0   4 17682.6 1918.59   1
  -9   9  -4 16227.4 1766.21   1
   9  -9   4 21069.3 1992.96   2
  -9   0   5-47.8810 141.319   1
  -9   9  -5-325.659 439.338   1
   9  -9   5 587.744 458.733   1
   9   0   5-143.603 208.525   1
   9  -9  -5 249.690 237.654   1
   0  -9   5-101.129 190.441   2
   9   0  -5 229.008 207.002   1
   9  -9   5-144.533 386.404   2
  -9   9   5-236.926 274.446   1
  -9   9   6 2559.28 734.997   1
  -9   9  -6 2090.21 569.459   1
  -9   0   6 2527.80 790.355   1
   9  -9   6 2347.65 749.153   1
   9  -9  -6 2976.85 744.138   1
   0  -9   6 1964.58 657.820   2
   9   0  -6 3234.20 807.428   1
   9  -9   6 2430.74 736.020   2
  -9   9   7 1258.26 513.864   1
  -9   9  -7 590.018 265.617   1
   9  -9   7 1332.69 664.213   1
  -9   0   7 91.5460 297.449   1
   9  -9  -7 136.731 199.500   1
   0  -9   7 441.165 379.811   2
   9   0  -7-444.693 445.963   1
   9  -9   7 403.830 271.544   2
   9  -9   8 83069.0 4440.67   1
  -9   9   8 85854.1 4580.89   1
  -9   9  -8 75047.0 4132.75   1
   0  -9   8 77512.9 4481.82   2
   9   0  -8 83656.6 4575.67   1
   9  -9   8 90989.0 4552.00   2
  -9   0   8 76769.7 4367.50   1
  -9   9  -9 768.866 260.786   1
   9  -9   9 419.512 446.783   1
   0  -9   9 583.539 495.487   2
  -9   0   9 508.306 417.278   1
   9   0  -9 374.619 382.614   1
   9  -9   9 84.3923 372.967   2
  -9   9 -10 1093.36 632.780   1
   9  -9  10 317.305 336.952   1
   0  -9  10 520.612 256.367   2
  -9   0  10-69.3205 212.417   1
   9   0 -10 172.806 347.029   1
   9  -9  10-126.134 241.673   2
   9  -9  11-564.293 368.025   1
   0  -9  11 237.640 405.658   2
   9   0 -11-273.326 461.551   1
   9  -9  11 193.488 404.491   2
  -9   0  11 580.433 445.297   1
  -9   9 -11-85.9349 273.561   1
  -9   0  12 85848.5 4924.66   1
   9  -9  12 97633.7 5017.36   1
  -9   9 -12 101290. 4966.69   1
   0  -9  12 90376.4 4922.02   2
   9   0 -12 101099. 5317.11   1
   9  -9  12 78958.5 4493.78   2
  -5  10 -14 1031.78 630.145   1
   5 -10  14-223.803 268.212   1
   5 -10  13 151.197 219.055   1
 -10   5  13 510.507 475.369   1
  -5  10 -13 26.6897 348.597   1
   5 -10  13 44.6152 260.992   2
  10  -5 -13-62.0708 200.907   1
   5 -10  12 196476. 7730.96   1
  -5  10 -12 219803. 8217.69   1
  10  -5 -12 216637. 7778.08   1
   5 -10  12 227766. 7956.89   2
   5 -10  11 480.985 366.892   1
 -10   5  11 373.512 463.427   1
  -5  10 -11-146.706 232.129   1
  10  -5 -11 92.0818 165.130   1
   5 -10  11-409.657 354.382   2
 -10   5  10 3026.10 813.883   1
   5 -10  10 2636.65 752.403   1
  -5  10 -10 2799.29 887.456   1
  10  -5 -10 3519.76 818.596   1
   5 -10  10 3345.08 852.773   2
 -10   5   9 19.5879 178.866   1
   5 -10   9 267.580 306.163   1
  -5  10  -9 199.807 348.240   1
  10  -5  -9-430.587 391.419   1
   5 -10   9-134.059 227.969   2
   5 -10   8 25970.3 2398.26   1
  -5  10  -8 28301.1 2494.62   1
  10  -5  -8 28960.5 2386.51   1
 -10   5   8 27297.7 2413.23   1
   5 -10   8 24597.8 2248.94   2
   5 -10   7-272.179 422.619   1
  -5  10  -7 295.762 436.743   1
  10  -5  -7-251.152 309.943   1
 -10   5   7 683.896 467.796   1
   5 -10   7-62.7316 312.783   2
   5 -10   6 15001.8 1731.59   1
  -5  10  -6 12166.9 1629.71   1
 -10   5   6 13256.3 1670.22   1
  10  -5  -6 13512.3 1640.58   1
   5 -10   6 13366.8 1614.68   2
 -10   5   5 51.7946 189.677   1
  -5  10  -5 58.0074 184.618   1
   5 -10   5-109.807 229.451   2
 -10   5   4 100792. 4718.69   1
  10  -5  -4 93190.5 4593.96   1
   5 -10   4 101195. 4833.83   2
 -10   5   3 244.614 236.366   1
  10  -5  -3-86.0396 304.903   1
   5 -10   3 83.8109 361.132   2
 -10   5   2 15107.8 1761.95   1
  10  -5  -2 14172.6 1713.73   1
   5 -10   2 15866.4 1740.05   2
 -10   5   1 253.869 321.982   1
  10  -5  -1-17.9686 346.676   1
 -10   5   0 388794. 10525.2   1
  10  -5   0 373363. 10404.1   1
  -5  -5   1 285.775 298.239   2
  10  -5   1-527.662 498.810   1
 -10   5  -1-282.020 243.491   1
  10  -5   2 6478.23 1109.46   1
  -5  -5   2 3151.63 866.522   2
 -10   5  -2 5894.13 1027.04   1
  10  -5   3-158.330 221.671   1
  -5  -5   3-105.455 511.424   2
 -10   5  -3-202.679 310.179   1
  10  -5   4 87902.6 4326.81   1
  -5  -5   4 76675.5 4276.04   2
 -10   5  -4 89501.9 4238.60   1
 -10   5  -5 119.703 175.710   1
  10  -5   5 259.650 340.419   1
  -5  -5   5 129.404 272.507   2
 -10   5  -6 3936.31 878.838   1
  10  -5   6 3661.26 842.152   1
  -5  -5   6 3858.07 1043.09   2
 -10   5  -7 457.503 371.953   1
  10  -5   7-118.546 190.842   1
  -5  -5   7 535.405 436.338   2
  10  -5   7 99.6855 341.896   2
  10  -5   8 43495.8 3053.05   1
  -5  -5   8 48638.4 3358.65   2
 -10   5  -8 46128.2 3097.82   1
   5   5  -8 44598.8 3228.24   1
  10  -5   8 43241.8 3226.18   2
   5   5  -9 325.145 251.349   1
 -10   5  -9 723.804 451.147   1
  10  -5   9-79.5832 363.654   1
  -5  -5   9-282.855 448.614   2
  -5  -5   9-41.7066 210.116   1
  10  -5   9 353.740 375.327   2
  -5  -5  10 8886.03 1454.78   1
   5   5 -10 7431.22 1302.35   1
  10  -5  10 9004.25 1394.97   1
 -10   5 -10 9799.44 1422.99   1
  -5  -5  10 10539.0 1535.61   2
  10  -5  10 10176.2 1485.68   2
   5   5 -11-95.2603 294.020   1
 -10   5 -11 181.655 406.807   1
  -5  -5  11 239.105 280.785   1
  10  -5  11-232.599 451.024   1
  -5  -5  11 561.446 506.367   2
  10  -5  11 175.924 211.178   2
  10  -5  12 155349. 6557.16   1
 -10   5 -12 153802. 6354.65   1
  -5  -5  12 167486. 6805.48   2
   5   5 -12 140641. 6345.81   1
  10  -5  12 148624. 6420.90   2
 -10   5 -13-276.489 402.593   1
   5   5 -13-481.891 249.174   1
  -5  -5  13-355.289 472.256   1
  10  -5  13 586.363 392.890   1
  -5  -5  13-154.423 357.790   2
  10  -5  13 181.572 239.686   2
  -5  -5  14 11372.6 1828.53   1
  10  -5  14 17325.9 2144.82   1
 -10   5 -14 14084.8 1858.55   1
   5   5 -14 13502.5 1861.35   1
   4 -10  14 21463.1 2415.99   1
  -4  10 -14 20164.2 2253.01   1
   4 -10  13 26791.0 2692.01   1
   6 -10  13 30726.9 2811.21   1
  -4  10 -13 34361.4 2922.27   1
  -6  10 -13 37092.0 3046.33   1
  10  -6 -13 44704.7 3156.77   1
  10  -4 -13 37313.1 2932.57   1
   4 -10  13 35436.6 2881.55   2
 -10   6  13 39091.7 3060.02   1
   6 -10  13 39022.7 2890.91   2
 -10   4  13 42916.0 3223.32   1
   4 -10  12 20676.5 2294.31   1
   6 -10  12 20685.7 2281.92   1
  -4  10 -12 22260.4 2367.34   1
  -6  10 -12 28681.8 2557.61   1
  10  -6 -12 25808.2 2349.74   1
  10  -4 -12 27659.0 2466.08   1
   4 -10  12 26734.2 2489.22   2
 -10   6  12 27400.3 2539.66   1
   6 -10  12 26507.9 2472.64   2
 -10   4  12 27897.7 2580.25   1
 -10   6  11 3550.01 902.174   1
   4 -10  11 3317.58 916.398   1
   6 -10  11 2942.19 824.640   1
 -10   4  11 3732.61 865.883   1
  -4  10 -11 3791.31 953.659   1
  -6  10 -11 3586.37 978.137   1
  10  -6 -11 5854.61 1136.63   1
   4 -10  11 3258.35 811.494   2
  10  -4 -11 4137.20 1008.46   1
   6 -10  11 3504.83 939.022   2
   4 -10  10 72327.2 4256.74   1
   6 -10  10 81544.1 4550.35   1
  -4  10 -10 88322.0 4743.72   1
  -6  10 -10 69850.0 4125.58   1
  10  -6 -10 85025.3 4359.38   1
  10  -4 -10 82220.0 4367.36   1
 -10   6  10 84176.1 4524.86   1
   4 -10  10 85383.4 4454.41   2
   6 -10  10 72352.1 4186.12   2
 -10   4  10 83465.0 4495.12   1
 -10   4   9 3946.50 909.981   1
   6 -10   9 4173.77 947.987   1
  -4  10  -9 4395.42 1000.15   1
  -6  10  -9 3369.67 894.327   1
  10  -6  -9 3956.88 875.287   1
   4 -10   9 4967.88 1088.72   2
  10  -4  -9 5349.44 1039.91   1
   6 -10   9 3700.08 893.715   2
 -10   6   9 4609.99 1006.71   1
 -10   4   8 422.445 370.570   1
   6 -10   8-429.435 382.721   1
  -4  10  -8 418.956 343.672   1
  10  -6  -8 929.347 436.614   1
 -10   6   8-75.2362 331.017   1
  10  -4  -8 1263.63 641.781   1
  -6  10  -8-129.140 242.609   1
   4 -10   8 391.076 327.555   2
   6 -10   8 516.897 401.412   2
   6 -10   7 27695.9 2412.92   1
  -6  10  -7 28738.9 2454.79   1
 -10   6   7 32399.0 2691.93   1
  10  -6  -7 29244.8 2413.40   1
  10  -4  -7 32336.1 2595.68   1
 -10   4   7 34026.7 2672.77   1
   4 -10   7 34097.2 2728.06   2
   6 -10   7 25235.6 2360.36   2
   6 -10   6 24060.2 2223.06   1
  -6  10  -6 30958.8 2527.01   1
 -10   6   6 25694.8 2354.58   1
  10  -6  -6 23853.6 2215.30   1
 -10   4   6 26449.7 2321.64   1
   4 -10   6 27906.0 2453.06   2
  10  -4  -6 30156.1 2411.70   1
   6 -10   6 24874.5 2333.58   2
   6 -10   5 9831.83 1345.07   1
 -10   6   5 10650.1 1504.35   1
  -6  10  -5 8296.60 1326.34   1
  10  -6  -5 10839.9 1495.19   1
 -10   4   5 13499.9 1658.55   1
  10  -4  -5 12343.4 1525.47   1
   4 -10   5 12444.3 1613.93   2
   6 -10   5 9972.85 1476.53   2
 -10   6   4 3969.25 915.590   1
   6 -10   4 3148.84 704.189   1
 -10   4   4 4117.92 957.765   1
  10  -6  -4 4005.25 831.375   1
  10  -4  -4 3289.18 863.605   1
   4 -10   4 2694.78 732.042   2
   6 -10   4 4304.29 962.802   2
  -6  10  -4 3588.75 848.034   1
 -10   6   3 19249.6 1976.26   1
 -10   4   3 19564.6 1962.68   1
  10  -6  -3 17765.1 1872.32   1
  -6  10  -3 19886.5 1960.84   1
  10  -4  -3 18874.3 2017.41   1
   4 -10   3 19293.6 1993.58   2
   6 -10   3 18652.3 2027.33   2
 -10   6   2 140162. 5661.23   1
 -10   4   2 136452. 5617.82   1
  10  -6  -2 137603. 5629.83   1
  10  -4  -2 145972. 5739.93   1
   4 -10   2 136221. 5565.97   2
   6 -10   2 150636. 5877.90   2
 -10   6   1 46116.9 3098.26   1
 -10   4   1 53443.7 3228.93   1
  10  -6  -1 45692.1 3051.72   1
  10  -4  -1 46202.0 3032.94   1
  -4  -6  -1 46958.5 3290.37   2
   6 -10   1 53724.4 3288.22   2
 -10   6   0 32704.2 2533.06   1
 -10   4   0 33449.8 2545.26   1
  10  -6   0 35121.4 2653.33   1
  10  -4   0 32948.2 2520.07   1
  -4  -6   0 32137.1 2620.09   2
 -10   6  -1 16645.5 1828.15   1
 -10   4  -1 19882.3 1881.17   1
  10  -6   1 18403.7 1917.02   1
  10  -4   1 20327.0 1939.87   1
  -4  -6   1 17277.2 1978.27   2
 -10   6  -2 95534.4 4524.66   1
 -10   4  -2 109400. 4779.16   1
  10  -6   2 105002. 4783.02   1
  10  -4   2 97241.0 4573.95   1
  -4  -6   2 89284.1 4616.97   2
 -10   4  -3 17236.2 1801.85   1
  10  -6   3 15322.2 1782.93   1
  10  -4   3 14492.3 1697.62   1
  -6  -4   3 12970.9 1742.66   2
  -4  -6   3 12043.9 1585.83   2
 -10   6  -3 17202.0 1788.50   1
  10  -6   4 2068.09 645.420   1
 -10   6  -4 2095.01 588.574   1
  10  -4   4 2378.95 721.615   1
  -6  -4   4 1545.31 511.164   2
  -4  -6   4 1349.87 555.160   2
 -10   4  -4 1743.85 610.959   1
 -10   6  -5 7476.11 1200.36   1
  10  -6   5 8050.70 1239.97   1
  10  -4   5 6636.96 1151.29   1
 -10   4  -5 6039.01 1090.19   1
  -6  -4   5 5717.19 1195.61   2
  -4  -6   5 5855.34 1201.27   2
  10  -6   5 4458.40 982.342   2
  10  -6   6 41162.1 2963.79   1
  10  -4   6 41316.9 2976.08   1
  -6  -4   6 38696.2 2942.12   2
  -4  -6   6 39861.7 2983.32   2
   6   4  -6 45381.6 3265.95   1
 -10   6  -6 42406.3 2914.00   1
 -10   4  -6 40267.8 2864.03   1
  10  -6   6 43264.1 3224.56   2
  -6  -4   7 2873.25 716.711   1
 -10   6  -7 3942.71 843.797   1
 -10   4  -7 3837.64 835.801   1
  10  -6   7 4302.16 996.121   1
  10  -4   7 4191.14 999.052   1
  -6  -4   7 3039.45 783.354   2
  -4  -6   7 3618.26 852.520   2
  10  -6   7 3958.74 947.638   2
   6   4  -7 3809.16 909.380   1
   6   4  -8 6754.76 1251.63   1
 -10   6  -8 5850.65 1070.13   1
 -10   4  -8 5375.96 1050.26   1
  -6  -4   8 6255.08 1160.53   1
  10  -6   8 5880.49 1066.68   1
  10  -4   8 5431.60 1109.61   1
  -6  -4   8 6976.38 1219.91   2
  -4  -6   8 6065.97 1206.38   2
  10  -6   8 5852.02 1035.04   2
  10  -6   9 55467.7 3509.54   1
  10  -4   9 53526.3 3508.01   1
  -6  -4   9 49353.4 3473.22   1
  -6  -4   9 56907.6 3706.15   2
  -4  -6   9 59499.4 3762.60   2
 -10   6  -9 51904.0 3361.56   1
 -10   4  -9 49365.5 3334.93   1
   6   4  -9 59055.7 3770.59   1
  10  -6   9 52533.6 3441.98   2
  10  -6  10 54210.8 3456.64   1
  10  -4  10 54593.6 3566.82   1
  -6  -4  10 61089.7 3856.56   2
  -4  -6  10 55664.7 3709.72   2
 -10   6 -10 49121.9 3338.31   1
  -6  -4  10 46239.6 3399.07   1
 -10   4 -10 51189.1 3359.64   1
   6   4 -10 47981.8 3425.99   1
  10  -6  10 53927.7 3511.84   2
  10  -4  10 36809.3 3075.57   2
  10  -6  11 47105.6 3330.52   1
  10  -4  11 42064.9 3235.95   1
  -6  -4  11 41857.8 3293.77   2
 -10   6 -11 40024.9 2994.23   1
  -4  -6  11 45275.7 3281.37   2
  -6  -4  11 35859.0 3007.23   1
   6   4 -11 37669.0 3052.39   1
   4   6 -11 36667.0 3002.52   1
  10  -6  11 44665.1 3135.41   2
  10  -4  11 31110.8 2775.11   2
 -10   4 -11 39418.3 3033.24   1
   6   4 -12 6618.05 1291.03   1
 -10   6 -12 8051.22 1362.87   1
 -10   4 -12 4857.63 1064.18   1
   4   6 -12 6915.79 1247.73   1
  10  -6  12 7713.37 1345.82   1
  10  -4  12 8806.88 1418.42   1
  -6  -4  12 8976.65 1546.36   2
  -4  -6  12 7208.02 1297.75   2
  -6  -4  12 4389.57 1092.22   1
  10  -6  12 7454.91 1269.74   2
  10  -4  12 2588.33 848.374   2
  -4  -6  12 4556.27 1045.75   1
 -10   6 -13-238.828 448.517   1
 -10   4 -13-165.194 395.681   1
   6   4 -13-130.240 330.151   1
  -4  -6  13 367.106 415.109   1
   4   6 -13 173.647 305.249   1
  10  -6  13 603.824 400.097   1
  10  -4  13 45.9536 245.498   1
  -6  -4  13-791.738 650.770   2
  -4  -6  13 75.6823 394.921   2
  -6  -4  13 200.920 259.477   1
  10  -6  13 44.5829 383.078   2
  10  -4  13-81.3810 504.235   2
  10  -4  14 37742.0 3215.68   1
  -4  -6  14 34901.0 3250.04   1
 -10   4 -14 38383.7 3094.41   1
   6   4 -14 39237.0 3206.61   1
  -6  -4  14 38210.7 3249.07   1
   4   6 -14 37822.0 3100.91   1
  10  -4  14 29645.1 2768.20   2
  -3  10 -14 35722.0 3122.03   1
  10  -7 -14 36011.9 2999.91   1
 -10   7  14 31653.8 2870.45   1
 -10   7  13 290.634 453.995   1
   7 -10  13-106.490 294.096   1
  -3  10 -13 106.804 241.860   1
  -7  10 -13-118.219 306.356   1
  10  -7 -13 238.301 280.973   1
   7 -10  12 3492.90 970.628   1
  -3  10 -12 4841.51 1137.51   1
 -10   3  12 5080.94 1095.55   1
  -7  10 -12 5195.80 1098.64   1
  10  -7 -12 4687.37 1012.06   1
   3 -10  12 5631.06 1169.13   2
  10  -3 -12 5063.26 1111.53   1
   7 -10  12 4984.71 1101.67   2
 -10   7  12 4928.12 1137.92   1
   7 -10  11 4211.67 1031.84   1
 -10   3  11 4671.55 1068.32   1
  10  -7 -11 2366.00 759.669   1
   3 -10  11 5543.64 1081.90   2
  -7  10 -11 4102.53 967.123   1
 -10   7  11 4483.69 1075.87   1
  10  -3 -11 4331.88 944.237   1
   7 -10  11 3333.68 920.696   2
   7 -10  10 24654.5 2361.03   1
  -7  10 -10 24563.4 2305.04   1
  10  -7 -10 23588.5 2291.67   1
 -10   7  10 26113.2 2421.47   1
  10  -3 -10 26959.8 2467.59   1
   3 -10  10 25006.5 2421.23   2
   7 -10  10 27979.7 2521.62   2
 -10   3  10 29085.0 2595.93   1
   7 -10   9 16161.0 1915.95   1
  -7  10  -9 19135.2 2067.21   1
 -10   7   9 19861.4 2107.76   1
  10  -7  -9 20184.1 2069.91   1
  10  -3  -9 18204.7 1982.98   1
   3 -10   9 20324.8 2114.53   2
   7 -10   9 19793.5 2107.38   2
 -10   3   9 18360.0 2069.18   1
   7 -10   8 19426.3 2111.56   1
  -7  10  -8 18773.1 2045.54   1
 -10   7   8 17646.6 2019.20   1
  10  -7  -8 17192.2 1864.95   1
  10  -3  -8 18487.3 1994.26   1
   3 -10   8 17959.1 2007.58   2
 -10   3   8 20518.0 2081.11   1
   7 -10   8 18856.5 2044.24   2
   7 -10   7 16633.8 1895.36   1
 -10   7   7 16906.6 1957.61   1
  -7  10  -7 15303.5 1825.92   1
  10  -7  -7 18737.5 1951.68   1
  10  -3  -7 16690.7 1914.68   1
   3 -10   7 16551.6 1858.14   2
 -10   3   7 18756.0 1965.11   1
   7 -10   7 16574.2 1862.26   2
   7 -10   6 80925.6 4397.48   1
 -10   7   6 91461.3 4669.12   1
  -7  10  -6 88718.2 4504.00   1
  10  -7  -6 105775. 4969.86   1
  10  -3  -6 90888.8 4559.07   1
 -10   3   6 109310. 4936.39   1
   3 -10   6 89385.5 4642.77   2
   7 -10   6 90258.6 4655.61   2
   7 -10   5 24557.6 2265.27   1
 -10   7   5 31311.6 2611.79   1
  10  -7  -5 27170.2 2377.58   1
  -7  10  -5 30143.0 2534.81   1
  10  -3  -5 29448.5 2497.90   1
 -10   3   5 32632.1 2588.43   1
   3 -10   5 33046.0 2668.36   2
   7 -10   5 29398.7 2582.04   2
  -7  10  -4 1084.36 458.343   1
 -10   7   4 1032.65 534.028   1
   7 -10   4 883.042 407.653   1
 -10   3   4 1607.46 613.764   1
  10  -7  -4 883.739 375.488   1
  10  -3  -4 1016.62 372.053   1
   3 -10   4 923.651 503.261   2
   7 -10   4 679.178 532.760   2
 -10   7   3 43814.4 2976.71   1
   7 -10   3 44540.8 2934.53   1
 -10   3   3 42248.2 2948.47   1
  10  -7  -3 41880.2 2926.43   1
  10  -3  -3 37750.2 2861.41   1
  -7  10  -3 37903.1 2692.38   1
   3 -10   3 34811.3 2730.33   2
   7 -10   3 43842.3 3165.44   2
 -10   7   2 78877.5 4049.51   1
 -10   3   2 80554.8 4102.46   1
  10  -7  -2 71795.0 3893.98   1
  10  -3  -2 75462.3 4086.13   1
  -7  10  -2 68315.0 3765.66   1
   3 -10   2 75223.7 3959.30   2
   7 -10   2 75639.1 4274.60   2
 -10   7   1 30678.3 2517.69   1
   7 -10   1 32190.4 2404.91   1
 -10   3   1 28354.2 2355.65   1
  10  -7  -1 29506.9 2357.35   1
  10  -3  -1 33195.1 2584.94   1
  -3  -7  -1 34129.2 2793.42   2
  -7  10  -1 29358.2 2352.29   1
   7 -10   1 37361.6 2817.37   2
 -10   7   0 17429.4 1874.88   1
 -10   3   0 14457.4 1695.63   1
  10  -7   0 15964.8 1779.42   1
  10  -3   0 18004.2 1874.86   1
  -3  -7   0 16931.9 1886.07   2
  -7  10   0 20029.3 1875.43   1
 -10   3  -1 5197.26 998.938   1
  10  -7   1 7613.80 1179.42   1
  -3  -7   1 6591.64 1265.00   2
  10  -3   1 7803.99 1169.16   1
 -10   7  -1 5382.64 1032.02   1
 -10   3  -2 59772.4 3488.65   1
  10  -7   2 66137.1 3752.14   1
  10  -3   2 69968.6 3788.59   1
  -3  -7   2 70694.5 4005.22   2
  10  -7   2 61741.8 3930.32   2
 -10   7  -2 67516.7 3665.89   1
  10  -7   3 279.897 237.046   1
 -10   7  -3 507.528 372.198   1
  10  -3   3 748.663 395.035   1
  -3  -7   3 553.588 392.327   2
 -10   3  -3 899.219 505.659   1
  10  -7   3 643.019 409.639   2
 -10   3  -4 12393.6 1529.56   1
  10  -3   4 12905.5 1572.65   1
  10  -7   4 10768.2 1433.37   1
  -3  -7   4 13587.8 1759.39   2
   7   3  -4 13523.6 1646.58   1
  -7  -3   4 12894.1 1614.11   1
 -10   7  -4 13186.0 1502.00   1
  10  -7   4 14928.8 1831.97   2
  10  -7   5 22895.1 2213.97   1
  10  -3   5 23813.0 2211.37   1
  -3  -7   5 17279.9 1915.73   2
   7   3  -5 18362.2 2084.01   1
 -10   7  -5 18852.0 1943.18   1
  10  -7   5 19914.8 2097.48   2
 -10   3  -5 17959.3 1904.32   1
  -7  -3   5 19042.2 1998.08   1
  -7  -3   6 53658.5 3579.26   1
  10  -7   6 63598.4 3725.68   1
  10  -3   6 52666.2 3410.47   1
  -7  -3   6 49814.0 3603.55   2
  -3  -7   6 53530.5 3595.48   2
 -10   7  -6 50908.9 3263.81   1
 -10   3  -6 48554.0 3196.99   1
  10  -7   6 60077.8 3588.77   2
  -7  -3   7 82655.4 4522.77   1
  10  -7   7 78960.3 4265.59   1
  10  -3   7 77960.4 4305.77   1
  -7  -3   7 72694.9 4312.77   2
  -3  -7   7 82200.0 4592.19   2
 -10   7  -7 83659.7 4239.10   1
 -10   3  -7 84625.9 4367.69   1
  10  -7   7 77661.0 4203.23   2
  -7  -3   8 3618.25 875.946   1
 -10   7  -8 4436.91 944.712   1
 -10   3  -8 4273.12 973.583   1
  10  -7   8 5344.02 1068.34   1
  10  -3   8 5101.27 1080.41   1
  -7  -3   8 3820.88 932.199   2
  -3  -7   8 4168.51 977.896   2
  10  -7   8 6195.79 1146.18   2
   7   3  -8 4092.34 1016.36   1
  10  -7   9 18879.1 2038.31   1
  10  -3   9 20162.1 2132.84   1
  -7  -3   9 22356.8 2279.28   1
  -7  -3   9 22349.4 2350.55   2
  -3  -7   9 19353.3 2182.73   2
 -10   7  -9 18918.9 2004.37   1
   7   3  -9 20212.9 2241.49   1
 -10   3  -9 17570.6 1960.08   1
  10  -7   9 22458.2 2175.55   2
  10  -7  10 93380.3 4693.49   1
  10  -3  10 77925.3 4395.56   1
  -7  -3  10 63569.3 4096.73   1
  -7  -3  10 85094.4 4816.59   2
  -3  -7  10 86325.0 4736.83   2
 -10   7 -10 93098.4 4453.13   1
 -10   3 -10 69084.8 4042.72   1
   7   3 -10 75725.7 4441.21   1
  10  -7  10 77185.5 4201.74   2
 -10   7 -11 3660.55 953.660   1
 -10   3 -11 2370.03 772.552   1
  -7  -3  11 2316.13 795.329   1
  10  -7  11 3840.86 941.455   1
  10  -3  11 2461.83 732.107   1
  -7  -3  11 3364.81 948.684   2
  -3  -7  11 3771.59 815.207   2
  10  -7  11 4209.45 932.751   2
  10  -3  11 2014.99 763.858   2
   7   3 -11 3338.70 928.873   1
   7   3 -12 2544.92 773.378   1
 -10   7 -12 3270.20 919.873   1
 -10   3 -12 2285.31 766.566   1
  10  -7  12 2683.69 752.718   1
  10  -3  12 3005.14 838.484   1
  -7  -3  12 3300.81 933.573   1
  -7  -3  12 3868.64 1076.40   2
  -3  -7  12 3631.76 978.342   2
  10  -7  12 2602.42 709.274   2
  10  -3  12 548.285 421.666   2
  10  -3  13 15571.4 2015.04   1
  -7  -3  13 15885.6 1995.22   1
  -7  -3  13 14615.8 1871.64   2
   7   3 -13 18132.7 2070.99   1
  10  -3  14 1357.21 703.354   2
 -10   8  13 847.796 577.889   1
   8 -10  12 50117.6 3653.67   1
  -8  10 -12 54399.1 3634.64   1
 -10   8  12 39621.7 3321.49   1
  10  -8 -12 49911.8 3579.92   1
  10  -2 -12 56217.0 3761.00   1
   2 -10  12 53871.9 3679.33   2
   8 -10  12 51029.3 3572.33   2
 -10   2  12 55493.1 3836.43   1
   8 -10  11 1158.70 435.194   1
 -10   8  11 1326.12 682.491   1
 -10   2  11 1139.11 539.455   1
  10  -8 -11 459.071 264.530   1
   2 -10  11 1086.12 500.833   2
  -8  10 -11 1425.67 535.432   1
  10  -2 -11 771.688 404.576   1
   8 -10  11 1653.87 734.312   2
   8 -10  10 595.290 366.119   1
 -10   8  10 185.242 162.034   1
 -10   2  10 316.215 299.477   1
  10  -8 -10 725.682 597.992   1
   2 -10  10 1012.11 605.219   2
  10  -2 -10 1321.47 335.111   1
  -8  10 -10 215.109 280.529   1
   8 -10  10 840.495 430.600   2
   8 -10   9-66.5057 257.034   1
 -10   8   9 4.31339 341.401   1
 -10   2   9-47.0933 337.417   1
  10  -8  -9 34.8277 192.858   1
   2 -10   9-42.7731 300.035   2
  10  -2  -9 601.979 495.818   1
   8 -10   9-27.0249 364.245   2
  -8  10  -9 783.063 617.665   1
   8 -10   8 65923.1 4007.66   1
 -10   8   8 69042.9 4111.46   1
  -8  10  -8 64432.4 3830.67   1
  10  -8  -8 53646.6 3613.79   1
  10  -2  -8 69538.3 4044.50   1
   2 -10   8 66626.6 4030.92   2
 -10   2   8 67739.1 3971.53   1
   8 -10   8 55933.6 3830.71   2
  -8  10  -7 5896.12 1093.26   1
 -10   2   7 6029.54 1181.86   1
 -10   8   7 8371.91 1364.30   1
   8 -10   7 5845.38 1167.22   1
  10  -8  -7 7158.72 1238.39   1
   2 -10   7 5804.44 1128.96   2
  10  -2  -7 6478.69 1111.35   1
   8 -10   7 5649.26 1094.26   2
 -10   2   6 1492.08 572.464   1
  -8  10  -6 1302.13 553.639   1
 -10   8   6 1537.92 647.800   1
   8 -10   6 795.598 410.621   1
  10  -8  -6 1000.87 438.718   1
   2 -10   6 952.711 497.936   2
  10  -2  -6 1250.40 532.532   1
   8 -10   6 886.276 379.794   2
  -8  10  -5 236.223 405.942   1
 -10   8   5-198.953 383.280   1
   8 -10   5 193.478 201.472   1
  10  -8  -5 475.170 390.903   1
   2 -10   5-260.856 305.952   2
  10  -2  -5 107.635 223.233   1
 -10   2   5 275.248 172.594   1
   8 -10   5-247.051 213.577   2
 -10   8   4 168531. 6461.81   1
  10  -8  -4 148150. 6056.28   1
 -10   2   4 170379. 6439.69   1
  10  -2  -4 166390. 6351.75   1
  -8  10  -4 168364. 6231.72   1
   2 -10   4 176886. 6725.96   2
   8 -10   4 177944. 6884.26   2
  -8  10  -3 2769.13 727.939   1
   8 -10   3 1853.10 641.074   1
 -10   2   3 3284.08 830.059   1
  10  -8  -3 2434.80 759.596   1
  10  -2  -3 2598.23 703.348   1
   2 -10   3 2454.98 789.582   2
   8 -10   3 2669.63 762.293   2
  10  -8  -3 670.939 632.086   2
 -10   8   3 2466.29 734.296   1
  -8  10  -2 6858.71 1130.26   1
   8 -10   2 9835.55 1315.52   1
 -10   2   2 9573.02 1387.01   1
  10  -2  -2 10553.0 1494.77   1
  10  -8  -2 8467.83 1263.55   1
 -10   8   2 9236.61 1342.76   1
   8 -10   2 8347.80 1427.37   2
 -10   2   1-18.1389 194.917   1
  -8  10  -1-66.0702 304.150   1
   8 -10   1 119.308 298.942   1
  10  -8  -1 599.383 410.291   1
  10  -2  -1 451.557 363.366   1
 -10   8   1 173.708 260.163   1
   8 -10   1 245.582 391.207   2
  10  -8  -1 959.560 425.841   2
 -10   8   0 99675.6 4685.37   1
 -10   2   0 91343.9 4408.53   1
   8 -10   0 97253.4 4486.46   1
  10  -8   0 98444.2 4706.33   1
  10  -2   0 111115. 4908.16   1
  -2  -8   0 98554.0 4914.65   2
  -8  10   0 111896. 4781.44   1
 -10   2  -1 851.194 436.609   1
  -8  10   1 661.591 397.054   1
   8 -10  -1 752.016 457.337   1
  10  -8   1 152.748 211.422   1
 -10   8  -1 1078.99 493.027   1
  10  -2   1 571.297 473.959   1
  -2  -8   1 761.057 493.751   2
  10  -8   1 387.773 410.829   2
 -10   2  -2 11982.6 1530.12   1
  10  -8   2 10947.7 1492.60   1
   8   2  -2 11063.5 1494.69   1
  -2  -8   2 12116.2 1632.77   2
  10  -2   2 10143.3 1354.91   1
  -8  10   2 12045.8 1470.68   1
  10  -8   2 11808.4 1677.16   2
 -10   8  -2 10658.0 1433.74   1
  -8  -2   3-181.086 230.508   1
 -10   8  -3 130.949 302.992   1
  10  -8   3 99.6129 260.002   1
  10  -2   3 397.570 432.509   1
  -2  -8   3 287.620 172.385   2
   8   2  -3-38.2194 233.671   1
 -10   2  -3 40.9894 205.525   1
  10  -8   3 496.526 513.520   2
 -10   2  -4 98993.8 4803.59   1
  10  -8   4 114788. 5164.48   1
  10  -2   4 102059. 4914.84   1
  -2  -8   4 97728.6 5005.64   2
   8   2  -4 101105. 4900.24   1
  -8  -2   4 109313. 5052.23   1
 -10   8  -4 97515.5 4673.25   1
  10  -8   4 96585.9 4761.08   2
 -10   8  -5 3540.58 800.894   1
  10  -8   5 5330.43 1071.67   1
  -8  -2   5 3902.32 933.752   1
  10  -2   5 4616.46 961.443   1
 -10   2  -5 3902.93 913.393   1
  -2  -8   5 4238.25 1024.28   2
   8   2  -5 4359.04 928.410   1
  10  -8   5 4588.89 963.639   2
 -10   8  -6-461.287 364.650   1
  10  -8   6-142.164 318.423   1
 -10   2  -6-69.1466 129.779   1
  10  -2   6 870.252 505.796   1
  -8  -2   6 236.258 277.760   1
  -2  -8   6 14.6188 353.529   2
   8   2  -6-137.358 273.264   1
  10  -8   6-117.104 231.040   2
 -10   8  -7 2003.91 714.045   1
 -10   2  -7 1349.79 510.865   1
  10  -8   7 2536.82 772.644   1
  10  -2   7 2240.78 688.578   1
  -2  -8   7 2311.23 788.260   2
  -8  -2   7 2086.06 708.465   1
   8   2  -7 2192.13 668.252   1
  10  -8   7 1362.57 403.061   2
  -8  -2   8 97799.1 5126.85   1
  10  -8   8 106726. 5075.42   1
  10  -2   8 98351.2 4985.86   1
  -2  -8   8 103466. 5227.12   2
 -10   8  -8 103207. 4873.54   1
   8   2  -8 121705. 5717.67   1
 -10   2  -8 91347.5 4710.33   1
  10  -8   8 114424. 5019.57   2
 -10   8  -9 1991.32 659.921   1
 -10   2  -9 1257.94 575.553   1
  10  -8   9 1476.10 613.898   1
  10  -2   9 1561.37 644.478   1
  -2  -8   9 826.270 395.282   2
   8   2  -9 1634.86 664.424   1
  10  -8   9 1276.29 531.304   2
  -8  -2   9 1328.03 705.105   1
  -8  -2  10 751.072 370.578   1
 -10   8 -10 932.908 476.276   1
  10  -8  10 540.550 326.242   1
  10  -2  10 376.511 359.849   1
  -2  -8  10 1012.50 505.292   2
  10  -8  10 780.959 344.127   2
   8   2 -10 1030.74 540.241   1
 -10   8 -11 374.880 257.790   1
  -8  -2  11 71.4381 289.563   1
  10  -8  11-47.3215 185.514   1
  -8  -2  11-141.946 472.709   2
  -2  -8  11 427.816 352.869   2
  10  -8  11 763.651 420.616   2
   8   2 -11 268.260 295.897   1
  10  -2  11 16.1230 309.282   2
  10  -8  12 71874.1 4302.85   1
  -8  -2  12 64337.4 4160.42   1
 -10   8 -12 67967.6 3918.22   1
  -8  -2  12 57364.0 4014.75   2
  -2  -8  12 62731.8 4052.47   2
   8   2 -12 68660.5 4303.99   1
  10  -8  12 64287.5 3803.87   2
  10  -2  13 16.4121 365.907   2
   9 -10  11 21013.9 2225.16   1
  -9  10 -11 22135.3 2286.18   1
  10  -1 -11 21932.6 2379.69   1
   1 -10  11 19640.3 2178.15   2
   9 -10  11 16334.1 2009.54   2
 -10   1  11 22331.6 2367.95   1
   9 -10  10 42626.5 3323.24   1
 -10   9  10 41781.7 3390.72   1
  -9  10 -10 48978.7 3364.48   1
  10  -1 -10 53017.4 3607.38   1
   1 -10  10 41177.9 3251.77   2
   9 -10  10 43064.2 3278.69   2
 -10   1  10 47457.0 3474.82   1
   9 -10   9 32596.0 2863.55   1
 -10   9   9 25231.7 2521.38   1
  10  -9  -9 31151.9 2790.59   1
  -9  10  -9 28074.1 2500.16   1
  10  -1  -9 31793.8 2776.04   1
   1 -10   9 32749.8 2825.65   2
   9 -10   9 29563.6 2637.10   2
 -10   1   9 30118.7 2652.30   1
   9 -10   8 12191.2 1654.96   1
 -10   9   8 11817.8 1666.50   1
  10  -9  -8 10728.0 1578.64   1
  -9  10  -8 14201.4 1716.58   1
  10  -1  -8 14563.4 1846.72   1
   1 -10   8 11233.6 1682.47   2
 -10   1   8 12818.6 1755.54   1
   9 -10   8 10446.5 1568.56   2
  -9  10  -7 3538.08 909.674   1
 -10   9   7 2808.52 775.424   1
 -10   1   7 2514.15 741.066   1
   9 -10   7 3736.77 962.433   1
  10  -9  -7 2709.76 756.889   1
   1 -10   7 2043.37 702.136   2
  10  -1  -7 3753.33 978.736   1
   9 -10   7 2346.28 748.785   2
 -10   9   6 16116.5 1947.57   1
   9 -10   6 15943.1 1834.09   1
  10  -9  -6 14145.4 1776.80   1
  10  -1  -6 17546.5 1999.33   1
  -9  10  -6 13195.6 1643.73   1
   1 -10   6 15029.8 1940.65   2
 -10   1   6 14617.7 1818.38   1
   9 -10   6 14983.3 1920.14   2
  -9  10  -5 7099.15 1169.78   1
   9 -10   5 6888.45 1179.39   1
  10  -9  -5 7138.95 1243.86   1
   1 -10   5 6781.03 1261.16   2
  10  -1  -5 6575.60 1161.35   1
 -10   1   5 10878.3 1484.11   1
   9 -10   5 7542.89 1311.70   2
 -10   9   5 5739.20 1091.09   1
  -9  10  -4 460.559 213.647   1
   9 -10   4 1423.40 543.366   1
  10  -9  -4 849.671 428.538   1
 -10   1   4 915.232 374.714   1
   1 -10   4 989.232 577.963   2
  10  -1  -4 745.914 269.175   1
 -10   9   4 1085.59 557.263   1
   9 -10   4 1830.45 754.537   2
 -10   9   3 19421.9 2058.79   1
   9 -10   3 21432.7 2014.00   1
  10  -9  -3 21992.0 2170.36   1
 -10   1   3 14458.6 1779.59   1
  10  -1  -3 21358.2 2168.41   1
   1 -10   3 18192.9 2013.92   2
  -9  10  -3 16857.3 1823.96   1
   9 -10   3 16730.7 2065.42   2
 -10   9   2 86059.3 4460.66   1
   9 -10   2 92459.6 4482.30   1
  10  -9  -2 91326.9 4589.87   1
 -10   1   2 85008.1 4453.73   1
  10  -1  -2 81543.0 4469.27   1
  -9  10  -2 90818.2 4373.58   1
 -10   9   1 17095.2 1834.82   1
   9 -10   1 18044.1 1915.77   1
 -10   1   1 17712.6 1927.18   1
  10  -9  -1 20675.6 2088.36   1
  10  -1  -1 18577.5 1964.14   1
  -9  10  -1 16916.5 1830.63   1
   9 -10   1 20994.8 2305.67   2
  10  -9  -1 12824.5 2134.32   2
 -10   1   0 13892.9 1668.38   1
   9 -10   0 12899.8 1618.39   1
  10  -9   0 15250.3 1765.29   1
  10  -1   0 14815.9 1757.63   1
   9   1   0 15185.5 1812.65   1
  -9  10   0 13866.1 1672.74   1
 -10   9   0 14764.5 1717.42   1
  10  -9   0 10019.3 1761.52   2
 -10   1  -1 36840.8 2847.56   1
   9 -10  -1 38918.5 2839.61   1
  10  -9   1 40048.1 2912.19   1
  -9  -1   1 45040.9 3062.84   1
  10  -1   1 35806.7 2788.24   1
   9   1  -1 32399.8 2783.09   1
  -9  10   1 37238.7 2776.59   1
  10  -9   1 39332.2 3179.90   2
 -10   9  -1 39023.8 2784.56   1
 -10   1  -2 87905.3 4506.40   1
  10  -9   2 96988.7 4698.01   1
   9 -10  -2 87910.8 4386.96   1
  10  -1   2 96914.0 4735.05   1
  -9  -1   2 104443. 4876.35   1
   9   1  -2 94281.0 4726.42   1
  -1  -9   2 78292.8 4528.73   2
 -10   9  -2 81337.8 4198.40   1
  10  -9   2 63511.4 4196.50   2
  -9  10   2 86199.0 4309.03   1
 -10   1  -3 10268.2 1510.30   1
  10  -9   3 9821.55 1427.25   1
   9 -10  -3 9331.87 1330.65   1
 -10   9  -3 8541.20 1285.34   1
  10  -1   3 9877.08 1439.88   1
   9   1  -3 10030.0 1498.42   1
  -9  -1   3 10287.1 1453.12   1
  -1  -9   3 8937.19 1434.73   2
  10  -9   3 9627.55 1549.14   2
  -9  10   3 10762.0 1480.47   1
  -9  10   4 12448.7 1613.57   1
 -10   1  -4 9755.70 1432.62   1
  10  -9   4 11730.3 1575.19   1
  10  -1   4 12653.8 1678.56   1
   9   1  -4 10692.8 1576.10   1
  -1  -9   4 11485.2 1627.73   2
  -9  -1   4 12398.2 1574.64   1
 -10   9  -4 11426.4 1501.46   1
  10  -9   4 11165.0 1558.76   2
  -9  -1   5 2524.59 715.846   1
 -10   9  -5 2776.63 738.447   1
  10  -9   5 2601.65 771.862   1
  10  -1   5 2476.63 709.663   1
 -10   1  -5 2205.24 687.710   1
  -1  -9   5 1605.00 687.068   2
   9   1  -5 2138.95 719.609   1
  10  -9   5 2141.94 714.037   2
  10  -9   6 18150.2 1952.46   1
  10  -1   6 15730.9 1872.89   1
   9   1  -6 16843.8 1919.15   1
  -1  -9   6 15644.9 1954.45   2
 -10   9  -6 15811.8 1797.68   1
  -9  -1   6 11988.5 1699.13   1
  10  -9   6 12588.1 1690.13   2
  10  -9   7 30905.0 2627.12   1
  -1  -9   7 33277.4 2893.04   2
   9   1  -7 36653.5 2890.94   1
 -10   9  -7 36402.7 2783.72   1
  -9  -1   7 23573.1 2436.49   1
  10  -9   7 28131.4 2498.45   2
 -10   9  -8 823.069 525.651   1
  10  -9   8 1617.62 679.706   1
  -9  -1   8 195.627 368.006   1
  -1  -9   8 196.645 185.005   2
   9   1  -8 989.681 508.446   1
  10  -9   8 1676.93 598.296   2
  10  -9   9 11121.2 1630.17   1
 -10   9  -9 10284.6 1472.54   1
  -1  -9   9 10253.1 1571.77   2
   9   1  -9 11166.1 1590.04   1
  10  -9   9 7263.73 1305.32   2
  -9  -1   9 8261.26 1466.45   1
  -9  -1  10 55208.7 3840.65   1
  10  -9  10 63584.8 4006.96   1
 -10   9 -10 61755.8 3820.25   1
  -1  -9  10 62021.5 4093.13   2
   9   1 -10 68755.7 4287.08   1
  10  -9  10 60609.2 3804.65   2
  -1  -9  11 863.690 462.274   2
  -9  -1  11 1537.94 670.694   1
   9   1 -11 845.550 410.663   1
  10  -1  12 467.150 550.897   2
 -10   0   0 18201.0 2007.85   1
  10 -10   0 20948.7 2136.32   1
  10   0   0 22348.7 2220.01   1
 -10  10   0 20538.5 2025.31   1
 -10   0  -1 31928.5 2648.15   1
  10 -10   1 25083.0 2335.62   1
 -10   0   1 26428.0 2548.11   1
  10 -10  -1 27077.4 2400.72   1
  10   0   1 26666.5 2468.01   1
  10   0  -1 29695.3 2633.55   1
 -10  10  -1 23662.9 2258.57   1
  10 -10   1 27632.5 2690.81   2
 -10  10   1 22541.6 2210.24   1
  10 -10   2 83223.8 4438.46   1
  10 -10  -2 82344.7 4355.22   1
 -10   0   2 81031.9 4435.98   1
  10   0   2 95911.7 4789.05   1
  10   0  -2 71141.9 4282.69   1
 -10  10  -2 84482.2 4283.81   1
  10 -10   2 91895.7 5045.78   2
 -10  10   2 78515.5 4198.83   1
 -10  10  -3 8406.87 1283.25   1
  10 -10  -3 10992.3 1535.54   1
  10 -10   3 8356.60 1278.33   1
 -10   0   3 8251.69 1357.46   1
  10   0  -3 8021.15 1376.75   1
  10 -10   3 9751.32 1603.71   2
 -10  10   3 7967.75 1312.56   1
 -10  10  -4 2509.90 752.773   1
  10 -10   4 2025.43 605.742   1
  10 -10  -4 1970.87 697.741   1
   0 -10   4 1868.29 618.597   2
 -10   0   4 2200.33 675.100   1
 -10  10   4 2099.14 689.136   1
  10   0  -4 2380.37 743.427   1
  10 -10   4 1974.17 607.055   2
 -10  10  -5 7257.39 1169.62   1
  10 -10   5 5594.05 1127.22   1
  10 -10  -5 6077.47 1181.17   1
   0 -10   5 6758.56 1335.36   2
  10   0  -5 7655.15 1306.06   1
 -10  10   5 6121.96 1149.66   1
 -10   0   5 5408.48 1080.24   1
  10 -10   5 5993.53 1209.98   2
 -10   0   6 4930.52 1049.00   1
 -10  10  -6 8054.44 1267.02   1
  10 -10   6 7676.27 1274.12   1
  10   0  -6 8048.65 1397.37   1
   0 -10   6 5633.29 1225.47   2
 -10  10   6 5632.58 1208.05   1
  10 -10   6 7472.53 1291.78   2
  10 -10   7 12130.9 1673.64   1
  10   0  -7 14581.6 1870.06   1
 -10  10  -7 11830.7 1561.97   1
 -10   0   7 12563.7 1719.94   1
   0 -10   7 9858.59 1589.10   2
  10 -10   7 13452.2 1807.00   2
 -10  10  -8 1597.83 544.592   1
 -10   0   8 1841.80 724.800   1
  10 -10   8 2510.19 738.021   1
   0 -10   8 1236.80 572.157   2
  10   0  -8 2576.51 806.626   1
  10 -10   8 1760.65 677.712   2
  10 -10   9 16395.8 1998.43   1
 -10  10  -9 14464.3 1766.93   1
  10   0  -9 15349.9 1875.92   1
   0 -10   9 13320.7 1899.64   2
 -10   0   9 15656.2 1914.26   1
  10 -10   9 15531.5 1903.54   2
  10   0 -10 43782.5 3364.93   1
 -10   0  10 52200.7 3705.12   1
   6 -11  12 4465.97 1060.13   1
  -6  11 -12 5395.04 1176.90   1
   6 -11  11 15475.5 1988.04   1
  -6  11 -11 13520.3 1836.89   1
  11  -6 -11 15242.2 1826.06   1
  11  -5 -11 19988.4 2063.78   1
 -11   6  11 18394.4 2071.38   1
 -11   5  11 21153.5 2269.63   1
   5 -11  11 19414.5 2079.17   2
   6 -11  11 16057.9 1950.36   2
   6 -11  10 57195.3 3866.01   1
  -6  11 -10 64884.9 4116.26   1
  11  -6 -10 69372.7 3986.79   1
 -11   6  10 84109.2 4592.11   1
  11  -5 -10 65104.4 3890.25   1
 -11   5  10 80772.7 4472.04   1
   5 -11  10 68067.8 4150.45   2
   6 -11  10 69715.8 4141.40   2
  -6  11  -9 19494.2 2166.65   1
 -11   6   9 20450.8 2222.85   1
  11  -6  -9 22395.1 2144.65   1
  11  -5  -9 21903.6 2217.05   1
 -11   5   9 25464.6 2437.89   1
   5 -11   9 18710.9 2153.61   2
   6 -11   9 18933.8 2120.38   2
 -11   6   8 4129.85 1027.06   1
  11  -6  -8 2933.02 797.441   1
 -11   5   8 4719.21 1100.97   1
  11  -5  -8 3680.87 924.155   1
   5 -11   8 2861.08 816.993   2
   6 -11   8 3436.10 917.630   2
 -11   6   7 9143.69 1453.81   1
  11  -6  -7 8892.51 1413.91   1
 -11   5   7 7796.41 1302.59   1
  11  -5  -7 8938.94 1424.17   1
   5 -11   7 6489.81 1261.31   2
   6 -11   7 5794.87 1186.08   2
 -11   6   6 24228.6 2364.20   1
 -11   5   6 22837.5 2235.57   1
  11  -6  -6 19346.2 2109.16   1
  11  -5  -6 23795.7 2291.28   1
   5 -11   6 17587.5 2059.50   2
   6 -11   6 21026.6 2220.00   2
 -11   6   5 20149.5 2123.48   1
 -11   5   5 21117.2 2088.00   1
  11  -6  -5 20129.3 2072.70   1
  11  -5  -5 19662.4 2101.28   1
   5 -11   5 17290.8 2028.02   2
   6 -11   5 17968.1 2054.26   2
 -11   6   4 7294.66 1223.55   1
 -11   5   4 7099.89 1217.75   1
  11  -6  -4 7779.62 1256.07   1
  11  -5  -4 6400.66 1149.29   1
   5 -11   4 5860.31 1136.63   2
   6 -11   4 9084.28 1360.88   2
 -11   6   3 19935.4 2065.09   1
 -11   5   3 21026.3 2074.09   1
  11  -6  -3 20078.9 2059.19   1
  11  -5  -3 19896.3 2020.97   1
   6 -11   3 16889.2 1948.82   2
 -11   6   2 74860.6 4009.30   1
 -11   5   2 72038.4 3978.39   1
  11  -6  -2 70079.0 3918.42   1
  11  -5  -2 69433.9 3965.75   1
 -11   5   1 864.163 462.232   1
  11  -6  -1 721.019 414.969   1
  11  -5  -1 64.2278 211.305   1
 -11   6   1 361.900 303.130   1
 -11   6   0 12064.0 1555.58   1
  11  -6   0 10044.7 1442.59   1
  11  -5   0 9768.22 1320.53   1
 -11   5   0 8940.57 1306.26   1
 -11   6  -1 10545.9 1508.88   1
 -11   5  -1 11908.5 1563.08   1
  11  -6   1 11091.2 1493.01   1
  11  -5   1 12126.6 1507.68   1
  -5  -6   1 10115.3 1580.60   2
 -11   6  -2 88590.4 4396.48   1
 -11   5  -2 87392.6 4360.44   1
  11  -6   2 96042.9 4595.63   1
  11  -5   2 95362.7 4565.21   1
 -11   5  -3 34645.0 2664.16   1
  11  -6   3 36107.7 2801.94   1
  11  -5   3 35882.8 2778.33   1
  -6  -5   3 29349.5 2711.33   2
  -5  -6   3 31432.9 2808.77   2
 -11   6  -3 36776.6 2740.25   1
  11  -5   4 10092.9 1442.71   1
  11  -6   4 7685.26 1266.14   1
 -11   5  -4 8574.02 1254.70   1
  -6  -5   4 6738.47 1169.40   2
  -5  -6   4 8336.02 1474.61   2
 -11   6  -4 8317.57 1291.47   1
  11  -6   5 14898.8 1799.64   1
  11  -5   5 17114.6 1885.51   1
  -6  -5   5 15208.3 1974.32   2
  -5  -6   5 14471.9 1898.59   2
 -11   6  -5 15339.7 1744.16   1
 -11   5  -5 17445.1 1782.97   1
  11  -6   6 36664.6 2844.31   1
  11  -5   6 29086.2 2573.59   1
  -6  -5   6 27518.9 2541.74   2
  -5  -6   6 33445.1 2872.07   2
 -11   6  -6 32379.6 2578.53   1
 -11   5  -6 33863.0 2647.80   1
  11  -6   6 29709.8 2658.89   2
  11  -6   7 17673.0 1928.47   1
  11  -5   7 18820.6 2030.54   1
  -6  -5   7 19678.2 2217.79   2
  -5  -6   7 19337.6 2131.78   2
 -11   6  -7 16068.0 1857.05   1
 -11   5  -7 15019.3 1764.42   1
  11  -6   7 18368.3 2062.70   2
 -11   6  -8 348.746 429.876   1
 -11   5  -8 281.836 278.456   1
  11  -6   8-223.363 283.263   1
  11  -5   8 94.8506 324.108   1
  -6  -5   8-72.7877 383.114   2
  -5  -6   8-97.2331 334.246   2
  11  -6   8 828.601 413.966   2
  11  -5   8-915.792 590.835   2
  11  -6   9 14693.4 1808.33   1
  11  -5   9 13451.8 1698.68   1
  -6  -5   9 13963.0 1876.62   2
  -5  -6   9 16152.3 1997.43   2
 -11   6  -9 12494.8 1636.16   1
 -11   5  -9 12541.2 1597.94   1
  11  -6   9 12061.4 1648.34   2
  11  -5   9 10834.2 1628.88   2
  11  -6  10 42876.9 3127.01   1
  11  -5  10 40616.0 3062.47   1
  -6  -5  10 40074.6 3215.80   2
  -5  -6  10 38252.8 3154.57   2
 -11   6 -10 40660.7 3064.27   1
 -11   5 -10 37744.1 2958.71   1
 -11   6 -11 1925.89 716.100   1
 -11   5 -11 1942.94 669.018   1
  11  -6  11 2516.35 748.270   1
  11  -5  11 1189.56 412.899   1
  11  -6  11 1423.70 569.813   2
  11  -5  11 1200.70 514.885   2
   7 -11  11 1804.39 616.509   1
 -11   7  11 2970.31 809.605   1
  -7  11 -11 3239.74 892.601   1
  11  -7 -11 2385.41 713.731   1
   4 -11  11 2352.74 803.153   2
   7 -11  10 10556.0 1593.77   1
  -7  11 -10 10432.9 1594.42   1
 -11   7  10 14208.2 1858.48   1
  11  -7 -10 11431.2 1595.87   1
  11  -4 -10 13440.2 1775.46   1
 -11   4  10 15970.9 1915.74   1
   4 -11  10 12733.4 1757.52   2
   7 -11  10 12900.7 1747.01   2
   7 -11   9 206.099 253.848   1
 -11   7   9 2073.72 740.065   1
  11  -7  -9 467.687 306.374   1
  -7  11  -9 649.784 318.194   1
  11  -4  -9 1134.43 616.400   1
   4 -11   9 890.330 534.427   2
   7 -11   9 2464.11 819.906   2
 -11   4   9 1657.87 648.604   1
   7 -11   8 99509.4 5236.75   1
  -7  11  -8 109862. 5378.49   1
 -11   7   8 143026. 6124.79   1
  11  -7  -8 143902. 5918.33   1
  11  -4  -8 127619. 5647.09   1
 -11   4   8 138127. 5893.79   1
   4 -11   8 115800. 5551.14   2
   7 -11   8 123563. 5684.07   2
   7 -11   7 4485.47 975.967   1
 -11   7   7 7529.28 1328.05   1
  11  -7  -7 7601.91 1293.69   1
 -11   4   7 9474.50 1439.87   1
  11  -4  -7 7772.67 1283.55   1
   4 -11   7 7232.35 1270.65   2
  -7  11  -7 6906.41 1195.79   1
   7 -11   7 5558.04 1195.31   2
 -11   7   6 1204.25 473.585   1
 -11   4   6 1461.36 529.976   1
  11  -7  -6 2996.39 851.298   1
  11  -4  -6 3730.94 908.814   1
   4 -11   6 1478.64 503.048   2
   7 -11   6 1914.88 691.161   2
  -7  11  -6 1460.66 505.023   1
 -11   7   5 483.536 388.160   1
 -11   4   5 118.396 252.074   1
  11  -7  -5 85.0646 263.661   1
  11  -4  -5-67.0615 430.007   1
   4 -11   5 414.970 383.854   2
   7 -11   5-87.8124 266.528   2
 -11   7   4 65457.5 3801.50   1
 -11   4   4 71834.0 4041.25   1
  11  -7  -4 61407.0 3722.20   1
  11  -4  -4 66165.7 3972.48   1
   4 -11   4 61067.3 3798.30   2
   7 -11   4 64256.3 4052.50   2
 -11   7   3 3092.09 852.972   1
 -11   4   3 1220.83 571.427   1
  11  -7  -3 1792.36 513.376   1
  11  -4  -3 2447.88 791.863   1
   7 -11   3 904.523 516.390   2
 -11   4   2 4932.85 1024.79   1
  11  -7  -2 5803.81 1083.64   1
  11  -4  -2 4940.09 1005.94   1
 -11   7   2 5150.25 1038.07   1
 -11   4   1 1119.11 525.308   1
  11  -7  -1 524.314 330.589   1
  11  -4  -1 237.116 171.517   1
 -11   7   1 171.622 290.253   1
 -11   7   0 140041. 5797.09   1
 -11   4   0 150651. 6010.57   1
  11  -7   0 158841. 6184.67   1
  11  -4   0 141518. 5814.83   1
  -4  -7   0 137624. 6283.93   2
  11  -7   1 2743.61 826.875   1
  -4  -7   1 1574.92 645.685   2
  11  -4   1 1599.49 632.623   1
 -11   7  -1 1843.09 637.455   1
 -11   4  -1 2425.71 700.050   1
 -11   4  -2 13822.3 1684.28   1
  11  -7   2 14374.8 1671.48   1
  11  -4   2 12493.7 1622.21   1
  -4  -7   2 12158.2 1647.98   2
 -11   7  -2 10987.9 1484.77   1
  11  -7   3 939.806 603.490   1
 -11   7  -3-40.5156 175.998   1
  11  -4   3 327.893 357.567   1
  -4  -7   3 492.394 523.907   2
 -11   4  -3 192.255 335.526   1
  11  -7   3 163.116 313.385   2
  11  -7   4 75627.0 4039.70   1
  11  -4   4 67527.1 3814.56   1
  -4  -7   4 61140.1 3850.99   2
 -11   7  -4 71798.0 3884.01   1
 -11   4  -4 65822.8 3720.69   1
  11  -7   5 10712.3 1532.68   1
  11  -4   5 9444.58 1410.86   1
  -4  -7   5 9388.61 1557.66   2
 -11   7  -5 12250.0 1566.87   1
 -11   4  -5 9372.37 1353.16   1
  11  -7   5 8170.51 1392.81   2
 -11   7  -6 2737.61 788.275   1
 -11   4  -6 2162.60 643.575   1
  11  -7   6 1914.72 645.676   1
  11  -4   6 2304.07 662.503   1
  -7  -4   6 1521.10 505.692   2
  -4  -7   6 848.242 336.843   2
  11  -7   6 2455.29 777.944   2
 -11   7  -7 491.667 347.013   1
 -11   4  -7 96.9726 138.137   1
  11  -7   7 402.418 254.060   1
  11  -4   7-161.164 421.106   1
  -7  -4   7-38.9227 362.703   2
  -4  -7   7 563.886 436.934   2
  11  -7   7 414.711 342.536   2
  11  -7   8 146984. 5994.07   1
  11  -4   8 137741. 5942.98   1
  -7  -4   8 111073. 5728.76   2
  -4  -7   8 130690. 6150.37   2
 -11   7  -8 138307. 5722.58   1
 -11   4  -8 122120. 5529.52   1
  11  -7   8 122115. 5590.60   2
 -11   7  -9 2983.89 814.451   1
 -11   4  -9 1809.40 638.522   1
  11  -7   9 3085.21 766.272   1
  11  -4   9 3238.50 871.338   1
  -7  -4   9 1627.49 693.639   2
  -4  -7   9 3481.11 1023.87   2
  11  -7   9 3380.66 896.030   2
  11  -4   9 1753.72 695.513   2
 -11   7 -10 264.092 351.786   1
 -11   4 -10 402.378 223.574   1
  11  -7  10 1001.51 540.439   1
  11  -4  10 554.126 474.699   1
  -7  -4  10 470.154 309.017   2
  -4  -7  10-9.07765 253.430   2
  11  -7  10 215.583 325.746   2
   7   4 -10 27.7018 174.677   1
  11  -4  10-450.936 502.555   2
 -11   4 -11 1525.09 655.109   1
  -7  -4  11 1088.19 565.043   1
  11  -4  11 1795.81 738.299   1
  11  -4  11 506.455 300.256   2
   7   4 -11 895.639 470.680   1
  11  -4  12 17017.7 2100.19   1
 -11   4 -12 18093.1 2135.77   1
   7   4 -12 20491.1 2369.98   1
   8 -11  11 606.437 393.735   1
 -11   8  11 586.183 474.793   1
  11  -8 -11 483.369 345.454   1
  -8  11 -11 392.420 261.802   1
   8 -11  10 35593.9 2904.71   1
  -8  11 -10 36207.6 2896.28   1
 -11   8  10 41500.8 3185.82   1
  11  -8 -10 33298.3 2928.57   1
   3 -11  10 38102.0 3096.38   2
   8 -11  10 34110.7 3003.88   2
 -11   3   9 4557.27 1047.46   1
   8 -11   9 2821.14 846.239   1
 -11   8   9 3506.33 950.879   1
  11  -8  -9 2621.62 771.403   1
   3 -11   9 3996.66 978.423   2
  11  -3  -9 3524.19 874.574   1
  -8  11  -9 2802.41 805.614   1
   8 -11   9 2456.38 865.785   2
   8 -11   8 24258.5 2412.46   1
 -11   8   8 28241.4 2632.51   1
  -8  11  -8 26296.3 2428.03   1
  11  -8  -8 27937.2 2569.10   1
  11  -3  -8 29143.0 2616.30   1
 -11   3   8 34849.6 2802.55   1
   3 -11   8 26281.6 2572.01   2
   8 -11   8 25260.0 2564.05   2
   8 -11   7 13529.1 1789.02   1
 -11   8   7 12665.0 1675.40   1
  -8  11  -7 15033.9 1770.12   1
  11  -8  -7 15344.8 1873.16   1
  11  -3  -7 15653.6 1879.56   1
 -11   3   7 17450.1 1970.67   1
   3 -11   7 12745.0 1792.93   2
   8 -11   7 15412.7 1952.24   2
 -11   8   6 64363.7 3914.95   1
  11  -8  -6 62435.8 3826.20   1
  -8  11  -6 57399.8 3627.51   1
 -11   3   6 65520.0 3889.57   1
  11  -3  -6 67026.1 3925.66   1
   3 -11   6 60227.0 3925.56   2
   8 -11   6 61840.5 4100.10   2
   8 -11   5 27500.7 2532.11   1
 -11   8   5 37103.3 2941.42   1
  11  -8  -5 43844.0 3097.70   1
 -11   3   5 36658.5 2798.88   1
  -8  11  -5 36749.5 2824.91   1
  11  -3  -5 36185.1 2884.17   1
   3 -11   5 29709.0 2669.24   2
   8 -11   5 26056.9 2665.47   2
  -8  11  -4 1093.11 583.259   1
 -11   8   4 1053.26 552.244   1
   8 -11   4-57.5485 207.135   1
 -11   3   4 649.939 419.303   1
  11  -8  -4 1027.08 440.927   1
  11  -3  -4 1190.51 595.658   1
   3 -11   4 453.284 338.054   2
   8 -11   4 380.050 173.439   2
 -11   8   3 37275.2 2933.48   1
 -11   3   3 32663.9 2691.67   1
  11  -8  -3 34429.2 2753.00   1
  11  -3  -3 35478.1 2836.38   1
  -8  11  -3 39268.8 2907.05   1
   8 -11   3 40628.4 3326.09   2
 -11   8   2 33947.0 2731.15   1
 -11   3   2 33178.9 2680.29   1
  11  -8  -2 36950.2 2844.84   1
  11  -3  -2 29438.0 2549.82   1
 -11   8   1 10969.3 1501.75   1
 -11   3   1 10308.8 1450.76   1
  11  -8  -1 9698.73 1452.17   1
  11  -3  -1 9744.54 1444.73   1
 -11   3   0 3514.89 899.494   1
  11  -8   0 4032.35 948.134   1
  11  -3   0 3606.67 890.817   1
 -11   8   0 4292.05 909.872   1
  11  -8   0 1119.55 535.033   2
  11  -8   1 1736.77 640.519   1
  -3  -8   1 1324.04 642.078   2
  11  -3   1 1404.78 534.785   1
 -11   8  -1 1134.78 446.166   1
 -11   3  -1 335.035 239.263   1
  11  -8   1 493.974 480.304   2
 -11   3  -2 45825.2 3128.01   1
  11  -3   2 51140.7 3334.04   1
  -3  -8   2 44275.4 3398.18   2
 -11   8  -2 51937.8 3264.86   1
 -11   8  -3 2458.42 696.395   1
  11  -8   3 3591.14 837.503   1
  11  -3   3 3638.09 903.569   1
  -3  -8   3 2641.12 749.650   2
 -11   3  -3 1929.02 629.901   1
  11  -8   3 1926.04 620.417   2
  11  -8   4 38810.2 2934.60   1
  11  -3   4 31802.6 2674.25   1
  -3  -8   4 25600.4 2493.08   2
 -11   8  -4 33545.0 2675.13   1
  11  -8   4 22089.4 2260.39   2
 -11   3  -4 27729.9 2447.15   1
  11  -8   5 11930.0 1623.55   1
  11  -3   5 11234.7 1521.26   1
  -3  -8   5 12549.9 1805.77   2
 -11   8  -5 12357.3 1604.08   1
 -11   3  -5 10856.7 1517.14   1
  11  -8   5 10353.5 1509.59   2
  11  -8   6 73203.9 4173.42   1
  11  -3   6 78657.4 4348.56   1
  -3  -8   6 64393.2 4131.56   2
 -11   8  -6 77799.6 4109.43   1
 -11   3  -6 56588.8 3642.61   1
  11  -8   6 82000.2 4432.36   2
  11  -8   7 34127.7 2791.10   1
  11  -3   7 32611.1 2769.62   1
  -3  -8   7 31561.5 2856.70   2
   8   3  -7 30198.8 2773.66   1
 -11   8  -7 32038.2 2640.80   1
 -11   3  -7 27776.1 2522.53   1
  11  -8   7 36294.8 2858.11   2
 -11   8  -8 1223.29 587.437   1
 -11   3  -8 528.349 359.678   1
  11  -8   8 518.271 382.267   1
  11  -3   8 527.101 411.645   1
  -3  -8   8 933.837 450.218   2
   8   3  -8 682.073 447.419   1
  11  -8   8 802.702 518.336   2
  -8  -3   9 20427.1 2352.55   1
  11  -8   9 31073.8 2613.04   1
  11  -3   9 21181.9 2254.62   1
  -3  -8   9 26440.0 2623.00   2
 -11   8  -9 25277.8 2275.20   1
   8   3  -9 24900.0 2630.31   1
 -11   3  -9 13827.2 1802.05   1
  11  -8   9 24036.2 2295.45   2
  -8  -3  10 16713.5 2124.47   1
  11  -3  10 17707.9 2112.17   1
  -3  -8  10 22187.1 2374.61   2
 -11   3 -10 14322.3 1778.45   1
   8   3 -10 20084.5 2337.76   1
  -8  -3  11 4029.56 1214.79   1
   8   3 -11 6968.73 1334.33   1
 -11   9  10 29050.0 2839.26   1
 -11   9   9 1499.64 645.679   1
   9 -11   9 1800.23 703.991   1
  11  -9  -9 1390.59 579.805   1
   2 -11   9 1286.26 594.635   2
   9 -11   9 945.103 523.457   2
  -9  11  -9 1445.87 605.605   1
 -11   2   8 3358.85 865.571   1
 -11   9   8 2721.27 890.788   1
   9 -11   8 2343.26 743.054   1
  11  -9  -8 2164.34 711.442   1
   2 -11   8 2796.86 884.760   2
  11  -2  -8 3740.02 919.232   1
   9 -11   8 2073.92 867.869   2
  -9  11  -8 2984.75 800.191   1
  -9  11  -7 8345.49 1336.09   1
 -11   9   7 7195.02 1332.72   1
   9 -11   7 8085.16 1362.27   1
  11  -2  -7 10487.3 1529.73   1
 -11   2   7 10102.5 1524.49   1
  11  -9  -7 7224.86 1305.26   1
   2 -11   7 7172.50 1323.16   2
   9 -11   7 8126.05 1545.03   2
 -11   9   6 51284.3 3539.11   1
   9 -11   6 44711.4 3302.71   1
  11  -9  -6 46828.7 3320.72   1
  -9  11  -6 45820.1 3249.80   1
 -11   2   6 54819.6 3603.28   1
  11  -2  -6 50648.4 3489.96   1
   2 -11   6 42539.2 3331.41   2
   9 -11   6 52208.8 3814.22   2
 -11   9   5 16999.9 2026.35   1
   9 -11   5 15109.4 1884.33   1
  11  -9  -5 17898.3 2011.54   1
 -11   2   5 19241.7 2061.95   1
  11  -2  -5 16940.2 1994.48   1
  -9  11  -5 15460.5 1765.11   1
   2 -11   5 15682.0 1958.34   2
   9 -11   5 14194.2 2026.58   2
  -9  11  -4 4972.00 1029.31   1
   9 -11   4 3607.78 900.112   1
 -11   2   4 3415.89 875.022   1
  11  -9  -4 3578.99 839.578   1
  11  -2  -4 5332.45 1119.63   1
 -11   9   4 3818.22 961.549   1
   9 -11   4 2411.34 759.615   2
 -11   9   3 27143.5 2473.68   1
   9 -11   3 23483.9 2257.41   1
 -11   2   3 28099.0 2492.03   1
  11  -9  -3 25033.4 2352.67   1
  11  -2  -3 28923.5 2538.49   1
  -9  11  -3 26291.4 2354.12   1
   9 -11   3 21227.6 2507.45   2
 -11   9   2 22489.5 2192.12   1
   9 -11   2 15287.2 1822.66   1
 -11   2   2 19049.7 2007.44   1
  11  -9  -2 21458.9 2219.63   1
  11  -2  -2 23379.6 2254.06   1
  -9  11  -2 20213.4 2052.79   1
 -11   9   1 16708.9 1905.99   1
 -11   2   1 12066.5 1613.52   1
  11  -9  -1 20124.1 2080.60   1
  11  -2  -1 16912.5 1908.76   1
  -9  11  -1 14522.5 1782.86   1
 -11   2   0 2585.56 784.204   1
  11  -9   0 1899.41 633.964   1
 -11   9   0 3178.25 829.687   1
  11  -2   0 3212.82 827.531   1
  11  -9   0 1991.68 861.505   2
  11  -9   1 322.772 402.794   1
 -11   9  -1 106.912 354.110   1
  11  -2   1 593.164 429.668   1
  11  -9   1-39.5729 291.038   2
 -11   2  -1 76.8715 347.665   1
 -11   2  -2 43408.1 3200.05   1
  11  -9   2 83140.2 4336.66   1
  11  -2   2 69117.7 3969.18   1
  11  -9   2 41239.1 3408.50   2
 -11   9  -2 73412.2 3966.30   1
 -11   2  -3 10303.9 1516.75   1
  11  -9   3 14515.1 1787.19   1
  11  -2   3 14459.3 1820.58   1
  -2  -9   3 10379.8 1570.80   2
 -11   9  -3 16106.3 1799.66   1
  11  -9   3 13676.8 1818.98   2
  11  -9   4 21665.7 2146.31   1
  11  -2   4 17600.0 1988.64   1
  -2  -9   4 18539.6 2062.95   2
 -11   9  -4 19413.8 1981.67   1
  11  -9   4 14493.9 1842.99   2
 -11   2  -4 17831.6 1974.36   1
  11  -9   5 62304.8 3755.99   1
  11  -2   5 59227.7 3733.45   1
   9   2  -5 53771.2 3651.81   1
  -2  -9   5 47833.7 3579.81   2
 -11   9  -5 61151.9 3626.33   1
  11  -9   5 54837.7 3668.12   2
 -11   2  -5 49979.3 3367.74   1
  11  -9   6 64207.8 3877.59   1
  11  -2   6 63166.6 3963.67   1
   9   2  -6 55829.6 3787.77   1
 -11   9  -6 70234.8 3901.73   1
  11  -9   6 64509.1 3852.50   2
 -11   9  -7 3027.49 726.878   1
  11  -9   7 2992.48 835.922   1
  -9  -2   7 2369.78 838.086   1
  11  -2   7 3374.95 842.155   1
  -2  -9   7 2931.99 906.312   2
   9   2  -7 2246.95 761.896   1
  11  -9   7 3354.95 1003.01   2
 -11   9  -8 18.9181 309.244   1
  11  -9   8 136.322 251.007   1
  -9  -2   8 24.4878 196.451   1
  -2  -9   8-514.406 453.152   2
   9   2  -8-146.158 266.708   1
  11  -9   8 507.269 405.847   2
  -9  -2   9 3284.63 976.114   1
  -2  -9   9 6137.69 1322.92   2
   9   2  -9 6043.57 1243.44   1
   9   2 -10 10013.9 1650.74   1
  -9  -2  10 7718.29 1523.06   1
  10 -11   8 43828.2 3364.28   1
 -10  11  -8 44871.4 3198.80   1
   1 -11   8 38904.6 3282.65   2
 -10  11  -7 2062.40 744.698   1
  10 -11   7 2764.80 787.890   1
   1 -11   7 2386.35 803.331   2
  11  -1  -7 2905.00 820.628   1
 -11   1   7 3606.34 924.306   1
  10 -11   7 2618.94 893.611   2
 -11  10   7 3105.86 928.181   1
 -10  11  -6 31.8922 176.835   1
  10 -11   6 214.183 227.966   1
  11 -10  -6-217.709 155.330   1
   1 -11   6 50.2951 163.449   2
 -11   1   6 231.824 277.305   1
  11  -1  -6 94.3322 287.086   1
 -11  10   6-209.860 463.958   1
  10 -11   6-28.6456 191.899   2
 -10  11  -5 927.266 503.938   1
  10 -11   5 1176.16 615.972   1
  11 -10  -5 1938.42 717.893   1
 -11   1   5 1423.44 645.414   1
  11  -1  -5 2243.70 793.805   1
 -11  10   5 1215.16 516.237   1
  10 -11   5 1943.32 797.570   2
 -11  10   4 25028.2 2478.30   1
  10 -11   4 31075.7 2688.81   1
  11 -10  -4 32467.4 2851.41   1
 -11   1   4 34229.5 2809.13   1
  11  -1  -4 33620.1 2896.54   1
 -10  11  -4 29001.1 2488.73   1
  10 -11   4 38065.9 3259.25   2
 -10  11  -3 1720.59 603.698   1
 -11   1   3 1473.17 502.029   1
  10 -11   3 1219.09 607.210   1
  11 -10  -3 1069.18 406.345   1
 -11  10   3 1160.77 483.490   1
  11  -1  -3 1962.93 707.934   1
  10 -11   3 1328.32 641.506   2
 -10  11  -2 1867.93 675.272   1
 -11   1   2 1839.00 564.676   1
  10 -11   2 1304.41 522.504   1
  11 -10  -2 2813.42 775.041   1
 -11  10   2 1658.00 681.684   1
  11  -1  -2 1958.28 628.916   1
 -11   1   1 1711.72 654.806   1
 -10  11  -1 617.896 450.459   1
  10 -11   1 903.286 423.898   1
  11 -10  -1 1282.08 531.725   1
 -11  10   1 867.843 224.481   1
  11  -1  -1 387.979 167.840   1
 -11   1   0 85897.4 4619.70   1
  10 -11   0 77595.0 4345.28   1
  11 -10   0 89810.9 4561.56   1
  11  -1   0 92073.0 4741.33   1
 -11  10   0 89252.5 4546.63   1
 -10  11   1 1353.78 637.606   1
 -11  10  -1 945.829 514.251   1
  11 -10   1 1569.10 620.333   1
  11  -1   1 982.474 451.070   1
  11 -10   1 1304.04 626.605   2
 -11   1  -1 332.606 304.772   1
 -11  10  -2 903.633 538.505   1
  11 -10   2 907.916 204.773   1
  11  -1   2 716.243 462.023   1
 -11   1  -2 495.242 399.665   1
  11 -10   2 900.788 463.225   2
 -11  10  -3-107.401 285.795   1
  11 -10   3 445.812 424.376   1
  11  -1   3-389.121 352.927   1
  10   1  -3-118.132 244.807   1
  11 -10   3 24.1783 199.652   2
  11 -10   4 93258.7 4665.91   1
  10   1  -4 85866.8 4705.06   1
 -11  10  -4 85859.1 4386.65   1
  11 -10   4 75867.2 4548.93   2
 -11  10  -5 1482.56 594.941   1
  11 -10   5 1718.94 631.930   1
  -1 -10   5 878.896 489.565   2
  10   1  -5 1399.13 652.491   1
 -10  -1   5 1577.39 613.042   1
  11 -10   5 735.037 242.302   2
 -11  10  -6 2756.64 827.242   1
  11 -10   6 1877.23 619.630   1
  -1 -10   6 1495.54 677.254   2
  10   1  -6 2068.72 716.957   1
  11 -10   6 1535.82 748.183   2
 -10  -1   6 1426.76 663.691   1
 -10  -1   7 1734.44 724.979   1
 -11  10  -7 3168.07 838.927   1
  11 -10   7 3373.20 900.482   1
  -1 -10   7 2454.42 796.062   2
  10   1  -7 3561.97 939.738   1
  11 -10   7 2020.38 686.423   2
  10   1  -8 25706.7 2574.69   1
  -1 -10   8 28974.3 2778.56   2
 -10  -1   8 24424.2 2635.46   1
 -11  11   0 6621.51 1230.60   1
  11 -11   0 7200.10 1248.37   1
 -11  11  -1 1735.83 629.612   1
 -11  11   1 1659.64 584.287   1
  11 -11   1 2238.43 661.162   1
  11 -11  -1 1349.59 595.084   1
  11 -11   2 26944.4 2519.53   1
  11 -11  -2 21988.5 2315.01   1
  11   0  -2 28351.3 2683.46   1
 -11  11  -2 25712.4 2329.73   1
 -11  11   2 21666.3 2171.53   1
  11 -11   3 15833.4 1846.30   1
 -11   0   3 14449.1 1843.66   1
  11   0  -3 15246.4 2025.37   1
 -11  11  -3 15776.8 1841.20   1
  11 -11   3 19154.3 2395.15   2
 -11  11   3 13198.8 1731.26   1
 -11  11  -4 4723.70 1018.10   1
  11 -11   4 6449.32 1200.02   1
 -11   0   4 3988.08 1018.59   1
  11   0  -4 6855.56 1313.03   1
  11 -11   4 5254.08 1193.57   2
  11 -11   5 20021.9 2187.01   1
 -11   0   5 16997.3 2085.81   1
  11   0  -5 17851.6 2146.40   1
 -11  11  -5 17393.8 1982.25   1
  11 -11   5 21623.1 2431.15   2
 -11   0   6 30923.6 2810.16   1
  11   0  -6 31097.7 2825.67   1
   6 -12   8 76590.0 4567.11   2
 -12   6   7-494.901 564.895   1
  12  -6  -7 340.557 400.222   1
   6 -12   7-444.973 329.140   2
 -12   6   6 5503.26 1177.02   1
  12  -6  -6 7165.36 1268.48   1
   6 -12   6 5187.32 1182.64   2
 -12   6   5-921.211 605.186   1
  12  -6  -5 252.844 293.624   1
 -12   6   4 76046.1 4219.15   1
  12  -6  -4 74755.2 4207.84   1
 -12   6   3-267.646 167.518   1
  12  -6  -3-231.158 278.525   1
 -12   6   2-130.899 284.059   1
  12  -6  -2 37.6719 290.279   1
  12  -6  -1 249.311 349.053   1
 -12   6   1-225.941 296.432   1
 -12   6   0 47177.8 3272.16   1
  12  -6   0 50813.8 3363.88   1
  12  -6   1 31.4495 135.635   1
 -12   6  -1-71.2419 219.266   1
  12  -6   2 50.0443 211.874   1
 -12   6  -2-115.606 206.435   1
  12  -6   3-427.164 216.382   1
 -12   6  -3 222.378 361.180   1
  12  -6   4 142490. 5979.37   1
 -12   6  -4 152263. 5933.37   1
 -12   6  -5 155.221 317.776   1
  12  -6   5-422.057 340.994   1
  12  -6   6 10273.4 1519.89   1
  -6  -6   6 8426.04 1460.02   2
 -12   6  -6 10536.9 1482.97   1
  12  -6   6 6173.42 1196.81   2
 -12   6  -7-103.675 262.913   1
  12  -6   7-369.426 486.416   1
  -6  -6   7-998.129 697.346   2
  12  -6   7-46.6801 380.245   2
   5 -12   8 9538.48 1593.34   2
   7 -12   8 9338.72 1506.65   2
 -12   7   7 15997.1 1998.20   1
 -12   5   7 24568.4 2405.35   1
  12  -7  -7 19030.0 2053.86   1
  12  -5  -7 22243.3 2276.46   1
   5 -12   7 16871.5 2096.54   2
   7 -12   7 15262.7 2008.34   2
 -12   7   6 93789.9 4919.70   1
 -12   5   6 99299.9 4935.74   1
  12  -7  -6 79068.5 4396.69   1
  12  -5  -6 81272.5 4579.14   1
   5 -12   6 68578.2 4357.94   2
   7 -12   6 69096.8 4409.67   2
 -12   7   5 3889.41 938.701   1
 -12   5   5 3570.34 890.109   1
  12  -7  -5 2689.21 752.317   1
  12  -5  -5 3017.07 844.846   1
 -12   7   4 2748.60 861.689   1
 -12   5   4 3700.57 965.461   1
  12  -7  -4 2748.72 846.057   1
  12  -5  -4 2060.16 783.408   1
 -12   7   3 1049.06 263.231   1
 -12   5   3 1227.08 532.827   1
  12  -7  -3 1772.75 661.591   1
  12  -5  -3 1112.69 517.735   1
 -12   7   2 21361.7 2132.26   1
 -12   5   2 21362.5 2090.56   1
  12  -7  -2 19953.6 2075.52   1
  12  -5  -2 18586.8 1980.58   1
 -12   7   1 35417.8 2825.88   1
 -12   5   1 28051.9 2497.85   1
  12  -7  -1 30311.6 2617.99   1
  12  -5  -1 28592.5 2481.62   1
  12  -7   0 8428.73 1279.37   1
  12  -5   0 7124.34 1225.42   1
 -12   7   0 7810.98 1197.17   1
 -12   5   0 7954.12 1259.10   1
 -12   7  -1 9586.42 1439.57   1
 -12   5  -1 11330.0 1522.56   1
  12  -7   1 11432.3 1593.82   1
  12  -5   1 9446.73 1473.38   1
 -12   5  -2 50723.4 3343.45   1
  12  -7   2 53454.1 3452.89   1
  12  -5   2 51406.8 3482.03   1
 -12   7  -2 52527.0 3365.58   1
  12  -7   3 596.194 408.166   1
 -12   7  -3 491.146 348.876   1
  12  -5   3 372.608 182.370   1
  -5  -7   3 1424.61 733.381   2
 -12   5  -3 1249.86 582.558   1
 -12   7  -4 2145.62 664.037   1
  12  -7   4 2049.88 749.675   1
  12  -5   4 1252.92 557.815   1
 -12   5  -4 1824.43 625.934   1
  -5  -7   4 1033.36 453.220   2
  12  -7   4 334.129 377.775   2
  12  -7   5 42881.2 3120.44   1
  12  -5   5 41483.9 3036.57   1
  -5  -7   5 32942.3 3011.42   2
 -12   7  -5 40071.2 2960.44   1
 -12   5  -5 36154.9 2775.54   1
  12  -7   6 57608.3 3635.98   1
  12  -5   6 59297.3 3745.49   1
  -5  -7   6 61050.2 4013.37   2
 -12   7  -6 59909.1 3587.27   1
 -12   5  -6 58115.3 3588.04   1
  12  -7   7 19021.2 2084.84   1
  12  -5   7 20805.8 2141.45   1
  -7  -5   7 20662.2 2278.99   2
  -5  -7   7 19000.8 2202.27   2
 -12   7  -7 19601.6 2089.54   1
 -12   5  -7 21743.5 2196.73   1
 -12   5  -8 5275.23 1083.45   1
  12  -5   8 6030.16 1169.11   1
   4 -12   8 21911.5 2408.32   2
   8 -12   8 20740.1 2349.26   2
 -12   8   7 10345.4 1569.65   1
  12  -8  -7 8838.33 1385.40   1
   8 -12   7 8140.43 1538.62   2
   4 -12   7 6516.54 1316.63   2
 -12   8   6 34861.1 2933.32   1
 -12   4   6 38708.6 3034.71   1
  12  -8  -6 33064.3 2747.51   1
  12  -4  -6 35163.8 2955.70   1
   8 -12   6 28279.1 2823.46   2
 -12   8   5 24239.8 2436.22   1
 -12   4   5 22646.5 2327.51   1
  12  -8  -5 26030.0 2429.48   1
  12  -4  -5 25426.8 2500.15   1
 -12   8   4 1463.22 564.019   1
 -12   4   4 1402.37 535.090   1
  12  -8  -4 1429.59 575.193   1
  12  -4  -4 1743.75 665.331   1
 -12   8   3 18564.4 2089.03   1
 -12   4   3 16613.4 1844.64   1
  12  -8  -3 16267.1 1877.42   1
  12  -4  -3 16233.8 1948.59   1
 -12   8   2 36249.7 2932.77   1
 -12   4   2 30755.7 2659.81   1
  12  -8  -2 38033.9 2896.29   1
  12  -4  -2 37860.8 2945.09   1
 -12   4   1 2135.65 624.191   1
  12  -8  -1 2771.58 785.750   1
  12  -4  -1 3381.35 928.323   1
 -12   8   1 3322.49 941.544   1
  12  -8   0-484.219 431.409   1
  12  -4   0 65.9097 335.193   1
 -12   4   0-17.8104 329.285   1
  12  -8   0-20.3365 300.677   2
 -12   4  -1 15928.4 1862.02   1
  12  -8   1 15487.8 1879.60   1
  12  -4   1 12716.7 1703.48   1
 -12   8  -1 15128.2 1820.67   1
 -12   4  -2 36321.3 2835.91   1
  12  -8   2 39821.1 2907.44   1
  12  -4   2 32296.9 2713.23   1
  -4  -8   2 20359.7 2341.75   2
  12  -8   2 14221.8 1946.41   2
 -12   8  -2 37115.1 2831.30   1
 -12   4  -3 22693.3 2188.07   1
  12  -8   3 21499.5 2188.54   1
  12  -4   3 20896.9 2180.51   1
 -12   8  -3 20543.2 2127.82   1
  12  -8   3 14699.8 1944.04   2
  12  -8   4 19066.0 2089.03   1
  12  -4   4 18045.5 2012.58   1
 -12   8  -4 18188.7 2000.41   1
  12  -8   4 11728.4 1682.16   2
 -12   4  -4 16692.1 1862.74   1
 -12   8  -5 887.814 302.638   1
  12  -8   5 1131.49 431.698   1
 -12   4  -5 1377.07 598.122   1
  12  -4   5 1029.84 483.850   1
  -4  -8   5 752.915 539.396   2
  12  -8   5 766.795 436.568   2
  12  -8   6 67391.8 4016.91   1
  12  -4   6 65885.2 4033.55   1
  -4  -8   6 62437.6 4215.98   2
 -12   8  -6 67834.1 3919.67   1
 -12   4  -6 64988.2 3946.10   1
  12  -8   6 64094.4 3939.65   2
  12  -4   7 10389.9 1558.08   1
  -4  -8   7 11154.2 1750.51   2
 -12   4  -7 10267.7 1533.63   1
 -12   4  -8 4707.25 1030.35   1
  12  -4   8 5764.06 1180.62   1
   9 -12   7 287.327 473.310   2
 -12   9   6 474.753 443.837   1
  12  -9  -6 209.113 266.423   1
   9 -12   6 63.2102 376.245   2
 -12   3   5 726.529 550.262   1
  12  -9  -5 449.425 390.674   1
  12  -3  -5 429.127 176.272   1
   9 -12   5 278.939 186.219   2
 -12   9   5 1218.76 618.884   1
 -12   9   4 72435.0 4218.44   1
 -12   3   4 57363.0 3820.38   1
  12  -9  -4 54126.8 3662.28   1
  12  -3  -4 68809.2 4164.42   1
 -12   3   3 506.821 472.093   1
  12  -9  -3 172.098 133.797   1
  12  -3  -3 229.040 242.573   1
 -12   9   3-251.441 241.999   1
 -12   3   2 1400.46 555.257   1
  12  -9  -2 1439.47 611.145   1
  12  -3  -2 994.582 455.794   1
 -12   9   2 1764.47 643.165   1
 -12   3   1-125.949 232.782   1
  12  -9  -1 10.2536 299.623   1
  12  -3  -1 227.102 233.308   1
 -12   9   1-96.5479 207.191   1
  12  -9  -1 12.7372 390.405   2
 -12   3   0 36512.3 2890.61   1
  12  -9   0 41475.0 3069.61   1
  12  -3   0 38902.9 2979.44   1
 -12   9   0 45778.2 3123.34   1
  12  -9   1 1259.02 545.755   1
 -12   9  -1 1097.78 551.741   1
  12  -3   1 1104.60 465.182   1
 -12   3  -1 1084.19 667.083   1
  12  -9   1 86.7238 575.612   2
 -12   9  -2-156.950 321.023   1
  12  -9   2-202.258 166.368   1
 -12   3  -2-800.754 443.400   1
  12  -9   2 4.97505 172.938   2
 -12   9  -3 2371.68 730.522   1
  12  -9   3 2659.51 761.050   1
  12  -3   3 1745.28 692.367   1
  -3  -9   3 1465.41 553.324   2
 -12   3  -3 1690.39 624.468   1
  12  -9   3 1189.65 581.299   2
  12  -9   4 116307. 5339.94   1
  12  -3   4 110326. 5237.14   1
 -12   9  -4 112698. 5137.24   1
 -12   3  -4 106683. 5126.08   1
 -12   3  -5 911.753 414.042   1
  12  -3   5 1639.45 647.312   1
  -3  -9   5 497.722 368.838   2
  12  -9   5 1306.33 466.047   2
 -12   3  -6 3795.14 931.686   1
  12  -3   6 3519.93 965.721   1
  -3  -9   6 3330.24 965.783   2
  12  -3   7-114.359 157.004   1
 -12  10   5 10070.1 1559.18   1
  12 -10  -5 12654.7 1770.62   1
  12 -10  -4 8752.10 1455.79   1
  12  -2  -4 7954.31 1393.72   1
 -12  10   4 8529.31 1459.35   1
 -12   2   3 3358.29 826.924   1
  12 -10  -3 4058.02 998.096   1
  12  -2  -3 3043.90 815.951   1
 -12  10   3 3111.17 821.183   1
 -12   2   2 18216.8 2089.88   1
  12 -10  -2 18499.7 2080.92   1
  12  -2  -2 21370.8 2265.81   1
 -12  10   2 21590.2 2252.91   1
 -12   2   1 73.2307 351.528   1
  12 -10  -1 287.114 291.655   1
 -12  10   1 93.1164 165.979   1
  12  -2  -1-290.937 358.072   1
 -12  10   0 4210.88 1014.38   1
  12 -10   0 4697.57 1023.94   1
  12  -2   0 4308.16 983.458   1
 -12   2   0 4054.00 1043.20   1
 -12   2  -1 10825.8 1626.33   1
  12 -10   1 12125.2 1700.93   1
  12  -2   1 11851.8 1665.34   1
 -12  10  -1 13242.5 1729.72   1
  12 -10   1 7652.31 1563.05   2
 -12   2  -2 31785.2 2809.02   1
  12 -10   2 39988.8 3037.58   1
  12  -2   2 34720.9 2933.98   1
 -12  10  -2 39866.1 2987.32   1
  12  -2   3 25262.2 2447.81   1
  12 -10   3 20693.8 2408.12   2
  12  -2   4 3274.45 959.076   1
  12 -10   4 2039.94 640.575   2
   0   0   0    0.00    0.00   0
;
_shelx_hkl_checksum              58259
loop_
_space_group_symop_operation_xyz
'x, y, z'
'-y, x-y, z'
'-x+y, -x, z'
'-y, -x, -z+1/2'
'-x+y, y, -z+1/2'
'x, x-y, -z+1/2'
'-x, -y, -z'
'y, -x+y, -z'
'x-y, x, -z'
'y, x, z-1/2'
'x-y, -y, z-1/2'
'-x, -x+y, z-1/2'
loop_
_atom_site_label
_atom_site_type_symbol
_atom_site_fract_x
_atom_site_fract_y
_atom_site_fract_z
_atom_site_U_iso_or_equiv
_atom_site_adp_type
_atom_site_occupancy
_atom_site_site_symmetry_order
_atom_site_calc_flag
_atom_site_refinement_flags_posn
_atom_site_refinement_flags_adp
_atom_site_refinement_flags_occupancy
Mn2 Mn 0.6667 0.3333 0.2500 0.01608(16) Uani 1 6 d S T P
Fe1 Fe 1.0000 0.0000 0.0000 0.01575(15) Uani 1 6 d S T P
O1 O 0.88898(19) 0.34220(18) 0.16603(10) 0.0325(3) Uani 1 1 d . . .
O2 O 1.01577(16) 0.20817(17) 0.08187(9) 0.0253(3) Uani 1 1 d . . .
C1 C 0.8785(2) 0.2112(2) 0.11848(11) 0.0250(3) Uani 1 1 d . . .
H1 H 0.7608 0.1076 0.1091 0.057(10) Uiso 1 1 calc R . .
C2 C 1.3333 0.6667 0.1604(18) 0.292(18) Uani 1 3 d S T P
N1 N 1.2799(7) 0.5598(14) 0.2500 0.164(12) Uani 0.3333 2 d S T P
loop_
_atom_site_aniso_label
_atom_site_aniso_U_11
_atom_site_aniso_U_22
_atom_site_aniso_U_33
_atom_site_aniso_U_23
_atom_site_aniso_U_13
_atom_site_aniso_U_12
Mn2 0.01469(18) 0.01469(18) 0.0189(2) 0.000 0.000 0.00734(9)
Fe1 0.01423(18) 0.01423(18) 0.0188(2) 0.000 0.000 0.00712(9)
O1 0.0266(6) 0.0258(6) 0.0433(7) -0.0087(5) 0.0088(5) 0.0118(5)
O2 0.0229(5) 0.0235(5) 0.0311(6) -0.0043(4) 0.0025(4) 0.0129(4)
C1 0.0222(6) 0.0248(7) 0.0293(6) -0.0056(5) 0.0008(5) 0.0128(6)
C2 0.0345(18) 0.0345(18) 0.81(6) 0.000 0.000 0.0172(9)
N1 0.042(5) 0.019(4) 0.42(3) 0.000 -0.086(11) 0.0093(19)
loop_
_atom_type_symbol
_atom_type_description
_atom_type_scat_dispersion_real
_atom_type_scat_dispersion_imag
_atom_type_scat_source
C C 0.0030 0.0010 'International Tables Vol C Tables 4.2.6.8 and 6.1.1.4'
H H 0.0000 0.0000 'International Tables Vol C Tables 4.2.6.8 and 6.1.1.4'
N N 0.0050 0.0030 'International Tables Vol C Tables 4.2.6.8 and 6.1.1.4'
O O 0.0090 0.0050 'International Tables Vol C Tables 4.2.6.8 and 6.1.1.4'
Fe Fe 0.3380 0.7620 'International Tables Vol C Tables 4.2.6.8 and 6.1.1.4'
Mn Mn 0.3240 0.6570 'International Tables Vol C Tables 4.2.6.8 and 6.1.1.4'
loop_
_geom_angle_atom_site_label_1
_geom_angle_atom_site_label_2
_geom_angle_atom_site_label_3
_geom_angle
_geom_angle_site_symmetry_1
_geom_angle_site_symmetry_3
O1 Mn2 O1 93.31(6) 4_665 6
O1 Mn2 O1 84.27(7) 4_665 3_665
O1 Mn2 O1 176.61(7) 6 3_665
O1 Mn2 O1 89.20(8) 4_665 .
O1 Mn2 O1 84.27(7) 6 .
O1 Mn2 O1 93.31(6) 3_665 .
O1 Mn2 O1 176.61(7) 4_665 2_655
O1 Mn2 O1 89.20(8) 6 2_655
O1 Mn2 O1 93.31(6) 3_665 2_655
O1 Mn2 O1 93.31(6) . 2_655
O1 Mn2 O1 93.31(6) 4_665 5_655
O1 Mn2 O1 93.31(6) 6 5_655
O1 Mn2 O1 89.20(8) 3_665 5_655
O1 Mn2 O1 176.61(7) . 5_655
O1 Mn2 O1 84.26(7) 2_655 5_655
O2 Fe1 O2 180.0 . 7_755
O2 Fe1 O2 88.78(5) . 9_545
O2 Fe1 O2 91.22(5) 7_755 9_545
O2 Fe1 O2 91.22(5) . 3_765
O2 Fe1 O2 88.78(5) 7_755 3_765
O2 Fe1 O2 180.00(8) 9_545 3_765
O2 Fe1 O2 91.22(5) . 2_645
O2 Fe1 O2 88.78(5) 7_755 2_645
O2 Fe1 O2 88.78(5) 9_545 2_645
O2 Fe1 O2 91.22(5) 3_765 2_645
O2 Fe1 O2 88.78(5) . 8_665
O2 Fe1 O2 91.22(5) 7_755 8_665
O2 Fe1 O2 91.22(5) 9_545 8_665
O2 Fe1 O2 88.78(5) 3_765 8_665
O2 Fe1 O2 180.00(6) 2_645 8_665
C1 O1 Mn2 125.27(11) . .
C1 O2 Fe1 124.99(11) . .
O1 C1 O2 124.52(16) . .
N1 C2 N1 54.0(11) 3_775 .
N1 C2 N1 54.0(11) 3_775 2_755
N1 C2 N1 54.0(11) . 2_755
N1 N1 N1 60.000(1) 2_755 3_775
N1 N1 C2 63.0(5) 2_755 4_775
N1 N1 C2 63.0(5) 3_775 4_775
N1 N1 C2 63.0(5) 2_755 .
N1 N1 C2 63.0(5) 3_775 .
C2 N1 C2 116.8(13) 4_775 .
loop_
_geom_bond_atom_site_label_1
_geom_bond_atom_site_label_2
_geom_bond_distance
_geom_bond_site_symmetry_2
Mn2 O1 2.1481(13) 4_665
Mn2 O1 2.1482(13) 6
Mn2 O1 2.1482(13) 3_665
Mn2 O1 2.1482(13) .
Mn2 O1 2.1482(13) 2_655
Mn2 O1 2.1482(13) 5_655
Fe1 O2 2.0131(12) .
Fe1 O2 2.0131(12) 7_755
Fe1 O2 2.0131(12) 9_545
Fe1 O2 2.0131(12) 3_765
Fe1 O2 2.0131(12) 2_645
Fe1 O2 2.0131(12) 8_665
O1 C1 1.2349(19) .
O2 C1 1.2560(18) .
C2 N1 1.46(2) 3_775
C2 N1 1.46(2) .
C2 N1 1.46(2) 2_755
N1 N1 1.326(17) 2_755
N1 N1 1.326(17) 3_775
N1 C2 1.46(2) 4_775
