#------------------------------------------------------------------------------
#$Date: 2017-02-04 00:26:19 +0200 (Sat, 04 Feb 2017) $
#$Revision: 191253 $
#$URL: file:///home/coder/svn-repositories/cod/cif/4/34/51/4345105.cif $
#------------------------------------------------------------------------------
#
# This file is available in the Crystallography Open Database (COD),
# http://www.crystallography.net/
#
# All data on this site have been placed in the public domain by the
# contributors.
#
data_4345105
loop_
_publ_author_name
'Mazzuca, Lidia'
'Ca\~nadillas-Delgado, Laura'
'Rodr\'iguez-Velamaz\'an, J Alberto'
'Fabelo, Oscar'
'Scarrozza, Marco'
'Stroppa, Alessandro'
'Picozzi, Silvia'
'Zhao, Jiong-Peng'
'Bu, Xian-He'
'Rodr\'iguez-Carvajal, Juan'
_publ_section_title
;
 Magnetic Structures of Heterometallic M(II)-M(III) Formate Compounds.
;
_journal_issue                   1
_journal_name_full               'Inorganic chemistry'
_journal_page_first              197
_journal_page_last               207
_journal_paper_doi               10.1021/acs.inorgchem.6b01866
_journal_volume                  56
_journal_year                    2017
_chemical_formula_sum            'C8 H14 Co Fe N O12'
_chemical_formula_weight         430.97
_chemical_name_systematic
;
 ?
;
_space_group_crystal_system      trigonal
_space_group_IT_number           163
_space_group_name_Hall           '-P 3 2c'
_space_group_name_H-M_alt        'P -3 1 c'
_symmetry_space_group_name_Hall  '-P 3 2c'
_symmetry_space_group_name_H-M   'P -3 1 c'
_atom_sites_solution_hydrogens   geom
_audit_creation_method           SHELXL-2014
_cell_angle_alpha                90
_cell_angle_beta                 90
_cell_angle_gamma                120
_cell_formula_units_Z            2
_cell_length_a                   8.21580(10)
_cell_length_b                   8.21580(10)
_cell_length_c                   13.6791(2)
_cell_measurement_reflns_used    6591
_cell_measurement_temperature    55(2)
_cell_measurement_theta_max      32.468
_cell_measurement_theta_min      5.399
_cell_volume                     799.628(18)
_computing_cell_refinement       'CrysAlis PRO software program'
_computing_data_collection       'CrysAlis PRO software program'
_computing_data_reduction        'CrysAlis PRO software program'
_computing_molecular_graphics    'Mercury (McRae, 2006)'
_computing_publication_material  'WINGX (Farrugia, 1999)'
_computing_structure_refinement  'SHELXL-2014 (Sheldrick, 2014)'
_computing_structure_solution    'SHELXL-2014 (Sheldrick, 2014)'
_diffrn_ambient_temperature      55(2)
_diffrn_measured_fraction_theta_full 0.807
_diffrn_measured_fraction_theta_max 0.858
_diffrn_measurement_device_type  'CRISTAL beamline, SOLEIL synchrotron'
_diffrn_radiation_type           synchrotron
_diffrn_radiation_wavelength     0.66951
_diffrn_reflns_av_R_equivalents  0.0359
_diffrn_reflns_av_unetI/netI     0.0155
_diffrn_reflns_Laue_measured_fraction_full 0.807
_diffrn_reflns_Laue_measured_fraction_max 0.858
_diffrn_reflns_limit_h_max       12
_diffrn_reflns_limit_h_min       -12
_diffrn_reflns_limit_k_max       13
_diffrn_reflns_limit_k_min       -13
_diffrn_reflns_limit_l_max       18
_diffrn_reflns_limit_l_min       -19
_diffrn_reflns_number            9187
_diffrn_reflns_point_group_measured_fraction_full 0.807
_diffrn_reflns_point_group_measured_fraction_max 0.858
_diffrn_reflns_theta_full        23.685
_diffrn_reflns_theta_max         32.468
_diffrn_reflns_theta_min         5.399
_diffrn_source                   synchrotron
_exptl_absorpt_coefficient_mu    1.617
_exptl_absorpt_correction_T_max  1.00000
_exptl_absorpt_correction_T_min  0.85233
_exptl_absorpt_correction_type   multi-scan
_exptl_absorpt_process_details
;
CrysAlisPro, Agilent Technologies,
Version 1.171.37.33 (release 27-03-2014 CrysAlis171 .NET)
(compiled Mar 27 2014,17:12:48)
Empirical absorption correction using spherical harmonics,
 implemented in SCALE3 ABSPACK scaling algorithm.
;
_exptl_crystal_colour            red
_exptl_crystal_density_diffrn    1.790
_exptl_crystal_description       prism
_exptl_crystal_F_000             436
_exptl_crystal_size_max          0.09
_exptl_crystal_size_mid          0.07
_exptl_crystal_size_min          0.06
_refine_diff_density_max         0.341
_refine_diff_density_min         -0.437
_refine_diff_density_rms         0.054
_refine_ls_extinction_method     none
_refine_ls_goodness_of_fit_ref   1.117
_refine_ls_hydrogen_treatment    refU
_refine_ls_matrix_type           full
_refine_ls_number_parameters     41
_refine_ls_number_reflns         1000
_refine_ls_number_restraints     0
_refine_ls_restrained_S_all      1.117
_refine_ls_R_factor_all          0.0259
_refine_ls_R_factor_gt           0.0256
_refine_ls_shift/su_max          0.000
_refine_ls_shift/su_mean         0.000
_refine_ls_structure_factor_coef Fsqd
_refine_ls_weighting_details
'w=1/[\s^2^(Fo^2^)+(0.0402P)^2^+0.2251P] where P=(Fo^2^+2Fc^2^)/3'
_refine_ls_weighting_scheme      calc
_refine_ls_wR_factor_gt          0.0684
_refine_ls_wR_factor_ref         0.0686
_reflns_Friedel_coverage         0.000
_reflns_number_gt                980
_reflns_number_total             1000
_reflns_threshold_expression     'I > 2\s(I)'
_cod_data_source_file            FeCo_55K.cif
_cod_data_source_block           shelx
_cod_original_cell_volume        799.63(2)
_cod_database_code               4345105
_shelx_space_group_comment
;
The symmetry employed for this shelxl refinement is uniquely defined
by the following loop, which should always be used as a source of
symmetry information in preference to the above space-group names.
They are only intended as comments.
;
_shelxl_version_number           2014-3
_shelx_res_file
;
TITL FeCo_warm2 in P-31c
CELL  0.66951   8.2158   8.2158  13.6791   90.000   90.000  120.000
ZERR     2.00   0.0001   0.0001   0.0002    0.000    0.000    0.000
LATT   1
SYMM  - Y,   X - Y,   Z
SYMM  - X + Y, - X,   Z
SYMM  - Y, - X, 1/2 - Z
SYMM  - X + Y,   Y, 1/2 - Z
SYMM    X,   X - Y, 1/2 - Z
SFAC  C        2.31000 20.84392  1.02000 10.20751   1.58860   0.56870 =
         0.86500  51.65125   0.21560   0.003   0.001     5.315   0.770  12.011
SFAC  H        0.49300 10.51091  0.32291 26.12573   0.14019   3.14236 =
         0.04081  57.79977   0.00304   0.000   0.000     0.000   0.320   1.008
SFAC  N       12.21261  0.00570  3.13220  9.89331   2.01250  28.99754 =
         1.16630   0.58260 -11.52901   0.005   0.003    10.897   0.700  14.007
SFAC  O        3.04850 13.27711  2.28680  5.70111   1.54630   0.32390 =
         0.86700  32.90894   0.25080   0.009   0.005    20.072   0.660  15.999
SFAC  FE      11.76951  4.76111  7.35731  0.30720   3.52220  15.35351 =
         2.30450  76.88058   1.03690   0.338   0.760  2867.351   1.260  55.845
SFAC  CO      12.28411  4.27910  7.34091  0.27840   4.00340  13.53591 =
         2.34880  71.16927   1.01180   0.346   0.876  3304.255   1.260  58.933
UNIT  16   28   2    24   2    2
MERG   2
FMAP   2
PLAN   20
ACTA
L.S.   8
WGHT    0.040200    0.225100
FVAR      19.19953
CO1   6    0.666667    0.333333    0.250000    10.16667    0.00723    0.00723 =
         0.00997    0.00000    0.00000    0.00362
FE1   5    1.000000    0.000000    0.000000    10.16667    0.00592    0.00592 =
         0.00834    0.00000    0.00000    0.00296
O1    4    0.883341    0.343482    0.168025    11.00000    0.01665    0.01383 =
         0.02206   -0.00532    0.00495    0.00696
O2    4    1.013147    0.208928    0.082970    11.00000    0.01266    0.01275 =
         0.01656   -0.00261    0.00167    0.00706
C1    1    0.873268    0.210021    0.120294    11.00000    0.01290    0.01337 =
         0.01635   -0.00362   -0.00077    0.00780
AFIX  43
H1    2    0.755348    0.104448    0.111552    11.00000    0.03522
AFIX   0
N1    3    1.277634    0.555268    0.250000    10.16700    0.02649    0.01098 =
         0.32315    0.00000   -0.06575    0.00549
C2    1    1.333333    0.666667    0.155021    10.33333    0.02216    0.02216 =
         0.42329    0.00000    0.00000    0.01108
HKLF    4

REM  FeCo_warm2 in P-31c
REM R1 =  0.0256 for     980 Fo > 4sig(Fo)  and  0.0259 for all    1000 data
REM     41 parameters refined using      0 restraints

END

WGHT      0.0402      0.2251

REM Highest difference peak  0.341,  deepest hole -0.437,  1-sigma level  0.054
Q1    1   1.3383  0.5745  0.1787  11.00000  0.05    0.34
Q2    1   0.8693  0.2906  0.1324  11.00000  0.05    0.33
Q3    1   0.9301  0.2239  0.0928  11.00000  0.05    0.27
Q4    1   1.3333  0.6667  0.0880  10.33333  0.05    0.26
Q5    1   0.6667  0.3333  0.3322  10.33333  0.05    0.26
Q6    1   0.9458  0.2125  0.1071  11.00000  0.05    0.25
Q7    1   0.9995  0.0974  0.0564  11.00000  0.05    0.25
Q8    1   1.3531  0.6227  0.2853  11.00000  0.05    0.24
Q9    1   1.0000  0.0000  0.0863  10.33333  0.05    0.23
Q10   1   1.4333  0.7295  0.1127  11.00000  0.05    0.21
Q11   1   1.3333  0.6667  0.2500  10.16667  0.05    0.20
Q12   1   0.7890  0.3403  0.1973  11.00000  0.05    0.19
Q13   1   0.8368  0.2854  0.2289  11.00000  0.05    0.18
Q14   1   1.0167  0.2119 -0.0012  11.00000  0.05    0.17
Q15   1   0.7493  0.1442  0.0785  11.00000  0.05    0.17
Q16   1   0.6760  0.4000  0.2929  11.00000  0.05    0.16
Q17   1   1.1385  0.2183  0.0818  11.00000  0.05    0.16
Q18   1   1.1506  0.4741  0.2512  11.00000  0.05    0.16
Q19   1   0.6667  0.3333  0.1094  10.33333  0.05    0.16
Q20   1   0.6040  0.2079  0.2500  10.50000  0.05    0.16
;
_shelx_res_checksum              89821
_shelx_hkl_file
;
   0   0  -3 50.4973 100.921   1
   0   0   3 51.6090 103.452   1
   0   0  -5 401.040 155.467   1
   0   0   5 144.389 158.549   1
   0   0   6 54059.2 1444.54   1
   0   0  -6 56234.5 1463.64   1
   0   0  -7-23.2488 140.191   1
   0   0   7-21.3181 137.681   1
   0   0   9 301.158 169.247   1
   0   0  -9 28.4608 155.022   1
   0   0  10 28599.2 1190.70   1
   0   0 -10 27430.8 1215.88   1
   0   0  11 36.2212 151.966   1
   0   0 -11-108.556 178.554   1
   0   0 -13 234.471 230.062   1
   0   1  -4 6239.71 239.764   1
  -1   1   4 5912.57 398.985   1
   0   1   4 7134.70 457.859   1
   1   0   4 5907.90 429.877   1
   1   0  -4 5992.06 280.933   1
   0  -1  -4 6356.26 449.579   1
  -1   1  -4 5644.24 375.940   1
   1  -1   4 6015.10 378.533   1
  -1   0   4 6125.78 280.240   1
   1  -1  -4 6205.64 320.358   2
   1  -1  -4 6756.27 403.004   1
  -1   0  -4 6679.09 443.834   1
   0  -1   4 6266.25 239.984   1
   0  -1   4 5691.22 372.254   2
   0   1   5 16456.8 784.111   1
   1  -1  -5 13739.2 588.292   2
   0  -1  -5 15547.7 762.403   1
  -1   1   5 18413.4 755.131   1
   0   1  -5 17505.0 525.015   1
   1   0   5 19955.5 844.044   1
   0  -1  -5 16823.5 766.792   2
   0  -1   5 19746.2 537.636   1
  -1   0  -5 17175.5 768.879   1
  -1   0   5 18756.6 575.626   1
   1  -1  -5 16032.1 705.573   1
   1   0  -5 18464.6 573.612   1
   1  -1   5 17723.4 698.424   1
  -1   1  -5 16816.9 680.713   1
  -1   1  -6 42506.1 1244.66   1
  -1   0   6 40753.0 1051.29   1
   0  -1   6 40863.9 1000.83   1
   1   0   6 39840.0 1337.80   1
  -1   1   6 42612.0 1285.14   1
  -1   0  -6 42757.5 1384.58   1
   1  -1  -6 43279.3 1182.94   2
   0  -1  -6 41681.6 1360.96   2
   0   1   6 37575.2 1331.24   1
   0   1  -6 42206.2 1016.40   1
   1   0  -6 46702.1 1100.47   1
   0  -1  -6 39732.9 1372.04   1
   1  -1   6 40750.7 1232.02   1
   1  -1  -6 41222.5 1288.73   1
  -1   1   7 135298. 3047.89   1
   1   0   7 137740. 3145.69   1
   0  -1  -7 143955. 3220.51   2
  -1   0  -7 147171. 3228.42   1
   0  -1  -7 133451. 3189.72   1
   1  -1  -7 153958. 3149.00   1
   1  -1  -7 147623. 2950.08   2
   0   1   7 147513. 3264.79   1
  -1   1  -7 148140. 3032.00   1
   1  -1  -8 64056.7 1883.85   1
   1  -1   8 70087.0 1843.79   1
  -1   0  -8 66406.8 1984.18   1
   0  -1  -8 64487.5 1995.99   1
   1  -1  -8 67379.9 1775.54   2
   0   1   8 69398.6 2015.46   1
   1   0  -8 62331.1 1598.96   1
  -1   0   8 71270.4 1648.79   1
  -1   1  -8 62570.9 1791.66   1
   0   1  -8 65644.9 1595.84   1
  -1   1   8 64061.3 1853.16   1
   0  -1   8 63603.0 1547.89   1
   0  -1  -8 56247.9 1890.29   2
   1   0   8 59772.2 1905.09   1
   0  -1  -9 330968. 6398.55   1
  -1   1 -11 260268. 5145.91   1
   1  -1  11 268039. 5140.55   1
  -1   0 -11 236995. 5276.36   1
   0   1 -11 227048. 4684.16   1
   1   0  11 255210. 5297.76   1
  -1   0  11 213024. 4633.03   1
   0  -1 -11 267858. 5448.43   1
   1   0 -11 269989. 4905.61   1
   1  -1 -11 228459. 5027.70   2
   1  -1 -11 253918. 5209.72   1
   0   1  11 276014. 5434.49   1
   0  -1 -11 260789. 5402.47   2
   1  -1 -12 79983.1 2564.49   1
   0   1  12 92299.4 2766.76   1
   1  -1  12 99577.1 2653.50   1
   1   0  12 89067.2 2728.25   1
   1   0 -12 87558.8 2398.18   1
  -1   0 -12 93248.8 2838.60   1
   0  -1 -12 91266.4 2891.29   2
   0  -1 -12 90945.2 2813.94   1
  -1   1 -12 98972.3 2707.29   1
  -1   1  12 82871.7 2597.68   1
   1  -1 -12 80778.8 2504.33   2
   0  -1 -13 222765. 5131.90   1
  -1   1 -13 217287. 4874.33   1
   1  -1 -13 213134. 4910.40   1
   1   0  13 218154. 5065.29   1
   0   1  13 224273. 5065.56   1
  -1   0 -13 229437. 5170.51   1
  -1   1  13 220299. 4863.56   1
   0   1  14 549908. 10343.0   1
   1   1  15-211.634 341.871   1
  -1  -1 -15-69.5441 317.421   1
  -1  -1 -15 199.635 322.829   2
  -1  -1 -14 16203.3 1267.15   2
   1   1  14 15587.9 1200.41   1
  -1  -1 -14 16532.8 1266.38   1
   1   1  13-145.518 220.254   1
  -1  -1 -13 536.976 329.743   2
  -1  -1 -13 43.6680 245.439   1
  -1   2 -11 1.15367 156.408   1
   1   1  11 342.832 312.053   1
   1  -2  11 386.189 192.774   1
  -2   1  11 118.055 183.589   1
  -1  -1 -11 103.536 304.948   2
   2  -1 -11-129.688 150.062   1
  -1  -1 -11 181.484 284.696   1
  -1  -1 -10 87579.1 2782.80   2
   2  -1 -10 92513.3 2423.62   1
  -1  -1 -10 91172.7 2774.60   1
  -2   1  10 94441.7 2378.79   1
  -1   2 -10 90108.0 2248.07   1
   1   1  10 87908.3 2688.57   1
   1  -2  10 99870.2 2299.35   1
   2  -1 -10 79312.5 1960.92   2
  -1   2  -9 628.166 185.610   1
   2  -1  -9-79.5789 186.371   1
  -1  -1  -9 80.0040 239.967   2
   1   1   9 15.2279 206.411   1
   2  -1  -9 227.013 114.455   2
   1  -2   9 20.9620 137.268   1
  -1  -1  -9 146.058 225.236   1
  -2   1   9 62.9635 168.031   1
   2  -1  -7 56.2207 58.6591   2
   1   1   7 178.637 212.073   1
  -1   2  -7 56.9413 108.448   1
  -1  -1  -7 22.5605 184.373   1
   2  -1  -7 603.646 185.914   1
  -2   1   7 252.018 153.832   1
   1   1   6 10431.4 720.964   1
  -2   1   6 9726.23 531.657   1
  -1   2  -6 10743.9 514.756   1
  -1  -1  -6 8792.62 660.849   1
   1  -2   6 10565.2 513.684   1
   2  -1  -6 8318.48 515.555   1
   2  -1  -6 7351.46 284.444   2
  -1  -1  -5-184.263 214.358   2
   1   1   5-62.9983 171.978   1
  -1  -1  -5 163.888 201.550   1
   1  -2   5 102.926 109.920   1
   2  -1  -5 335.034 148.859   1
  -2   1   5-4.51827 117.611   1
   1  -2   5 0.41524 167.017   2
  -1   2  -5 105.303 110.506   1
   1   1   3 95.8879 158.599   1
  -1  -1  -3 270.818 192.772   2
   1  -2   3 287.796 122.765   1
  -1  -1  -3 167.939 193.846   1
  -2   1   3 360.058 156.306   1
   1  -2   3 223.433 166.586   2
   2  -1  -3 134.980 67.1412   2
   1  -2   1 301.728 167.301   1
   1  -2   1 212.908 177.036   2
  -2   1   1 225.733 127.891   1
  -1  -1  -1 353.717 184.128   2
   2  -1  -1 203.034 166.493   1
  -1  -1  -1 256.697 171.517   1
  -1   2  -1 350.177 146.474   1
   1   1   1 76.3707 177.259   1
   1  -2  -1 1210.33 224.413   2
  -1  -1   1-28.6478 119.686   2
   1   1  -1 32.7767 111.326   1
   2  -1   1 295.317 164.354   1
  -1   2   1 1245.47 226.349   1
  -2   1  -1 278.953 190.646   1
   1  -2  -1-49.1812 134.426   1
  -1  -1   1-197.143 124.057   1
  -1   2   3 364.746 210.850   1
   1  -2  -3-35.1426 186.861   1
  -1  -1   3 128.387 123.839   2
   2  -1   3 574.617 212.125   1
   1  -2  -3 189.607 174.193   2
  -2   1  -3 8.69189 140.791   1
  -1   2   5 333.033 188.838   1
   1  -2  -5 190.881 151.628   2
   2  -1   5 193.069 176.589   1
   1  -2  -5-136.687 180.906   1
  -2   1  -5 253.986 167.739   1
  -1  -1   5 36.0611 108.382   2
   1  -2  -6 19489.6 952.974   1
  -2   1  -6 16997.9 887.740   1
   2  -1   6 17763.8 877.779   1
   1  -2  -6 16416.2 810.719   2
  -1   2   6 16487.4 881.676   1
  -2   1  -7 296.164 205.636   1
  -1   2   7-65.0119 195.613   1
   2  -1   7-113.797 169.025   1
   1  -2  -7 220.135 200.890   1
   1  -2  -7-49.1546 187.041   2
   1  -2  -9 140.504 199.782   2
  -2   1  -9 76.4472 187.968   1
  -1   2   9-61.2867 200.653   1
   2  -1   9-48.1907 182.775   1
   1   1  -9 84.2612 52.4408   1
  -1  -1   9 140.793 68.0068   1
   1  -2 -10 193738. 4147.38   2
  -2   1 -10 196055. 4265.84   1
  -1   2  10 180594. 4180.64   1
   1  -2 -10 211946. 4455.04   1
   2  -1  10 209491. 4322.30   1
  -2   1 -11 111.846 224.478   1
  -1   2  11 258.375 211.926   1
   1  -2 -11 203.534 218.304   2
   2  -1  11 288.815 204.495   1
   1  -2 -11 307.572 197.592   1
   1  -2 -13 7.53143 228.306   2
  -1   2  13 72.9217 256.278   1
   1  -2 -13 285.840 266.947   1
   2  -1  13-3.11703 224.383   1
  -2   1 -13 9.42907 250.182   1
  -2   1 -14 41347.8 1941.94   1
   1  -2 -14 39438.3 1902.85   1
  -2   2   0 164311. 3203.14   1
  -2   0  -1 116632. 2528.62   1
   0   2   1 119778. 2542.23   1
   0   2  -1 123215. 2380.82   1
   0  -2  -1 119367. 2524.69   1
   2  -2   7 131570. 2981.20   1
   0  -2  -7 129985. 3225.32   2
   2   0   7 128364. 3227.05   1
  -2   2  -7 132486. 3007.42   1
   0   2   7 140745. 3336.30   1
  -2   0  -7 146577. 3356.69   1
   2  -2  -7 126267. 2706.93   2
   2  -2  -7 141383. 3164.53   1
  -2   2   7 140914. 3141.01   1
   0  -2  -7 132202. 3313.67   1
   0  -2  -8 5664.07 596.587   2
   2   0  -8 5017.88 340.167   1
   0  -2  -8 3915.93 540.134   1
   0   2  -8 4055.09 242.101   1
   2  -2  -8 4071.51 394.749   2
   2   0   8 4831.66 550.165   1
   0   2   8 4959.65 567.489   1
  -2   0   8 3994.38 326.928   1
  -2   0  -8 4167.93 517.484   1
   2  -2   8 4404.49 458.416   1
  -2   2  -8 4529.03 477.566   1
   0  -2   8 4300.71 226.925   1
   2  -2  -8 5127.50 517.696   1
   2   0   9 79059.9 2320.26   1
  -2   0  -9 75709.8 2339.16   1
  -2   2  -9 69124.6 1997.78   1
   0  -2  -9 76911.9 2345.53   1
  -2   2   9 80647.2 2219.23   1
   2  -2   9 81821.4 2118.10   1
   0  -2  -9 77903.9 2310.30   2
   2  -2  -9 69398.8 1810.53   2
   0   2  -9 70597.2 1346.53   1
   0   2   9 76261.3 2335.35   1
   0  -2   9 66343.9 1279.74   1
  -2   0   9 78095.8 1621.07   1
   2  -2  -9 84917.5 2272.73   1
   2   0  -9 68290.4 1583.89   1
   0  -2 -10 347219. 4886.04   2
   2  -2 -10 334114. 4548.10   1
  -2   0 -11 385563. 7709.43   1
  -2   2 -11 396880. 7357.59   1
   0   2  12 107559. 3222.98   1
   2  -2 -12 105937. 3087.11   1
  -2   0 -12 104755. 3233.94   1
   0  -2 -12 99801.3 3194.80   1
   0  -2 -12 105244. 3213.61   2
  -2   2 -12 102477. 2961.75   1
   2  -2  12 106666. 2940.35   1
   2   0  12 98082.7 3101.73   1
  -2   2  13 138713. 3812.34   1
  -2   0 -13 154237. 4141.41   1
   0  -2 -13 156039. 4190.86   2
   0   2  13 150310. 4040.85   1
   2  -2 -13 133958. 3818.35   1
   2   0  13 152080. 4049.25   1
   0  -2 -13 146768. 4093.95   1
   0  -2 -14 267019. 6249.84   1
   0   2  14 281801. 6256.53   1
   0  -2 -14 263819. 6194.16   2
  -2   0 -14 280044. 6333.15   1
   2   0  15 4949.89 679.643   1
   0   2  15 4229.65 621.494   1
  -2   0 -15 3725.52 671.896   1
   0  -2 -15 4156.66 685.991   1
  -2   0 -16 4451.47 773.889   2
  -2  -1 -17 202622. 5846.98   2
   1   2  16 334.609 268.822   1
   2   1  16 858.842 432.679   1
  -2  -1 -16 1154.51 481.085   1
  -2  -1 -16 376.469 314.666   2
  -1  -2 -16 1333.83 425.967   2
  -1  -2 -16 537.827 450.723   1
  -2  -1 -15 228969. 6096.30   1
  -1  -2 -15 257123. 6430.81   2
  -2  -1 -15 234208. 6213.86   2
   2   1  15 254096. 6215.41   1
   1   2  15 268547. 6247.35   1
  -1  -2 -15 255201. 6274.34   1
   2   1  14 106697. 3485.70   1
  -1  -2 -14 100922. 3496.16   2
  -2  -1 -14 107816. 3595.37   1
  -2  -1 -14 108921. 3675.48   2
   1   2  14 109356. 3531.13   1
   1   2  13 28729.9 1646.09   1
  -2  -1 -13 28817.2 1663.91   1
  -1  -2 -13 24539.7 1590.36   2
   2   1  13 28221.9 1644.62   1
  -2  -1 -13 28948.1 1731.71   2
  -1  -2 -13 26547.6 1643.07   1
  -1  -2 -12 1931.19 469.415   2
   2   1  12 2075.22 457.562   1
   1   2  12 1925.06 461.186   1
  -2  -1 -12 2040.68 508.061   2
   3  -2 -12 1814.29 388.863   1
  -2  -1 -12 1722.22 465.903   1
  -1  -2 -12 1145.99 389.478   1
  -3   2  12 2266.39 420.599   1
   2  -3  11 2870.62 388.275   1
  -1  -2 -11 3337.02 578.737   1
  -2  -1 -11 3031.97 508.147   1
  -3   2  11 3270.00 463.918   1
   3  -2 -11 3521.16 463.437   1
  -1  -2 -11 3872.97 645.562   2
   1   2  11 3036.14 566.130   1
   3  -1 -11 3958.54 436.350   1
  -2   3 -11 3508.26 449.148   1
  -2  -1 -11 3886.78 615.108   2
   2   1  11 2458.04 480.431   1
  -1  -2 -10 539952. 10217.2   2
   2   1   9 88156.1 2766.60   1
  -2  -1  -9 87337.4 2787.64   1
   3  -2  -9 73793.9 1710.82   2
   3  -1  -9 99212.4 2343.75   1
  -1  -2  -9 89305.9 2801.91   2
   1  -3   9 89907.4 1991.04   1
  -3   2   9 98724.4 2531.09   1
   1   2   9 91259.7 2804.81   1
   3  -2  -9 87947.3 2499.85   1
  -1   3  -9 88535.8 2009.70   1
   2  -3   9 91911.7 2327.28   1
  -2   3  -9 89149.2 2325.58   1
  -3   1   9 96000.5 2315.83   1
  -1  -2  -9 79133.6 2702.47   1
  -2   3  -7 313797. 5761.01   1
   2  -3   2 146987. 3116.64   2
  -2  -1  -2 142599. 3105.86   1
  -1  -2  -2 144890. 3113.13   1
  -2  -1  -2 138125. 3063.89   2
   1   2   2 141180. 3111.38   1
   2  -3   2 142973. 2963.82   1
  -2   3   0 763.504 235.540   1
  -1  -2   0 793.160 205.012   2
   2  -3   0 1205.18 242.458   2
   1   2   0 637.981 204.996   1
   3  -2   0 871.044 230.752   1
   2   1   0 634.551 177.112   1
  -2  -1   0 1084.22 247.129   2
  -1   3   0 629.104 222.924   1
   2  -3   0 821.084 199.081   1
  -1  -2   0 1244.33 228.234   1
  -3   1   0 910.629 229.178   1
   1  -3   0 1215.17 249.893   1
  -3   2   0 1154.26 273.240   1
  -2  -1   0 774.122 208.357   1
   1  -3   0 807.964 217.767   2
   3  -1   0 1088.07 259.898   1
  -3   1  -1 185921. 3753.21   1
   1  -3  -1 177325. 3683.59   1
  -1  -2   1 190464. 3637.20   2
  -2   3   3 50479.7 1615.96   1
   2   1  -3 48019.7 1217.20   1
  -2  -1   3 52270.1 1217.99   1
   3  -2   3 48815.5 1559.31   1
  -3   2  -3 48746.2 1561.87   1
  -3   1  -3 48498.8 1596.41   1
   1   2  -3 49548.0 1169.74   1
   2  -3  -3 46908.9 1423.88   2
   3  -1   3 50091.7 1591.06   1
   1  -3  -3 50446.3 1603.86   1
   2  -3  -3 46737.3 1558.38   1
  -1   3   3 48657.1 1583.13   1
   1  -3  -3 43110.8 1468.22   2
  -1  -2   3 50568.8 1152.21   1
  -1  -2   3 49858.2 1390.54   2
  -2  -1   3 49045.6 1253.30   2
   2  -3  -8 48352.1 1686.25   2
  -2   3   8 54369.4 1908.10   1
  -3   2  -8 49851.0 1836.12   1
   1  -3  -8 53745.1 2003.65   1
  -3   1  -8 56096.8 1977.64   1
   3  -2   8 53361.2 1851.88   1
  -1  -2   8 53250.0 1648.11   2
   2  -3  -8 49368.6 1892.89   1
   3  -1   8 56814.6 1996.77   1
   1  -3  -8 52063.0 1911.74   2
  -1   3   8 49324.1 1905.80   1
  -3   1 -10 248933. 5498.64   1
  -1   3  10 237045. 5466.46   1
   3  -2  10 256197. 5405.39   1
  -3   2 -10 243514. 5353.45   1
   2  -3 -10 253830. 5162.52   2
   1  -3 -10 230631. 5511.65   1
   3  -1  10 264483. 5530.65   1
   1  -3 -10 240456. 5413.47   2
   2  -3 -10 237233. 5416.78   1
  -2   3  10 270772. 5558.33   1
  -2   3  11 83885.1 2656.54   1
   3  -1  11 74665.5 2583.97   1
   2  -3 -11 70682.2 2539.80   1
   3  -2  11 78861.6 2552.00   1
   2  -3 -11 76099.8 2375.17   2
  -3   2 -11 78077.4 2559.07   1
  -3   1 -11 73910.8 2603.32   1
  -1   3  11 78091.2 2667.36   1
   1  -3 -11 74505.6 2583.30   2
   1  -3 -11 72040.4 2603.50   1
   3  -2  12 1154.49 416.671   1
   3  -1  12 1162.48 370.492   1
   1  -3 -12 1059.94 384.581   2
   2  -3 -12 814.690 290.769   2
   1  -3 -12 1020.52 379.031   1
  -1   3  12 1649.28 439.611   1
  -3   1 -12 1264.24 389.176   1
  -3   2 -12 743.823 310.843   1
   2  -3 -12 1220.64 366.659   1
  -2   3  12 1442.81 402.097   1
   1  -3 -13 29387.4 1664.37   1
  -3   1 -13 26985.9 1598.73   1
   1  -3 -13 27842.1 1620.65   2
   3  -1  13 28641.3 1600.73   1
   3  -2  13 27883.3 1528.92   1
  -3   2 -13 28975.2 1598.43   1
  -1   3  13 25595.3 1534.70   1
  -2   3  13 31105.9 1631.69   1
   2  -3 -13 26486.4 1576.63   1
   2  -3 -14 214746. 5446.54   1
  -1   3  14 227214. 5545.86   1
   3  -1  14 225825. 5488.15   1
   1  -3 -14 225678. 5612.55   1
  -3   2 -14 224446. 5407.91   1
  -3   1 -14 227704. 5552.65   1
   2  -3 -15 47224.5 2248.00   1
  -1   3  15 44452.2 2150.61   1
  -3   1 -15 44317.1 2176.33   1
   3  -1  15 42127.8 2091.42   1
   1  -3 -15 42116.6 2162.69   1
   1  -3 -16 218093. 5781.71   1
   0  -3   1 2285.25 312.452   2
   3  -3  -1 1659.56 320.491   1
   0  -3   1 1743.28 274.722   1
   3  -3   1 1933.10 312.583   1
  -3   3   1 1934.80 320.650   1
   3   0  -1 2310.82 302.788   1
   0  -3  -1 1964.95 324.856   2
   3  -3  -1 1712.06 287.820   2
  -3   0  -1 2633.36 371.740   1
  -3   3  -1 2096.22 351.305   1
   0   3  -1 2220.25 297.635   1
   3  -3   1 1308.04 233.031   2
   3   0   1 2041.50 313.850   1
  -3   0   1 1976.38 297.277   1
   0  -3  -1 1899.34 314.832   1
   0   3   1 2194.05 357.205   1
   0  -3   2 33086.8 1065.59   1
   3   0   2 33508.7 1304.20   1
   0  -3  -2 33973.8 1313.86   1
   0  -3  -2 32893.5 1289.77   2
   3  -3  -2 35060.6 1188.12   2
   3  -3   2 37602.9 1384.22   2
   0   3   2 33547.6 1304.44   1
   3   0  -2 36236.0 1187.77   1
  -3   3   2 35511.2 1339.92   1
   0   3  -2 34062.1 1103.26   1
  -3   3  -2 34193.3 1301.72   1
  -3   0  -2 32165.0 1272.49   1
  -3   0   2 36699.1 1054.14   2
   3  -3   2 34572.8 1281.26   1
   0  -3   2 31867.0 1203.89   2
  -3   0   2 34129.3 1127.05   1
   3  -3  -2 33010.1 1291.44   1
   3  -3  -3 37892.0 1253.63   2
   3  -3  -3 38903.4 1449.03   1
   3  -3   3 39081.8 1518.92   2
   0   3   3 44809.1 1558.66   1
  -3   3  -3 40170.8 1425.76   1
   3   0   3 40010.5 1491.79   1
   3  -3   3 41808.5 1443.86   1
   3   0  -3 42710.0 1258.91   1
  -3   0   3 41402.8 1238.15   1
  -3   0   3 41428.5 1078.25   2
   0  -3   3 36612.7 1347.76   2
   0  -3  -3 38288.4 1461.35   2
   0   3  -3 44687.1 1213.94   1
   0  -3   3 41885.7 1160.94   1
  -3   0  -3 39582.6 1475.39   1
   0  -3  -3 42868.9 1519.49   1
  -3   3   3 42951.9 1494.30   1
   3  -3   5 16790.6 886.109   1
  -3   0   5 16210.7 448.475   2
   0  -3  -5 17462.6 1004.54   2
   3  -3  -5 15859.7 760.139   2
   3   0   5 18569.0 1029.31   1
   0   3   5 15471.4 971.297   1
  -3   3  -5 15645.5 897.066   1
   3  -3  -5 17085.2 944.232   1
   0   3  -5 15639.8 582.086   1
   0  -3  -5 16291.0 992.685   1
   0  -3   5 15909.8 571.903   1
  -3   0   5 17592.5 690.874   1
   3   0  -5 16490.4 693.867   1
  -3   3   5 16230.3 919.295   1
  -3   0  -5 16941.9 1030.28   1
   0  -3   5 16724.3 892.287   2
   0  -3  -6 6225.72 635.167   1
   3   0   6 7962.78 701.436   1
   3   0  -6 7288.52 454.231   1
   0  -3   6 7037.19 314.408   1
  -3   3   6 7160.98 632.059   1
   3  -3  -6 5493.83 457.862   2
   0  -3  -6 7058.36 657.056   2
   0  -3   6 6718.22 574.160   2
  -3   0  -6 6856.35 643.476   1
   0   3   6 7336.73 687.146   1
   0   3  -6 6190.88 319.547   1
  -3   0   6 7035.13 427.825   1
  -3   3  -6 7524.13 620.595   1
   3  -3  -6 7258.53 646.272   1
  -3   0  -7 14488.4 1034.42   1
   3   0  -7 15946.5 675.651   1
   3  -3  -7 15508.0 798.713   2
   0  -3  -7 16321.0 1059.61   1
  -3   0   7 17741.3 677.954   1
  -3   3   7 17634.7 991.118   1
   0  -3   7 15326.7 906.050   2
   3   0   7 16783.0 1057.84   1
   3  -3   7 17312.2 935.318   1
   0  -3  -7 16210.1 1037.55   2
   3  -3  -7 16426.4 1000.71   1
   0   3   7 18973.8 1094.31   1
  -3   3  -7 16725.3 956.647   1
   0   3   9 11083.3 915.300   1
   3  -3   9 11259.4 804.398   1
   3  -3  -9 10696.9 871.940   1
   0  -3  -9 10487.6 935.502   1
   3   0  -9 11393.5 559.064   1
  -3   3  -9 9683.15 772.298   1
  -3   3   9 12973.6 898.246   1
  -3   0   9 11035.3 538.254   1
  -3   0  -9 11429.4 930.631   1
   0  -3  -9 9654.20 887.833   2
   3  -3  -9 11294.3 663.698   2
   3   0   9 12064.5 958.504   1
  -3   0 -10 2470.77 536.651   1
  -3   3 -10 1638.50 352.000   1
   3   0  10 1883.86 425.274   1
   0  -3 -10 1089.41 339.294   2
   3  -3 -10 1623.44 381.801   1
   0   3  10 1922.90 466.599   1
   3  -3 -10 1394.91 280.008   2
   0  -3 -10 1652.98 453.603   1
  -3   3  10 1465.11 390.242   1
  -3   0 -11 1456.89 464.625   1
   0  -3 -11 1871.98 435.787   2
  -3   3  11 1561.91 407.176   1
   0  -3 -11 1117.26 337.114   1
   0   3  11 825.689 336.690   1
   3  -3 -11 1594.77 390.955   1
  -3   3 -11 968.972 336.634   1
   3   0  11 1111.09 363.243   1
   3  -3  11 1312.89 312.568   1
   0  -3 -12 529047. 10261.3   1
  -3   0 -12 509048. 10190.6   1
   0   3  12 541513. 10292.0   1
  -3   0 -13-230.229 346.138   1
   0  -3 -13-282.691 291.416   1
   3   0  13 211.294 318.857   1
   0   3  13 55.0818 309.113   1
   3  -3 -13 223.291 269.814   1
   0  -3 -13 603.953 331.523   2
  -3   3  13-15.0935 240.672   1
   3  -3 -14 586.562 356.010   1
   0  -3 -14 776.767 401.016   2
   0  -3 -14 656.242 365.040   1
  -3   0 -14 393.595 350.330   1
   3   0  14 911.966 427.377   1
   0   3  14 828.631 421.572   1
   3   0  15 517.226 309.931   1
  -3   0 -15 629.301 375.554   1
   0  -3 -15 436.633 349.761   2
   0   3  15 312.521 319.595   1
   0  -3 -15 879.047 370.271   1
  -3   0 -16 368372. 8541.00   1
  -3   0 -16 360246. 8641.43   2
   0  -3 -16 377996. 8565.49   1
   3   0  16 371824. 8410.53   1
   0  -3 -17 648.886 396.754   1
  -3   0 -17 1186.01 429.361   2
  -3   0 -18 575.871 332.425   2
  -2  -2 -17-162.694 297.112   1
   2   2  17-153.979 311.530   1
  -2  -2 -17-126.684 322.480   2
  -2  -2 -16 548308. 11517.6   1
   2   2  16 578897. 11544.0   1
  -2  -2 -16 573085. 11714.6   2
   2   2  15 390.612 279.749   1
  -2  -2 -15 262.577 298.355   2
  -2  -2 -15-13.3888 272.975   1
   2   2  14 168397. 4828.96   1
  -2  -2 -14 181204. 5091.83   2
  -2  -2 -14 168474. 4916.35   1
  -2  -2 -13-369.456 378.598   1
   2   2  13 190.627 279.870   1
  -2  -2 -13 162.631 289.932   2
   2   2  12 82912.9 3031.91   1
  -2  -2 -12 90139.0 3212.72   1
  -4   2  11 63.9567 179.758   1
  -2  -2 -11 669.838 379.700   2
  -2  -2 -11 2.42435 274.980   1
   2   2  11 260.533 334.287   1
   4  -2 -11 305.180 221.060   1
  -2  -2 -10 309696. 6828.77   1
   2   2  10 312306. 6763.26   1
  -2  -2 -10 316437. 6903.72   2
  -4   2   9 255.779 163.589   1
  -2  -2  -9-108.065 288.617   2
  -2   4  -9 202.917 171.666   1
  -2  -2  -9 214.360 269.834   1
   2  -4   9-116.177 168.096   1
   2   2   9 200.738 314.060   1
  -2   4  -7 181.260 188.706   1
  -2  -2  -7 429.190 338.560   2
   4  -2  -7 90.2434 185.826   1
  -2  -2  -7 218.394 270.581   1
  -4   2   7 41.2520 189.830   1
   2   2   7 94.1360 225.181   1
   2  -4   7 462.110 316.172   2
  -2   4  -6 1830.06 304.724   1
   2  -4   6 1527.19 383.759   2
   2  -4   6 1800.17 294.890   1
  -4   2   6 1723.14 303.840   1
   2   2   6 1776.45 442.001   1
  -2  -2  -6 2133.89 423.416   2
  -2  -2  -6 1240.48 341.703   1
   4  -2  -6 1436.74 309.743   1
   2  -4   5-98.7306 228.012   2
   4  -2  -5-131.836 165.324   1
  -4   2   5 108.182 195.602   1
  -2  -2  -5-288.484 306.728   2
  -2  -2  -5 78.4591 221.667   1
   2  -4   5 322.356 183.935   1
   2   2   5-61.7244 196.751   1
  -2   4  -5 494.089 209.398   1
   4  -2  -3 157.924 176.864   1
  -2  -2  -3 18.9726 206.990   1
  -2   4  -3 256.803 182.192   1
  -4   2   3 190.413 197.491   1
   2  -4   3 24.8036 143.432   1
  -2  -2  -3 801.164 290.142   2
   2  -4   3-20.6427 213.464   2
   2   2   3 74.2908 241.370   1
  -2  -2  -1 351.264 226.428   1
  -2   4  -1 498.248 235.382   1
  -4   2   1 109.781 180.788   1
   2  -4   1 66.9747 173.621   1
  -2  -2  -1 253.292 227.345   2
   2  -4   1 146.628 219.833   2
   2   2   1 207.093 180.082   1
   2  -4  -1-43.3715 184.909   2
  -2   4   1-256.432 253.287   1
  -4   2  -1-234.550 174.400   1
  -2  -2   1 113.470 139.621   1
   4  -2   1 150.006 169.981   1
   2  -4  -1-216.319 215.971   1
   2   2  -1 190.918 163.066   1
  -2  -2   1 211.084 190.133   2
  -2   4   3 59.2538 199.822   1
   2  -4  -3 282.395 239.548   2
  -2  -2   3 128.301 136.015   1
   2   2  -3 302.942 149.684   1
  -2  -2   3-102.187 162.545   2
   2  -4  -3 208.650 236.808   1
  -4   2  -3 232.169 232.748   1
   4  -2   3 597.118 290.913   1
  -2   4   5 93.5478 254.083   1
   2  -4  -5 302.806 305.653   1
   4  -2   5 51.4815 221.785   1
  -4   2  -5-99.4069 235.660   1
   2  -4  -5 142.131 200.757   2
  -2  -2   5 149.921 76.5362   1
   2   2  -5 130.042 70.6051   1
  -4   2  -6 1866.00 379.235   1
   4  -2   6 1645.50 359.419   1
  -2   4   6 2211.30 401.232   1
   2  -4  -6 2196.80 398.459   2
   2  -4  -6 1986.04 387.198   1
  -2  -2   6 2175.43 292.916   2
   2  -4  -7 446.739 216.844   2
  -2  -2   7 230.060 141.028   2
  -4   2  -7 119.423 229.030   1
   4  -2   7-9.07584 240.092   1
   2  -4  -7 214.605 262.721   1
  -2   4   7-146.768 298.141   1
   4  -2   9 51.6078 215.660   1
   2  -4  -9 15.6185 258.613   1
   2  -4  -9 283.366 262.541   2
  -4   2  -9 118.754 212.362   1
  -2   4   9 363.491 293.217   1
  -4   2 -10 222820. 5279.59   1
   2  -4 -10 219922. 5323.35   1
   4  -2  10 220539. 5208.45   1
  -2   4  10 233471. 5334.05   1
   2  -4 -10 234681. 5178.10   2
   4  -2  11-156.907 279.617   1
   2  -4 -11 12.9935 244.905   1
   2  -4 -11-101.591 231.429   2
  -4   2 -11 26.8499 219.229   1
  -2   4  11-89.7381 255.166   1
  -2   4  12 79412.8 2870.25   1
   4  -2  12 86976.2 2932.30   1
   2  -4 -12 75231.7 2864.28   1
   2  -4 -12 88378.3 2897.81   2
  -4   2 -12 83653.4 2927.99   1
   4  -2  13 116.018 249.284   1
  -4   2 -13 327.818 317.908   1
  -2   4  13 258.454 333.490   1
   2  -4 -13-328.009 277.522   1
  -2   4  14 74387.0 2863.19   1
   2  -4 -14 71394.7 2832.15   1
   4  -2  14 73184.1 2797.22   1
  -4   2 -15 22.0694 325.878   1
  -2   4  15-131.371 344.534   1
   2  -4 -15 216.413 263.219   1
   2  -4 -16 686064. 13383.7   1
  -3  -1 -18 173460. 5504.69   2
   3   1  17 25377.2 1774.76   1
  -1  -3 -17 25987.7 1840.44   1
  -3  -1 -17 25031.6 1904.08   2
   1   3  17 30190.8 1916.36   1
  -3  -1 -17 24276.7 1809.83   1
  -1  -3 -16 1172.65 396.685   2
   1   3  16 1988.93 528.786   1
  -1  -3 -16 2001.28 569.524   1
   3   1  16 1495.33 459.778   1
  -3  -1 -16 2257.09 586.186   2
  -3  -1 -16 1830.81 547.034   1
  -3  -1 -15 212491. 5782.51   1
  -1  -3 -15 220337. 5882.91   2
  -1  -3 -15 208638. 5734.49   1
   3   1  15 216387. 5688.66   1
  -3  -1 -15 223194. 5968.15   2
   1   3  15 208907. 5623.93   1
  -1  -3 -14 115691. 3852.30   1
   1   3  14 118972. 3813.86   1
  -1  -3 -14 116021. 3858.28   2
   3   1  14 113552. 3718.27   1
  -3  -1 -14 106319. 3714.01   1
  -3  -1 -13 270034. 6705.13   1
  -1  -3 -13 297009. 6891.59   1
   3   1  13 293194. 6779.21   1
  -1  -3 -13 296345. 6930.87   2
   1   3  13 288726. 6736.66   1
  -1  -3 -12 27097.7 1656.19   2
   4  -3 -12 28856.1 1529.28   1
  -3  -1 -12 27440.8 1696.97   2
  -4   3  12 27764.5 1510.82   1
  -3  -1 -12 26323.0 1625.36   1
  -1  -3 -12 25237.4 1576.04   1
   3   1  12 24416.7 1528.31   1
   1   3  12 25937.7 1619.08   1
  -1  -3 -11 14877.6 1176.24   1
  -3  -1 -11 13183.5 1126.41   1
   4  -3 -11 13178.8 1002.41   1
  -3   4 -11 14151.0 960.265   1
  -3  -1 -11 15657.1 1242.22   2
   3  -4  11 12324.6 894.088   1
   3   1  11 14537.8 1161.07   1
   1   3  11 14712.1 1157.39   1
  -4   3  11 17502.0 1127.93   1
  -1  -3 -11 13097.1 1122.60   2
  -3   4  -9 12173.8 868.932   1
  -1  -3  -9 13006.0 1050.45   1
   3   1   9 12002.4 1009.72   1
   1   3   9 13691.6 1046.85   1
  -3  -1  -9 13654.6 1076.42   2
  -1  -3  -9 13826.6 1066.51   2
   3  -4   9 12830.9 861.273   1
  -4   1   9 14724.0 797.373   1
  -3  -1  -9 14622.1 1110.47   1
   1  -4   9 14206.2 1049.08   2
  -4   3   9 13351.1 947.835   1
   4  -1  -9 13868.9 800.794   1
   4  -3  -9 14191.4 988.588   1
  -3   4  -8 313918. 6075.88   1
   1   3   8 299172. 6492.51   1
  -3  -1  -8 319066. 6633.96   2
  -1  -3  -8 318229. 6556.50   2
  -1  -3  -8 331311. 6666.51   1
  -3  -1  -8 314435. 6595.59   1
   4  -3  -4 28418.0 1245.76   1
   1  -4   4 24580.9 972.675   1
   4  -1  -4 23469.8 1079.18   1
   3  -4   4 24558.5 1258.42   2
   4  -3  -4 22032.7 963.950   2
   1  -4   4 29009.1 1255.19   2
  -3   4  -4 26368.7 1170.33   1
  -1  -3  -4 25616.7 1285.45   1
  -4   3   4 24720.7 1183.87   1
  -4   1   4 28195.6 1119.63   1
   3  -4   4 26045.6 1160.82   1
  -1   4  -4 21556.0 966.463   1
  -3  -1  -4 24032.4 1240.70   1
   1   3   4 25728.4 1298.41   1
  -3  -1  -4 25719.0 1267.19   2
  -1  -3  -4 25484.3 1274.80   2
   3   1   4 25372.6 1262.54   1
   3   1   0 83321.2 2247.71   1
  -3   4   0 75921.0 2305.65   1
   4  -3   0 80866.2 2232.90   2
   1  -4   0 84133.6 2235.92   1
  -3  -1   0 78487.9 2184.11   2
  -3  -1   0 77479.8 2181.53   1
  -4   3   0 86907.5 2381.58   1
   1  -4   0 80838.0 2314.53   2
  -1  -3   0 85676.7 2231.44   1
  -1   4   0 83426.4 2250.74   1
   3  -4   0 83519.9 2307.83   2
   4  -1   0 83423.8 2263.26   1
   1   3   0 82262.7 2212.88   1
  -4   1   0 81903.3 2264.12   1
  -1  -3   0 84707.9 2308.51   2
   3  -4   0 83298.7 2296.35   1
   4  -3   0 76402.7 2270.68   1
   3   1  -3 54312.5 1585.94   1
  -4   3  -3 56795.1 1924.19   1
  -3  -1   3 61846.9 1634.62   2
   1   3  -3 58870.7 1573.69   1
  -1  -3   3 60107.1 1541.51   1
  -3   4   3 59189.2 1943.15   1
   4  -1   3 59839.5 1966.57   1
   3  -4  -3 60654.0 1960.32   1
   4  -3   3 58163.7 1925.01   1
  -3  -1   3 57169.3 1598.38   1
  -1  -3   3 52562.3 1744.69   2
   3  -4  -3 56145.3 1792.43   2
   1  -4  -3 62385.0 2009.10   1
  -4   1  -3 58603.6 1976.07   1
  -1   4   3 58226.0 1998.50   1
   1  -4  -3 57477.9 1924.41   2
  -4   3  -4 338842. 6561.89   1
  -4   3  -5 54517.4 1939.58   1
   1   3  -5 56366.5 1307.13   1
   1  -4  -5 57483.1 2037.82   1
  -3  -1   5 52976.9 1396.68   2
   3   1  -5 53567.2 1421.34   1
  -3   4   5 56162.2 1966.48   1
   3  -4  -5 52024.5 1926.32   1
  -4   1  -5 57229.7 2008.83   1
  -1  -3   5 54795.4 1763.10   2
  -1   4   5 60472.7 2079.42   1
  -1  -3   5 50094.4 1230.96   1
   3  -4  -5 51595.8 1756.02   2
   1  -4  -5 59325.0 1995.08   2
  -3  -1   5 60841.6 1443.99   1
   4  -3   5 53535.8 1881.12   1
   4  -1   5 56573.1 1984.29   1
  -1  -3   7 324086. 6157.81   2
  -4   3  -7 319000. 6489.41   1
   1  -4  -7 324976. 6533.11   2
   1  -4  -7 321058. 6654.29   1
  -4   1  -7 321533. 6607.00   1
  -4   3  -8 11269.5 880.830   1
   3  -4  -8 10526.3 916.374   1
   1  -4  -8 8477.57 818.287   2
   4  -1   8 11507.4 933.269   1
   4  -3   8 9195.61 779.579   1
   3  -4  -8 9424.84 742.169   2
   1  -4  -8 9966.56 882.173   1
  -4   1  -8 9994.59 880.642   1
  -3   4   8 8627.45 791.705   1
  -1  -3   8 11655.9 773.204   2
  -1   4   8 10201.6 901.116   1
  -1   4  10 188448. 4794.43   1
   1  -4 -10 188790. 4773.35   2
   3  -4 -10 194384. 4348.01   2
   1  -4 -10 208313. 4979.59   1
   4  -1  10 194686. 4815.24   1
  -4   1 -10 195567. 4859.40   1
  -4   3 -10 193442. 4679.10   1
   4  -3  10 198225. 4650.57   1
  -3   4  10 193065. 4722.02   1
   1  -4 -11 212994. 5383.99   1
   3  -4 -11 192477. 5160.61   1
   3  -4 -11 227555. 4931.37   2
  -4   1 -11 219345. 5404.42   1
   4  -3  11 252222. 5380.27   1
  -1   4  11 244046. 5562.60   1
  -4   3 -11 224818. 5284.41   1
   1  -4 -11 220630. 5394.26   2
  -3   4  11 208863. 5233.26   1
   4  -1  11 230375. 5421.85   1
   4  -1  12 8821.70 894.803   1
   1  -4 -12 9265.98 960.469   1
   3  -4 -12 9153.85 910.629   1
  -3   4  12 7592.66 843.402   1
   1  -4 -12 8977.35 957.199   2
   4  -3  12 10116.5 925.189   1
  -4   3 -12 8530.86 882.418   1
  -4   1 -12 9839.42 977.296   1
  -1   4  12 9097.77 930.545   1
  -4   1 -13 10895.4 1082.76   1
   3  -4 -13 14434.2 1205.63   1
  -4   3 -13 11422.7 989.666   1
   1  -4 -13 12050.2 1125.81   1
   1  -4 -13 10762.1 1066.74   2
   4  -3  13 12291.1 1044.75   1
   4  -1  13 10602.4 1037.60   1
  -1   4  13 11440.4 1043.72   1
  -3   4  13 11023.0 1037.41   1
   1  -4 -14 453913. 9436.79   1
  -3   4  14 469504. 9318.64   1
  -4   1 -14 431622. 9309.10   1
  -1   4  14 444370. 9318.46   1
   1  -4 -14 428118. 9251.29   2
   3  -4 -14 446359. 9353.31   1
   4  -1  14 450777. 9280.84   1
  -4   1 -15 45868.5 2333.10   1
  -1   4  15 47765.1 2321.50   1
   1  -4 -15 51341.0 2455.71   1
   4  -1  15 51445.1 2398.46   1
   3  -4 -15 42843.1 2255.64   1
  -4   1 -16 96200.3 3636.86   1
   1  -4 -16 103137. 3733.62   1
  -1   4  16 101100. 3660.57   1
   1  -4 -17 109874. 4020.35   1
   4   0   0 75779.5 2213.19   1
   0  -4   0 79420.0 2221.61   1
   4  -4   0 84129.8 2396.57   1
   0   4   0 78452.0 2263.64   1
  -4   4   0 77632.1 2354.02   1
   0  -4   0 81630.6 2377.84   2
   4  -4   0 82308.0 2316.98   2
   4  -4  -4 190447. 4072.71   2
   0  -4  -4 188096. 4515.56   1
   4  -4  -4 207826. 4513.21   1
   4  -4   4 200825. 4403.18   1
   4   0  -4 180774. 3959.26   1
  -4   4  -4 204189. 4473.25   1
   0  -4   4 191320. 4282.00   2
   4   0   4 208341. 4567.58   1
  -4   0  -4 215081. 4593.35   1
   0   4   4 197525. 4537.62   1
   0   4  -4 194380. 3849.05   1
   0  -4  -4 205509. 4536.19   2
   0  -4   5 118223. 3070.80   2
   4  -4  -5 114639. 3190.14   1
   4  -4   5 126663. 3178.20   1
   0  -4  -5 122772. 3343.64   1
   4   0  -5 111651. 2684.65   1
   4   0   5 117833. 3261.17   1
  -4   4  -5 125370. 3213.10   1
   0  -4  -5 125603. 3317.86   2
   0  -4   5 122286. 2557.72   1
   0   4  -5 115625. 2557.79   1
  -4   0  -5 127264. 3371.96   1
   4  -4  -5 117409. 2855.28   2
  -4   0   5 120573. 2736.19   1
  -4   0   5 115690. 2340.95   2
   0   4   5 127249. 3396.63   1
  -4   4   5 125998. 3276.82   1
   0   4  -6 45665.1 1236.48   1
   0  -4  -6 50141.8 1961.47   1
  -4   0  -6 45497.1 1888.38   1
   0  -4   6 51159.0 1817.40   2
  -4   0   6 43600.7 1369.68   1
   0  -4   6 41714.9 1182.82   1
  -4   4   6 41786.0 1748.45   1
   4  -4   6 42214.5 1671.80   1
  -4   4  -6 44686.6 1744.37   1
   4   0  -6 43256.5 1386.67   1
   4  -4  -6 47513.7 1569.16   2
   0   4   6 50721.1 1925.18   1
   4   0   6 44508.7 1873.57   1
   0  -4  -6 48172.1 1912.42   2
   4  -4  -6 45240.6 1817.89   1
  -4   0   6 38065.6 939.913   2
   0  -4   7 7306.55 723.333   2
   4  -4   7 7388.08 677.650   1
   4   0   7 7334.45 766.744   1
   0   4  -7 6408.15 374.213   1
   4  -4  -7 6710.78 709.126   1
  -4   0   7 7197.73 510.506   1
  -4   0  -7 6870.55 743.132   1
   4  -4  -7 8112.63 610.885   2
   0  -4  -7 8117.06 776.434   2
   0   4   7 6588.07 723.331   1
   4   0  -7 7313.16 508.075   1
  -4   4  -7 7814.78 735.888   1
   0  -4  -7 7835.83 757.138   1
  -4   4   7 7194.05 727.994   1
   4   0   8 3894.47 560.447   1
   4   0  -8 4566.50 411.598   1
  -4   4   8 4754.84 585.490   1
   4  -4  -8 4208.76 566.102   1
   0   4   8 3608.69 553.240   1
   0  -4  -8 3944.92 610.102   2
  -4   0  -8 3575.94 575.427   1
  -4   4  -8 5167.22 607.779   1
   0  -4  -8 4194.74 628.549   1
   4  -4   8 5431.27 598.143   1
   4  -4  -8 4116.20 477.531   2
  -4   0   8 4592.60 396.679   1
   0  -4   8 3846.83 512.572   2
   0  -4  -9 76333.2 2835.61   1
   0  -4  -9 87256.6 2956.19   2
   0  -4   9 90686.7 2739.24   2
  -4   0  -9 86458.3 2941.49   1
   4  -4  -9 85604.7 2398.96   2
  -4   4   9 98090.7 2898.93   1
   4   0   9 79186.8 2838.88   1
   4  -4   9 96043.3 2794.77   1
   0   4   9 89011.4 2969.30   1
   4  -4  -9 86611.3 2829.64   1
  -4   4  -9 83906.7 2707.71   1
   0   4  10 589435. 11172.8   1
   4  -4 -11 443767. 8829.09   1
  -4   0 -11 442974. 9046.12   1
   0  -4 -11 465456. 9127.03   1
  -4   4 -11 454612. 8675.35   1
   0   4  11 434282. 8960.76   1
   0  -4 -11 439565. 9020.59   2
   4  -4  12 133057. 3700.21   1
   4  -4 -12 125240. 3810.03   1
   0   4  12 128299. 3947.36   1
  -4   0 -12 122487. 3963.18   1
  -4   4 -12 122943. 3663.49   1
   0  -4 -12 124237. 3916.26   1
   4   0  12 127953. 3921.76   1
   0  -4 -12 135012. 4072.98   2
   4  -4 -13 302389. 6664.22   1
   0   4  13 287578. 6738.90   1
   0  -4 -13 271649. 6664.64   2
   0  -4 -13 251673. 6500.72   1
  -4   0 -13 258898. 6546.25   1
   4   0  13 281149. 6602.67   1
  -4   4  13 296322. 6497.04   1
  -4   0 -14 447042. 9683.85   1
   4  -4 -14 482282. 9702.33   1
   4   0  14 459640. 9741.60   1
   0  -4 -14 467328. 9969.57   2
   0   4  14 461780. 9707.07   1
   0  -4 -14 475912. 9858.67   1
   0  -4 -15 43878.9 2289.36   1
   0   4  15 46664.4 2358.22   1
   4   0  15 48058.9 2342.64   1
  -4   0 -15 40299.1 2262.35   1
  -4   0 -15 38659.5 2251.26   2
   0  -4 -15 45842.9 2447.91   2
   0  -4 -16 2993.13 673.674   1
  -4   0 -16 2581.72 575.500   1
   0   4  16 2494.23 618.591   1
   4   0  16 2255.59 566.896   1
  -4   0 -16 2118.64 560.485   2
   0  -4 -17 11887.3 1233.93   1
  -4   0 -17 12933.3 1305.90   1
   0   4  17 12587.1 1262.23   1
  -4   0 -17 12873.5 1368.98   2
   4   0  17 8924.25 1090.56   1
  -4   0 -18 25371.9 1945.21   2
  -4   0 -19 25153.8 1991.41   2
   3   2  18 125532. 4480.79   1
   2   3  18 141492. 4710.92   1
  -3  -2 -18 132785. 4727.00   2
  -2  -3 -18 128382. 4533.63   1
  -3  -2 -18 129485. 4579.70   1
   2   3  17 61933.2 2901.39   1
  -2  -3 -17 76920.9 3397.41   2
  -3  -2 -17 69908.8 3220.77   2
  -3  -2 -17 70041.2 3190.59   1
   3   2  17 68011.1 3062.04   1
  -2  -3 -17 61669.6 2972.05   1
   3   2  16 37305.5 2206.38   1
  -3  -2 -16 42574.4 2416.07   2
  -2  -3 -16 36856.5 2287.33   2
  -3  -2 -16 36716.9 2245.19   1
   2   3  16 38653.1 2216.48   1
  -2  -3 -16 36027.4 2179.15   1
  -3  -2 -15 37911.5 2166.62   2
  -2  -3 -15 36310.1 2207.48   2
   2   3  15 33025.5 2020.43   1
  -2  -3 -15 34992.3 2105.86   1
  -3  -2 -15 32989.5 2046.60   1
   3   2  15 37950.8 2115.66   1
  -3  -2 -14 217164. 5921.75   1
   2   3  14 222770. 5845.46   1
  -2  -3 -14 242431. 6171.27   2
   3   2  14 241892. 6082.67   1
  -3  -2 -14 215807. 5940.01   2
  -2  -3 -14 213780. 5868.23   1
   2   3  13 28068.7 1773.74   1
  -2  -3 -13 29294.1 1827.40   2
  -3  -2 -13 27517.8 1778.27   1
  -3  -2 -13 28654.6 1779.92   2
   3   2  13 27686.0 1727.81   1
  -2  -3 -13 25856.1 1757.43   1
  -2  -3 -12 10464.2 1077.87   1
   2   3  12 10271.4 1068.84   1
  -2  -3 -12 10648.3 1033.73   2
  -3  -2 -12 10264.2 1034.99   1
  -3  -2 -12 11444.0 1144.63   2
   3   2  12 10009.5 1038.46   1
   2   3  11 190192. 5017.88   1
  -3  -2 -11 187142. 5067.55   1
   5  -3 -11 193606. 4728.15   1
   3   2  11 181470. 4909.40   1
  -5   3  11 201203. 4628.56   1
  -2  -3 -11 171243. 4883.80   2
  -2  -3 -11 180353. 4984.05   1
  -3  -2 -11 187921. 5102.50   2
   5  -2 -10 270441. 5650.96   1
  -2  -3 -10 254089. 6202.18   1
  -3   5 -10 258675. 5576.52   1
   2   3  10 256454. 6176.10   1
   5  -3 -10 276266. 5934.24   1
  -3  -2 -10 264195. 6344.43   2
  -3  -2 -10 265640. 6300.25   1
  -2  -3 -10 261146. 6234.60   2
   3   2  10 265116. 6204.25   1
  -5   2  10 262541. 5534.30   1
   2   3   9 300015. 6814.70   1
  -5   3   9 311185. 6398.83   1
   5  -2  -9 343443. 6400.70   1
  -2  -3  -9 302195. 6818.69   2
  -3  -2  -9 296871. 6797.96   1
   3   2   9 320972. 6884.20   1
   3  -5   9 314984. 6160.07   1
   2  -5   9 291450. 6638.46   2
  -3  -2  -9 295119. 6818.06   2
   5  -3  -9 343979. 6617.03   1
  -2  -3  -9 310464. 6861.49   1
  -5   2   9 283938. 6081.50   1
   2  -5   8 58754.8 2287.61   2
   3  -5   8 57256.4 2286.02   2
  -2   5  -8 57099.5 1822.97   1
  -3  -2  -8 57059.5 2345.18   2
  -5   2   8 53730.4 1900.33   1
   2  -5   8 52992.7 1727.26   1
   5  -2  -8 54722.9 1955.31   1
  -5   3   8 60943.9 2105.38   1
  -3   5  -8 57125.2 1971.70   1
   3   2   8 54802.1 2236.70   1
   2   3   8 60395.5 2385.24   1
   3  -5   8 58228.0 1947.68   1
   5  -3  -8 54750.2 2086.27   1
  -2  -3  -8 51974.5 2235.67   1
  -2  -3  -8 58600.0 2346.10   2
  -3  -2  -8 54385.6 2279.52   1
   3  -5   7 258484. 5195.37   1
  -3  -2  -7 260375. 5823.99   2
   2   3   7 228340. 5622.27   1
  -2  -3  -7 223790. 5513.58   2
   5  -2  -7 270337. 5311.04   1
  -2  -3  -7 247814. 5768.59   1
  -3  -2  -7 237127. 5635.51   1
   3  -5   7 242473. 5634.14   2
   2  -5   7 250785. 4941.09   1
   3   2   7 236616. 5652.32   1
  -5   2   7 266085. 5249.17   1
   2  -5   7 237497. 5514.64   2
   5  -3  -7 265977. 5464.58   1
  -2  -3  -5 302786. 6380.63   2
  -2  -3  -5 302722. 6398.39   1
  -3  -2  -5 304694. 6425.74   1
  -2  -3  -4 195391. 4482.70   1
   3   2   4 180150. 4378.78   1
  -3  -2  -4 192775. 4432.65   1
   5  -3  -4 175936. 4166.86   1
   3  -5   4 200586. 4488.58   2
  -2  -3  -4 194352. 4497.67   2
   5  -2  -4 156090. 3957.47   1
   2   3   4 190846. 4459.00   1
   2  -5   4 182953. 4286.47   2
   3  -5   4 185467. 4116.42   1
  -5   3   4 161371. 4067.60   1
  -5   2   4 179928. 4059.08   1
  -2   5  -4 187664. 4031.31   1
  -3   5  -4 188591. 4167.71   1
  -3  -2  -4 189756. 4396.09   2
   5  -3  -3 170343. 4113.84   1
   5  -2  -3 174950. 4053.80   1
   3   2   3 187041. 4337.78   1
  -5   2   3 179070. 4071.76   1
  -3   5  -3 179068. 4075.01   1
   2  -5   3 177937. 3947.34   1
   3  -5   3 194248. 4354.61   2
  -2  -3  -3 191979. 4357.08   2
   2   3   3 184454. 4304.69   1
  -3  -2  -3 181836. 4254.20   2
   2  -5   3 199100. 4333.89   2
  -3  -2  -3 172203. 4238.73   1
  -2  -3  -3 187916. 4313.41   1
  -2   5  -3 170690. 4002.80   1
  -5   3   3 188744. 4229.87   1
   3  -5   3 179144. 4050.75   1
  -2   5  -1 78919.6 2365.45   1
  -3   5  -1 83217.3 2496.19   1
   2   3   1 77322.9 2394.12   1
   3  -5   1 83350.7 2444.22   1
   2  -5   1 85970.2 2404.78   1
  -2  -3  -1 86995.5 2521.87   2
  -3  -2  -1 89063.8 2509.08   2
   5  -2  -1 85111.6 2482.83   1
  -3  -2  -1 78238.9 2390.39   1
   5  -3  -1 78959.4 2416.40   1
  -5   2   1 84401.4 2460.29   1
   3  -5   1 85085.7 2535.67   2
   2  -5   1 87602.4 2562.85   2
  -2  -3  -1 85578.1 2458.38   1
  -5   3   1 76143.6 2418.83   1
   3   2   1 75828.7 2401.79   1
   2  -5   0 35399.9 1549.38   2
   3   2   0 32187.8 1413.79   1
   2  -5   0 33818.8 1448.79   1
  -2  -3   0 34411.6 1452.30   2
  -3  -2   0 37433.9 1485.72   2
  -5   3   0 38312.2 1586.74   1
   5  -3   0 34365.7 1505.35   1
  -3  -2   0 36245.9 1453.45   1
   3  -5   0 36151.5 1548.11   2
   5  -2   0 35392.4 1485.47   1
   2   3   0 35180.5 1440.91   1
  -2  -3   0 35595.6 1437.34   1
   3  -5   0 38485.3 1568.00   1
  -5   2   0 33474.6 1475.96   1
  -2   5   0 35387.5 1492.28   1
  -3   5   0 37052.6 1549.24   1
  -3  -2   1 211795. 4502.69   2
   3  -5  -1 224067. 4761.08   2
   5  -3   1 217315. 4765.93   1
  -3   5   1 216618. 4743.60   1
   2  -5  -1 214634. 4734.38   2
  -5   3  -1 214707. 4774.84   1
  -3  -2   1 216133. 4470.17   1
   3   2  -1 206781. 4450.99   1
   2  -5  -1 216349. 4681.77   1
  -2  -3   1 214530. 4435.83   1
   3  -5  -1 220644. 4754.00   1
   5  -2   1 211006. 4681.55   1
  -2   5   1 202038. 4641.27   1
   2   3  -1 215851. 4478.31   1
  -3  -2   4 91497.5 2358.91   2
  -5   2  -4 83065.9 2674.60   1
   5  -3   4 93335.3 2712.56   1
   3  -5  -4 89458.2 2730.97   1
  -3   5   4 94649.9 2789.75   1
   3   2  -4 87291.8 2195.36   1
   2  -5  -4 90081.7 2733.76   1
  -5   3  -4 89931.9 2748.70   1
   3  -5  -4 84249.1 2562.05   2
  -2   5   4 91812.1 2758.21   1
   2   3  -4 88901.7 2157.02   1
   2  -5  -4 81187.4 2601.29   2
   5  -2   4 89980.2 2735.40   1
  -3  -2   4 84593.7 2123.44   1
  -2  -3   4 93222.3 2128.29   1
  -2  -3   4 79033.7 2334.76   2
   3  -5  -7 373634. 7589.84   1
   2  -5  -7 377059. 7641.85   1
  -2   5   7 379329. 7568.41   1
  -5   3  -7 358541. 7510.66   1
  -2   5   8 67324.2 2454.89   1
  -2  -3   8 60967.6 1962.81   2
  -5   2  -8 54475.8 2229.80   1
   5  -2   8 57891.9 2253.98   1
  -5   3  -8 63263.0 2362.27   1
   2  -5  -8 52794.4 2165.04   2
   5  -3   8 57820.9 2235.25   1
   2  -5  -8 57087.1 2307.19   1
   3  -5  -8 53963.5 2108.35   2
  -3   5   8 55698.0 2253.27   1
   3  -5  -8 58621.8 2315.20   1
   5  -3   9 58868.7 2316.78   1
   2  -5  -9 62215.1 2453.98   1
  -5   2  -9 58334.6 2382.24   1
   2  -5  -9 65447.6 2432.26   2
   5  -2   9 61057.3 2391.92   1
  -3   5   9 64648.7 2472.81   1
  -5   3  -9 65180.0 2472.26   1
   3  -5  -9 64887.3 2304.74   2
   3  -5  -9 61572.5 2442.09   1
  -2   5   9 63797.4 2454.90   1
   5  -2  10 384544. 7888.71   1
  -5   3 -10 374707. 7832.68   1
   2  -5 -10 417469. 8153.07   1
  -3   5  10 324288. 7595.74   1
   3  -5 -10 361834. 7863.30   1
   3  -5 -10 381987. 7589.19   2
  -2   5  10 378157. 7947.79   1
   2  -5 -10 396436. 7889.62   2
  -5   2 -10 369380. 7889.17   1
   5  -2  11 28794.8 1663.43   1
   2  -5 -11 30004.4 1702.21   2
   2  -5 -11 27080.3 1654.56   1
  -5   2 -11 28184.5 1680.24   1
   5  -3  11 31672.7 1677.81   1
  -2   5  11 30984.3 1723.01   1
  -5   3 -11 30481.4 1718.32   1
  -3   5  11 33587.2 1800.44   1
   3  -5 -11 32287.4 1652.12   2
   3  -5 -11 32078.1 1762.46   1
  -5   3 -12 47155.9 2224.68   1
   3  -5 -12 52974.9 2378.36   1
   2  -5 -12 45100.1 2251.74   1
   5  -3  12 54266.2 2311.13   1
  -2   5  12 52572.7 2360.37   1
   2  -5 -12 52227.1 2339.98   2
  -5   2 -12 48075.8 2288.67   1
  -3   5  12 53470.3 2365.18   1
   5  -2  12 50923.0 2274.66   1
  -5   3 -13 128027. 3977.70   1
   3  -5 -13 129141. 4070.60   1
   5  -3  13 130848. 3977.33   1
  -2   5  13 124537. 3945.44   1
   2  -5 -13 119279. 3851.59   2
   5  -2  13 126407. 3948.83   1
   2  -5 -13 114424. 3888.35   1
  -5   2 -13 119052. 3883.15   1
  -3   5  13 129215. 4012.52   1
   5  -3  14 149049. 4460.60   1
   5  -2  14 157737. 4609.14   1
  -2   5  14 140698. 4475.02   1
  -5   2 -14 153700. 4629.69   1
  -3   5  14 154892. 4575.69   1
   3  -5 -14 150313. 4626.78   1
  -5   3 -14 156771. 4584.99   1
   2  -5 -14 153851. 4662.41   1
   3  -5 -15 110947. 3901.10   1
   2  -5 -15 93134.8 3635.56   1
  -3   5  15 114677. 3860.95   1
   5  -2  15 107522. 3781.67   1
  -2   5  15 120956. 3967.58   1
  -5   2 -15 103678. 3798.79   1
  -2   5  16 10701.0 1174.48   1
  -5   2 -16 8621.94 1064.27   1
   2  -5 -16 12041.9 1255.69   1
   3  -5 -16 11784.3 1216.68   1
   2  -5 -17 47248.4 2575.60   1
  -4  -1 -19 2108.93 690.158   2
   1   4  18 1978.88 583.973   1
  -4  -1 -18 2669.53 760.399   2
  -4  -1 -18 2371.94 641.783   1
  -1  -4 -18 2604.60 638.206   1
  -4  -1 -17 2216.10 726.989   2
  -1  -4 -17 2294.07 602.120   1
  -4  -1 -17 2008.97 549.263   1
   1   4  17 2229.38 583.544   1
   4   1  17 1927.10 578.922   1
  -1  -4 -16 121096. 4343.18   2
   4   1  16 117311. 4135.14   1
  -4  -1 -16 113820. 4131.15   1
  -4  -1 -16 107489. 4122.68   2
  -1  -4 -16 122195. 4218.01   1
   1   4  16 121790. 4163.89   1
   1   4  15 1115.47 477.891   1
  -4  -1 -15 1574.11 537.046   1
  -1  -4 -15 1534.25 546.098   1
  -1  -4 -15 1723.92 620.439   2
  -4  -1 -15 1390.53 538.508   2
   4   1  15 1085.66 402.221   1
  -4  -1 -14 5196.12 817.449   1
  -1  -4 -14 5029.16 773.404   2
   1   4  14 5476.66 820.314   1
   4   1  14 5791.12 815.714   1
  -1  -4 -14 5568.04 805.000   1
  -4  -1 -14 5481.77 869.247   2
   4   1  13-21.5456 293.672   1
  -4  -1 -13 461.536 366.331   2
  -1  -4 -13 220.358 339.008   1
  -4  -1 -13 130.143 301.736   1
   1   4  13-512.379 392.016   1
   5  -4 -13 460.290 300.837   1
  -1  -4 -13 187.784 317.353   2
   4   1  11 830.474 412.061   1
  -1  -4 -11 1060.29 449.551   2
   5  -4 -11 1624.43 418.301   1
  -5   4  11 1030.98 373.205   1
  -4   5 -11 956.826 340.782   1
  -4  -1 -11 1193.53 455.322   2
  -1  -4 -11 1210.51 453.068   1
   4  -5  11 1067.66 374.552   1
   1   4  11 1679.98 501.778   1
  -4  -1 -11 1460.08 428.848   1
   5  -4 -10 6643.29 770.297   1
  -4  -1 -10 8702.22 944.603   2
   1   4  10 8282.71 902.737   1
  -4  -1 -10 7384.50 870.501   1
  -5   4  10 8569.98 860.712   1
   1  -5  10 7934.64 869.707   2
   4  -5  10 8210.14 762.197   1
  -4   5 -10 8592.18 818.897   1
  -1  -4 -10 8873.31 916.728   2
   4   1  10 7995.36 867.975   1
  -1  -4 -10 6477.22 836.548   1
  -4  -1  -9 8811.31 931.018   2
  -1  -4  -9 9105.26 936.053   1
   5  -4  -9 9332.38 853.925   1
  -1  -4  -9 8464.60 888.774   2
  -5   4   9 8201.62 823.089   1
   1  -5   9 7609.96 832.096   2
   1   4   9 8619.35 869.821   1
  -4   5  -9 8460.80 773.912   1
  -4  -1  -9 8426.68 919.177   1
   4  -5   9 10147.3 853.241   1
   4   1   9 8380.66 883.509   1
  -4   5  -8 300943. 6254.51   1
   1   4   8 297551. 6587.44   1
   4   1   8 287667. 6477.35   1
   5  -4  -8 296862. 6316.72   1
  -4  -1  -8 298062. 6553.68   1
   1  -5   8 321165. 6484.84   2
  -1  -4  -8 275056. 6450.33   2
   4  -5   8 288459. 6072.17   1
  -4  -1  -8 276671. 6474.46   2
  -1  -4  -8 283945. 6507.27   1
   4  -5   7 5528.34 604.207   1
   1  -5   7 4288.45 401.324   1
   5  -1  -7 5302.44 536.300   1
   5  -4  -7 5484.89 660.178   1
   1  -5   7 4904.99 625.902   2
  -1  -4  -7 4597.57 662.197   1
  -4  -1  -7 4014.30 620.312   1
   5  -4  -7 5255.87 466.082   2
  -1   5  -7 4025.39 418.744   1
  -4   5  -7 4950.15 571.717   1
  -5   4   7 4501.72 568.561   1
   4   1   7 4983.39 642.693   1
  -1  -4  -7 4637.26 665.089   2
  -5   1   7 4084.35 464.416   1
   1   4   7 4439.88 627.930   1
  -4  -1  -7 4465.90 681.954   2
   1  -5   6 24211.7 1330.21   2
  -5   4   6 23196.1 1299.59   1
  -4  -1  -6 21449.3 1366.96   1
   5  -1  -6 22669.2 1137.32   1
   5  -4  -6 25365.7 1112.75   2
   4  -5   6 21222.2 1214.91   1
   1  -5   6 24937.4 1048.32   1
  -4   5  -6 22914.7 1280.47   1
  -1  -4  -6 24746.7 1477.30   1
   1   4   6 21802.9 1376.15   1
  -1  -4  -6 24367.0 1410.54   2
  -5   1   6 25008.9 1143.14   1
   4  -5   6 24973.4 1499.84   2
  -4  -1  -6 26307.6 1450.18   2
  -1   5  -6 23170.4 1038.18   1
   4   1   6 20966.6 1328.97   1
   1   4   5 42574.9 1837.86   1
  -5   4   5 43411.7 1739.78   1
  -4  -1  -5 43614.1 1844.24   2
  -1   5  -5 46916.2 1557.48   1
   5  -4  -5 36030.9 1675.14   1
  -5   1   5 35084.6 1106.22   2
   4  -5   5 40564.5 1847.03   2
   4   1   5 36650.0 1767.01   1
   5  -4  -5 39159.0 1447.30   2
   5  -1  -5 40437.2 1550.85   1
   1  -5   5 38939.6 1692.89   2
   4  -5   5 42183.1 1691.10   1
  -1  -4  -5 40759.0 1817.47   1
  -4  -1  -5 39910.0 1792.72   1
  -5   1   5 41334.9 1541.09   1
  -4   5  -5 38693.9 1684.23   1
   1  -5   5 40020.6 1428.10   1
  -1  -4  -5 38910.4 1770.01   2
  -5   4   3 4952.94 585.441   1
  -5   1   3 5695.05 548.824   1
  -1   5  -3 5391.08 531.527   1
  -1  -4  -3 6414.92 680.550   2
   5  -4  -3 5750.44 581.819   2
   1   4   3 5604.34 648.241   1
  -4   5  -3 6068.73 624.852   1
   1  -5   3 6176.30 662.531   2
  -4  -1  -3 6441.49 666.478   1
   4  -5   3 5129.79 621.021   2
   5  -1  -3 4838.21 529.909   1
  -1  -4  -3 5609.25 622.605   1
   4  -5   3 5277.92 580.872   1
   4   1   3 6804.44 682.554   1
   1  -5   3 5350.13 532.053   1
   5  -4  -3 4769.33 605.372   1
  -4  -1  -3 5922.36 632.362   2
   4  -5   2 57121.0 2017.35   1
  -1  -4  -2 60958.5 2101.84   1
   1   4   2 58110.3 2091.95   1
  -1   5  -2 53262.6 1848.37   1
   1  -5   2 59134.0 1912.91   1
  -5   4   2 59962.1 2093.13   1
  -1  -4  -2 62171.9 2140.63   2
  -4  -1  -2 55550.0 2045.59   1
  -4   5  -2 57053.6 2043.42   1
  -5   1   2 54521.0 1916.49   1
  -4  -1  -2 55286.0 2011.15   2
   4  -5   2 59921.1 2129.29   2
   5  -1  -2 55035.0 1906.19   1
   5  -4  -2 57375.8 2059.74   1
   4   1   2 58584.3 2102.55   1
   5  -4  -2 61736.4 2006.55   2
   1  -5   2 61677.4 2123.16   2
  -1  -4  -1 264.352 255.291   2
   1   4   1 126.437 197.603   1
  -5   1   1 201.760 223.680   1
   5  -4  -1 1138.48 336.945   1
   5  -4  -1 37.5953 197.960   2
  -4  -1  -1 324.971 270.721   1
  -1   5  -1 111.612 193.812   1
  -5   4   1 282.517 260.360   1
   1  -5   1 423.038 231.200   1
  -1  -4  -1 278.342 233.604   1
   5  -1  -1 176.177 213.563   1
  -4   5  -1 364.790 297.522   1
   4   1   1 74.8689 216.828   1
  -4  -1  -1 491.154 296.160   2
   1  -5   1 236.894 272.841   2
   4  -5   1 442.683 280.016   2
   4  -5   1 253.233 228.324   1
   4  -5  -1 17996.5 1121.87   1
   1  -5  -1 18665.4 1102.85   1
   4  -5  -1 16968.3 1049.76   2
   1   4  -1 20612.2 1078.60   1
   5  -1   1 19898.1 1144.43   1
  -4  -1   1 19619.5 1053.89   1
   5  -4   1 18931.0 1121.27   1
  -5   1  -1 24772.4 1253.80   1
   1  -5  -1 19969.5 1142.54   2
  -1   5   1 20881.3 1160.58   1
  -4   5   1 20291.4 1196.84   1
  -1  -4   1 22065.2 1070.08   1
  -1  -4   1 19061.1 1088.95   2
  -5   4  -1 18281.1 1102.25   1
  -4  -1   1 19684.8 1021.32   2
   4   1  -1 19041.5 1043.32   1
   5  -4   2 133158. 3445.48   1
  -5   1  -2 122323. 3366.49   1
  -4   5   2 138245. 3530.09   1
   1   4  -2 124925. 3079.71   1
   5  -1   2 128870. 3407.31   1
  -4  -1   2 127873. 3117.28   1
  -5   4  -2 133436. 3477.58   1
  -1   5   2 128771. 3406.06   1
  -1  -4   2 136313. 3358.14   2
  -4  -1   2 134922. 3143.02   2
   4  -5  -2 134015. 3357.57   2
   4  -5  -2 140504. 3519.38   1
   1  -5  -2 125632. 3416.33   2
   1  -5  -2 133219. 3448.50   1
   4   1  -2 135113. 3217.79   1
  -1  -4   2 133632. 3121.49   1
  -4   5   3 12710.6 973.632   1
   1  -5  -3 13223.3 948.492   2
   5  -1   3 12308.9 912.073   1
   1  -5  -3 11191.0 897.231   1
  -5   1  -3 12414.8 942.402   1
   5  -4   3 12280.5 915.824   1
  -4  -1   3 10423.0 712.149   1
  -4  -1   3 10435.9 711.738   2
  -1  -4   3 11242.1 701.446   1
  -5   4  -3 12247.9 925.790   1
   4  -5  -3 11546.0 843.634   2
   1   4  -3 11992.8 728.330   1
  -1   5   3 11776.9 892.884   1
   4  -5  -3 12530.7 933.830   1
  -1  -4   3 11484.2 816.983   2
   4   1  -3 10639.3 732.748   1
   5  -1   5 10042.0 883.045   1
   5  -4   5 10279.7 857.746   1
   4  -5  -5 8676.87 825.854   1
  -4   5   5 10386.9 892.791   1
   1  -5  -5 9287.71 854.019   1
  -1  -4   5 12265.3 855.858   2
   1   4  -5 10716.7 614.822   1
   4   1  -5 10606.0 684.169   1
   1  -5  -5 9937.42 850.907   2
  -5   4  -5 9961.85 874.547   1
  -1   5   5 10022.4 914.365   1
  -4  -1   5 10318.3 637.940   2
   4  -5  -5 10857.0 826.594   2
  -4  -1   5 10406.2 644.474   1
  -1  -4   5 10233.3 573.212   1
  -5   1  -5 9901.98 877.298   1
  -4  -1   6 39622.0 1291.40   1
   5  -1   6 41775.7 1840.84   1
   1  -5  -6 44288.0 1901.36   1
  -4  -1   6 38191.6 1235.63   2
   1   4  -6 39305.8 1157.52   1
  -1  -4   6 40408.7 1678.38   2
   4   1  -6 42472.6 1368.48   1
  -5   4  -6 42735.9 1864.68   1
  -5   1  -6 41574.0 1849.16   1
   1  -5  -6 37966.7 1803.68   2
   5  -4   6 45643.6 1848.66   1
  -1  -4   6 38627.6 1111.42   1
   4  -5  -6 40209.6 1641.82   2
  -4   5   6 36755.7 1720.88   1
  -1   5   6 48315.2 1952.12   1
   4  -5  -6 39876.7 1801.44   1
  -5   1  -7 37063.1 1788.64   1
   4   1  -7 39288.0 1238.37   1
   5  -1   7 40232.6 1835.24   1
   1  -5  -7 40340.3 1836.33   2
   4  -5  -7 40196.8 1647.58   2
   4  -5  -7 35269.4 1740.96   1
  -1  -4   7 36883.4 1597.03   2
  -4   5   7 36723.9 1731.95   1
  -5   4  -7 36170.5 1728.81   1
  -1   5   7 37520.1 1819.11   1
   1  -5  -7 38381.7 1841.86   1
   5  -4   7 36730.8 1701.55   1
   4  -5  -8 357275. 7380.83   1
  -1   5   8 329507. 7308.64   1
  -1  -4   8 355333. 6959.25   2
   5  -4   8 340152. 7110.79   1
   5  -1   8 339139. 7293.64   1
  -5   1  -8 342630. 7368.45   1
   1  -5  -8 347477. 7335.33   2
   1  -5  -8 343902. 7391.75   1
  -1  -4   9 4760.58 597.185   2
   5  -1   9 4997.72 697.153   1
   1  -5  -9 5620.10 729.564   2
  -4   5   9 4224.86 630.839   1
   1  -5  -9 5510.10 714.732   1
  -1   5   9 5587.43 721.911   1
   5  -4   9 5607.18 669.060   1
  -5   1  -9 5523.05 735.740   1
   4  -5  -9 6675.40 690.635   2
  -5   4  -9 3982.70 592.267   1
   4  -5  -9 4781.48 662.290   1
   4  -5 -10 14158.7 994.200   2
   5  -1  10 15283.9 1199.60   1
  -5   1 -10 15994.4 1217.94   1
  -1  -4  10 14692.5 1058.23   2
   1  -5 -10 14896.1 1192.18   1
   5  -4  10 15897.5 1150.58   1
  -5   4 -10 15660.5 1158.12   1
   4  -5 -10 16558.5 1214.87   1
  -1   5  10 12536.5 1147.18   1
   1  -5 -10 15912.6 1214.58   2
  -4   5  10 14274.6 1123.89   1
  -1   5  11 3152.68 601.315   1
  -5   1 -11 3657.81 620.268   1
  -5   4 -11 3656.58 595.257   1
   4  -5 -11 3427.22 604.383   1
  -4   5  11 4039.17 638.351   1
   5  -4  11 3491.42 601.567   1
   1  -5 -11 3995.47 698.999   2
   1  -5 -11 3917.89 656.911   1
   5  -1  11 3974.20 665.474   1
   4  -5 -13-48.0771 341.811   1
  -5   1 -13 5.79314 282.656   1
  -5   4 -13-28.2378 261.077   1
   1  -5 -13 282.902 315.154   2
   5  -4  13-106.169 306.889   1
  -1   5  13-36.6639 345.748   1
  -4   5  13 210.511 333.500   1
   5  -1  13 85.8091 261.849   1
   1  -5 -13 850.848 445.502   1
   1  -5 -14 12775.4 1260.09   2
  -5   1 -14 12398.6 1206.11   1
   1  -5 -14 11692.8 1190.49   1
  -4   5  14 10127.1 1103.01   1
  -1   5  14 13315.0 1260.82   1
   5  -1  14 12594.1 1179.30   1
   4  -5 -14 10254.4 1121.84   1
   4  -5 -15 1417.35 445.085   1
   5  -1  15 1492.01 493.827   1
  -1   5  15 1229.79 477.354   1
  -5   1 -15 1587.53 553.626   1
   1  -5 -15 887.800 421.823   1
  -1   5  16 204098. 5810.01   1
   5  -1  16 218843. 5987.75   1
  -5   1 -16 216011. 5972.26   1
   1  -5 -16 198841. 5828.17   1
   1  -5 -17 914.326 518.892   1
  -5   1 -17 816.394 462.976   1
  -1   5  17 892.581 394.100   1
   1  -5 -18 13720.3 1440.54   1
  -5   1 -18 11829.6 1331.16   2
  -5   1 -19 1636.66 633.822   2
   0   5   0 238515. 5150.99   1
   0  -5   0 224768. 5166.32   2
   5  -5   0 233789. 5254.35   1
   0  -5   0 246382. 5111.30   1
  -5   5   0 240341. 5272.41   1
   5   0   0 236129. 5152.03   1
   5  -5   0 236372. 5210.48   2
   0  -5  -3 373528. 7524.89   2
   0  -5  -3 390668. 7587.71   1
  -5   0  -3 396598. 7596.19   1
  -5   0   4 15415.4 917.101   1
   0  -5   4 14781.5 839.677   1
  -5   0   4 14714.9 811.489   2
   0  -5  -4 16929.1 1129.28   1
   0   5  -4 13911.6 858.556   1
   5   0  -4 14467.3 901.413   1
   5  -5  -4 12372.9 1005.31   1
   5   0   4 16174.1 1096.99   1
   0  -5  -4 15506.7 1103.48   2
   5  -5   4 14943.6 1018.48   1
  -5   5  -4 15167.9 1076.80   1
   0  -5   4 15378.4 1052.62   2
  -5   0  -4 14908.7 1068.53   1
   0   5   4 15299.9 1093.58   1
  -5   5   4 15758.4 1120.48   1
   5  -5  -4 17304.2 1024.17   2
   5   0   5 25308.6 1441.34   1
  -5   0  -5 29745.8 1573.60   1
   0  -5  -5 27932.7 1514.16   1
   5  -5  -5 25979.0 1424.02   1
   5   0  -5 26988.6 1225.28   1
   0   5  -5 27897.6 1161.92   1
   5  -5   5 25686.2 1399.18   1
  -5   0   5 27679.0 1232.32   1
   0   5   5 23129.2 1446.28   1
  -5   0   5 24392.8 985.265   2
   0  -5   5 24097.1 1383.42   2
   0  -5   5 27692.6 1139.69   1
  -5   5   5 32206.1 1605.98   1
   5  -5  -5 25800.2 1281.40   2
  -5   5  -5 28103.1 1448.29   1
   0  -5  -5 25319.5 1446.00   2
   0  -5   6 2288.24 316.824   1
   5  -5   6 1964.32 388.787   1
   0  -5  -6 2324.17 527.981   2
   0  -5  -6 2932.69 551.409   1
   0   5   6 2180.07 515.257   1
   0   5  -6 2500.75 361.238   1
   5  -5  -6 1873.93 445.551   1
   5  -5  -6 1916.91 360.855   2
  -5   5   6 2506.37 502.026   1
   5   0  -6 2049.16 357.088   1
  -5   5  -6 2094.50 426.298   1
   0  -5   6 2940.40 499.608   2
   5   0   6 2004.56 496.841   1
  -5   0  -6 1893.15 480.550   1
  -5   0   6 2406.87 367.037   1
   0  -5  -7 1249.11 422.897   1
  -5   5   7 1483.64 420.528   1
   5   0  -7 1273.14 251.339   1
   5  -5   7 1317.78 379.195   1
   0  -5  -7 915.903 427.207   2
  -5   5  -7 2340.29 455.842   1
   5  -5  -7 1724.72 448.966   1
  -5   0  -7 1312.36 444.435   1
   5   0   7 1105.84 424.666   1
   5  -5  -7 1499.28 334.665   2
   0  -5   7 752.653 341.053   2
   0   5   7 1026.86 394.298   1
  -5   0   7 1465.59 305.596   1
  -5   5  -8 3621.74 564.276   1
   0   5   8 4133.50 655.318   1
   5  -5  -8 3863.88 490.276   2
  -5   5   8 3677.62 590.854   1
   0  -5  -8 3130.24 591.958   1
   5   0   8 4101.35 642.054   1
   5  -5  -8 3897.59 624.294   1
  -5   0  -8 3874.44 637.248   1
   5  -5   8 3361.93 509.734   1
   0  -5   8 3541.66 532.343   2
   0  -5  -8 3849.87 633.187   2
   0  -5  -9 118025. 3673.98   1
   5   0   9 107643. 3581.35   1
   0  -5  -9 118336. 3659.37   2
  -5   0  -9 117632. 3661.72   1
   0  -5   9 123480. 3527.16   2
   5  -5  -9 117029. 3579.53   1
   0   5   9 124942. 3737.18   1
  -5   5   9 111430. 3489.63   1
  -5   5  -9 109218. 3398.90   1
   5  -5   9 117566. 3437.06   1
   0  -5  10 682783. 12748.3   2
   0  -5 -10 726061. 13238.8   1
  -5   0 -11 341895. 7881.08   1
   5  -5  11 367792. 7604.79   1
   0  -5 -11 367954. 8082.33   2
   0   5  11 368462. 8016.14   1
  -5   5  11 337584. 7662.99   1
   5  -5 -11 349208. 7754.63   1
   0  -5  11 370292. 7712.64   2
  -5   5 -11 359347. 7704.01   1
   5   0  11 366794. 7971.99   1
   0  -5 -11 366831. 7984.39   1
   0  -5 -12 134935. 4186.53   1
   5  -5  12 125903. 3787.29   1
   5  -5 -12 118942. 3898.16   1
  -5   0 -12 126471. 4103.51   1
   0   5  12 128815. 4099.63   1
  -5   5  12 122791. 3913.43   1
   0  -5 -12 131120. 4174.30   2
  -5   5 -12 124895. 3849.64   1
   5   0  12 131455. 4095.77   1
  -5   0 -13 229157. 5980.28   1
   0  -5 -13 245015. 6222.67   2
   0   5  13 238322. 6087.31   1
  -5   5  13 217316. 5802.57   1
   5   0  13 220291. 5847.83   1
   0  -5 -13 222049. 5952.27   1
   5  -5 -13 234133. 5987.27   1
  -5   0 -14 435189. 9545.08   2
   5  -5 -14 426148. 9337.02   1
   0  -5 -14 465864. 9719.22   2
  -5   0 -14 409468. 9338.93   1
   0   5  14 424333. 9342.27   1
   0  -5 -14 446366. 9521.68   1
   5   0  14 415830. 9270.53   1
  -5   0 -15 52580.3 2612.40   1
   0   5  15 55140.0 2645.05   1
   0  -5 -15 52103.9 2633.87   1
   5   0  15 53774.1 2668.02   1
  -5   0 -15 60989.7 2881.31   2
   0  -5 -15 50336.7 2759.73   2
   5   0  16 4310.79 790.225   1
  -5   0 -16 4990.07 909.156   2
   0   5  16 3143.88 639.369   1
  -5   0 -16 3756.47 753.001   1
   0  -5 -16 3923.19 695.615   1
  -5   0 -17 9734.42 1200.87   2
   5   0  17 8075.43 1060.80   1
   0  -5 -17 8948.54 1120.54   1
  -5   0 -17 9182.00 1148.17   1
   0   5  17 10414.7 1145.28   1
   0  -5 -18 6646.56 1013.17   1
   0   5  18 7355.79 995.641   1
  -5   0 -18 7628.07 1079.78   2
  -5   0 -18 7133.91 1058.33   1
  -5   0 -19 6778.31 1058.60   2
  -3  -3 -19-136.455 263.191   1
  -3  -3 -18 6102.36 955.616   1
   3   3  18 6192.96 930.367   1
  -3  -3 -18 6199.72 1053.21   2
   3   3  17 399.731 372.023   1
  -3  -3 -17 364.367 459.383   2
  -3  -3 -17 75.3430 332.239   1
  -3  -3 -16 313903. 7890.82   2
  -3  -3 -16 324529. 7871.17   1
   3   3  16 308979. 7693.55   1
  -3  -3 -15-210.585 364.294   1
  -3  -3 -15-18.2433 330.245   2
   3   3  15-45.2780 304.400   1
  -3  -3 -14 265776. 6794.75   1
   3   3  14 282809. 6900.45   1
  -3  -3 -13 613.303 437.310   2
  -3  -3 -13 31.3253 286.758   1
   3   3  13 139.124 337.117   1
   3   3  12 240540. 6046.53   1
  -3  -3 -12 221779. 5984.52   2
  -3  -3 -12 239151. 6099.12   1
  -3  -3 -11 260.881 359.344   2
   3   3  11 255.286 321.518   1
  -3  -3 -11 261.573 361.747   1
  -3  -3 -10 580849. 11391.3   1
   3  -6   9-44.0171 284.748   2
  -6   3   9 639.148 303.774   1
   6  -3  -9 388.418 291.095   1
  -3  -3  -9 715.456 360.984   2
   3   3   9-59.0365 317.506   1
  -3  -3  -9-22.1001 326.338   1
  -3   6  -7 144.591 257.172   1
  -6   3   7 178.914 232.375   1
   3  -6   7 249.259 257.058   1
   6  -3  -7-126.495 225.955   1
  -3  -3  -7 127.420 311.602   1
  -3  -3  -7 127.805 284.823   2
   3  -6   7-74.5671 304.084   2
   3   3   7 308.006 309.050   1
  -3  -3  -6 120649. 3592.28   2
   3  -6   6 128711. 3327.25   1
   3  -6   6 120568. 3581.76   2
  -3  -3  -6 121853. 3658.62   1
   3   3   6 124258. 3647.95   1
   6  -3  -6 128394. 3468.37   1
  -6   3   6 119705. 3342.20   1
  -3   6  -6 124035. 3323.26   1
  -3   6  -5 228.833 254.012   1
   3  -6   5 794.920 367.720   2
   3  -6   5 471.542 277.594   1
  -3  -3  -5 247.509 285.891   2
   3   3   5 151.351 287.166   1
  -6   3   5-190.923 223.909   1
  -3  -3  -5-20.9499 288.324   1
   6  -3  -5-65.3905 204.259   1
  -6   3   3 723.116 297.021   1
  -3  -3  -3 28.2180 263.430   1
   3   3   3 340.798 249.111   1
   6  -3  -3 174.340 234.371   1
  -3   6  -3 311.246 215.370   1
  -3  -3  -3 608.883 379.853   2
   3  -6   3 29.1796 306.966   2
   3  -6   2 287229. 5988.04   2
   3  -6   2 276987. 5745.17   1
   6  -3  -2 260687. 5756.72   1
  -3  -3  -2 267483. 5836.50   1
  -3  -3  -2 280735. 5935.92   2
  -3   6  -2 260935. 5764.82   1
   6  -3  -1 274.157 265.490   1
  -3  -3  -1 212.833 230.315   2
  -3  -3  -1-79.4237 216.952   1
   3  -6   1 65.6780 253.254   1
   3  -6   1-56.0055 293.337   2
   3   3   1 223.130 298.068   1
  -3   6  -1 195.251 232.454   1
  -6   3   1-100.827 242.220   1
   3  -6   0 148093. 3756.57   1
   3  -6   0 151270. 3875.72   2
  -3   6   0 143072. 3731.60   1
   3   3   0 146768. 3716.96   1
  -6   3   0 147422. 3806.31   1
  -3  -3   0 156816. 3786.47   2
  -3  -3   0 142306. 3635.32   1
   3  -6  -1 198.136 264.953   1
  -3   6   1 148.882 264.501   1
   3  -6  -1-224.689 343.647   2
   3   3  -1 268.693 207.463   1
  -3  -3   1-173.910 240.779   1
   6  -3   1 276.586 284.134   1
  -6   3  -1 223.393 327.074   1
  -3  -3   1 55.6364 242.265   2
   6  -3   2 340947. 6957.39   1
   3  -6  -2 336520. 6909.32   2
  -3  -3   3 524.730 247.686   2
   3   3  -3 609.805 222.053   1
   3  -6  -3 275.163 271.820   1
  -6   3  -3 623.968 350.144   1
  -3   6   3 584.945 360.326   1
  -3  -3   3 187.887 197.272   1
   6  -3   3 135.374 254.289   1
   3  -6  -3-54.6033 260.110   2
   3  -6  -5 326.267 264.377   2
  -3  -3   5 236.827 286.516   2
  -3  -3   5 27.4631 144.452   1
  -3   6   5 504.482 354.192   1
  -6   3  -5 329.739 323.785   1
   6  -3   5 193.847 272.620   1
   3  -6  -5-215.137 312.046   1
   3  -6  -6 78769.6 2843.93   1
   6  -3   6 80187.5 2779.12   1
  -6   3  -6 83055.0 2855.51   1
  -3   6   6 78700.7 2823.56   1
   3  -6  -6 80672.0 2771.34   2
  -6   3  -7-255.351 346.094   1
   3  -6  -7 52.3358 256.174   1
   3  -6  -7 340.450 324.804   2
  -3   6   7 435.278 306.729   1
   6  -3   7 241.626 327.296   1
  -3  -3   7-60.3933 165.992   2
  -3   6   8 665994. 12386.5   1
  -3   6   9 284.734 308.441   1
   3  -6  -9 65.6674 297.966   1
  -6   3  -9-125.681 250.786   1
   6  -3   9 126.381 297.157   1
   3  -6  -9-61.3394 241.127   2
   3  -6 -10 446581. 8951.08   1
  -6   3 -10 420516. 8777.95   1
   3  -6 -10 446802. 8705.88   2
   6  -3  11 71.2221 322.962   1
  -6   3 -11-308.401 280.719   1
  -3   6  11-19.1691 255.824   1
   3  -6 -11 75.1720 341.824   1
  -3   6  12 300380. 7412.06   1
   6  -3  12 338392. 7553.17   1
   3  -6 -12 320981. 7531.04   1
  -6   3 -12 326174. 7566.09   1
   3  -6 -12 355533. 7540.00   2
   3  -6 -13-103.996 365.395   1
   6  -3  13 139.211 294.383   1
  -3   6  13 17.9953 267.074   1
  -6   3 -13-163.918 351.429   1
   6  -3  14 161761. 4909.11   1
  -6   3 -14 163494. 5007.42   1
   3  -6 -14 157079. 4907.07   1
   6  -3  15 567.493 447.525   1
   3  -6 -15 400.296 402.073   1
  -3   6  15 796.939 480.595   1
  -6   3 -15 177.468 298.754   1
  -3   6  16 184181. 5510.42   1
   3  -6 -16 186792. 5598.57   1
   3  -6 -17 104.489 332.803   1
  -2  -4 -19 72461.0 3402.51   1
  -4  -2 -19 77878.8 3521.30   1
  -4  -2 -19 72336.8 3504.38   2
  -2  -4 -18 97939.4 3876.88   1
  -4  -2 -18 99983.6 3982.26   1
   2   4  18 90520.6 3778.48   1
  -4  -2 -18 100432. 4016.27   2
   4   2  18 94956.8 3831.67   1
  -4  -2 -17 15023.5 1481.11   2
   4   2  17 14757.3 1405.08   1
  -2  -4 -17 16323.6 1526.08   1
   2   4  17 14693.2 1404.72   1
  -4  -2 -17 15232.9 1465.63   1
  -2  -4 -17 15099.8 1545.52   2
   2   4  16 64658.8 2956.72   1
  -2  -4 -16 66877.4 3072.34   1
  -4  -2 -16 73891.7 3210.49   1
  -4  -2 -16 70103.7 3192.73   2
   4   2  16 66979.0 3076.78   1
  -2  -4 -16 68201.7 3193.14   2
  -4  -2 -15 17575.6 1533.57   2
  -2  -4 -15 16745.4 1462.19   1
  -4  -2 -15 17178.0 1524.90   1
   2   4  15 16905.6 1468.16   1
  -2  -4 -15 19957.1 1659.80   2
   4   2  15 16602.4 1480.77   1
  -2  -4 -14 223253. 6118.98   2
  -4  -2 -14 218592. 5995.92   1
   4   2  14 233325. 6076.84   1
  -2  -4 -14 223810. 6030.12   1
   2   4  14 208347. 5881.02   1
  -4  -2 -14 234574. 6232.08   2
   4   2  13 64683.8 2806.44   1
  -4  -2 -13 60109.4 2787.16   2
  -2  -4 -13 58236.6 2702.46   1
  -4  -2 -13 55826.4 2610.02   1
  -2  -4 -13 60554.3 2799.61   2
   2   4  13 52992.2 2547.09   1
   4   2  12 29214.0 1794.16   1
  -2  -4 -12 34032.0 1968.34   1
  -4  -2 -12 29316.2 1816.94   1
  -2  -4 -12 28890.4 1848.46   2
   2   4  12 27834.2 1786.57   1
  -4  -2 -12 27059.3 1825.77   2
  -4  -2 -11 109296. 3787.07   2
   2   4  11 108190. 3670.51   1
   2  -6  11 121866. 3850.72   2
  -2  -4 -11 103001. 3647.22   1
   4   2  11 117273. 3777.50   1
  -2  -4 -11 120338. 3895.49   2
   6  -4 -11 122833. 3665.21   1
  -6   4  11 100557. 3369.57   1
  -4  -2 -11 104066. 3710.59   1
  -2  -4 -10 276604. 6685.25   2
   2  -6  10 301295. 6759.33   2
  -4  -2 -10 282685. 6708.17   2
  -2  -4 -10 277928. 6671.25   1
  -4   6 -10 275790. 6145.29   1
  -6   4  10 296289. 6392.30   1
   2   4  10 256586. 6434.18   1
   6  -4 -10 285084. 6396.34   1
   4   2  10 253628. 6430.71   1
  -4  -2 -10 294557. 6744.00   1
   4  -6   9 268227. 5846.11   1
  -4  -2  -9 258505. 6341.12   1
   6  -4  -9 297983. 6286.36   1
  -6   4   9 263122. 5991.52   1
  -2  -4  -9 254056. 6269.78   2
  -6   2   9 269710. 5763.30   1
   2   4   9 262759. 6385.01   1
  -2  -4  -9 263840. 6404.93   1
   2  -6   9 270930. 6294.55   2
  -4   6  -9 270244. 5952.13   1
   4   2   9 264610. 6339.96   1
   6  -2  -9 289527. 5902.60   1
  -4  -2  -9 245432. 6293.07   2
   4  -6   8 21386.8 1233.80   1
   4   2   8 19479.2 1378.69   1
   6  -4  -8 20473.2 1327.60   1
  -2  -4  -8 19480.1 1382.75   1
  -2  -4  -8 18015.5 1352.27   2
  -6   4   8 20973.3 1283.14   1
  -4  -2  -8 18023.8 1363.95   1
   6  -2  -8 20406.3 1194.12   1
  -4   6  -8 19955.3 1249.90   1
   2  -6   8 17674.1 1292.01   2
   2   4   8 21111.6 1411.03   1
  -6   2   8 19823.8 1163.19   1
   4  -6   8 21471.5 1417.76   2
  -4  -2  -8 19537.7 1378.84   2
  -6   4   7 230577. 5334.96   1
  -4   6  -7 233841. 5318.26   1
   6  -2  -7 223597. 5126.94   1
   2   4   7 207467. 5481.27   1
   2  -6   7 224856. 5457.36   2
  -4  -2  -7 234331. 5652.13   2
   4   2   7 232149. 5582.42   1
   6  -4  -7 208880. 5251.62   1
  -4  -2  -7 223919. 5544.87   1
   2  -6   7 251157. 4993.62   1
   4  -6   7 239011. 5691.68   2
  -6   2   7 250444. 5220.74   1
  -2  -4  -7 237940. 5695.05   2
   4  -6   7 233985. 5262.57   1
  -2  -4  -7 225284. 5616.79   1
  -2   6  -7 247964. 5033.75   1
  -2  -4  -6 538531. 10361.8   2
  -6   2   5 170934. 4121.83   1
   6  -4  -5 168364. 4307.66   1
  -2  -4  -5 169897. 4483.13   1
  -4  -2  -5 177910. 4513.24   2
  -2  -4  -5 175271. 4517.35   2
   4  -6   5 171965. 4220.68   1
   4   2   5 177230. 4512.74   1
   2  -6   5 183287. 4485.24   2
   4  -6   5 175475. 4535.58   2
   6  -2  -5 177759. 4200.14   1
  -4  -2  -5 172566. 4496.72   1
   2   4   5 167979. 4469.14   1
  -4   6  -5 172585. 4280.09   1
  -2   6  -5 180644. 4103.06   1
   2  -6   5 172068. 4017.95   1
  -6   4   5 168149. 4302.05   1
  -2  -4  -4 529112. 10313.4   1
   4  -6   4 574036. 10451.3   2
  -6   4   3 322176. 6572.47   1
   2  -6   3 319287. 6346.34   1
  -4  -2  -3 316586. 6676.86   1
  -4  -2  -3 314008. 6602.72   2
   4  -6   3 320635. 6748.54   2
  -2  -4  -3 322515. 6667.59   1
  -2  -4  -3 320368. 6711.02   2
   4   2   3 307539. 6645.44   1
   6  -2  -3 299395. 6355.35   1
   2   4   3 321935. 6697.58   1
   4  -6   3 315449. 6476.86   1
   2  -6   3 321640. 6651.79   2
   6  -4  -3 301205. 6514.03   1
   2  -6   1 52959.2 1970.51   1
   4  -6   1 48256.9 1969.63   1
  -6   2   1 52866.1 2031.01   1
  -2  -4  -1 48679.0 1936.24   1
  -4  -2  -1 51880.2 1971.42   2
   2  -6   1 51172.2 2060.49   2
  -4   6  -1 52360.6 2027.54   1
  -4  -2  -1 53165.5 2013.60   1
   4   2   1 48301.4 1947.67   1
  -2  -4  -1 54959.4 2080.60   2
   6  -4  -1 46287.1 1949.93   1
   2   4   1 47889.6 1961.18   1
   4  -6   1 50496.7 2043.03   2
  -2   6  -1 51782.8 1936.47   1
  -6   4   1 46785.7 1947.71   1
   6  -2  -1 49709.1 1936.98   1
  -6   2   0 1584.74 441.764   1
   4  -6   0 1685.03 390.639   1
   2  -6   0 1567.11 375.069   1
   6  -2   0 1630.20 386.268   1
  -4   6   0 1876.33 445.360   1
   4  -6   0 1594.14 400.382   2
  -6   4   0 1698.83 439.346   1
  -2  -4   0 1508.13 387.774   2
  -2   6   0 1389.57 371.264   1
   4   2   0 1221.03 331.446   1
  -4  -2   0 1846.67 416.014   1
   6  -4   0 1317.27 357.511   1
  -2  -4   0 1759.56 374.780   1
   2  -6   0 1638.83 413.685   2
   2   4   0 1240.89 336.231   1
  -4  -2   0 847.566 285.313   2
   4   2  -1 15679.3 1047.85   1
  -4  -2   1 17858.6 1069.13   1
  -4   6   1 19692.6 1207.98   1
   2  -6  -1 20718.0 1230.59   1
   2   4  -1 18385.2 1080.74   1
  -2  -4   1 20973.9 1129.45   1
  -6   2  -1 19417.9 1185.99   1
   4  -6  -1 19587.3 1228.84   1
   6  -4   1 16896.8 1116.17   1
  -6   4  -1 19729.3 1242.02   1
   4  -6  -1 20463.3 1265.30   2
  -4  -2   1 20584.1 1165.80   2
   6  -2   1 19250.6 1209.05   1
   2  -6  -1 20285.8 1255.27   2
  -2  -4   1 20815.4 1213.11   2
  -2   6   1 18178.6 1158.78   1
  -2  -4   4 1454.01 302.283   1
  -6   2  -4 615.360 362.423   1
  -2  -4   4 1024.85 384.248   2
  -4  -2   4 806.506 252.557   2
   2  -6  -4 802.734 387.463   1
   2   4  -4 896.655 252.653   1
   4  -6  -4 456.046 296.805   2
   6  -4   4 968.748 378.480   1
  -4  -2   4 685.573 217.733   1
  -2   6   4 938.857 382.938   1
   6  -2   4 1317.14 385.489   1
   2  -6  -4 861.879 357.402   2
   4  -6  -4 721.089 311.775   1
  -4   6   4 826.609 364.693   1
  -6   4  -4 1067.34 382.102   1
  -6   4  -5 654590. 12020.5   1
   6  -4   6 460723. 9024.38   1
   2  -6  -7 47965.3 2166.14   1
  -2   6   7 46885.0 2119.88   1
   2  -6  -7 49697.2 2183.98   2
   4  -6  -7 47121.7 2097.86   1
   6  -4   7 48162.0 2067.86   1
  -4   6   7 48184.0 2113.09   1
   6  -2   7 50083.9 2135.48   1
  -2  -4   7 50690.2 1949.62   2
   4  -6  -7 48920.2 2032.60   2
  -6   2  -7 49819.5 2184.06   1
  -6   4  -7 45780.7 2080.65   1
   4  -6  -8 186448. 4963.15   1
   6  -2   8 203762. 5064.50   1
  -4   6   8 182858. 4903.23   1
   2  -6  -8 196615. 5060.52   1
   6  -4   8 200942. 4965.81   1
   4  -6  -8 198473. 4839.71   2
   2  -6  -8 196941. 5018.31   2
  -6   2  -8 196504. 5093.34   1
  -2  -4   8 194265. 4558.73   2
  -6   4  -8 192567. 5006.87   1
  -2   6   8 216486. 5207.21   1
   2  -6  -9 50204.5 2317.56   1
   6  -2   9 52920.7 2304.52   1
  -2   6   9 51334.7 2284.17   1
  -4   6   9 55090.1 2329.89   1
   6  -4   9 52833.2 2260.30   1
  -6   2  -9 52971.2 2343.74   1
   4  -6  -9 49876.4 2144.48   2
   4  -6  -9 52307.0 2338.15   1
  -6   4  -9 53781.1 2354.52   1
   2  -6  -9 53398.3 2331.43   2
   4  -6 -10 387177. 8608.28   1
  -4   6  10 412636. 8644.32   1
   2  -6 -10 443115. 8901.57   1
   6  -4  10 401110. 8506.90   1
   6  -2  10 422429. 8747.51   1
  -6   2 -10 422578. 8784.85   1
   2  -6 -10 424162. 8735.78   2
  -2   6  10 376225. 8484.30   1
   4  -6 -10 434698. 8501.25   2
   6  -4  11 120479. 3739.65   1
   2  -6 -11 121101. 3846.39   2
   2  -6 -11 113484. 3826.59   1
   6  -2  11 112042. 3730.41   1
  -2   6  11 109015. 3716.36   1
  -6   4 -11 104689. 3647.95   1
  -6   2 -11 116481. 3819.09   1
  -4   6  11 114531. 3744.51   1
   4  -6 -11 126688. 3914.22   1
   2  -6 -12 32911.5 1935.54   1
   4  -6 -12 29360.4 1816.58   1
   2  -6 -12 33896.2 1948.27   2
   6  -4  12 33696.8 1890.50   1
  -2   6  12 30008.7 1848.33   1
  -6   4 -12 32305.8 1887.73   1
  -4   6  12 32509.3 1907.82   1
  -6   2 -12 32231.1 1923.45   1
   6  -2  12 32624.0 1907.33   1
  -4   6  13 56729.8 2669.59   1
   2  -6 -13 68395.1 2914.41   1
   6  -4  13 63855.8 2758.02   1
   4  -6 -13 69583.1 2928.09   1
  -2   6  13 59641.5 2720.58   1
  -6   2 -13 58838.9 2739.10   1
  -6   4 -13 65506.8 2802.87   1
   6  -2  13 63365.7 2768.39   1
   2  -6 -13 69792.5 2897.76   2
   4  -6 -14 162235. 4896.04   1
   6  -4  14 164000. 4871.47   1
  -2   6  14 148424. 4731.03   1
   2  -6 -14 143410. 4660.38   1
  -6   2 -14 160562. 4888.45   1
  -6   4 -14 159591. 4815.23   1
  -4   6  14 166256. 4918.38   1
   6  -2  14 162127. 4881.80   1
   6  -2  15 69930.2 3061.38   1
   4  -6 -15 67773.6 3018.86   1
   2  -6 -15 66720.3 2989.35   1
  -2   6  15 73630.5 3135.45   1
  -6   2 -15 67511.6 3069.82   1
  -4   6  15 70483.6 3068.99   1
   6  -2  16 2772.46 674.154   1
   4  -6 -16 2536.27 596.702   1
  -2   6  16 2454.28 661.373   1
  -6   2 -16 1974.40 597.205   1
   2  -6 -16 2254.84 600.126   1
   2  -6 -17 54959.2 2824.27   1
  -2   6  17 55469.3 2815.59   1
   2  -6 -18 94938.8 3918.35   1
  -1  -5 -19 6728.59 1027.28   1
  -5  -1 -19 5553.81 970.182   2
  -5  -1 -18 71245.8 3371.05   1
  -1  -5 -18 72603.2 3299.56   1
   1   5  18 71215.5 3315.19   1
  -5  -1 -18 75067.3 3510.84   2
   5   1  18 72596.0 3324.84   1
  -1  -5 -17 13176.4 1381.92   1
   1   5  17 13455.3 1343.04   1
  -5  -1 -17 14497.8 1456.15   1
   5   1  17 13591.0 1394.09   1
  -5  -1 -17 14014.3 1427.87   2
   1   5  16 5050.48 799.931   1
  -5  -1 -16 3823.68 745.217   1
   5   1  16 6253.97 932.181   1
  -1  -5 -16 5354.66 987.525   2
  -1  -5 -16 5675.34 855.798   1
  -5  -1 -16 5427.58 910.966   2
  -5  -1 -15 95972.9 3764.23   2
   1   5  15 96124.0 3680.03   1
  -1  -5 -15 91387.5 3637.69   1
  -5  -1 -15 91304.4 3603.02   1
  -1  -5 -15 93166.4 3723.29   2
   5   1  15 92619.2 3619.78   1
  -5  -1 -14 200288. 5663.75   1
   5   1  14 200743. 5638.69   1
  -5  -1 -14 220538. 5994.47   2
   1   5  14 212432. 5755.78   1
  -1  -5 -14 201477. 5875.14   2
  -1  -5 -13 136285. 4416.05   1
  -5  -1 -13 142586. 4500.73   1
   1   5  13 142027. 4444.06   1
  -5  -1 -13 135459. 4527.00   2
   5   1  13 139053. 4402.61   1
  -1  -5 -13 133238. 4495.67   2
  -5  -1 -12 68262.6 2892.46   2
  -5  -1 -12 58159.2 2688.07   1
   1   5  12 68479.9 2854.47   1
  -1  -5 -12 64356.5 2815.07   1
  -1  -5 -12 66736.0 2883.41   2
   5   1  12 57933.7 2678.95   1
  -6   5  12 64441.0 2696.27   1
   1  -6  11 70855.4 2954.68   2
  -6   5  11 84827.5 3044.00   1
  -1  -5 -11 73376.5 2997.58   1
  -5  -1 -11 77476.8 3078.67   1
  -5  -1 -11 78592.8 3112.64   2
   5   1  11 75555.5 3001.58   1
   1   5  11 67841.4 2876.11   1
  -5   6 -11 77065.7 2880.67   1
  -1  -5 -11 74876.2 3045.67   2
  -5  -1 -10 561261. 10921.2   2
  -5   6 -10 521933. 10364.9   1
   1   5  10 515275. 10567.7   1
  -1  -5 -10 563179. 10902.9   1
  -6   5  10 524085. 10439.6   1
  -5  -1 -10 556478. 10853.2   1
  -1  -5 -10 530423. 10761.2   2
   5   1   9 43456.5 2144.18   1
  -5   6  -9 46139.2 2099.89   1
   6  -5  -9 38943.4 2001.25   1
   5  -6   9 47049.4 2043.15   1
  -5  -1  -9 46382.6 2212.15   1
  -6   5   9 49269.8 2162.75   1
   1   5   9 46902.5 2214.53   1
   1  -6   9 47008.8 2159.50   2
  -5  -1  -9 47764.1 2277.62   2
  -1  -5  -9 46089.6 2232.26   2
  -1  -5  -9 47806.6 2261.07   1
   1  -6   8 57373.7 2372.28   2
   5  -6   8 56303.9 2257.25   1
   6  -5  -8 57322.4 2364.59   1
   5   1   8 53171.7 2368.43   1
   6  -1  -8 60247.4 2069.44   1
  -1  -5  -8 55184.3 2442.53   1
  -6   5   8 54119.5 2270.82   1
  -5   6  -8 58822.3 2359.94   1
  -1  -5  -8 57836.9 2502.66   2
  -5  -1  -8 66459.6 2618.37   2
   1   5   8 56007.9 2421.94   1
  -5  -1  -8 55613.4 2426.69   1
   5   1   7 215547. 5268.74   1
  -5   6  -7 201386. 4951.78   1
   1  -6   7 193356. 4940.37   2
   6  -1  -7 214034. 4615.78   1
  -6   5   7 213076. 5037.04   1
  -1  -5  -7 211555. 5251.39   1
  -5  -1  -7 200125. 5151.50   2
   5  -6   7 214389. 4959.05   1
  -5  -1  -7 196022. 5102.67   1
   1   5   7 202231. 5124.69   1
   6  -5  -7 176938. 4859.43   1
  -6   1   7 185470. 4435.06   1
  -1  -5  -7 192019. 5087.56   2
  -1  -5  -6 52654.2 2261.80   1
  -1   6  -6 55990.3 1875.02   1
  -5  -1  -6 51339.4 2237.23   2
   5  -6   6 52815.5 2300.64   2
   1  -6   6 50553.9 1775.34   1
   5  -6   6 51930.7 2110.17   1
  -5  -1  -6 46033.3 2144.43   1
   6  -5  -6 42195.2 2003.52   1
  -6   1   6 55903.6 1969.93   1
   1   5   6 46936.4 2168.26   1
   1  -6   6 51988.5 2168.06   2
   5   1   6 52425.6 2241.87   1
   6  -1  -6 52093.9 1938.24   1
   6  -5  -6 52444.7 1925.86   2
  -5   6  -6 48959.1 2099.32   1
  -1  -5  -6 51970.4 2225.04   2
  -6   5   6 50404.3 2084.17   1
   5  -6   5 270972. 6071.94   1
  -6   5   5 261518. 6083.63   1
  -5  -1  -5 297194. 6403.28   2
   1  -6   5 290244. 5681.75   1
  -5   6  -5 269420. 6119.97   1
  -1  -5  -5 299453. 6430.62   1
   5  -6   5 283389. 6424.80   2
  -5  -1  -5 297008. 6405.98   1
   6  -5  -5 292328. 5879.21   2
   1   5   5 285119. 6363.88   1
   6  -5  -5 290402. 6282.63   1
  -1  -5  -5 260443. 6196.50   2
   5   1   5 281510. 6314.42   1
   1  -6   5 263362. 6104.25   2
   1   5   4 2188.51 450.084   1
  -6   1   4 1471.52 334.753   1
  -5  -1  -4 2188.11 506.004   1
  -1  -5  -4 2943.67 538.292   2
  -5   6  -4 2184.05 450.978   1
  -5  -1  -4 1759.98 463.964   2
   6  -5  -4 2577.32 402.384   2
   1  -6   4 1659.37 338.540   1
  -1  -5  -4 1956.67 404.934   1
   5   1   4 2438.89 492.803   1
   6  -1  -4 1481.73 373.795   1
   5  -6   4 2023.43 442.786   1
  -1   6  -4 2052.65 397.910   1
   6  -5  -4 2105.57 469.417   1
   5  -6   4 2221.17 508.696   2
  -6   1   4 1868.93 366.166   2
  -6   5   4 1980.57 470.213   1
   1  -6   4 1615.53 412.425   2
  -6   5   3 33279.4 1635.94   1
  -6   1   3 32500.2 1399.19   2
   1  -6   3 33729.9 1462.18   1
  -1   6  -3 30649.8 1442.92   1
   6  -5  -3 31771.6 1648.55   1
   5  -6   3 35637.5 1750.92   2
  -5   6  -3 33515.8 1651.34   1
  -5  -1  -3 32829.5 1662.04   1
   1   5   3 30310.6 1610.09   1
  -5  -1  -3 32916.2 1645.12   2
   5  -6   3 33736.1 1607.63   1
   1  -6   3 28117.1 1540.21   2
   6  -1  -3 30370.0 1501.96   1
   6  -5  -3 33532.4 1573.31   2
  -6   1   3 31669.5 1484.18   1
   5   1   3 34584.7 1704.56   1
  -1  -5  -3 34821.8 1706.99   2
  -1  -5  -3 32174.9 1659.37   1
  -5  -1  -1 168292. 4087.22   2
   6  -5  -1 157716. 4105.62   1
   1  -6   1 151143. 3886.74   1
   5   1   1 151775. 4034.96   1
  -1   6  -1 162057. 4013.73   1
  -1  -5  -1 158795. 4026.69   1
   5  -6   1 160385. 4170.51   2
   5  -6   1 162169. 4102.04   1
   1   5   1 151807. 4004.80   1
  -5  -1  -1 157168. 4031.60   1
   6  -1  -1 153739. 3967.57   1
  -6   1   1 154613. 3959.75   1
  -1  -5  -1 155400. 4079.63   2
   6  -5  -1 172443. 4142.96   2
  -5   6  -1 147173. 4038.17   1
  -6   5   1 160424. 4204.48   1
   1  -6   1 158676. 4106.40   2
  -1  -5   0 333208. 6571.71   1
  -5   6   0 329894. 6783.11   1
  -6   1   0 304600. 6552.49   1
   1  -6   0 336984. 6636.46   1
   5  -6   0 331215. 6771.39   2
   5   1   0 311339. 6537.57   1
  -6   5   0 316696. 6723.87   1
  -1  -5   0 298210. 6579.01   2
   6  -5   0 311985. 6683.25   1
  -1  -5   3 201331. 4331.08   1
   5  -6  -3 193054. 4640.03   2
  -6   5  -3 196465. 4817.39   1
   5  -6  -3 196614. 4796.37   1
   1  -6  -3 195463. 4814.33   1
   5   1  -3 176958. 4322.20   1
  -6   1  -3 201106. 4865.65   1
  -1   6   3 191527. 4783.41   1
   6  -5   3 190534. 4749.16   1
   1   5  -3 193403. 4346.70   1
   6  -1   3 197016. 4832.49   1
   1  -6  -3 194292. 4811.80   2
  -5  -1   3 210674. 4495.51   1
  -1  -5   3 193825. 4653.08   2
  -5  -1   3 201251. 4408.87   2
  -5   6   3 210157. 4971.40   1
   1   5  -4 19883.4 1061.74   1
  -1  -5   4 21995.4 1090.89   1
   5  -6  -4 22535.2 1277.44   2
  -1  -5   4 18924.4 1202.02   2
   5  -6  -4 20678.4 1315.96   1
   5   1  -4 18978.2 1092.74   1
   6  -1   4 20916.2 1307.58   1
  -5  -1   4 21181.0 1089.52   2
  -5  -1   4 20242.0 1098.63   1
   1  -6  -4 20435.7 1331.48   2
  -6   1  -4 20586.4 1345.06   1
  -6   5  -4 18612.3 1276.38   1
   1  -6  -4 21561.5 1340.69   1
   6  -5   4 20893.4 1275.49   1
  -5   6   4 20322.3 1349.36   1
  -1   6   4 22676.2 1375.45   1
  -6   5  -5 2660.29 522.444   1
  -5  -1   5 2332.95 361.999   2
   1   5  -5 2884.74 391.258   1
  -5  -1   5 3153.66 406.294   1
  -1  -5   5 2524.07 365.047   1
   5  -6  -5 2644.28 445.501   2
   1  -6  -5 3057.35 577.314   1
  -5   6   5 2509.23 508.394   1
   6  -5   5 2392.43 491.941   1
  -1   6   5 2996.39 575.808   1
   5  -6  -5 2748.46 539.963   1
  -6   1  -5 2743.37 538.721   1
   6  -1   5 2521.93 535.183   1
   1  -6  -5 2223.86 504.305   2
  -1  -5   5 2860.59 542.391   2
   5   1  -5 2813.95 434.902   1
  -5   6   6 210648. 5212.60   1
   6  -5   6 204841. 5053.83   1
   5  -6  -6 225238. 5380.08   1
   1  -6  -6 222087. 5311.96   2
   1  -6  -6 212293. 5297.38   1
   6  -1   6 204586. 5171.32   1
   5  -6  -6 217990. 5006.18   2
  -5  -1   6 221308. 4518.70   1
  -1   6   6 208737. 5263.41   1
  -6   1  -6 221895. 5340.21   1
  -6   5  -6 215528. 5219.38   1
   5   1  -6 204072. 4494.03   1
  -1  -5   6 208494. 4964.35   2
  -6   5  -7 107530. 3381.06   1
  -5   6   7 110633. 3449.52   1
   1  -6  -7 99941.8 3342.67   2
   6  -1   7 102123. 3363.90   1
   1  -6  -7 101986. 3391.70   1
  -1  -5   7 104183. 3218.19   2
  -1   6   7 107844. 3474.73   1
  -6   1  -7 98078.3 3327.00   1
   5  -6  -7 112661. 3467.77   1
   5  -6  -7 108779. 3180.74   2
   6  -5   7 107714. 3312.67   1
  -6   5  -8 36760.2 1885.01   1
   1  -6  -8 34791.3 1910.43   1
  -5   6   8 35804.2 1882.35   1
   6  -5   8 37742.7 1873.57   1
   5  -6  -8 39264.6 1778.53   2
  -1   6   8 37647.5 1963.11   1
   5  -6  -8 37569.0 1904.42   1
  -6   1  -8 37629.7 1963.23   1
   1  -6  -8 35738.9 1901.97   2
  -1  -5   8 37086.7 1801.02   2
   6  -1   8 38933.0 1964.16   1
  -1   6   9 318994. 7239.74   1
   1  -6  -9 317773. 7205.86   2
   1  -6  -9 322505. 7283.42   1
   5  -6  -9 322951. 7198.47   1
  -5   6   9 285034. 6908.32   1
   5  -6  -9 332115. 6782.85   2
  -6   1  -9 302918. 7128.28   1
  -6   5  -9 324664. 7120.32   1
  -1  -5   9 330942. 6958.01   2
   6  -5   9 325085. 7049.76   1
   6  -1   9 306777. 7123.88   1
   5  -6 -10 451573. 9063.54   1
   1  -6 -10 444505. 9100.92   1
   6  -1  10 425547. 8938.67   1
  -5   6  10 427586. 8903.29   1
  -6   1 -10 435535. 9016.25   1
   6  -5  10 441289. 8864.25   1
  -6   5 -10 409261. 8803.31   1
   1  -6 -10 429336. 9021.53   2
  -6   1 -11 135418. 4251.51   1
   1  -6 -11 134182. 4260.53   1
  -5   6  11 139402. 4253.77   1
  -1   6  11 145575. 4380.93   1
   6  -5  11 134573. 4079.02   1
  -6   5 -11 138370. 4221.20   1
   6  -1  11 135613. 4226.31   1
   1  -6 -11 134794. 4307.36   2
   5  -6 -11 141081. 4297.40   1
   6  -1  12 33658.0 1958.89   1
   5  -6 -12 35126.4 2016.77   1
   1  -6 -12 29493.2 1843.58   1
  -1   6  12 30702.7 1887.95   1
   6  -5  12 33203.8 1888.35   1
   1  -6 -12 38263.5 2110.61   2
  -6   1 -12 30638.7 1920.63   1
  -5   6  12 34932.5 2007.74   1
  -6   5 -12 32997.5 1926.32   1
  -6   5 -13 62191.0 2700.03   1
  -6   1 -13 58682.4 2715.18   1
   5  -6 -13 57518.0 2675.25   1
  -1   6  13 58761.6 2658.70   1
   1  -6 -13 50864.8 2573.13   1
   6  -5  13 60823.2 2678.22   1
   1  -6 -13 61062.2 2788.51   2
   6  -1  13 54640.5 2621.47   1
  -5   6  13 54112.0 2593.80   1
   1  -6 -14 257900. 6863.71   2
   1  -6 -14 247674. 6591.59   1
   5  -6 -14 260888. 6705.23   1
  -1   6  14 282083. 6824.89   1
  -5   6  14 258165. 6680.66   1
  -6   1 -14 262783. 6795.02   1
   6  -1  14 261501. 6696.98   1
   5  -6 -15 55872.6 2737.70   1
   1  -6 -15 55773.6 2757.43   1
  -1   6  15 52347.5 2614.08   1
  -6   1 -15 59106.9 2819.92   1
   6  -1  15 59575.0 2773.28   1
   1  -6 -16 30841.8 2027.16   1
   6  -1  16 27172.4 1953.60   1
  -1   6  16 28620.2 1918.68   1
  -6   1 -16 27047.6 1928.96   1
   6  -1  17 46192.4 2574.95   1
   1  -6 -17 44873.0 2515.88   1
  -1   6  17 40396.6 2395.88   1
  -6   1 -17 46211.5 2611.71   2
  -6   1 -17 47840.1 2628.98   1
  -6   1 -18 34861.1 2331.02   2
   1  -6 -18 36061.4 2305.62   1
  -1   6  18 32612.4 2216.03   1
  -6   1 -19 8740.72 1239.61   2
   0  -6   1 4763.82 663.593   2
  -6   0   1 5270.25 648.761   2
  -6   6   1 4748.58 654.179   1
  -6   0  -1 4688.24 660.253   1
   6   0   1 4675.87 682.220   1
   6  -6  -1 4748.58 648.439   1
   0  -6   1 5672.74 654.779   1
   6   0  -1 5018.04 638.482   1
  -6   0  -1 5726.12 651.252   2
   0  -6  -1 4480.19 655.901   2
   6  -6   1 5234.55 686.875   1
   0   6   1 5445.86 688.782   1
  -6   0   1 5607.97 668.568   1
  -6   6  -1 4462.41 641.667   1
   6  -6   1 5125.79 680.690   2
   0  -6  -1 5760.81 672.656   1
   0   6  -1 4950.18 622.072   1
   6  -6  -1 4804.45 654.618   2
  -6   0  -2 1319.97 405.553   2
   0   6  -2 1579.16 379.326   1
   6  -6  -2 974.590 298.801   2
  -6   0   2 1048.75 341.669   2
  -6   6   2 1225.31 412.504   1
   6  -6  -2 1667.83 422.820   1
   0  -6   2 1758.87 405.858   1
   6  -6   2 1421.87 433.251   2
   0  -6  -2 1892.87 405.064   1
   0  -6  -2 1914.45 487.476   2
  -6   0   2 1373.78 291.672   1
   0   6   2 2011.62 466.919   1
  -6   6  -2 1805.90 429.309   1
   0  -6   2 1102.58 377.177   2
   6  -6   2 893.513 347.977   1
   6   0   2 1848.98 441.222   1
  -6   0  -2 1054.53 387.799   1
   6   0  -2 1571.46 360.531   1
   6  -6   3 13102.6 1112.92   2
  -6   6  -3 13164.8 1078.13   1
   0  -6   3 13978.9 1100.47   2
   0   6   3 13791.2 1108.40   1
   0  -6  -3 14420.8 1126.26   1
   6   0   3 15153.6 1133.23   1
   0   6  -3 14333.4 997.312   1
   6  -6  -3 12643.0 1040.08   2
  -6   0   3 13932.3 954.784   2
   6  -6  -3 13309.2 1074.02   1
   6   0  -3 12779.7 965.727   1
   0  -6   3 14027.2 967.668   1
  -6   0   3 15710.2 1033.56   1
  -6   0  -3 13525.7 1102.35   1
   6  -6   3 14917.0 1132.50   1
   0  -6  -3 13239.1 1088.66   2
  -6   6   3 13417.1 1054.96   1
   6  -6  -4 332864. 7403.95   1
   0  -6   4 372333. 6935.75   1
   6   0   4 370549. 7615.26   1
   0   6  -4 363413. 6939.40   1
   0  -6  -4 351118. 7516.13   1
   0  -6  -4 353415. 7547.47   2
   0   6   4 353153. 7527.77   1
   6  -6   4 319900. 7259.11   1
  -6   6  -4 342008. 7392.71   1
  -6   0  -4 353977. 7503.36   1
   6  -6  -4 356355. 7205.29   2
  -6   0   4 356444. 6721.92   2
  -6   6   4 360904. 7422.35   1
   0  -6   4 343494. 7339.69   2
   0  -6  -5 2791.31 586.393   1
   0  -6  -5 2750.61 548.898   2
   0  -6   5 2554.41 413.443   1
   0   6   5 2294.89 519.110   1
  -6   6   5 3510.55 607.131   1
   6   0  -5 2052.88 393.682   1
   6  -6  -5 3236.72 537.933   2
  -6   6  -5 2846.29 478.610   1
   6  -6   5 2823.85 514.859   1
  -6   0  -5 3078.66 575.625   1
   0   6  -5 2943.99 420.674   1
   6  -6  -5 2741.64 524.130   1
  -6   0   5 2684.50 446.251   1
   0  -6   5 3051.65 552.619   2
   6   0   5 2898.28 566.017   1
  -6   6  -6 8853.76 903.283   1
  -6   0  -6 8309.80 924.938   1
   0  -6   6 9057.35 893.304   2
   6  -6   6 8392.14 828.415   1
   0   6   6 8801.62 950.755   1
   6   0  -6 7568.61 705.469   1
  -6   0   6 10639.3 817.929   1
   6  -6  -6 9049.68 842.096   2
   6   0   6 8843.14 944.382   1
   0  -6  -6 8606.79 948.976   2
   0  -6  -6 8994.43 948.097   1
  -6   6   6 9803.88 942.387   1
   6   0   7 4892.47 727.894   1
   6  -6   7 5442.43 711.013   1
   6  -6  -7 6701.75 709.041   2
   6  -6  -7 6408.02 790.385   1
   0  -6   7 5685.98 700.736   2
  -6   6   7 6133.25 773.306   1
   0  -6  -7 5570.19 753.365   1
  -6   0  -7 4450.04 697.324   1
   0   6   7 5132.83 764.427   1
  -6   6  -7 5532.70 718.479   1
   0  -6  -7 5045.72 731.294   2
   6  -6  -8 595127. 11538.2   1
  -6   6   8 615342. 11629.6   1
  -6   0  -8 598973. 11673.5   1
   6   0   9 3882.12 715.296   1
   6  -6  -9 3419.93 565.201   1
   0  -6  -9 3849.52 703.570   2
  -6   6   9 2928.32 566.151   1
   0  -6  -9 3882.00 736.884   1
   0   6   9 3830.06 667.222   1
  -6   0  -9 3533.40 672.150   1
   6  -6   9 4221.20 649.244   1
   0  -6   9 3234.05 625.269   2
  -6   6  -9 3527.74 651.848   1
  -6   6  10 1592.95 434.947   1
   0  -6  10 2415.40 499.778   2
   0  -6 -10 1371.64 507.031   1
   6   0  10 829.125 352.463   1
  -6   0 -10 2610.08 643.418   1
  -6   6 -10 1268.88 413.352   1
   6  -6  10 1820.88 468.347   1
   0   6  10 1945.19 550.785   1
   6  -6 -10 1687.51 501.038   1
   0  -6 -10 1216.82 366.495   2
   0  -6 -11 1303.84 437.327   1
   6  -6 -11 966.267 432.831   1
  -6   6 -11 1183.77 428.683   1
  -6   6  11 2036.64 523.733   1
   6  -6  11 1531.53 445.577   1
   6   0  11 1327.62 464.032   1
  -6   0 -11 1560.16 532.786   1
   0  -6 -11 1702.76 434.812   2
   0   6  11 1925.17 548.024   1
  -6   6  12 546381. 11291.8   1
  -6   0 -12 564178. 11509.7   2
   0  -6 -12 560856. 11522.2   2
   6  -6 -12 598152. 11514.0   1
   0  -6 -12 546571. 11377.3   1
   0   6  12 585569. 11495.4   1
  -6   0 -12 550599. 11396.8   1
  -6   6 -12 565237. 11292.6   1
   6   0  12 535779. 11252.4   1
   0  -6 -13 121.947 352.916   2
  -6   0 -13 338.900 414.862   2
   0   6  13 488.471 430.361   1
  -6   6  13 1154.02 463.189   1
   0  -6 -13 666.713 423.013   1
  -6   0 -13 200.478 383.445   1
   6   0  13 386.880 347.902   1
   6  -6 -13 103.334 295.119   1
  -6   0 -14 247.750 353.067   2
   0  -6 -14 1363.43 577.705   2
   6  -6 -14 282.446 295.856   1
   0  -6 -14 825.013 415.076   1
   6   0  14 218.828 346.998   1
   0   6  14 29.6666 359.146   1
  -6   0 -14 713.838 328.486   1
   0  -6 -15 688.196 440.081   1
  -6   0 -15 468.140 405.663   2
   0  -6 -15 565.564 460.460   2
  -6   0 -15 354.685 419.264   1
   0   6  15-31.5476 337.182   1
   6   0  15 102.105 388.751   1
  -6   0 -16 196696. 5854.64   2
   0  -6 -16 179080. 5517.29   1
   6   0  16 192153. 5681.98   1
   0   6  16 191174. 5636.60   1
  -6   0 -16 188151. 5677.50   1
  -6   0 -17 838.290 476.988   2
   6   0  17 1557.79 521.864   1
   0  -6 -17 1714.99 547.025   1
   0   6  17 1260.31 524.356   1
  -6   0 -17 864.181 457.321   1
  -6   0 -18 154.146 407.944   2
   0  -6 -18 990.471 456.710   1
  -6   0 -18 549.003 410.959   1
   6   0  18 504.692 536.980   1
   0   6  18 500.124 360.785   1
  -3  -4 -18 163154. 5253.07   1
  -4  -3 -18 163401. 5298.81   1
   4   3  18 169091. 5341.42   1
  -3  -4 -18 158653. 5457.13   2
  -4  -3 -18 159641. 5379.18   2
  -3  -4 -17 72519.6 3438.52   2
  -4  -3 -17 79835.6 3530.02   2
  -3  -4 -17 76289.4 3356.70   1
  -4  -3 -17 74661.2 3364.99   1
   3   4  17 71068.5 3234.56   1
   4   3  17 70605.7 3232.06   1
  -4  -3 -16 87343.0 3615.66   1
  -3  -4 -16 89415.8 3739.51   2
  -3  -4 -16 86426.3 3592.88   1
  -4  -3 -16 80537.9 3534.59   2
   4   3  16 82519.7 3496.24   1
   3   4  16 90607.8 3573.96   1
   3   4  15 4557.04 816.508   1
   4   3  15 6114.74 909.122   1
  -3  -4 -15 6442.17 952.740   1
  -4  -3 -15 4919.97 837.825   1
  -3  -4 -15 5356.99 913.864   2
  -4  -3 -15 5765.74 910.413   2
  -4  -3 -14 185006. 5548.77   2
  -3  -4 -14 196887. 5757.62   2
   4   3  14 199746. 5633.64   1
  -3  -4 -14 202141. 5673.25   1
   3   4  14 197801. 5632.65   1
  -3  -4 -13 7159.59 1005.70   1
  -3  -4 -13 5917.70 898.772   2
  -4  -3 -13 6241.49 899.899   2
   3   4  13 5713.92 862.415   1
  -4  -3 -13 5969.27 876.312   1
   4   3  13 7525.92 998.298   1
  -3  -4 -12 10533.3 1209.96   2
  -4  -3 -12 9966.90 1082.31   2
  -4  -3 -12 9726.65 1117.77   1
  -3  -4 -12 9589.08 1097.16   1
   3   4  12 10159.0 1133.32   1
   4   3  12 9667.07 1045.23   1
  -3  -4 -11 132195. 4215.63   2
  -4  -3 -11 121975. 4155.55   1
  -3  -4 -11 125588. 4181.89   1
  -4  -3 -11 139450. 4351.31   2
   4   3  11 132282. 4141.46   1
   3   4  11 113901. 4019.52   1
   4   3  10 66638.5 2826.50   1
  -7   4  10 73189.3 2750.52   1
  -4  -3 -10 71872.2 3007.17   1
   3   4  10 68205.0 2899.19   1
   3  -7  10 73723.0 3055.32   2
  -4  -3 -10 71483.8 2946.75   2
  -3  -4 -10 78306.3 3086.79   2
   7  -4 -10 77258.6 2868.72   1
  -3  -4 -10 68682.7 2917.76   1
  -4  -3  -9 250488. 6165.86   2
   7  -3  -9 240850. 5693.74   1
   4  -7   9 236423. 6057.60   2
  -7   3   9 227717. 5575.86   1
   3  -7   9 239166. 6050.52   2
  -3  -4  -9 252365. 6224.29   1
  -4  -3  -9 250967. 6158.99   1
  -7   4   9 234701. 5712.44   1
   4   3   9 259624. 6176.05   1
   3   4   9 253016. 6150.60   1
  -3  -4  -9 244632. 6169.87   2
   7  -4  -9 242744. 5872.38   1
   3   4   8 2408.39 575.458   1
  -3  -4  -8 4465.37 745.198   2
   4  -7   8 2630.46 588.794   2
  -4   7  -8 2967.95 491.506   1
  -7   3   8 2674.96 521.858   1
   4   3   8 3162.47 659.218   1
   4  -7   8 3275.03 546.294   1
  -4  -3  -8 2277.23 575.505   2
  -3  -4  -8 3053.33 646.550   1
   3  -7   8 2644.48 556.115   2
  -4  -3  -8 3298.17 649.508   1
   7  -3  -8 3291.40 505.109   1
  -7   4   8 2950.19 512.512   1
   7  -4  -8 3219.89 562.891   1
  -3  -4  -7 241044. 5865.53   2
   3  -7   7 214188. 5560.85   2
  -3   7  -7 243742. 5368.64   1
  -7   4   7 226139. 5459.21   1
   7  -4  -7 228435. 5553.88   1
   7  -3  -7 240918. 5539.02   1
   4  -7   7 243586. 5457.51   1
   3   4   7 239749. 5848.70   1
  -3  -4  -7 235963. 5833.27   1
  -4  -3  -7 233131. 5837.26   1
  -7   3   7 209138. 5305.07   1
   3  -7   7 241745. 5316.11   1
   4   3   7 217235. 5694.99   1
  -4  -3  -7 231223. 5782.21   2
  -4   7  -7 250393. 5563.04   1
   4  -7   7 231278. 5774.12   2
  -4  -3  -5 155866. 4370.59   1
   4   3   5 163934. 4477.66   1
  -3  -4  -5 159689. 4438.51   1
   7  -3  -5 156309. 4203.42   1
  -4  -3  -5 160767. 4411.80   2
  -3  -4  -5 165841. 4470.36   2
   3  -7   5 174455. 4201.05   1
   7  -4  -5 149672. 4189.06   1
   4  -7   5 163438. 4425.60   2
   4  -7   5 158853. 4153.05   1
   3  -7   5 158494. 4363.29   2
   3   4   5 154275. 4384.85   1
  -3   7  -5 163918. 4158.46   1
  -4   7  -5 154361. 4205.37   1
  -7   3   5 170663. 4293.00   1
  -7   4   5 161354. 4245.66   1
  -3  -4  -4 402847. 8336.84   2
   3  -7   4 437162. 8110.97   1
  -3  -4  -4 403291. 8320.76   1
  -7   3   4 405150. 8059.14   1
  -4  -3  -4 376901. 8170.74   1
   3   4   4 427007. 8413.49   1
  -4  -3  -4 378405. 8125.68   2
   7  -4  -4 403316. 8159.73   1
   4  -7   4 393774. 8247.21   2
   3  -7   4 390395. 8209.73   2
   4   3   4 413635. 8348.72   1
   4  -7   3 57868.8 2268.52   1
  -3   7  -3 64472.8 2374.49   1
  -3  -4  -3 60887.7 2417.99   1
  -4   7  -3 54113.7 2216.84   1
  -4  -3  -3 60561.0 2379.30   1
   3   4   3 55673.8 2338.14   1
   7  -4  -3 57823.6 2301.50   1
  -4  -3  -3 62616.2 2432.40   2
  -3  -4  -3 56798.0 2353.24   2
   3  -7   3 63943.2 2313.34   1
   3  -7   3 60627.3 2412.94   2
  -7   4   3 73839.0 2530.74   1
   7  -3  -3 59635.5 2319.00   1
   4   3   3 59376.4 2362.55   1
   4  -7   3 59223.9 2396.01   2
  -7   3   3 53724.2 2180.71   1
  -4  -3  -2 418089. 8223.35   2
   3  -7   2 396694. 8039.70   1
  -3   7  -2 412529. 8172.76   1
  -3  -4  -2 405793. 8184.22   1
   4  -7   2 399901. 8252.38   2
  -3  -4  -2 398419. 8209.77   2
   7  -4  -2 389365. 8157.57   1
   3   4   2 425646. 8269.38   1
   4   3   2 412375. 8260.77   1
   3  -7   2 409054. 8284.85   2
  -4  -3  -2 414990. 8194.32   1
  -4   7  -1 62674.3 2372.30   1
  -3   7  -1 57394.2 2276.65   1
   3   4   1 55766.1 2248.79   1
  -3  -4  -1 60608.2 2281.47   1
  -4  -3  -1 56456.2 2238.09   1
  -7   4   1 61758.5 2367.21   1
   4  -7   1 62332.9 2324.11   1
   7  -4  -1 59306.5 2336.66   1
  -4  -3  -1 56164.5 2241.50   2
   3  -7   1 58758.1 2260.57   1
  -3  -4  -1 63508.7 2337.39   2
   3  -7   1 58293.0 2337.75   2
  -7   3   1 56768.8 2255.50   1
   7  -3  -1 61112.7 2342.91   1
   4   3   1 57275.0 2281.86   1
   4  -7   1 56737.2 2320.40   2
   7  -3   0 16458.4 1180.24   1
   7  -4   0 17580.1 1219.15   1
   3  -7   0 16106.8 1142.13   1
  -3   7   0 17534.4 1209.62   1
   4  -7   0 16531.5 1222.31   2
  -7   4   0 18732.7 1234.43   1
  -3  -4   0 18424.1 1178.21   1
  -4   7   0 17415.1 1240.66   1
  -4  -3   0 19167.4 1194.15   1
   3   4   0 16829.2 1178.75   1
  -3  -4   0 15496.2 1114.88   2
   4  -7   0 17965.3 1199.92   1
   3  -7   0 15398.5 1179.99   2
  -4  -3   0 18011.1 1215.75   2
  -7   3   0 17377.8 1207.06   1
   4   3   0 18762.7 1215.66   1
  -7   4  -1 101351. 3200.56   1
  -4   7   1 99824.2 3243.65   1
   7  -4   1 103291. 3220.48   1
   4  -7  -1 107061. 3272.49   1
   3  -7  -1 101430. 3193.21   1
  -3   7   1 100695. 3194.54   1
   4  -7  -1 99659.4 3231.55   2
  -3  -4   1 106178. 3094.06   1
   3  -7  -1 101559. 3231.09   2
  -4  -3   1 109401. 3182.62   2
   7  -3   1 108246. 3241.93   1
  -4  -3   1 106510. 3075.08   1
   3   4  -1 105853. 3094.31   1
  -3  -4   1 107318. 3189.40   2
  -7   3  -1 100349. 3229.80   1
   4   3  -1 106372. 3125.42   1
   4  -7  -2 176064. 4569.75   1
   7  -4   2 175209. 4576.13   1
  -4   7   2 171193. 4541.85   1
   3  -7  -2 181261. 4583.10   1
   4   3  -2 161012. 4208.21   1
  -3  -4   2 192087. 4344.20   1
   4  -7  -2 178919. 4588.82   2
  -4  -3   2 189375. 4311.57   1
   7  -3   2 175569. 4542.73   1
   3   4  -2 181379. 4304.57   1
  -7   4  -2 163939. 4504.86   1
   3  -7  -2 183885. 4671.02   2
  -3   7   2 158562. 4440.56   1
  -7   3  -2 191016. 4706.89   1
  -3  -4   2 179929. 4444.80   2
  -4  -3   2 176571. 4360.00   2
  -3  -4   3 272215. 5528.56   1
  -4  -3   3 256337. 5664.99   2
  -3   7   3 257169. 5956.27   1
  -7   3  -3 276376. 6070.38   1
   4   3  -3 271692. 5628.37   1
  -4   7   3 268975. 6026.09   1
  -4  -3   3 263260. 5505.70   1
   3  -7  -3 255022. 5969.54   1
   7  -3   3 254079. 5933.88   1
  -3  -4   3 257987. 5743.48   2
  -7   4  -3 257315. 6004.80   1
   4  -7  -3 251720. 5917.84   2
   4  -7  -3 249910. 5939.59   1
   7  -4   3 263706. 5988.60   1
   3  -7  -3 254445. 5960.51   2
   4  -7  -4 9286.58 923.760   1
  -4   7   4 10579.4 978.755   1
  -3   7   4 10365.4 949.510   1
  -7   3  -4 9695.78 964.823   1
   4   3  -4 10992.5 829.557   1
   7  -3   4 9963.74 967.801   1
  -3  -4   4 9275.29 742.931   1
  -4  -3   4 9663.02 756.431   1
  -4  -3   4 10041.6 833.822   2
   4  -7  -4 9847.34 953.230   2
   3  -7  -4 11473.6 1035.17   1
   3   4  -4 11358.8 813.903   1
   7  -4   4 9300.95 895.019   1
   3  -7  -4 9979.56 983.803   2
  -7   4  -4 9193.85 948.941   1
  -3  -4   4 12531.4 967.022   2
   4  -7  -5 505169. 9763.08   2
   4  -7  -5 482798. 9734.70   1
  -4   7   7 190007. 4972.45   1
   4  -7  -7 195476. 5040.91   1
   3  -7  -7 186890. 5021.18   1
  -3   7   7 182134. 4938.00   1
   7  -4   7 182251. 4845.80   1
  -7   3  -7 183773. 4979.31   1
  -7   4  -7 185577. 4995.52   1
   7  -3   7 187509. 4926.25   1
  -3  -4   7 179932. 4495.60   2
   4  -7  -7 193141. 4944.63   2
   3  -7  -7 187384. 4933.17   2
   4  -7  -8 269001. 6443.62   1
   3  -7  -8 278590. 6483.48   1
  -4   7   8 260532. 6341.41   1
  -3   7   8 275108. 6483.30   1
   3  -7  -8 265315. 6325.61   2
   7  -3   8 273951. 6389.67   1
   7  -4   8 263918. 6302.06   1
  -7   3  -8 257192. 6350.73   1
  -7   4  -8 263424. 6358.50   1
   4  -7  -8 274939. 6343.72   2
   3  -7  -9 2835.35 587.223   1
   4  -7  -9 2585.32 603.158   1
  -4   7   9 2679.24 613.142   1
   3  -7  -9 2709.77 588.169   2
  -7   4  -9 2232.01 545.742   1
   7  -4   9 2003.87 449.220   1
  -3   7   9 1548.53 455.777   1
   7  -3   9 1432.46 434.624   1
  -7   3  -9 1954.89 516.222   1
   4  -7  -9 2000.14 418.289   2
   4  -7 -10 303624. 7264.00   1
   3  -7 -10 314437. 7336.79   1
  -4   7  10 321980. 7312.76   1
   7  -3  10 296619. 7086.19   1
  -3   7  10 345448. 7490.04   1
   7  -4  10 308583. 7146.76   1
   4  -7 -10 311391. 7140.94   2
  -7   3 -10 296834. 7189.42   1
  -7   4 -10 294861. 7160.15   1
   3  -7 -10 326409. 7349.11   2
   4  -7 -11 23168.7 1639.39   1
   3  -7 -11 22408.0 1634.78   1
  -4   7  11 22852.2 1629.36   1
  -3   7  11 25016.9 1656.09   1
   7  -4  11 24236.4 1618.14   1
   4  -7 -11 26444.7 1670.34   2
  -7   3 -11 22933.5 1648.84   1
  -7   4 -11 23724.0 1637.59   1
   7  -3  11 25476.7 1661.76   1
   3  -7 -11 25477.8 1699.67   2
   4  -7 -12 15639.5 1365.36   1
   7  -3  12 11828.0 1193.23   1
   3  -7 -12 11327.6 1168.63   1
  -4   7  12 12887.8 1203.89   1
   7  -4  12 14127.0 1256.34   1
  -3   7  12 13313.0 1234.93   1
  -7   3 -12 13662.0 1284.30   1
  -7   4 -12 13037.3 1228.50   1
   3  -7 -12 12326.5 1219.96   2
   7  -3  13 142084. 4496.64   1
   4  -7 -13 141174. 4521.81   1
  -7   3 -13 131925. 4416.73   1
  -7   4 -13 137968. 4513.38   1
  -3   7  13 145956. 4595.73   1
  -4   7  13 140055. 4460.21   1
   7  -4  13 143787. 4547.88   1
   3  -7 -13 132008. 4435.45   1
   4  -7 -14 45507.0 2463.65   1
   3  -7 -14 49320.0 2547.05   1
  -4   7  14 47660.2 2495.85   1
  -3   7  14 43421.8 2405.03   1
  -7   4 -14 45061.1 2475.29   1
   7  -4  14 45630.1 2451.13   1
   7  -3  14 48798.8 2524.87   1
  -7   3 -14 48028.0 2513.45   1
   3  -7 -15 88878.1 3586.82   1
   7  -3  15 92444.1 3647.90   1
   7  -4  15 88808.7 3582.03   1
   4  -7 -15 85985.1 3563.06   1
  -4   7  15 76116.4 3348.02   1
  -7   3 -15 85926.9 3549.59   1
  -7   4 -15 94901.5 3699.22   1
  -3   7  15 84184.7 3470.39   1
   4  -7 -16 1010.25 482.721   1
   3  -7 -16 934.176 413.954   1
  -4   7  16 1057.79 522.784   1
  -3   7  16 567.327 362.473   1
  -7   3 -16 758.454 410.447   1
   4  -7 -17 45938.6 2578.57   1
   3  -7 -17 43714.1 2582.93   1
  -3   7  17 41635.8 2431.71   1
   2   5  18-583.515 452.064   1
   5   2  18 68.6656 336.122   1
  -2  -5 -18-205.145 353.530   1
  -5  -2 -18 137.360 347.033   1
  -5  -2 -18 102.932 404.645   2
  -2  -5 -17 5293.02 942.891   2
  -2  -5 -17 5733.64 954.032   1
   5   2  17 5808.24 930.792   1
  -5  -2 -17 5738.66 930.574   1
  -5  -2 -17 5661.87 910.644   2
   2   5  17 4850.45 846.652   1
  -2  -5 -16 310430. 7704.06   1
  -5  -2 -16 306365. 7688.01   1
  -5  -2 -16 332770. 7981.48   2
   5   2  16 291009. 7536.59   1
   2   5  16 279255. 7352.20   1
  -2  -5 -16 280391. 7622.80   2
   2   5  15 2221.59 595.284   1
   5   2  15 2551.27 625.756   1
  -2  -5 -15 3631.49 777.381   2
  -5  -2 -15 3429.00 719.855   2
  -2  -5 -15 2760.73 672.257   1
  -5  -2 -15 1913.92 542.918   1
   5   2  14 3205.76 683.973   1
  -2  -5 -14 3150.35 724.118   2
  -5  -2 -14 3151.94 664.836   2
  -2  -5 -14 2999.18 670.264   1
  -5  -2 -14 4420.13 804.953   1
   2   5  14 2596.13 616.250   1
   2   5  13 288.211 331.569   1
  -2  -5 -13 516.405 431.934   2
  -2  -5 -13 899.520 532.377   1
  -5  -2 -13 955.775 459.063   2
  -5  -2 -13 754.720 429.958   1
   5   2  13 757.688 335.160   1
  -2  -5 -12 172172. 5138.12   2
  -5  -2 -12 178947. 5188.09   2
  -2  -5 -12 167689. 5075.85   1
   7  -5 -12 186938. 5166.40   1
  -5  -2 -12 163099. 5030.13   1
   2   5  12 165529. 5003.38   1
   5   2  12 174291. 5087.06   1
  -5  -2 -11 753.453 363.181   2
   2   5  11 1581.30 575.676   1
   7  -5 -11 1099.01 471.598   1
   2  -7  11 1265.64 525.291   2
   5   2  11 1155.58 504.182   1
  -2  -5 -11 1415.59 567.583   1
  -7   5  11 1296.05 428.662   1
  -5  -2 -11 655.634 406.253   1
  -2  -5 -11 646.361 349.080   2
  -7   5  10 25317.1 1599.09   1
   7  -5 -10 23228.8 1574.86   1
  -2  -5 -10 22872.1 1611.07   1
  -5  -2 -10 22972.9 1607.59   2
   2   5  10 25597.4 1689.28   1
   2  -7  10 23643.2 1636.84   2
  -2  -5 -10 22106.5 1595.82   2
   5   2  10 21418.9 1582.72   1
  -5  -2 -10 23372.6 1612.32   1
   5  -7   9 8061.17 833.545   1
  -5  -2  -9 6539.93 890.238   1
  -5  -2  -9 6582.46 853.352   2
  -5   7  -9 9824.09 968.269   1
   7  -5  -9 7784.16 877.345   1
   5   2   9 7156.99 912.645   1
  -2  -5  -9 7386.46 916.153   1
   2  -7   9 7156.59 850.928   2
  -2  -5  -9 7258.10 924.395   2
   2   5   9 6072.90 825.100   1
  -7   5   9 9063.55 938.717   1
  -2  -5  -7 2290.42 502.986   2
   2   5   7 1941.76 462.627   1
  -5   7  -7 1700.63 445.110   1
  -5  -2  -7 2077.94 573.848   2
  -7   2   7 1524.14 374.890   1
   5  -7   7 2126.78 545.437   2
  -7   5   7 3083.21 570.612   1
  -2  -5  -7 2262.79 563.884   1
   5   2   7 1104.62 374.540   1
   5  -7   7 1804.88 437.486   1
   7  -2  -7 2273.71 480.262   1
  -5  -2  -7 2018.82 517.008   1
   7  -5  -7 1479.58 407.819   1
   2  -7   7 2106.36 534.966   2
   2  -7   6 14687.0 1034.45   1
   7  -5  -6 14422.0 1176.00   1
  -5  -2  -6 15173.3 1259.80   1
  -7   2   6 17097.5 1159.91   1
  -2  -5  -6 18498.3 1320.73   1
   2  -7   6 16931.2 1252.68   2
   5  -7   6 13404.8 1076.84   1
   2   5   6 14812.4 1221.72   1
  -2  -5  -6 15714.4 1276.15   2
  -5  -2  -6 15751.4 1270.61   2
  -5   7  -6 14998.3 1126.38   1
   7  -2  -6 16352.0 1131.50   1
   5  -7   6 17652.7 1327.43   2
  -2   7  -6 14460.9 993.242   1
   5   2   6 13874.2 1193.57   1
  -7   5   6 15589.1 1189.96   1
  -5  -2  -5 26240.3 1577.69   2
  -2  -5  -5 27517.6 1624.02   1
  -5   7  -5 26198.9 1527.79   1
   5   2   5 28523.1 1672.13   1
  -5  -2  -5 26038.7 1607.79   1
   5  -7   5 24535.7 1599.66   2
   2   5   5 29427.9 1668.20   1
   7  -5  -5 26017.2 1556.64   1
   5  -7   5 25846.7 1496.48   1
  -2  -5  -5 27223.7 1611.09   2
  -2   7  -5 29948.0 1495.04   1
  -7   5   5 26763.8 1545.81   1
   2  -7   5 26524.7 1561.99   2
  -7   2   5 25083.5 1422.59   1
   7  -2  -5 26239.7 1448.91   1
  -2  -5  -4 796411. 14349.2   1
  -7   2   3 2072.93 450.816   1
  -2   7  -3 2607.68 489.757   1
   5  -7   3 2266.27 448.992   1
   2   5   3 1348.27 407.044   1
   7  -2  -3 2013.52 460.418   1
  -5   7  -3 2719.79 528.820   1
   2  -7   3 1817.09 416.168   1
  -2  -5  -3 1715.81 492.835   1
  -2  -5  -3 1880.12 502.795   2
  -5  -2  -3 2546.60 537.811   2
   5   2   3 1884.88 449.265   1
  -5  -2  -3 1904.97 469.819   1
   5  -7   3 1849.49 464.971   2
   2  -7   3 2032.03 509.268   2
  -7   5   3 2805.17 532.072   1
   7  -5  -3 2326.73 494.060   1
   7  -5  -2 1138.27 371.661   1
   2   5   2 478.514 249.715   1
  -5  -2  -2 1303.48 371.825   2
  -5   7  -2 1448.22 447.858   1
  -7   2   2 999.360 352.568   1
  -2   7  -2 738.262 260.593   1
  -2  -5  -2 726.247 337.490   1
   5   2   2 1081.71 426.241   1
   2  -7   2 1166.58 347.638   1
  -2  -5  -2 1612.53 455.067   2
  -5  -2  -2 762.926 396.693   1
   5  -7   2 730.609 294.347   1
   2  -7   2 1075.44 401.778   2
   5  -7   2 1043.81 400.250   2
   7  -2  -2 1119.85 351.263   1
  -7   5   2 623.575 338.710   1
   7  -2  -1 265.575 278.928   1
   2   5   1 102.267 243.905   1
   5  -7   1 433.562 298.169   1
  -5   7  -1 674.399 405.507   1
   2  -7   1 88.0253 237.746   1
   7  -5  -1 434.460 314.023   1
  -7   5   1 465.401 310.589   1
  -2  -5  -1 610.787 337.801   1
  -2   7  -1 273.109 250.365   1
   5   2   1 174.330 251.696   1
  -5  -2  -1 132.914 286.007   1
   5  -7   1 249.408 309.473   2
  -2  -5  -1 935.598 409.202   2
  -5  -2  -1 266.703 338.317   2
   2  -7   1 374.513 306.200   2
  -7   2   1-20.0156 261.341   1
   7  -2   1 1767.66 451.769   1
   2   5  -1 2520.11 467.933   1
  -5  -2   1 1318.51 340.753   2
   2  -7  -1 2456.83 526.870   1
  -5   7   1 1380.63 374.261   1
   2  -7  -1 1629.34 482.285   2
  -2  -5   1 1050.66 314.734   1
  -2  -5   1 1706.31 418.498   2
  -2   7   1 1193.50 368.490   1
   7  -5   1 1649.82 453.307   1
   5   2  -1 1395.43 356.126   1
  -5  -2   1 1918.98 418.646   1
   5  -7  -1 857.299 362.034   1
  -7   2  -1 1804.77 441.526   1
   5  -7  -1 1822.84 481.849   2
  -7   5  -1 1218.78 372.562   1
  -7   5  -2 948.298 333.417   1
  -2  -5   2 1447.70 450.634   2
   5  -7  -2 1831.34 466.419   1
   2  -7  -2 1148.18 434.114   1
   7  -5   2 1211.31 393.547   1
  -2  -5   2 1478.62 360.564   1
  -5   7   2 1089.14 421.261   1
  -2   7   2 1089.62 354.933   1
   7  -2   2 1159.90 339.175   1
   5   2  -2 916.185 336.791   1
  -5  -2   2 922.408 297.706   1
   2  -7  -2 1036.11 421.175   2
  -5  -2   2 1211.45 355.356   2
   2   5  -2 908.836 283.137   1
   5  -7  -2 1285.93 412.334   2
  -7   2  -2 1114.44 417.021   1
   2  -7  -3 6305.36 746.556   2
  -2  -5   3 6350.88 757.780   2
   5   2  -3 5348.72 643.709   1
  -2  -5   3 5559.32 606.815   1
  -2   7   3 5801.49 748.760   1
   2  -7  -3 6194.02 753.402   1
  -5   7   3 7336.85 814.092   1
   2   5  -3 6576.91 668.222   1
   5  -7  -3 7350.98 802.000   1
   7  -2   3 6208.35 775.984   1
   7  -5   3 5859.32 748.512   1
   5  -7  -3 7118.29 778.582   2
  -7   2  -3 6406.33 781.554   1
  -7   5  -3 7267.50 821.522   1
  -5  -2   3 6018.41 645.392   1
  -5  -2   3 5813.42 672.268   2
   5  -7  -4 570613. 10877.0   2
   2  -7  -4 577660. 11040.1   1
   2  -7  -4 586129. 11043.7   2
  -7   5  -5 9459.25 968.020   1
   5  -7  -5 9512.82 961.376   1
  -5  -2   5 8054.70 768.550   2
   7  -2   5 11199.0 1001.18   1
   2  -7  -5 9595.12 928.426   1
  -2  -5   5 11837.1 978.595   2
  -7   2  -5 11670.7 1063.86   1
  -5   7   5 8892.17 934.713   1
   2  -7  -5 11258.8 1021.82   2
   5  -7  -5 8101.29 847.659   2
  -2   7   5 10504.4 1032.94   1
   7  -5   5 10010.6 938.198   1
   5   2  -5 11957.8 881.309   1
   2  -7  -6 2228.16 539.853   2
   7  -5   6 1434.93 380.557   1
   5  -7  -6 1427.61 448.096   1
   2  -7  -6 2418.27 515.148   1
  -5   7   6 1816.70 521.365   1
   7  -2   6 2204.86 521.353   1
  -2  -5   6 1442.02 368.363   2
  -2   7   6 1457.63 453.254   1
  -7   5  -6 1887.57 536.093   1
  -7   2  -6 1673.13 425.756   1
   5  -7  -6 1932.46 455.052   2
   5  -7  -7 20315.3 1396.07   1
  -5   7   7 19310.3 1402.72   1
   5  -7  -7 17600.2 1311.68   2
  -2   7   7 23205.1 1476.04   1
   2  -7  -7 20717.9 1416.27   1
   7  -2   7 21038.5 1431.45   1
   7  -5   7 22402.7 1435.02   1
  -7   2  -7 23853.0 1533.24   1
  -2  -5   7 21047.5 1370.42   2
   2  -7  -7 21226.4 1454.08   2
  -7   5  -7 19673.9 1378.72   1
   5  -7  -8 999999. 17685.7   1
  -2   7   9 5842.21 834.800   1
   7  -2   9 5267.62 800.089   1
  -7   5  -9 5021.15 732.930   1
   5  -7  -9 5127.07 781.678   1
   2  -7  -9 5846.57 831.391   2
   2  -7  -9 4113.60 691.477   1
  -5   7   9 5418.97 768.743   1
   7  -5   9 6960.00 844.229   1
  -7   2  -9 5239.46 774.924   1
   5  -7  -9 7686.38 859.234   2
   2  -7 -10 10517.9 1111.63   2
   5  -7 -10 9898.56 1035.14   1
  -5   7  10 10820.6 1076.22   1
   7  -2  10 10526.4 1095.98   1
   2  -7 -10 9967.58 1083.46   1
  -2   7  10 10264.9 1085.90   1
   7  -5  10 10003.7 1039.48   1
  -7   2 -10 10880.8 1079.88   1
  -7   5 -10 9979.30 1061.59   1
   5  -7 -11 2253.58 576.902   1
   7  -5  11 2119.53 526.956   1
   2  -7 -11 1286.47 487.573   1
   7  -2  11 1548.54 514.964   1
   2  -7 -11 2007.89 553.788   2
  -7   2 -11 1573.84 504.485   1
  -5   7  11 1588.95 521.539   1
  -2   7  11 1738.90 501.484   1
  -7   5 -11 1427.09 448.733   1
   7  -2  12 182047. 5276.53   1
   5  -7 -12 173897. 5181.38   1
   2  -7 -12 190697. 5391.97   1
  -2   7  12 181126. 5259.70   1
   7  -5  12 205421. 5420.15   1
  -5   7  12 170070. 5115.98   1
  -7   2 -12 186036. 5382.74   1
  -7   5 -12 175967. 5205.53   1
   2  -7 -12 198607. 5525.49   2
   2  -7 -13 236.260 327.502   2
  -7   2 -13 750.656 434.798   1
   7  -2  13 655.993 410.318   1
   7  -5  13 784.306 474.529   1
   5  -7 -13 52.9751 363.445   1
   2  -7 -13 68.8437 297.750   1
  -5   7  13 677.193 440.792   1
  -2   7  13 807.621 338.053   1
  -7   5 -13 833.424 494.947   1
   5  -7 -14 1015.37 481.633   1
   2  -7 -14 63.4802 319.116   1
  -5   7  14 1393.07 510.606   1
   7  -2  14 579.191 299.975   1
  -2   7  14 897.052 436.507   1
  -7   2 -14 408.386 358.982   1
  -7   5 -14 483.832 357.749   1
   5  -7 -15 3793.91 720.309   1
   2  -7 -15 1885.79 480.296   1
  -5   7  15 2863.13 697.196   1
   7  -2  15 2397.86 608.254   1
  -7   2 -15 2516.89 680.348   1
  -2   7  15 2538.36 613.824   1
   5  -7 -16 269141. 7125.28   1
  -2   7  16 271817. 6963.16   1
  -7   2 -16 250446. 6903.31   1
   2  -7 -16 259612. 6898.35   1
   2  -7 -17 444.794 361.804   1
   7  -2  17 1095.96 468.980   1
  -7   2 -17 1308.17 477.993   1
  -2   7  17 1635.66 549.761   1
   2  -7 -18 2415.75 682.770   1
  -6  -1 -17 104807. 4118.36   2
  -1  -6 -17 108054. 4060.09   1
  -6  -1 -17 94734.1 3905.69   1
   1   6  17 95950.7 3825.51   1
   6   1  17 92231.2 3840.20   1
   6   1  16 989.877 460.126   1
  -1  -6 -16 1072.10 416.404   1
  -6  -1 -16 2132.57 625.281   2
  -6  -1 -16 1549.93 617.878   1
   1   6  16 732.142 381.819   1
  -1  -6 -16 1839.78 597.807   2
  -6  -1 -15 84963.3 3573.71   2
  -1  -6 -15 80859.0 3373.19   1
  -6  -1 -15 76755.8 3355.08   1
   1   6  15 84645.1 3451.34   1
  -1  -6 -15 74298.4 3411.10   2
   6   1  15 79776.8 3383.05   1
   1   6  14 110112. 4010.33   1
  -1  -6 -14 112984. 4143.61   1
  -6  -1 -14 121491. 4273.86   1
   6   1  14 121549. 4194.17   1
  -1  -6 -14 117251. 4283.46   2
  -6  -1 -13 22474.4 1708.72   2
  -1  -6 -13 22710.2 1680.15   1
  -6  -1 -13 22538.0 1705.66   1
   6   1  13 20375.6 1628.07   1
   7  -6 -13 25989.0 1759.58   1
  -1  -6 -13 22465.2 1720.79   2
   1   6  13 22304.9 1674.65   1
  -7   6  12 27825.1 1832.95   1
  -6  -1 -12 26326.4 1824.06   2
  -1  -6 -12 22407.5 1688.36   1
  -6  -1 -12 23178.5 1709.41   1
   1   6  12 28754.8 1831.13   1
  -1  -6 -12 26537.7 1853.98   2
   7  -6 -12 23703.9 1691.81   1
   6   1  12 26335.7 1759.81   1
  -7   6  11 22281.8 1553.21   1
  -6  -1 -11 21886.0 1679.90   2
  -1  -6 -11 22579.2 1618.95   1
  -1  -6 -11 20924.2 1602.73   2
  -6  -1 -11 19223.5 1533.74   1
   1   6  11 20773.6 1575.32   1
   1  -7  11 18831.8 1550.73   2
   7  -6 -11 22178.9 1605.99   1
   6   1  11 20765.5 1567.84   1
  -7   6  10 199004. 5371.69   1
  -6  -1 -10 194629. 5501.73   2
  -1  -6 -10 197973. 5487.72   1
  -6   7 -10 212057. 5426.66   1
   7  -6 -10 201063. 5441.58   1
   1  -7  10 199492. 5478.69   2
  -6  -1 -10 194942. 5456.36   1
   1   6  10 198317. 5461.09   1
   6  -7  10 195796. 5236.93   1
  -1  -6 -10 195007. 5452.57   2
   6   1  10 194622. 5364.09   1
  -6  -1  -9 78241.1 3076.40   2
   7  -6  -9 72381.1 2887.13   1
  -1  -6  -9 65892.3 2909.41   1
   1   6   9 66620.2 2895.96   1
  -6  -1  -9 74811.0 3089.08   1
  -1  -6  -9 73034.3 3001.25   2
  -6   7  -9 78390.9 2967.62   1
  -7   6   9 77404.0 2971.06   1
   1  -7   9 75536.9 2982.36   2
   6  -7   9 78534.8 2930.09   1
   6   1   9 69788.7 2919.19   1
  -6  -1  -8 148103. 4458.11   2
  -7   6   8 144557. 4296.72   1
   6   1   8 150793. 4448.40   1
   6  -7   8 151702. 4274.39   1
  -6   7  -8 145320. 4261.69   1
  -1  -6  -8 151325. 4494.53   1
   7  -6  -8 133984. 4251.45   1
  -6  -1  -8 150762. 4495.35   1
   1   6   8 141345. 4327.38   1
   1  -7   8 153713. 4400.09   2
  -1  -6  -8 149780. 4471.31   2
   6   1   7 136964. 4291.83   1
  -6  -1  -7 137777. 4227.80   2
  -6   7  -7 143482. 4195.74   1
   6  -7   7 153929. 4247.40   1
  -1  -6  -7 148742. 4406.22   1
  -6  -1  -7 139695. 4307.35   1
   1   6   7 144759. 4329.85   1
   7  -6  -7 147180. 4274.54   1
   7  -1  -7 142004. 3876.10   1
  -7   6   7 155836. 4352.56   1
   1  -7   7 150028. 4282.02   2
  -1  -6  -7 144015. 4310.55   2
  -1  -6  -6 661635. 12530.8   1
  -7   6   5 185533. 4857.14   1
   7  -6  -5 183160. 4650.21   2
  -1   7  -5 200971. 4594.01   1
   6   1   5 197860. 5021.57   1
   1  -7   5 170799. 4329.64   1
   1  -7   5 183373. 4845.84   2
   7  -6  -5 166937. 4689.50   1
  -1  -6  -5 187229. 4926.14   1
  -6  -1  -5 185077. 4907.15   1
   6  -7   5 178524. 4758.14   1
   1   6   5 185149. 4951.40   1
   7  -1  -5 195227. 4681.50   1
  -7   1   5 212289. 4763.62   1
  -1  -6  -5 161837. 4743.34   2
  -6   7  -5 179249. 4853.91   1
  -6  -1  -5 170596. 4763.46   2
   6  -7   5 189096. 5003.35   2
  -6  -1  -4 10921.4 1038.29   2
   6  -7   4 10600.2 970.926   1
   1  -7   4 9664.39 869.556   1
  -1   7  -4 9349.03 835.537   1
   6  -7   4 10205.4 1028.08   2
  -1  -6  -4 9817.01 998.374   1
   7  -6  -4 11887.9 1006.71   2
  -6  -1  -4 11710.0 1044.54   1
   1   6   4 10763.1 995.176   1
   7  -1  -4 10784.8 934.074   1
  -7   1   4 12091.7 973.263   1
   1  -7   4 9718.74 907.394   2
   7  -6  -4 11235.5 1039.09   1
   6   1   4 9592.59 963.516   1
  -7   6   4 11597.2 1031.14   1
  -6   7  -4 10510.6 988.261   1
  -1  -6  -4 10941.1 1035.03   2
  -6  -1  -3 392264. 8200.25   2
  -1  -6  -3 413276. 8308.58   2
   6   1   3 379306. 8142.09   1
   1  -7   3 408315. 7879.56   1
   7  -6  -3 413267. 8293.16   1
   6  -7   3 377016. 8299.02   2
  -1  -6  -3 406341. 8237.31   1
   1   6   3 387320. 8210.80   1
  -7   6   3 376686. 8131.27   1
  -6  -1  -3 381232. 8129.83   1
   1  -7   3 402441. 8250.95   2
  -6   7  -3 388654. 8191.02   1
  -6  -1  -2 182621. 4741.42   2
   7  -6  -2 171369. 4696.82   1
   6  -7   2 188919. 4806.99   1
   1  -7   2 198781. 4676.57   1
  -1   7  -2 190798. 4661.76   1
  -1  -6  -2 185546. 4803.95   1
   6   1   2 177047. 4777.80   1
   1   6   2 175599. 4786.86   1
  -6  -1  -2 179174. 4722.14   1
   7  -1  -2 199861. 4803.61   1
   6  -7   2 192611. 5006.05   2
  -6   7  -2 190057. 4893.25   1
  -7   1   2 198252. 4769.23   1
   7  -6  -2 175649. 4732.09   2
   1  -7   2 178194. 4768.90   2
  -1  -6  -2 185121. 4857.15   2
  -7   1   2 195602. 4552.67   2
  -7   6   2 191711. 4901.09   1
   1   6   1 383517. 7912.13   1
   1  -7   1 407022. 7853.15   1
   6  -7   1 373758. 7890.39   1
  -1   7  -1 391562. 7860.88   1
  -1  -6  -1 366542. 7753.46   1
  -6   7  -1 377365. 7928.31   1
  -1  -6  -1 365685. 7886.46   2
  -6  -1  -1 392098. 7820.69   2
   6  -7   1 374709. 7990.28   2
   7  -6  -1 389214. 7938.03   1
   1  -7   1 395284. 8007.52   2
  -7   6   1 395571. 7978.64   1
  -6  -1   0 39417.5 1828.56   2
   1  -7   0 41583.6 1919.42   1
   6   1   0 40737.6 1898.87   1
   7  -6   0 40081.8 1928.31   1
  -1  -6   0 42156.2 1908.35   1
  -1   7   0 39859.7 1884.00   1
  -1  -6   0 39420.8 1919.22   2
   1   6   0 43236.1 1955.94   1
   6  -7   0 37230.2 1883.58   1
  -6   7   0 39057.5 1930.13   1
   7  -1   0 41860.8 1921.66   1
  -6  -1   0 41895.5 1913.03   1
  -7   1   0 44451.3 2004.88   1
   6  -7   0 40714.7 1962.44   2
   1  -7   0 37678.4 1918.35   2
  -7   6   0 38972.8 1934.43   1
  -6   7   1 10355.2 963.858   1
   1  -7  -1 11140.0 1017.98   2
  -1   7   1 10687.4 993.153   1
   6  -7  -1 9127.54 905.005   2
   6   1  -1 10182.2 939.585   1
   1  -7  -1 12126.4 997.707   1
   6  -7  -1 10975.3 987.608   1
  -1  -6   1 10799.0 909.539   1
   1   6  -1 11332.4 971.789   1
   7  -1   1 10787.2 946.825   1
  -6  -1   1 11225.7 964.434   1
  -7   1  -1 11637.4 1010.88   1
   7  -6   1 10508.9 972.393   1
  -7   6  -1 11067.0 1021.10   1
  -1  -6   1 12021.8 1018.71   2
  -6  -1   1 12243.4 999.153   2
   1  -7  -3 1304.15 441.300   2
  -6  -1   3 1287.30 357.871   2
  -7   6  -3 643.530 270.842   1
   1   6  -3 1412.13 340.931   1
  -1  -6   3 1143.27 397.654   2
   7  -1   3 1025.32 418.417   1
  -1   7   3 1198.93 379.450   1
  -6   7   3 1436.56 407.400   1
  -1  -6   3 983.312 273.321   1
   1  -7  -3 954.708 395.497   1
   6   1  -3 2403.44 454.297   1
   6  -7  -3 1636.88 502.551   2
   7  -6   3 1183.73 382.348   1
   6  -7  -3 1046.90 338.738   1
  -7   1  -3 1310.94 447.242   1
  -6  -1   3 1007.52 310.362   1
  -6   7   4 181073. 4843.61   1
  -1  -6   4 172388. 4250.68   1
   6  -7  -4 176863. 4822.12   1
   6   1  -4 191228. 4554.89   1
   1   6  -4 186557. 4410.40   1
   1  -7  -4 173724. 4747.09   1
   7  -1   4 171927. 4729.84   1
  -1   7   4 181035. 4852.37   1
  -6  -1   4 193140. 4522.30   1
  -7   1  -4 206187. 5071.66   1
   1  -7  -4 181955. 4874.07   2
   6  -7  -4 185777. 4746.89   2
  -1  -6   4 172092. 4648.32   2
  -7   6  -4 179613. 4824.33   1
   7  -6   4 182098. 4774.52   1
  -6  -1   4 194234. 4481.22   2
  -6   7   5 216739. 5488.35   1
  -1  -6   5 217818. 5321.48   2
   1  -7  -5 209386. 5402.16   1
   6  -7  -5 211515. 5423.05   1
   7  -1   5 221034. 5439.97   1
  -1   7   5 216525. 5479.13   1
  -6  -1   5 208153. 4828.93   1
  -7   1  -5 198914. 5305.50   1
   6  -7  -5 213238. 5210.36   2
   7  -6   5 211086. 5321.41   1
  -7   6  -5 206817. 5319.15   1
   1  -7  -5 210830. 5411.00   2
   7  -6   6 412430. 8534.48   1
   6  -7  -6 411496. 8645.95   1
   1  -7  -6 418647. 8696.71   1
   7  -1   6 404623. 8589.58   1
  -1   7   6 420190. 8708.90   1
   1  -7  -6 411285. 8722.50   2
  -7   6  -6 404234. 8593.40   1
  -7   1  -6 415611. 8675.25   1
   6  -7  -6 412126. 8407.17   2
  -6   7   6 396752. 8638.09   1
  -1  -6   6 418800. 8544.13   2
  -6   7   7 357385. 7911.60   1
   6  -7  -7 357795. 7878.43   1
   7  -1   7 331502. 7761.26   1
   1  -7  -7 374156. 8030.90   1
  -1   7   7 361471. 7949.45   1
  -1  -6   7 354581. 7688.60   2
  -7   1  -7 351872. 7950.87   1
   7  -6   7 354515. 7737.86   1
  -7   6  -7 380844. 8040.60   1
   1  -7  -7 373986. 8037.81   2
   6  -7  -7 364558. 7674.51   2
   1  -7  -8 897.830 412.819   2
  -7   1  -8 430.422 304.776   1
   7  -6   8 656.548 309.691   1
   6  -7  -8 1983.62 524.229   1
  -1   7   8 923.176 430.331   1
  -6   7   8 937.797 413.523   1
   1  -7  -8 1072.23 499.834   1
   6  -7  -8 794.316 342.878   2
  -1  -6   8 611.886 380.643   2
   7  -1   8 441.194 347.974   1
  -7   6  -8 929.688 361.817   1
  -7   6  -9 156661. 4556.63   1
  -6   7   9 153318. 4614.95   1
   7  -1   9 157592. 4659.21   1
   1  -7  -9 140182. 4455.02   1
  -1   7   9 153113. 4558.56   1
  -7   1  -9 149782. 4581.84   1
   6  -7  -9 153859. 4568.53   1
   7  -6   9 161084. 4564.63   1
   1  -7  -9 160811. 4711.48   2
  -1  -6   9 158469. 4445.96   2
  -6   7  10 226856. 6150.99   1
   1  -7 -10 251094. 6305.27   1
  -1   7  10 233976. 6141.84   1
  -7   1 -10 240289. 6216.32   1
   7  -6  10 249493. 6135.29   1
  -7   6 -10 253180. 6285.64   1
   7  -1  10 238336. 6233.09   1
   1  -7 -10 254949. 6356.98   2
   6  -7 -10 249697. 6261.50   1
   1  -7 -11 76564.4 3171.65   1
  -1   7  11 75124.5 3156.72   1
  -7   1 -11 80894.5 3224.20   1
   7  -6  11 84166.7 3174.68   1
   6  -7 -11 77130.2 3153.53   1
  -7   6 -11 84242.9 3278.10   1
   7  -1  11 78618.6 3171.78   1
  -6   7  11 78465.5 3170.55   1
   1  -7 -11 80361.7 3252.54   2
   7  -1  12 17236.1 1426.56   1
  -6   7  12 20701.7 1576.12   1
   6  -7 -12 16297.9 1438.57   1
   1  -7 -12 18878.7 1537.38   1
  -1   7  12 17039.7 1451.31   1
   7  -6  12 19553.5 1483.06   1
  -7   1 -12 17800.8 1483.97   1
  -7   6 -12 19600.4 1525.66   1
   1  -7 -12 21172.2 1624.20   2
   7  -1  13 56351.4 2747.49   1
  -6   7  13 57828.0 2786.91   1
   6  -7 -13 53404.3 2680.83   1
   1  -7 -13 52858.9 2640.13   1
  -1   7  13 57843.7 2674.11   1
  -7   6 -13 54338.4 2651.56   1
  -7   1 -13 56382.3 2730.99   1
   1  -7 -13 52061.5 2708.64   2
   6  -7 -14 112326. 4071.32   1
   7  -1  14 98026.9 3858.31   1
  -1   7  14 109350. 3965.64   1
  -7   1 -14 112606. 4101.88   1
   1  -7 -14 103500. 3923.66   1
   1  -7 -14 114279. 4184.87   2
  -6   7  14 102845. 3960.24   1
  -7   1 -15 24582.8 1860.78   2
  -1   7  15 23213.1 1739.81   1
   7  -1  15 23878.6 1820.79   1
  -7   1 -15 21291.3 1720.01   1
   6  -7 -15 21902.8 1740.15   1
   1  -7 -15 26802.5 1922.44   1
  -7   1 -16 43701.5 2549.31   2
   1  -7 -16 45290.9 2544.08   1
  -1   7  16 40801.9 2381.05   1
  -7   1 -16 44193.4 2498.34   1
   7  -1  16 41695.8 2443.88   1
   7  -1  17 8689.70 1142.12   1
  -7   1 -17 8447.30 1144.92   2
  -1   7  17 8650.13 1141.03   1
   1  -7 -17 8161.54 1101.01   1
  -7   1 -17 8335.96 1145.24   1
   7  -7   0 2335.35 511.323   2
   7   0   0 2735.78 522.302   1
   0  -7   0 2319.89 503.937   1
  -7   0   0 2828.14 513.601   2
   7  -7   0 3379.89 587.437   1
   0  -7   0 1899.08 466.308   2
  -7   7   0 2709.88 562.883   1
   0   7   0 4177.43 631.464   1
  -7   0   0 2834.30 553.600   1
   0  -7  -1 1215.84 434.283   2
  -7   0   1 894.108 342.547   1
   7   0   1 1326.40 455.530   1
  -7   0   1 316.326 258.687   2
  -7   0  -1 772.076 343.864   2
   7  -7  -1 1011.18 343.893   2
   7   0  -1 1338.98 411.181   1
  -7   7  -1 874.535 316.537   1
   7  -7  -1 322.395 325.264   1
  -7   7   1 629.403 338.127   1
   7  -7   1 1031.28 385.986   1
   0  -7   1 1895.05 428.942   1
   0  -7  -1 860.004 392.962   1
   0  -7   1 1240.85 410.523   2
   0   7   1 1036.00 410.046   1
   7  -7   1 826.914 407.743   2
   0   7  -1 1552.62 381.096   1
  -7   0  -1 422.932 253.397   1
  -7   7   2 285379. 6595.86   1
  -7   0   2 275316. 6220.54   2
   7  -7   2 281586. 6528.11   1
  -7   0  -2 308040. 6672.87   2
   0  -7   2 296815. 6364.67   1
   0  -7  -2 284667. 6546.58   1
   7  -7  -2 289697. 6587.79   1
   0   7  -2 289632. 6377.88   1
   7   0   2 296756. 6672.29   1
   7   0  -2 284960. 6393.21   1
   0   7   2 276597. 6580.54   1
  -7   7  -2 283322. 6597.49   1
  -7   0  -2 321898. 6800.08   1
  -7   0   2 265231. 6212.57   1
   7  -7  -2 284464. 6572.11   2
   0  -7   2 299734. 6683.06   2
   7  -7   2 292914. 6737.36   2
   0  -7  -2 283983. 6602.79   2
  -7   7   3 373142. 7918.47   1
  -7   0   3 368641. 7525.38   2
  -7   0  -3 382306. 7975.59   2
   0  -7   3 380078. 7938.23   2
   0  -7   3 375862. 7564.21   1
   7   0   3 364151. 7875.88   1
   0  -7  -3 375197. 7957.91   1
  -7   7  -3 373060. 7973.09   1
   7   0  -3 338470. 7486.99   1
   0   7   3 376794. 8020.62   1
   7  -7  -3 382586. 8025.16   1
  -7   0  -3 328087. 7689.29   1
   7  -7   3 366685. 7861.88   1
   7  -7  -3 405222. 8037.82   2
   0  -7  -3 335864. 7792.09   2
   7  -7   4 154261. 4378.87   1
  -7   0  -4 137394. 4265.10   2
   0  -7   4 157927. 4438.18   2
   0  -7   4 149412. 4024.80   1
   7   0   4 162943. 4540.63   1
   0  -7  -4 156545. 4505.99   2
   0   7  -4 158951. 4114.80   1
   0  -7  -4 161105. 4523.25   1
   7   0  -4 174662. 4354.29   1
   0   7   4 154353. 4528.61   1
   7  -7  -4 159343. 4369.35   2
  -7   0  -4 161659. 4540.35   1
  -7   0   4 141913. 3995.47   1
   7  -7  -4 163996. 4473.62   1
  -7   7   4 149768. 4376.27   1
  -7   7  -4 161838. 4509.94   1
  -7   7   5 236242. 6065.43   1
   7   0   5 270194. 6394.14   1
   0  -7  -5 259019. 6317.96   2
   7  -7  -5 279757. 6268.17   2
   0  -7  -5 254547. 6316.99   1
   7  -7  -5 247458. 6206.76   1
   7  -7   5 246806. 6118.56   1
   7   0  -5 282016. 6030.91   1
   0   7   5 250167. 6262.15   1
  -7   0  -5 268109. 6374.01   2
  -7   0  -5 300334. 6602.83   1
  -7   0   5 267050. 5915.67   1
   0  -7   5 252363. 6186.54   2
  -7   7  -5 263885. 6298.97   1
   0  -7   6 417482. 8490.65   2
  -7   7   6 381416. 8299.30   1
   7   0   6 356108. 8252.90   1
   7  -7   6 362063. 8147.41   1
   0  -7  -6 408691. 8554.76   1
  -7   0  -6 368279. 8383.43   2
   0   7   6 408114. 8549.90   1
  -7   0  -6 381905. 8414.64   1
   7  -7  -6 406420. 8254.43   2
  -7   7  -6 394121. 8426.03   1
   7  -7  -6 417042. 8537.48   1
   0  -7  -6 391400. 8464.35   2
  -7   7   7 79923.7 2985.36   1
   7  -7   7 78522.2 2934.05   1
   7   0   7 75405.2 3004.92   1
   0  -7  -7 74249.5 3003.84   1
  -7   7  -7 76908.5 2970.60   1
   0  -7  -7 71577.2 2951.15   2
   0   7   7 72583.6 2959.38   1
  -7   0  -7 74181.2 3000.49   1
   0  -7   7 76528.4 2940.06   2
  -7   0  -7 78246.4 3052.79   2
   7  -7  -7 71546.9 2937.37   1
   7  -7   8 28729.9 1734.78   1
  -7   0  -8 30458.4 1824.62   2
   7   0   8 28155.1 1771.75   1
   7  -7  -8 25729.5 1719.43   1
   0  -7  -8 27567.2 1796.84   1
   0   7   8 27934.2 1776.74   1
  -7   0  -8 26896.8 1762.82   1
  -7   7   8 25731.2 1662.79   1
   0  -7   8 25153.1 1674.55   2
  -7   7  -8 29520.7 1796.81   1
   0  -7  -8 29150.8 1804.50   2
  -7   7   9 119684. 4008.82   1
   7   0   9 119809. 4060.81   1
  -7   0  -9 137132. 4293.87   2
  -7   7  -9 131555. 4156.13   1
   0  -7  -9 120311. 4115.80   1
   7  -7  -9 122834. 4046.52   1
   0   7   9 125940. 4137.74   1
   0  -7   9 131337. 4124.99   2
  -7   0  -9 126859. 4154.26   1
   0  -7  -9 121092. 4097.35   2
   7  -7   9 130836. 4075.56   1
  -7   0 -10 197459. 5598.75   2
   0  -7  10 189361. 5359.28   2
   0  -7 -10 200688. 5569.15   1
   7  -7 -10 183515. 5337.35   1
   0   7  10 192636. 5426.34   1
  -7   0 -10 196866. 5515.26   1
   7   0  10 188330. 5371.69   1
  -7   7 -10 193282. 5360.94   1
   7  -7  10 203759. 5434.26   1
   0  -7 -10 196373. 5520.75   2
  -7   7  10 196997. 5462.36   1
   7   0  11 42649.9 2289.35   1
  -7   7  11 41267.5 2250.96   1
  -7   0 -11 42625.1 2347.67   2
   0  -7 -11 40631.4 2265.36   1
  -7   0 -11 40833.9 2302.14   1
   0   7  11 41340.3 2292.75   1
   7  -7  11 41901.2 2234.55   1
  -7   7 -11 41112.1 2255.38   1
   0  -7 -11 36221.5 2210.95   2
   7   0  12 10079.3 1113.94   1
   0  -7 -12 9223.21 1100.54   2
  -7   7  12 10152.2 1146.31   1
  -7   0 -12 9377.37 1146.69   2
   0  -7 -12 9126.51 1067.05   1
   0   7  12 9095.87 1044.39   1
  -7   0 -12 8527.11 1054.67   1
  -7   7  13 20095.3 1579.21   1
  -7   0 -13 18926.5 1602.83   2
   0  -7 -13 17348.3 1517.36   1
   0   7  13 17079.1 1476.04   1
  -7   0 -13 19222.5 1608.16   1
   0  -7 -13 17239.9 1576.00   2
   7   0  13 18152.8 1495.96   1
  -7   0 -14 134444. 4660.67   2
   0  -7 -14 133574. 4564.48   1
   7  -7 -14 141390. 4774.81   1
   0   7  14 142095. 4652.84   1
  -7   0 -14 143272. 4727.95   1
   7   0  14 135674. 4587.26   1
   0  -7 -14 137264. 4790.78   2
   0  -7 -15 43082.1 2581.71   2
  -7   0 -15 48123.6 2643.26   2
   0  -7 -15 48231.9 2595.74   1
   0   7  15 52484.4 2665.34   1
   7   0  15 44058.0 2502.61   1
  -7   0 -15 43863.3 2514.53   1
  -7   0 -16 15128.3 1476.86   2
   0  -7 -16 15155.6 1464.79   1
   7   0  16 13879.6 1385.21   1
   0   7  16 14128.5 1374.32   1
  -7   0 -16 16036.8 1511.55   1
   7   0  17 34807.9 2290.39   1
  -7   0 -17 36090.5 2349.84   1
  -4  -4 -17-211.209 369.130   2
  -4  -4 -16 275108. 7288.44   1
  -4  -4 -16 279060. 7473.85   2
   4   4  16 287323. 7287.55   1
   4   4  15 358.275 351.151   1
  -4  -4 -15 0.74875 351.992   2
  -4  -4 -15 449.879 447.922   1
  -4  -4 -14 487.705 432.630   2
   4   4  14 431.763 379.342   1
  -4  -4 -14 1015.34 529.597   1
  -4  -4 -13 280.325 413.455   2
   4   4  13-71.8048 356.127   1
  -4  -4 -13-375.793 422.131   1
  -4  -4 -12 368203. 8610.34   1
   4   4  12 352073. 8420.18   1
  -4  -4 -11 613.803 478.491   2
   4   4  11 113.961 346.550   1
  -4  -4 -11-503.946 500.145   1
   4   4  10 6600.56 931.772   1
  -4  -4 -10 6738.32 947.403   2
  -4  -4 -10 6172.83 904.964   1
   4  -8  10 5935.59 899.992   2
  -4  -4  -9 89.9301 307.516   2
   4   4   9 361.222 292.146   1
   8  -4  -9 114.158 323.428   1
  -4  -4  -9 335.924 362.319   1
   4  -8   9 458.214 447.498   2
  -8   4   9 213.451 278.051   1
  -4  -4  -8 354993. 8283.69   2
  -4  -4  -8 383767. 8466.69   1
   8  -4  -8 396390. 8206.76   1
  -8   4   8 394917. 8188.63   1
   4   4   8 360963. 8299.36   1
   4  -8   8 366499. 8318.76   2
   4  -8   7-205.746 301.572   1
  -4  -4  -7 17.6309 323.074   2
  -8   4   7 34.4520 288.011   1
  -4   8  -7 610.079 353.909   1
   4   4   7 222.085 378.035   1
  -4  -4  -7 23.7217 302.940   1
   8  -4  -7 260.824 341.727   1
   4  -8   7-25.1555 307.743   2
  -4  -4  -6 672.805 400.632   2
  -8   4   6 1236.40 335.375   1
  -4   8  -6 1160.41 316.363   1
   4   4   6 1222.90 446.599   1
   8  -4  -6 1340.15 422.260   1
   4  -8   6 1237.28 404.196   1
   4  -8   6 817.727 376.156   2
  -4  -4  -6 839.444 450.921   1
  -4  -4  -5-204.640 356.507   2
   4  -8   5 218.929 244.619   1
  -4   8  -5-91.3397 248.329   1
   4   4   5 5.81205 276.630   1
   8  -4  -5 459.909 340.697   1
  -8   4   5-22.4200 308.026   1
  -4  -4  -5-50.4042 283.508   1
   4  -8   5 111.463 405.861   2
  -4  -4  -4 568202. 10880.9   2
   4  -8   4 552309. 10744.9   2
  -8   4   3 420.221 388.766   1
  -4  -4  -3 13.7655 331.580   2
   4  -8   3 90.6705 217.919   1
   4   4   3 176.322 293.638   1
   8  -4  -3-206.034 274.384   1
  -4   8  -3 17.0915 257.718   1
  -4  -4  -3 301.706 332.543   1
   4  -8   3 104.936 310.874   2
   8  -4  -2 36491.0 1871.47   1
  -4  -4  -2 42225.4 1985.72   1
   4   4   2 34887.6 1849.41   1
   4  -8   2 37352.5 1821.81   1
  -4   8  -2 37206.9 1908.78   1
   4  -8   2 35723.7 1921.62   2
  -8   4   2 38083.2 1915.79   1
  -4  -4  -2 36529.5 1874.19   2
  -8   4   1 145.834 278.963   1
   4  -8   1-40.2845 274.720   1
   4   4   1 430.212 333.223   1
  -4   8  -1-147.380 267.654   1
   4  -8   1-2.00785 294.021   2
  -4  -4  -1 136.740 315.400   1
   8  -4  -1 248.102 288.462   1
  -4  -4  -1-19.8907 270.189   2
  -4  -4   1 297.351 273.848   2
   4  -8  -1-269.724 302.422   2
   4   4  -1 263.380 254.555   1
   4  -8  -1 84.6470 312.329   1
  -4   8   1 149.981 252.590   1
   8  -4   1 726.209 370.198   1
  -4  -4   1 80.4969 267.565   1
  -8   4  -1 247.790 305.306   1
  -4   8   2 151603. 4319.64   1
   4  -8  -2 147538. 4283.25   1
  -8   4  -2 168151. 4530.37   1
  -4  -4   2 169541. 4365.78   2
  -4  -4   2 152828. 4039.54   1
   4   4  -2 148634. 4079.64   1
   4  -8  -2 150404. 4343.38   2
   8  -4   2 143873. 4231.25   1
   8  -4   3 377.448 379.847   1
   4   4  -3 153.101 195.007   1
   4  -8  -3-140.097 299.266   1
  -4   8   3 147.975 312.509   1
  -4  -4   3-227.452 305.471   1
  -4  -4   3-1.81692 352.342   2
  -8   4  -3 324.930 324.579   1
   4  -8  -3 222.183 329.210   2
   4  -8  -4 472652. 9451.93   1
  -4   8   4 448029. 9313.55   1
  -8   4  -4 448531. 9267.71   1
   4  -8  -4 484579. 9474.35   2
  -4  -4   4 435718. 9005.49   2
  -4  -4   5 59.5829 265.405   2
   8  -4   5-23.9911 319.546   1
   4  -8  -5-144.791 382.034   1
  -4   8   5-70.4236 321.138   1
   4  -8  -5 223.951 341.900   2
  -8   4  -5 229.961 388.588   1
   4  -8  -6 30168.9 1816.66   1
  -4   8   6 29615.1 1773.87   1
   8  -4   6 29248.7 1726.47   1
  -8   4  -6 31871.1 1849.60   1
   4  -8  -6 28023.5 1748.27   2
   4  -8  -7 258.222 375.924   1
  -4   8   7 86.7936 315.910   1
   8  -4   7 338.867 304.166   1
  -8   4  -7 20.3085 272.685   1
   4  -8  -7 26.9534 336.806   2
   4  -8  -8 520849. 10845.9   1
  -4   8   8 555357. 10913.5   1
  -8   4  -8 547218. 10954.3   1
   4  -8  -8 532497. 10862.9   2
   4  -8  -9 480.791 385.212   1
   8  -4   9-198.167 394.219   1
  -4   8   9 563.722 467.078   1
  -8   4  -9 374.586 376.141   1
   4  -8  -9-22.0367 283.205   2
   8  -4  10 1811.16 496.550   1
   4  -8 -10 2265.87 529.001   1
  -8   4 -10 2018.55 545.589   1
  -4   8  10 2293.79 571.525   1
   4  -8 -10 1641.63 482.346   2
   4  -8 -11-48.9648 379.032   2
   8  -4  11-149.529 357.169   1
   4  -8 -11-246.151 352.286   1
  -4   8  11 27.5223 321.374   1
  -8   4 -11 646.242 406.314   1
   4  -8 -12 307989. 7540.56   1
   8  -4  12 306762. 7501.96   1
  -8   4 -12 288369. 7394.73   1
   4  -8 -13 225.069 412.236   1
  -8   4 -13 770.350 508.809   1
  -4   8  13 1004.11 537.009   1
   8  -4  13 39.6904 292.909   1
   8  -4  14 12027.2 1322.06   1
   4  -8 -14 10496.1 1228.86   1
  -4   8  14 13345.2 1318.38   1
  -8   4 -14 13604.0 1346.35   1
   8  -4  15-280.844 340.688   1
   4  -8 -15 209.288 341.776   1
  -4   8  15-51.0471 374.067   1
  -8   4 -15 162.081 289.566   1
  -4   8  16 259730. 7053.76   1
   4  -8 -16 264749. 7205.64   1
  -8   4 -16 268593. 7238.41   1
   4  -8 -17 144.186 295.296   1
  -4   8  17 878.856 481.932   1
  -3  -5 -17 19724.0 1752.12   2
  -3  -5 -16 9360.53 1230.27   2
  -5  -3 -16 13308.9 1358.50   2
  -3  -5 -16 11756.2 1241.97   1
  -5  -3 -16 10627.4 1197.28   1
   3   5  16 12298.1 1271.48   1
   5   3  16 10253.1 1185.83   1
  -3  -5 -15 168558. 5321.51   1
  -5  -3 -15 167831. 5376.74   1
  -3  -5 -15 177483. 5590.70   2
  -5  -3 -15 178768. 5499.87   2
   5   3  15 167707. 5287.27   1
  -5  -3 -14 111264. 4103.31   2
  -5  -3 -14 116938. 4216.63   1
  -3  -5 -14 98985.1 3893.85   1
   3   5  14 106236. 3921.43   1
   5   3  14 114002. 4110.98   1
  -3  -5 -14 114083. 4186.06   2
  -5  -3 -13 50470.0 2626.50   2
  -3  -5 -13 56756.5 2764.42   1
  -5  -3 -13 54145.3 2709.35   1
   5   3  13 54505.7 2682.30   1
   3   5  13 56411.5 2715.52   1
  -3  -5 -13 57056.9 2863.59   2
   3   5  12 3511.03 658.275   1
  -5  -3 -12 3693.77 763.995   2
   5   3  12 4085.23 714.053   1
  -3  -5 -12 3736.83 730.828   1
  -5  -3 -12 3384.93 696.252   1
  -3  -5 -12 3104.42 670.142   2
   3   5  11 1686.62 546.811   1
  -5  -3 -11 1023.11 471.093   2
  -3  -5 -11 1565.15 610.052   2
   5   3  11 1046.81 382.385   1
   3  -8  11 429.633 299.558   2
  -3  -5 -11 2225.74 595.146   1
  -5  -3 -11 2021.16 550.602   1
  -5  -3 -10 307752. 7314.50   2
  -3  -5 -10 303768. 7324.92   1
  -3  -5 -10 285954. 7179.61   2
   8  -5 -10 300854. 7095.20   1
  -8   5  10 292602. 7001.14   1
  -5  -3 -10 293837. 7184.21   1
   3   5  10 306299. 7216.11   1
   5   3  10 294570. 7135.92   1
  -3  -5  -9 50050.8 2542.08   2
  -5  -3  -9 53372.0 2547.45   2
   5   3   9 54524.6 2564.76   1
   5  -8   9 48563.4 2480.24   2
   8  -5  -9 49713.2 2365.57   1
   3  -8   9 53567.1 2563.45   2
  -3  -5  -9 53245.0 2582.20   1
  -5  -3  -9 52826.8 2556.84   1
   3   5   9 50535.0 2492.81   1
  -8   5   9 58845.1 2548.30   1
   5  -8   8 95355.4 3583.20   2
   8  -3  -8 101646. 3383.39   1
   5  -8   8 109434. 3518.85   1
  -3  -5  -8 104359. 3669.19   1
  -5  -3  -8 106048. 3680.79   2
   8  -5  -8 95725.0 3432.73   1
  -5  -3  -8 105817. 3703.59   1
   3   5   8 101850. 3613.37   1
  -5   8  -8 101006. 3462.74   1
   3  -8   8 107942. 3661.30   2
  -8   3   8 109520. 3448.85   1
  -3  -5  -8 106088. 3719.50   2
   5   3   8 100131. 3623.60   1
  -8   5   8 106544. 3554.99   1
   8  -5  -7 228974. 5613.81   1
  -5  -3  -7 206627. 5585.23   2
  -3  -5  -7 216591. 5714.65   1
   8  -3  -7 245794. 5596.73   1
  -5  -3  -7 213793. 5658.97   1
   5  -8   7 209595. 5359.20   1
   3   5   7 205478. 5562.94   1
   5   3   7 206837. 5614.42   1
  -8   5   7 214458. 5498.06   1
   5  -8   7 194087. 5512.33   2
  -5   8  -7 209171. 5431.28   1
   3  -8   7 206955. 5557.38   2
  -8   3   7 245367. 5583.63   1
  -3  -5  -7 190861. 5455.55   2
  -5   8  -6 203000. 5103.30   1
   8  -3  -6 201304. 5035.40   1
   5   3   6 178548. 5112.03   1
   3  -8   6 183661. 4763.02   1
  -3  -5  -6 178883. 5137.17   1
  -8   5   6 209270. 5184.29   1
  -5  -3  -6 201090. 5290.34   1
  -5  -3  -6 195248. 5162.66   2
   5  -8   6 200189. 5045.99   1
   3   5   6 185622. 5146.03   1
   8  -5  -6 179405. 4957.22   1
   3  -8   6 175305. 5014.14   2
  -8   3   6 183659. 4873.29   1
   5  -8   6 195409. 5244.61   2
  -3  -5  -6 185144. 5162.98   2
  -3   8  -6 205639. 4951.66   1
  -5  -3  -5 278234. 6441.38   2
   5  -8   5 268044. 6226.37   1
   8  -3  -5 270374. 6203.76   1
  -3   8  -5 262577. 6030.38   1
  -3  -5  -5 265264. 6432.22   1
  -5  -3  -5 271373. 6436.49   1
   5   3   5 255405. 6360.60   1
   5  -8   5 250870. 6364.53   2
   8  -5  -5 262893. 6262.14   1
   3   5   5 261479. 6415.26   1
   3  -8   5 267440. 6396.77   2
  -3  -5  -5 284198. 6548.73   2
  -8   3   5 267140. 6163.98   1
   3  -8   5 264191. 6076.84   1
  -8   5   5 271709. 6307.80   1
  -5   8  -5 267838. 6269.36   1
  -5   8  -4 12887.7 1124.75   1
   8  -3  -4 13861.4 1140.55   1
  -5  -3  -4 14825.0 1223.49   2
   5   3   4 14000.4 1200.62   1
   5  -8   4 12248.3 1128.73   2
  -3   8  -4 16131.9 1196.23   1
   3  -8   4 15423.8 1166.90   1
   5  -8   4 13525.4 1119.34   1
  -3  -5  -4 13347.7 1175.03   1
  -5  -3  -4 12424.1 1129.15   1
  -3  -5  -4 12258.0 1105.48   2
   8  -5  -4 11604.5 1083.22   1
   3   5   4 13564.7 1192.48   1
   3  -8   4 13958.1 1196.12   2
  -8   3   4 15538.9 1225.45   1
  -8   5   4 14125.9 1167.65   1
  -5  -3  -3 83960.9 3006.32   2
  -3   8  -3 86395.7 3020.32   1
   3  -8   3 88838.8 2988.15   1
  -3  -5  -3 81779.9 3042.71   1
  -5  -3  -3 84784.1 3059.22   1
   8  -5  -3 87419.3 3068.52   1
   5  -8   3 89049.8 3063.19   1
   5  -8   3 84476.5 3089.81   2
   3   5   3 88977.2 3141.79   1
  -8   3   3 78892.1 2921.84   1
  -5   8  -3 85187.4 3004.08   1
  -3  -5  -3 87839.8 3141.61   2
  -8   5   3 79275.4 2955.44   1
   3  -8   3 82516.7 3037.43   2
   5   3   3 85085.6 3050.17   1
   8  -3  -3 96785.1 3141.48   1
  -8   3   2 560576. 10799.7   1
  -5  -3  -1 20428.6 1389.38   2
  -5   8  -1 20764.7 1373.30   1
   8  -5  -1 18796.7 1339.28   1
   3  -8   1 20168.5 1346.14   1
  -3   8  -1 18435.5 1334.91   1
   5  -8   1 16736.5 1276.24   1
  -3  -5  -1 20156.2 1372.53   1
  -5  -3  -1 20156.9 1366.20   1
   3   5   1 20651.6 1373.35   1
   5  -8   1 20166.6 1406.50   2
   3  -8   1 20894.5 1444.09   2
  -8   5   1 18339.8 1341.66   1
   8  -3  -1 17621.8 1271.79   1
  -8   3   1 18686.2 1316.07   1
   5   3   1 20569.7 1398.09   1
  -3  -5  -1 19939.8 1379.94   2
   3  -8   0 8615.48 911.623   1
   5   3   0 6851.51 814.547   1
  -3  -5   0 7046.90 840.899   2
   5  -8   0 7837.94 858.466   1
  -8   5   0 7521.12 865.478   1
  -3   8   0 7516.28 846.462   1
   8  -5   0 7274.05 838.366   1
  -3  -5   0 7400.51 830.620   1
  -5   8   0 7061.54 813.805   1
   3  -8   0 9227.37 976.976   2
  -5  -3   0 8438.47 839.600   1
   3   5   0 6661.00 791.439   1
  -8   3   0 8064.85 894.679   1
   5  -8   0 7638.95 907.969   2
  -5  -3   0 6710.01 797.172   2
   8  -3   0 8363.61 899.735   1
  -5   8   1 265939. 6320.74   1
   5  -8  -1 252272. 6129.94   1
   8  -5   1 261259. 6161.74   1
   3  -8  -1 265274. 6197.34   1
  -3   8   1 257189. 6160.99   1
  -8   3  -1 282079. 6305.70   1
   8  -3   1 262292. 6175.13   1
  -3  -5   1 279109. 6077.38   1
  -5  -3   1 274230. 6033.23   1
   3   5  -1 271418. 6072.51   1
   5   3  -1 263790. 6023.02   1
   5  -8  -1 256405. 6198.78   2
   3  -8  -1 262727. 6258.21   2
  -8   5  -1 268730. 6207.00   1
  -3  -5   1 266344. 6138.13   2
  -5  -3   1 237141. 5903.95   2
   8  -5   2 222580. 5553.16   1
   5  -8  -2 215522. 5515.88   1
   3  -8  -2 208741. 5468.36   1
  -3   8   2 210387. 5441.44   1
   5  -8  -2 220691. 5541.80   2
  -5  -3   2 236216. 5345.64   1
  -5   8   2 231112. 5694.12   1
   3  -8  -2 214132. 5546.01   2
   3   5  -2 231487. 5339.45   1
  -8   3  -2 228313. 5599.84   1
   8  -3   2 208180. 5436.32   1
  -3  -5   2 221477. 5444.01   2
  -8   5  -2 222041. 5547.03   1
  -3  -5   2 242869. 5359.02   1
   5   3  -2 215539. 5270.01   1
  -5  -3   2 242179. 5540.68   2
  -3   8   3 219679. 5661.60   1
  -3  -5   3 262898. 5826.01   2
  -3  -5   3 243173. 5369.60   1
   3  -8  -3 227776. 5762.99   2
  -5  -3   3 253095. 5470.24   1
   5   3  -3 229713. 5409.24   1
  -5   8   3 230255. 5789.21   1
   3   5  -3 236318. 5386.61   1
   8  -3   3 238165. 5752.80   1
  -8   3  -3 237753. 5805.29   1
   5  -8  -3 225604. 5697.69   2
  -8   5  -3 236719. 5821.04   1
   8  -5   3 220271. 5643.77   1
   3  -8  -3 233315. 5803.22   1
   5  -8  -3 235179. 5813.02   1
  -5  -3   3 225104. 5493.67   2
  -5   8   4 78182.2 2982.70   1
   5  -8  -4 78255.6 2976.50   1
   3  -8  -4 80662.7 3019.42   1
  -8   5  -4 77837.0 2986.39   1
  -3  -5   4 81270.0 2887.93   2
   8  -3   4 87342.9 3033.94   1
   3  -8  -4 78894.2 2985.68   2
  -8   3  -4 84869.7 3035.23   1
   5  -8  -4 75203.6 2901.35   2
   8  -5   4 73392.3 2845.75   1
  -3   8   4 82005.0 3011.22   1
   5   3  -4 85711.3 2745.08   1
  -5  -3   4 78642.2 2756.36   2
  -8   3  -5 3884.46 677.761   1
   3  -8  -5 3538.38 672.372   1
   5  -8  -5 2762.40 578.750   1
  -5   8   5 3377.56 649.051   1
  -8   5  -5 3028.07 559.760   1
   8  -3   5 3313.92 604.219   1
  -3   8   5 3429.12 647.123   1
   5  -8  -5 3467.84 627.993   2
   8  -5   5 3477.87 578.765   1
   3  -8  -5 2996.86 608.698   2
  -3  -5   5 3618.26 639.864   2
  -8   5  -6 462382. 9606.69   1
   5  -8  -6 452974. 9579.01   1
  -5   8   6 477386. 9694.79   1
   3  -8  -6 481355. 9803.29   1
  -3   8   6 473101. 9674.77   1
   8  -3   6 444390. 9489.94   1
  -8   3  -6 464886. 9647.01   1
   8  -5   6 458990. 9516.51   1
  -3  -5   6 491840. 9470.94   2
   5  -8  -6 473435. 9607.75   2
   3  -8  -6 460486. 9623.64   2
   5  -8  -7 113389. 3767.10   2
   5  -8  -7 113822. 3817.33   1
  -5   8   7 112299. 3737.47   1
   3  -8  -7 116216. 3840.48   1
  -3   8   7 114692. 3794.22   1
   8  -3   7 115753. 3785.89   1
  -8   3  -7 109898. 3775.20   1
   3  -8  -7 111563. 3810.98   2
   8  -5   7 117396. 3763.96   1
  -8   5  -7 112703. 3770.92   1
   5  -8  -8 42688.7 2233.51   1
  -5   8   8 40193.9 2156.07   1
   3  -8  -8 47046.8 2289.80   1
  -3   8   8 50672.8 2420.01   1
   8  -3   8 49088.0 2275.57   1
   5  -8  -8 44534.3 2265.07   2
   8  -5   8 42190.2 2179.15   1
  -8   3  -8 40799.7 2192.75   1
   3  -8  -8 48313.7 2341.16   2
  -8   5  -8 42478.7 2227.63   1
  -5   8   9 311174. 7470.75   1
   3  -8  -9 320687. 7608.09   1
  -3   8   9 324878. 7581.51   1
   5  -8  -9 321288. 7599.95   1
   8  -3   9 321539. 7524.48   1
   8  -5   9 320182. 7460.47   1
  -8   3  -9 318482. 7583.64   1
  -8   5  -9 330694. 7653.08   1
   3  -8  -9 345285. 7768.57   2
   5  -8  -9 350095. 7707.90   2
   5  -8 -10 161047. 4986.88   1
  -5   8  10 171631. 5027.40   1
   3  -8 -10 172482. 5096.66   1
  -3   8  10 185613. 5246.33   1
   8  -3  10 169890. 5033.53   1
   8  -5  10 183738. 5154.26   1
  -8   3 -10 174079. 5119.49   1
  -8   5 -10 177357. 5180.31   1
   3  -8 -10 181440. 5206.55   2
   5  -8 -11 23494.5 1676.58   1
   3  -8 -11 26984.8 1839.92   1
   8  -3  11 27012.3 1809.30   1
  -5   8  11 20020.5 1578.83   1
  -3   8  11 25890.3 1756.33   1
   8  -5  11 27403.6 1809.37   1
  -8   3 -11 24378.5 1754.28   1
   3  -8 -11 30175.8 1944.91   2
  -8   5 -11 26355.7 1788.66   1
   3  -8 -12 1231.73 526.612   2
  -8   3 -12 1826.11 579.164   1
   8  -3  12 2157.62 590.754   1
   8  -5  12 2950.80 672.562   1
   5  -8 -12 2331.93 600.328   1
   3  -8 -12 1542.44 581.195   1
  -5   8  12 1781.78 531.697   1
  -3   8  12 1738.11 548.739   1
  -8   5 -12 1715.84 557.793   1
   8  -5  13 4186.76 806.721   1
   5  -8 -13 2320.20 623.025   1
   3  -8 -13 4802.29 859.985   1
  -5   8  13 3842.86 733.398   1
  -3   8  13 3866.34 732.373   1
  -8   3 -13 4665.78 815.328   1
  -8   5 -13 3808.60 773.830   1
   8  -3  13 4799.83 842.063   1
   8  -3  14 166035. 5148.03   1
   5  -8 -14 155914. 5068.38   1
  -5   8  14 167357. 5115.04   1
   3  -8 -14 175372. 5279.55   1
   8  -5  14 149596. 4981.14   1
  -3   8  14 149161. 4934.87   1
  -8   3 -14 164751. 5164.72   1
  -8   5 -14 172860. 5342.46   1
   8  -3  15 87462.3 3656.15   1
   5  -8 -15 91371.5 3736.86   1
  -5   8  15 87895.3 3634.78   1
   3  -8 -15 98103.1 3833.84   1
  -3   8  15 84405.4 3527.57   1
  -8   3 -15 86399.8 3615.06   1
   8  -3  16 67470.4 3246.87   1
  -5   8  16 66698.7 3207.51   1
   5  -8 -16 71701.0 3339.88   1
   3  -8 -16 76454.2 3426.77   1
  -3   8  16 72348.7 3262.07   1
  -8   3 -16 73730.3 3364.24   1
   3  -8 -17 67137.3 3253.01   1
  -3   8  17 68900.0 3246.32   1
  -2  -6 -17 73023.4 3511.80   2
  -2  -6 -16 2532.38 691.381   2
  -6  -2 -16 2481.86 685.227   2
   6   2  16 3256.54 717.071   1
   2   6  16 3126.32 707.903   1
  -2  -6 -16 2771.91 658.826   1
  -6  -2 -16 1974.34 646.824   1
  -2  -6 -15 66900.9 3094.11   1
  -6  -2 -15 67821.4 3159.61   1
   2   6  15 72421.7 3176.33   1
   6   2  15 65299.7 3079.86   1
  -6  -2 -15 65950.4 3119.64   2
  -2  -6 -15 67928.7 3251.99   2
  -6  -2 -14 68129.9 3081.42   2
   6   2  14 61234.2 2905.30   1
  -2  -6 -14 55513.7 2846.32   1
  -6  -2 -14 63110.7 3005.18   1
   2   6  14 64449.9 2909.66   1
  -2  -6 -14 61518.8 3008.61   2
  -2  -6 -13 58332.9 2794.97   1
  -6  -2 -13 57364.6 2825.38   1
   2   6  13 54273.9 2730.00   1
   6   2  13 55018.2 2755.07   1
  -6  -2 -13 58046.6 2768.03   2
  -2  -6 -13 59425.7 2876.84   2
  -6  -2 -12 22749.1 1726.28   2
   8  -6 -12 20418.9 1601.91   1
   6   2  12 23315.1 1689.79   1
   2  -8  12 20857.2 1665.06   2
  -6  -2 -12 21920.5 1673.68   1
   2   6  12 21834.0 1686.74   1
  -2  -6 -12 22212.6 1666.45   1
  -2  -6 -12 23651.6 1725.42   2
  -8   6  11 15580.0 1393.08   1
  -6  -2 -11 12994.7 1324.72   2
   2  -8  11 14893.9 1363.39   2
   8  -6 -11 14571.6 1350.17   1
  -2  -6 -11 14818.3 1376.71   1
  -6  -2 -11 13232.9 1352.87   1
   2   6  11 16944.2 1394.49   1
  -2  -6 -11 16748.6 1444.60   2
   6   2  11 14170.8 1338.07   1
  -6  -2 -10 190068. 5476.46   2
   8  -6 -10 207404. 5598.70   1
  -8   6  10 204646. 5557.77   1
  -2  -6 -10 201732. 5605.28   1
  -6  -2 -10 193906. 5607.05   1
   2   6  10 200150. 5562.21   1
   2  -8  10 201020. 5653.87   2
   6   2  10 199898. 5602.38   1
  -2  -6 -10 200811. 5623.06   2
  -2  -6  -9 6420.41 922.921   2
   2   6   9 5524.36 860.998   1
   2  -8   9 6868.86 921.741   2
   6   2   9 6058.30 835.897   1
  -6  -2  -9 6294.45 888.159   2
  -2  -6  -9 5272.26 829.826   1
  -6  -2  -9 6919.67 933.790   1
   6  -8   9 5948.15 802.259   1
  -6   8  -9 6426.27 883.404   1
   8  -6  -9 6318.86 843.392   1
  -8   6   9 7986.97 942.473   1
  -6  -2  -8 192952. 5313.72   2
   2  -8   8 183934. 5203.86   2
   8  -6  -8 194199. 5255.09   1
   6  -8   8 198337. 5200.28   1
  -2  -6  -8 189852. 5333.75   1
   6   2   8 188211. 5259.97   1
  -6  -2  -8 185980. 5303.91   1
   2   6   8 180589. 5192.16   1
  -6   8  -8 192987. 5198.59   1
  -2  -6  -8 185162. 5259.89   2
  -8   6   8 187470. 5232.08   1
   8  -6  -7 96801.2 3424.14   1
  -6  -2  -7 94218.0 3463.34   2
  -6   8  -7 96637.3 3393.47   1
  -2  -6  -7 89914.2 3401.33   1
   6  -8   7 105157. 3486.25   1
   2  -8   7 98396.6 3459.02   2
  -6  -2  -7 98546.7 3559.11   1
   2   6   7 92845.2 3404.62   1
   6  -8   7 101998. 3582.93   2
   6   2   7 93507.3 3459.99   1
  -8   6   7 96119.5 3372.81   1
   8  -2  -7 91271.6 3156.27   1
  -2  -6  -7 89992.5 3378.15   2
  -2  -6  -6 569171. 11813.1   1
  -6  -2  -6 594271. 11851.4   2
  -6  -2  -6 599900. 11951.2   1
   8  -6  -6 603512. 11815.9   1
  -8   2   6 682025. 11805.6   1
  -8   6   6 585461. 11748.2   1
   2  -8   6 607876. 11885.5   2
   6  -8   6 647423. 12167.8   2
  -2  -6  -6 631001. 12037.6   2
   6   2   5 290156. 6963.96   1
  -2   8  -5 309143. 6773.22   1
   6  -8   5 316270. 6941.67   1
  -2  -6  -5 298477. 6978.69   1
   6  -8   5 296815. 7060.02   2
  -6  -2  -5 287972. 6893.72   2
  -6  -2  -5 302481. 7056.38   1
   2   6   5 303161. 6995.70   1
  -8   2   5 304090. 6692.96   1
   8  -2  -5 298018. 6758.48   1
   2  -8   5 293825. 6901.67   2
   8  -6  -5 297117. 6930.86   1
  -6   8  -5 302311. 6937.22   1
  -2  -6  -5 292620. 6926.39   2
  -8   6   5 306229. 6939.14   1
   2   6   4 4959.51 736.161   1
  -2  -6  -4 4277.98 707.223   2
  -6  -2  -4 4661.94 755.299   2
   8  -6  -4 4027.13 657.091   1
  -8   6   4 4866.48 711.219   1
  -6   8  -4 4233.57 687.590   1
   2  -8   4 5386.64 681.551   1
   6  -8   4 3125.21 613.179   1
  -2   8  -4 5623.76 700.524   1
  -2  -6  -4 5210.76 760.637   1
   6   2   4 4165.64 699.274   1
  -6  -2  -4 4655.76 739.077   1
   6  -8   4 4709.04 769.212   2
   2  -8   4 5068.84 740.289   2
  -8   2   4 5023.43 695.192   1
   8  -2  -4 4214.69 677.807   1
  -6   8  -3 354732. 7803.12   1
   6   2   3 344396. 7730.49   1
  -6  -2  -3 394208. 7978.69   2
   8  -2  -3 373743. 7711.73   1
   6  -8   3 360073. 7721.12   1
  -2   8  -3 357924. 7585.58   1
   2  -8   3 356147. 7527.22   1
   2  -8   3 354822. 7786.73   2
  -2  -6  -3 352801. 7757.77   1
   8  -6  -3 345089. 7725.27   1
  -6  -2  -3 337971. 7674.40   1
   2   6   3 349242. 7776.17   1
   6  -8   3 368269. 7945.45   2
  -8   6   3 329412. 7620.63   1
  -2  -6  -3 361410. 7885.33   2
  -6   8  -2 78058.4 2942.66   1
  -6  -2  -2 80809.2 2963.65   2
   2  -8   2 88716.0 2953.98   1
  -2   8  -2 76913.7 2822.32   1
  -8   2   2 79506.3 2868.27   1
   6  -8   2 75369.9 2966.64   2
   6  -8   2 76169.1 2885.79   1
  -2  -6  -2 75603.6 2884.34   1
  -6  -2  -2 67824.8 2771.79   1
   2   6   2 79069.5 2962.71   1
   2  -8   2 84909.1 3029.32   2
   8  -6  -2 74977.0 2871.04   1
   8  -2  -2 80618.6 2898.64   1
   6   2   2 80391.1 2981.21   1
  -2  -6  -2 82508.8 3007.26   2
  -8   6   2 83751.5 3016.99   1
  -6   8  -1 154355. 4479.51   1
   6   2   1 151725. 4425.56   1
   2  -8   1 168174. 4474.24   1
  -2   8  -1 160920. 4428.32   1
  -2  -6  -1 164836. 4482.47   1
   2  -8   1 161717. 4589.09   2
  -6  -2  -1 170299. 4539.56   1
   6  -8   1 161933. 4504.50   1
   8  -6  -1 160206. 4502.78   1
   2   6   1 160696. 4441.75   1
   8  -2  -1 141288. 4257.19   1
  -8   2   1 181784. 4627.19   1
   6  -8   1 157034. 4532.52   2
  -2  -6  -1 154550. 4433.69   2
  -6  -2  -1 170087. 4535.03   2
  -8   6   1 154676. 4461.59   1
  -6   8   0 10757.0 1026.38   1
   6   2   0 10523.0 1012.19   1
   2  -8   0 11499.1 1047.90   1
  -6  -2   0 11620.1 1041.43   2
  -2   8   0 9977.12 977.406   1
  -2  -6   0 9048.75 933.980   1
   8  -6   0 11595.3 1045.92   1
  -6  -2   0 11042.6 986.383   1
   2   6   0 10540.6 995.577   1
   8  -2   0 10436.1 1001.42   1
  -8   2   0 10812.3 1020.94   1
   2  -8   0 9060.55 999.184   2
   6  -8   0 9753.68 978.029   1
   6  -8   0 10479.4 1018.80   2
  -8   6   0 11254.5 1058.38   1
  -2  -6   0 9466.70 971.206   2
  -2  -6   1 962.361 383.426   2
  -6   8   1 1435.68 476.786   1
  -6  -2   1 1010.60 417.344   2
  -8   6  -1 772.054 303.755   1
  -8   2  -1 532.810 300.039   1
   2   6  -1 476.757 324.631   1
   2  -8  -1 975.875 470.534   1
  -2  -6   1 1005.98 392.469   1
   8  -6   1 846.271 446.037   1
  -2   8   1 986.182 437.075   1
   8  -2   1 753.019 393.740   1
   6  -8  -1 683.905 357.575   1
   6   2  -1 739.152 346.460   1
  -6  -2   1 225.946 230.950   1
   6  -8  -1 603.724 327.349   2
   2  -8  -1 2740.82 571.257   2
  -6  -2   2 385636. 7918.22   2
  -6   8   2 365672. 8059.86   1
   2  -8  -2 376594. 8043.36   1
   8  -6   2 381164. 8101.03   1
  -2  -6   2 360453. 7661.77   1
  -2   8   2 371357. 8055.10   1
  -2  -6   2 364576. 7908.13   2
   2   6  -2 383729. 7814.04   1
  -6  -2   2 379665. 7742.24   1
   8  -2   2 384336. 8041.05   1
   6  -8  -2 387149. 8101.04   1
  -8   2  -2 384204. 8138.95   1
   6  -8  -2 368316. 8038.66   2
   2  -8  -2 360723. 8011.87   2
  -8   6  -2 364963. 8041.98   1
  -2  -6   3 1037.60 414.453   2
  -8   6  -3 685.020 378.123   1
  -6  -2   3 537.742 327.659   2
   6  -8  -3 945.833 413.475   1
   8  -6   3 921.628 393.661   1
   6  -8  -3 1367.28 479.608   2
  -6   8   3 581.472 314.175   1
   2  -8  -3 378.554 339.168   1
  -2  -6   3 679.217 293.599   1
   8  -2   3 462.806 301.075   1
   2   6  -3 927.561 355.410   1
  -2   8   3 696.924 389.383   1
   6   2  -3 869.814 362.242   1
  -6  -2   3 759.845 330.100   1
  -8   2  -3 426.293 335.834   1
   2  -8  -3 699.149 359.584   2
  -6   8   4 383893. 8168.14   1
   8  -6   4 368716. 7893.86   1
   6  -8  -4 347478. 7889.43   1
   2  -8  -4 351131. 7879.40   1
  -2   8   4 367711. 8024.87   1
   8  -2   4 372237. 7973.90   1
  -2  -6   4 364028. 7847.29   2
   2  -8  -4 357553. 7980.27   2
  -8   2  -4 367203. 8030.77   1
   6  -8  -4 365752. 7910.23   2
  -8   6  -4 370497. 7979.21   1
   2  -8  -5 159875. 4654.63   2
  -6   8   5 168420. 4796.35   1
   6  -8  -5 161799. 4662.74   1
   2  -8  -5 170978. 4774.46   1
  -2   8   5 167003. 4735.90   1
   8  -2   5 151095. 4508.47   1
  -8   2  -5 158348. 4635.83   1
   6  -8  -5 169591. 4728.42   2
  -8   6  -5 159451. 4609.45   1
  -2  -6   5 164748. 4563.94   2
   8  -6   5 160511. 4565.40   1
  -2  -6   6 528857. 10542.4   2
  -6   8   6 503695. 10682.1   1
   6  -8  -6 512355. 10619.8   1
   2  -8  -6 555275. 10862.0   1
  -2   8   6 551475. 10790.7   1
   6  -8  -6 545288. 10647.9   2
   2  -8  -6 537730. 10790.0   2
   8  -6   7 250421. 6191.42   1
  -6   8   7 238588. 6238.84   1
   6  -8  -7 246355. 6250.19   1
   2  -8  -7 249888. 6298.73   1
  -2   8   7 234481. 6145.02   1
   8  -2   7 250097. 6219.25   1
  -8   2  -7 255560. 6292.92   1
  -8   6  -7 250018. 6242.03   1
   6  -8  -7 264351. 6242.47   2
   2  -8  -7 250348. 6307.75   2
  -2  -6   7 258534. 6199.01   2
   6  -8  -8 8488.26 1028.59   1
   8  -6   8 7627.18 922.342   1
   2  -8  -8 9778.50 1063.95   2
   2  -8  -8 10817.1 1149.42   1
   8  -2   8 9635.51 1034.30   1
  -8   2  -8 8703.98 999.730   1
  -2   8   8 8205.45 992.328   1
  -6   8   8 8441.05 960.591   1
  -8   6  -8 8495.78 970.523   1
   6  -8  -8 9194.76 989.929   2
  -6   8   9 140668. 4573.60   1
   6  -8  -9 156334. 4729.45   1
   8  -2   9 152978. 4675.15   1
  -2   8   9 155052. 4657.71   1
  -8   2  -9 149259. 4683.86   1
   8  -6   9 163344. 4711.67   1
  -8   6  -9 153635. 4703.69   1
   2  -8  -9 154993. 4729.05   1
   2  -8  -9 148527. 4685.83   2
  -6   8  10 80351.3 3262.44   1
   6  -8 -10 86533.6 3343.91   1
   2  -8 -10 82525.9 3316.87   1
   8  -2  10 87175.1 3347.00   1
  -2   8  10 78645.4 3194.77   1
  -8   2 -10 81283.5 3287.98   1
   8  -6  10 83333.4 3248.63   1
  -8   6 -10 80296.6 3265.53   1
   2  -8 -10 81725.1 3309.13   2
  -6   8  11 98355.7 3752.19   1
   8  -2  11 107311. 3858.69   1
   6  -8 -11 110318. 3957.18   1
   2  -8 -11 106938. 3906.52   1
  -2   8  11 108817. 3872.34   1
   8  -6  11 110263. 3872.99   1
  -8   2 -11 113125. 3965.64   1
  -8   6 -11 109481. 3929.83   1
   2  -8 -11 110387. 3972.91   2
   8  -2  12 12247.3 1236.04   1
  -6   8  12 11114.0 1187.53   1
   6  -8 -12 11543.7 1233.16   1
   2  -8 -12 10596.0 1152.27   1
  -2   8  12 11126.8 1190.64   1
   8  -6  12 12707.6 1241.17   1
  -8   2 -12 10059.4 1183.98   1
  -8   6 -12 10810.2 1194.87   1
   2  -8 -12 11126.0 1187.33   2
   8  -2  13 27891.7 1910.08   1
   2  -8 -13 29653.6 1977.07   1
  -2   8  13 26097.2 1849.96   1
   8  -6  13 28687.9 1956.89   1
  -8   2 -13 30395.2 1989.39   1
   6  -8 -13 29051.4 1977.84   1
  -8   6 -13 29589.7 2021.60   1
  -6   8  13 30092.6 2020.20   1
   2  -8 -13 29459.3 2039.93   2
   8  -2  14 129240. 4540.12   1
  -6   8  14 139672. 4725.06   1
   2  -8 -14 143380. 4644.96   1
  -2   8  14 139574. 4568.94   1
  -8   2 -14 136138. 4637.38   1
   6  -8 -15 1761.81 549.400   1
   2  -8 -15 3106.17 716.854   1
  -6   8  15 2071.08 593.066   1
   8  -2  15 1646.65 561.778   1
  -2   8  15 742.637 462.873   1
  -8   2 -15 2223.80 609.421   1
   6  -8 -16 61339.2 3102.13   1
   2  -8 -16 66690.5 3170.19   1
  -2   8  16 69730.4 3152.53   1
  -8   2 -16 58414.5 3017.15   1
   8  -2  16 62641.3 3076.93   1
  -8   2 -17 13293.9 1430.00   1
  -1  -7 -16 195345. 6125.76   2
  -1  -7 -15 3089.96 766.878   2
  -7  -1 -15 4095.01 773.603   2
   7   1  15 4079.04 730.809   1
  -1  -7 -15 5280.35 851.785   1
  -7  -1 -15 4001.71 837.055   1
   1   7  15 4589.71 824.917   1
  -1  -7 -14 5790.16 983.392   2
  -7  -1 -14 6362.96 951.070   2
   7   1  14 7445.01 991.571   1
  -1  -7 -14 6578.20 958.736   1
  -7  -1 -14 6562.53 1003.11   1
   1   7  14 7457.93 1012.77   1
   1   7  13 550.142 380.697   1
  -1  -7 -13 278.162 298.651   2
  -7  -1 -13 1235.00 592.441   2
   7   1  13 768.302 457.229   1
  -1  -7 -13 599.225 419.933   1
   8  -7 -13 813.829 358.888   1
  -7  -1 -13 305.587 326.194   1
  -8   7  12 159163. 5023.81   1
  -7  -1 -12 165907. 5122.02   2
  -1  -7 -12 160408. 5073.42   1
  -7  -1 -12 172899. 5198.30   1
   1   7  12 155113. 4918.15   1
   8  -7 -12 156267. 4988.49   1
   7   1  12 169249. 5051.74   1
  -1  -7 -12 170175. 5235.43   2
  -1  -7 -11 51.9403 362.535   2
  -7  -1 -11-496.894 407.234   2
   1   7  11-407.388 414.357   1
  -8   7  11 615.675 422.747   1
  -1  -7 -11-134.433 358.305   1
   7   1  11-460.086 452.067   1
   8  -7 -11 342.720 391.144   1
  -7  -1 -11 167.330 429.580   1
   1  -8  10 14071.5 1304.72   2
  -8   7  10 13850.5 1285.87   1
   7  -8  10 11728.1 1160.22   1
  -1  -7 -10 12689.3 1267.15   1
   8  -7 -10 11412.7 1187.07   1
  -7  -1 -10 13779.4 1292.49   1
   1   7  10 12839.0 1264.30   1
  -1  -7 -10 12409.7 1267.66   2
  -7   8 -10 13069.0 1297.36   1
  -7  -1 -10 13763.5 1319.49   2
   7   1  10 12090.5 1201.18   1
  -7   8  -9 5946.10 879.419   1
  -1  -7  -9 5550.15 842.324   2
  -7  -1  -9 3882.78 748.446   2
  -8   7   9 4485.47 746.547   1
   1  -8   9 4919.20 813.363   2
  -1  -7  -9 4910.12 813.752   1
   7  -8   9 5790.24 812.028   1
   8  -7  -9 3728.50 689.183   1
   7   1   9 5642.19 859.470   1
  -7  -1  -9 4821.16 808.445   1
   1   7   9 5641.78 857.940   1
  -8   7   8 519101. 10386.5   1
  -7   8  -8 515314. 10347.9   1
  -7  -1  -8 476476. 10353.3   2
   7  -8   8 511906. 10281.2   1
  -1  -7  -8 493796. 10425.5   1
   8  -7  -8 488229. 10247.0   1
   7   1   8 526606. 10525.5   1
   1   7   8 485805. 10278.6   1
  -7  -1  -8 477868. 10326.4   1
  -1  -7  -8 467744. 10262.5   2
   1  -8   8 492073. 10312.0   2
  -8   7   7 7743.71 947.979   1
  -1  -7  -7 7714.31 955.230   2
  -7  -1  -7 6992.46 936.400   2
   8  -7  -7 7625.69 924.185   1
  -7   8  -7 8350.68 963.000   1
   7  -8   7 7708.75 898.051   1
   1  -8   7 6223.10 869.765   2
  -1  -7  -7 6073.38 873.511   1
   1   7   7 7753.23 951.257   1
   7   1   7 6786.92 879.307   1
  -7  -1  -7 6940.75 936.328   1
   7   1   6 59793.3 2632.22   1
   8  -7  -6 52274.2 2469.61   1
  -1  -7  -6 58022.7 2595.66   1
  -7   8  -6 58336.4 2579.95   1
   7  -8   6 55403.5 2499.23   1
  -8   7   6 51795.8 2424.73   1
   1   7   6 53678.9 2544.86   1
  -7  -1  -6 55271.4 2556.93   1
   1  -8   6 55100.2 2506.37   2
  -7  -1  -6 52784.3 2537.17   2
  -1  -7  -6 52045.9 2487.50   2
  -1  -7  -5 2362.47 573.710   2
   1   7   5 2493.54 582.051   1
  -7  -1  -5 3008.97 648.335   2
  -7   8  -5 3377.17 666.383   1
  -8   7   5 2965.51 590.058   1
   7  -8   5 2791.96 584.693   1
  -1  -7  -5 3015.05 650.156   1
   8  -1  -5 2555.48 515.106   1
   8  -7  -5 2987.91 579.269   1
   1  -8   5 2069.69 539.776   2
  -7  -1  -5 3160.50 642.548   1
  -8   1   5 2777.07 546.073   1
   7   1   5 3200.98 629.471   1
  -1  -7  -4 774109. 14498.5   1
   7  -8   4 794955. 14321.3   1
   7  -8   4 756160. 14490.4   2
   8  -7  -3 10060.4 1022.96   1
  -7  -1  -3 14189.3 1183.41   2
   7   1   3 12624.1 1146.07   1
   1  -8   3 13973.3 1094.21   1
  -1   8  -3 12455.0 1078.08   1
  -1  -7  -3 14469.1 1194.28   1
   1   7   3 12023.4 1132.79   1
   8  -1  -3 13420.5 1152.69   1
  -7  -1  -3 12424.7 1128.64   1
  -8   1   3 10792.6 1057.03   1
   7  -8   3 10988.3 1109.07   2
  -7   8  -3 10809.4 1063.35   1
   7  -8   3 12084.3 1107.22   1
   1  -8   3 11502.3 1108.25   2
  -1  -7  -3 11226.2 1102.46   2
  -8   7   3 11174.8 1077.24   1
  -7  -1  -2 411183. 8499.91   2
  -8   1   2 404949. 8260.14   2
   7  -8   2 402610. 8668.56   2
  -1   8  -2 397707. 8292.95   1
  -1  -7  -2 401179. 8495.21   1
   1   7   2 382476. 8440.36   1
   8  -1  -2 399226. 8364.40   1
  -7  -1  -2 411755. 8533.48   1
  -8   1   2 372568. 8187.36   1
   1  -8   2 396209. 8338.54   1
   7   1   2 397287. 8523.83   1
   1  -8   2 394740. 8489.87   2
  -1  -7  -2 382190. 8460.69   2
   8  -7  -2 392555. 8461.48   1
  -8   7   2 403688. 8530.45   1
  -7   8  -2 391656. 8506.57   1
   7  -8   2 412059. 8524.39   1
  -1  -7  -1 1013.55 413.911   2
  -7  -1  -1 1582.40 412.518   1
  -7  -1  -1 2312.08 540.056   2
  -8   1   1 1888.05 456.980   2
  -8   7   1 1743.75 494.908   1
  -7   8  -1 1095.28 402.817   1
   1  -8   1 2116.97 522.884   1
   8  -1  -1 1553.76 474.067   1
   1   7   1 1795.32 499.787   1
  -1  -7  -1 2285.14 533.119   1
   8  -7  -1 2390.84 528.844   1
   7  -8   1 1522.06 497.532   1
  -1   8  -1 1661.60 465.074   1
   7  -8   1 1009.89 385.547   2
   7   1   1 2391.81 553.830   1
  -8   1   1 1489.31 467.177   1
   1  -8   1 1509.56 466.067   2
  -7   8   0 184292. 4986.14   1
  -1  -7   0 199009. 5038.62   1
  -8   1   0 190923. 4950.66   2
   7   1   0 169553. 4877.19   1
   1  -8   0 193788. 5023.31   1
   7  -8   0 183134. 4983.61   1
  -1   8   0 183577. 4987.26   1
  -7  -1   0 192974. 4981.35   2
   1   7   0 186592. 4961.40   1
   7  -8   0 183023. 5078.65   2
   8  -1   0 180737. 4922.31   1
  -7  -1   0 197474. 5038.50   1
  -8   1   0 184134. 4929.83   1
   8  -7   0 183821. 4997.94   1
  -1  -7   0 197982. 5130.51   2
   1  -8   0 180056. 4996.96   2
  -8   7   0 186118. 5056.80   1
  -1  -7   1 2305.62 543.725   2
  -7  -1   1 1497.08 411.614   2
   1   7  -1 1540.82 447.232   1
  -8   7  -1 2622.30 516.735   1
  -7   8   1 1313.47 411.725   1
   8  -1   1 1877.34 481.567   1
   7  -8  -1 2232.06 490.538   1
   1  -8  -1 2439.39 510.800   1
  -1  -7   1 2218.34 460.196   1
  -8   1  -1 1453.59 437.315   2
  -1   8   1 1623.33 502.201   1
  -7  -1   1 1966.38 529.753   1
   7  -8  -1 2305.76 565.282   2
  -8   1  -1 1662.65 478.057   1
   8  -7   1 2061.22 546.349   1
   7   1  -1 1738.94 439.522   1
   1  -8  -1 2075.04 528.303   2
  -7   8   2 272218. 6641.03   1
  -1  -7   2 295657. 6493.57   1
   7   1  -2 275000. 6520.17   1
   1  -8  -2 274355. 6627.70   1
   1  -8  -2 280421. 6681.68   2
  -1   8   2 275754. 6651.77   1
   1   7  -2 281578. 6446.59   1
   8  -1   2 321043. 6885.09   1
   8  -7   2 297139. 6756.08   1
   7  -8  -2 283196. 6698.10   2
  -7  -1   2 299189. 6576.81   1
   7  -8  -2 273671. 6605.20   1
  -8   1  -2 287970. 6700.37   1
  -1  -7   2 280751. 6652.21   2
  -8   7  -2 293444. 6800.03   1
  -7  -1   2 282673. 6452.09   2
   1  -8  -3 2569.95 541.960   2
   7  -8  -3 2032.57 491.026   1
  -8   7  -3 1910.65 486.305   1
   8  -1   3 2793.98 568.508   1
  -7   8   3 2244.59 535.338   1
  -8   1  -3 2198.47 523.558   1
   1  -8  -3 2606.14 550.184   1
   8  -7   3 1924.32 492.307   1
   1   7  -3 2138.70 456.351   1
  -1   8   3 2753.99 617.279   1
  -7  -1   3 2242.50 485.169   1
   7  -8  -3 2304.32 508.744   2
   7   1  -3 3325.54 580.946   1
  -1  -7   3 3327.12 672.540   2
   7  -8  -4 936987. 16503.6   2
   7  -8  -4 897240. 16419.0   1
  -7   8   5 9762.97 1045.45   1
   7  -8  -5 10437.5 1071.10   1
   8  -7   5 9391.02 1000.87   1
   1  -8  -5 8211.24 993.559   1
   8  -1   5 9295.07 1001.56   1
  -1   8   5 9041.44 1023.27   1
  -8   1  -5 9961.59 1047.97   1
   7  -8  -5 11022.1 1073.54   2
  -1  -7   5 9419.36 1006.39   2
  -8   7  -5 9186.86 1019.34   1
   1  -8  -5 9962.05 1049.08   2
   8  -7   6 8725.69 957.560   1
  -7   8   6 9103.82 1002.75   1
   7  -8  -6 10178.5 1030.27   2
  -1  -7   6 9469.82 1034.84   2
   8  -1   6 10854.1 1066.94   1
   1  -8  -6 9287.96 1037.50   1
   7  -8  -6 9591.25 1019.78   1
  -1   8   6 8423.20 955.044   1
  -8   1  -6 9424.92 1037.75   1
  -8   7  -6 8566.54 990.357   1
   1  -8  -6 9861.87 1067.69   2
   1  -8  -7 1264.11 503.566   2
  -8   7  -7 1252.45 467.312   1
  -7   8   7 238.419 344.168   1
   1  -8  -7 546.707 421.836   1
   8  -7   7-35.1920 370.874   1
  -8   1  -7 298.046 387.579   1
  -1   8   7 274.140 352.437   1
  -1  -7   7-150.775 359.235   2
   8  -1   7 145.776 309.737   1
   7  -8  -8 341966. 8006.02   1
   8  -1   8 347490. 8131.73   1
   1  -8  -8 356118. 8138.83   1
  -1   8   8 363521. 8142.78   1
  -7   8   8 340521. 8037.78   1
  -8   1  -8 331723. 8073.53   1
  -1  -7   8 364594. 8115.91   2
  -8   7  -8 362579. 8150.08   1
   8  -7   8 364071. 8039.65   1
   1  -8  -8 361571. 8213.08   2
   8  -7   9 8989.53 1045.54   1
  -7   8   9 10050.6 1110.10   1
   7  -8  -9 9032.71 1069.63   1
   8  -1   9 9999.01 1092.16   1
   1  -8  -9 9284.61 1085.27   1
  -1   8   9 10019.0 1106.13   1
  -8   1  -9 10907.7 1134.48   1
  -8   7  -9 8538.11 1015.80   1
   1  -8  -9 10962.6 1182.61   2
  -7   8  10 33496.9 2064.18   1
   8  -1  10 31622.7 1962.69   1
   7  -8 -10 29054.5 1930.50   1
   1  -8 -10 30720.1 1971.48   1
  -1   8  10 31195.6 1944.61   1
   1  -8 -10 31967.6 2021.40   2
  -8   1 -10 33029.0 2021.27   1
   8  -7  10 33739.3 2044.03   1
  -8   7 -10 34555.6 2038.94   1
   1  -8 -11 362.121 279.569   2
   7  -8 -11 217.984 393.107   1
  -8   1 -11 328.663 395.766   1
  -7   8  11 125.180 337.574   1
   1  -8 -11 263.968 400.554   1
   8  -7  11-344.209 400.285   1
   8  -1  11 48.7793 287.465   1
  -1   8  11-139.884 348.925   1
  -8   7 -11 336.844 297.372   1
   8  -1  12 243879. 6451.37   1
  -7   8  12 215577. 6291.04   1
   7  -8 -12 258777. 6666.78   1
   1  -8 -12 241361. 6459.08   1
  -1   8  12 236527. 6353.58   1
  -8   1 -12 244661. 6538.52   1
   8  -7  12 239086. 6450.22   1
  -8   7 -12 251883. 6666.10   1
   1  -8 -12 230825. 6535.45   2
   1  -8 -13 229.737 377.900   2
  -8   1 -13-388.880 438.930   2
   7  -8 -13 240.313 337.410   1
  -7   8  13-97.0333 335.097   1
   1  -8 -13-56.6405 388.764   1
   8  -1  13-73.7559 360.607   1
  -1   8  13 683.576 509.573   1
  -8   1 -13 102.489 380.878   1
   1  -8 -14 9256.85 1163.01   2
  -7   8  14 9389.58 1153.27   1
  -8   1 -14 10528.9 1227.85   2
   1  -8 -14 9945.62 1192.81   1
   8  -1  14 11894.6 1281.10   1
  -1   8  14 12389.0 1242.39   1
  -8   1 -14 11531.1 1278.01   1
   7  -8 -14 9906.97 1188.03   1
  -8   1 -15 521.700 421.991   2
   7  -8 -15 655.944 451.248   1
   1  -8 -15-111.403 341.739   1
   8  -1  15 712.701 477.779   1
  -8   1 -15 836.399 440.566   1
  -1   8  15 336.778 375.911   1
  -8   1 -16 166820. 5405.78   1
   8  -1  16 164568. 5347.71   1
  -8   0   0 16274.3 1307.11   2
   0  -8   0 14683.8 1223.10   1
   8  -8   0 14870.0 1317.09   2
   8   0   0 14692.4 1233.42   1
   0   8   0 16511.5 1351.34   1
  -8   0   0 13667.8 1185.38   1
   0  -8   0 15391.5 1302.25   2
   8  -8   0 16428.8 1307.62   1
  -8   8   0 14317.6 1236.74   1
   8  -8  -1 147436. 4397.44   1
  -8   0   1 156311. 4402.71   2
  -8   0  -1 157510. 4544.91   2
  -8   8  -1 146289. 4429.37   1
   0  -8  -1 155220. 4500.54   1
   8   0   1 142824. 4395.81   1
   8   0  -1 152493. 4405.50   1
   0   8  -1 153098. 4424.73   1
   0   8   1 150391. 4461.52   1
   8  -8   1 148566. 4388.42   1
  -8   0  -1 160319. 4547.63   1
  -8   0   1 149812. 4376.76   1
   0  -8   1 147959. 4463.27   2
   8  -8  -1 147055. 4563.06   2
   0  -8   1 150205. 4343.57   1
   0  -8  -1 144495. 4429.98   2
  -8   8   1 145678. 4433.79   1
  -8   0  -2 265775. 6446.98   2
   8  -8  -2 256653. 6327.38   1
   0  -8   2 264681. 6260.28   1
   8   0   2 247039. 6247.82   1
   0  -8  -2 266158. 6416.60   1
   0   8  -2 262986. 6224.75   1
   8   0  -2 266093. 6291.55   1
   0   8   2 254104. 6312.15   1
   0  -8  -2 247533. 6289.53   2
   0  -8   2 248868. 6311.41   2
  -8   0  -2 264275. 6387.51   1
  -8   0   2 239038. 6088.80   1
   8  -8  -2 259497. 6381.78   2
   8  -8   2 266941. 6343.35   1
  -8   8  -2 249579. 6277.16   1
  -8   8   2 246037. 6318.01   1
  -8   0  -3 57553.1 2543.28   2
   0  -8  -3 54534.4 2534.47   2
   8   0   3 54849.1 2541.71   1
   8  -8  -3 55191.2 2506.58   1
   0  -8  -3 55929.6 2505.48   1
   0   8  -3 55764.0 2385.33   1
   8   0  -3 54027.2 2430.93   1
   0   8   3 53135.3 2478.08   1
   8  -8   3 53318.0 2467.94   1
  -8   0  -3 48487.2 2384.53   1
  -8   0   3 58584.5 2473.22   1
   0  -8   3 53899.7 2515.96   2
  -8   8  -3 54301.7 2507.97   1
   8  -8  -3 57599.0 2563.50   2
  -8   8   3 54365.7 2510.72   1
  -8   8   4 22622.3 1577.98   1
   8  -8  -4 25051.5 1670.89   2
  -8   0  -4 31671.2 1859.03   2
   8   0   4 25359.3 1693.02   1
   0  -8  -4 22493.7 1617.30   1
   8  -8  -4 24800.2 1635.13   1
   8   0  -4 21013.2 1449.26   1
   8  -8   4 23763.9 1610.47   1
   0   8   4 24626.4 1679.44   1
  -8   8  -4 25932.4 1674.59   1
  -8   0  -4 26545.6 1702.59   1
  -8   0   4 26456.2 1614.25   1
   0  -8  -4 24505.9 1657.70   2
   0  -8   4 28994.6 1768.41   2
  -8   8  -5 130286. 4131.45   1
  -8   0  -5 113609. 3970.25   2
   8   0   5 128818. 4103.69   1
  -8   8   5 118557. 3983.78   1
   0  -8  -5 128634. 4110.37   1
   8  -8   5 119156. 3976.27   1
   8  -8  -5 124490. 4058.83   1
   0   8   5 131221. 4152.86   1
   0  -8  -5 137597. 4218.26   2
  -8   0  -5 125935. 4118.91   1
   8  -8  -5 123578. 4151.32   2
   0  -8   5 125331. 4083.26   2
  -8   8   6 325153. 7696.82   1
  -8   0  -6 321577. 7728.26   2
   8   0   6 351966. 7893.69   1
   8  -8   6 346196. 7791.74   1
   0  -8  -6 331873. 7852.43   1
   0   8   6 332630. 7806.32   1
   8  -8  -6 337235. 7757.13   1
  -8   0  -6 360884. 8001.70   1
   0  -8   6 327317. 7756.08   2
  -8   8  -6 350815. 7878.21   1
   0  -8  -6 320671. 7749.77   2
  -8   8   7 84828.8 3290.85   1
   8  -8   7 82670.8 3218.24   1
  -8   0  -7 80141.8 3236.17   2
   8   0   7 81904.6 3274.11   1
  -8   8  -7 80406.5 3215.17   1
   0  -8  -7 83976.1 3340.84   1
   0   8   7 82380.5 3269.08   1
  -8   0  -7 89850.4 3409.65   1
   8  -8  -7 78569.2 3175.93   1
   0  -8   7 87422.2 3331.79   2
   0  -8  -7 84283.4 3323.55   2
   8  -8   8 35091.2 2057.61   1
  -8   8   8 34636.7 2077.85   1
  -8   0  -8 36351.9 2092.86   2
   8   0   8 36039.6 2132.06   1
   0  -8  -8 40010.4 2196.98   1
   0   8   8 42292.2 2272.99   1
  -8   0  -8 41157.3 2219.86   1
   0  -8   8 40936.4 2241.63   2
  -8   8  -8 36891.3 2121.80   1
   0  -8  -8 39449.3 2229.19   2
   8  -8  -8 37554.3 2153.00   1
  -8   8   9 17030.6 1463.04   1
   8   0   9 19426.3 1527.04   1
  -8   0  -9 17594.7 1507.28   2
   0  -8  -9 17184.2 1435.10   1
   0   8   9 16812.8 1447.26   1
  -8   0  -9 17779.7 1506.26   1
   8  -8   9 17740.9 1454.48   1
   8  -8  -9 14645.3 1351.43   1
  -8   8  -9 17372.1 1455.88   1
   0  -8   9 16681.5 1440.26   2
   0  -8  -9 17810.8 1490.43   2
   8   0  10 126943. 4271.67   1
  -8   0 -10 130304. 4341.68   2
   0  -8 -10 123572. 4264.00   1
   0   8  10 121622. 4197.53   1
  -8   0 -10 122138. 4301.81   1
  -8   8  10 130410. 4313.00   1
   8  -8  10 122826. 4247.40   1
   8  -8 -10 125807. 4270.22   1
   0  -8 -10 117211. 4204.25   2
  -8   8 -10 121064. 4231.26   1
   8   0  11 86859.0 3454.88   1
  -8   8  11 89913.6 3507.11   1
  -8   0 -11 83887.3 3436.49   2
   0  -8 -11 90289.4 3525.49   1
   0   8  11 89334.5 3460.87   1
  -8   0 -11 87504.9 3549.29   1
   8  -8 -11 81904.3 3428.65   1
  -8   8 -11 90973.1 3579.88   1
   0  -8 -11 85817.1 3519.70   2
  -8   8  12 10323.4 1170.90   1
  -8   0 -12 13527.7 1369.52   2
   0  -8 -12 14195.9 1359.95   1
   0   8  12 12832.5 1260.60   1
  -8   0 -12 11384.9 1242.84   1
   8  -8 -12 10586.2 1192.11   1
   0  -8 -12 12754.8 1334.68   2
   8   0  12 11623.8 1239.68   1
  -8   0 -13 89202.2 3605.58   2
   0  -8 -13 87336.2 3599.45   1
   0   8  13 101179. 3763.22   1
  -8   0 -13 95853.6 3811.38   1
  -8   8  13 83678.6 3574.01   1
   8  -8 -13 76458.0 3538.25   1
   0  -8 -13 85337.9 3671.13   2
   8   0  13 96206.7 3723.62   1
  -8   0 -14 128076. 4503.56   2
   0  -8 -14 122524. 4321.20   1
   0   8  14 123468. 4299.22   1
  -8   0 -14 119138. 4397.15   1
   8   0  14 118669. 4244.65   1
   0  -8 -15 18937.3 1739.68   2
  -4  -5 -15 26668.5 1979.38   2
  -5  -4 -15 27405.2 1942.49   2
  -4  -5 -15 26080.7 1928.76   1
  -5  -4 -15 28265.1 1994.57   1
   4   5  15 24389.2 1817.94   1
   5   4  15 26939.6 1914.53   1
  -5  -4 -14 253655. 6861.50   2
  -4  -5 -14 234362. 6583.86   1
  -5  -4 -14 257791. 6806.50   1
   4   5  14 242457. 6578.32   1
   5   4  14 249800. 6658.50   1
  -4  -5 -14 247858. 6822.91   2
  -5  -4 -13 165949. 5172.96   2
  -4  -5 -13 153925. 5129.43   2
  -4  -5 -13 178181. 5331.54   1
  -5  -4 -13 168918. 5308.78   1
   4   5  13 160015. 5068.49   1
   5   4  13 171116. 5195.72   1
  -4  -5 -12 43279.3 2454.29   2
  -5  -4 -12 46410.3 2478.03   2
   5   4  12 44431.4 2425.85   1
  -4  -5 -12 40262.4 2390.03   1
  -5  -4 -12 38706.5 2365.47   1
   4   5  12 47083.6 2460.01   1
  -4  -5 -11 131391. 4456.32   2
  -4  -5 -11 136023. 4570.22   1
  -5  -4 -11 126463. 4427.62   1
  -5  -4 -11 128520. 4357.55   2
   4   5  11 141382. 4489.81   1
   4  -9  11 122204. 4393.01   2
   5   4  11 121866. 4237.51   1
  -4  -5 -10 231233. 6376.19   2
  -5  -4 -10 234207. 6313.23   2
  -4  -5 -10 241088. 6422.81   1
  -5  -4 -10 261091. 6618.82   1
   5   4  10 244116. 6343.11   1
   4   5  10 245613. 6391.81   1
   5  -9  10 215486. 6215.02   2
   4  -9  10 228956. 6364.98   2
  -4  -5  -9 25931.3 1807.55   2
  -5  -4  -9 25069.3 1732.86   2
  -4  -5  -9 26751.0 1833.27   1
  -5  -4  -9 26100.7 1811.98   1
   9  -5  -9 26333.8 1759.00   1
   4   5   9 24530.4 1756.05   1
   5   4   9 23822.6 1705.27   1
   5  -9   9 27408.8 1832.40   2
  -9   5   9 23502.1 1684.87   1
   4  -9   9 22764.6 1713.88   2
  -9   4   8 3914.04 691.360   1
   9  -4  -8 5421.41 751.317   1
  -4  -5  -8 4984.38 819.167   2
  -5  -4  -8 4568.67 824.575   2
  -9   5   8 5071.55 772.067   1
   4   5   8 5511.99 901.473   1
   5   4   8 5425.80 859.464   1
  -4  -5  -8 5581.53 854.053   1
  -5  -4  -8 4493.78 751.904   1
   9  -5  -8 4987.13 795.053   1
   4  -9   8 4851.79 805.781   2
   5  -9   8 4913.14 819.227   2
   5  -9   7 7266.46 982.107   2
  -4  -5  -7 6857.65 924.645   2
  -5  -4  -7 6676.69 945.495   2
   9  -4  -7 8298.86 932.470   1
  -9   5   7 9222.77 1013.84   1
   5   4   7 7211.34 964.146   1
   9  -5  -7 8596.55 988.524   1
  -4  -5  -7 6864.56 935.703   1
  -5  -4  -7 7513.94 992.673   1
   4   5   7 8064.94 1024.87   1
  -9   4   7 8709.01 960.504   1
   4  -9   7 6846.11 894.890   2
  -5   9  -7 9288.09 995.702   1
  -4   9  -6 86691.0 3176.10   1
  -5  -4  -6 84313.6 3262.06   2
   9  -4  -6 83794.7 3160.44   1
  -9   4   6 94163.5 3328.05   1
   5  -9   6 87363.8 3380.56   2
   9  -5  -6 81371.5 3162.14   1
  -4  -5  -6 91461.3 3419.46   1
   4  -9   6 80303.9 3237.53   2
  -5  -4  -6 83712.9 3320.80   1
   5  -9   6 93271.8 3314.32   1
   4   5   6 92017.9 3402.38   1
   5   4   6 92704.3 3401.53   1
  -9   5   6 83656.6 3170.13   1
  -5   9  -6 88977.5 3258.83   1
  -4  -5  -6 92034.4 3390.36   2
  -5  -4  -5 18463.6 1495.29   2
  -4   9  -5 20508.2 1439.22   1
  -5   9  -5 20925.0 1489.59   1
   9  -4  -5 20386.8 1437.05   1
   5   4   5 19750.6 1500.51   1
   5  -9   5 21860.6 1539.27   1
   9  -5  -5 20209.6 1443.47   1
  -4  -5  -5 18062.2 1441.18   1
  -5  -4  -5 19676.5 1507.73   1
   4  -9   5 19833.6 1463.75   1
   4   5   5 20293.8 1540.99   1
   4  -9   5 19665.7 1519.12   2
  -9   4   5 22440.8 1524.40   1
  -9   5   5 22841.0 1548.27   1
   5  -9   5 18555.0 1494.55   2
  -4  -5  -5 18680.2 1485.76   2
  -5  -4  -4 40481.2 2192.70   2
  -5   9  -4 44795.8 2205.65   1
   4  -9   4 41440.5 2176.19   2
   9  -4  -4 43939.6 2170.32   1
  -4   9  -4 44235.5 2160.09   1
   9  -5  -4 50150.5 2302.27   1
   5  -9   4 44946.0 2240.90   1
  -4  -5  -4 45070.3 2286.23   1
  -5  -4  -4 45255.9 2252.81   1
   5  -9   4 45201.4 2326.02   2
   4   5   4 45103.7 2278.64   1
  -9   4   4 41397.6 2130.45   1
   5   4   4 43368.8 2205.62   1
  -9   5   4 47078.7 2269.39   1
   4  -9   4 44238.1 2195.42   1
  -4  -5  -4 42274.0 2203.44   2
  -5  -4  -3 168422. 4780.06   2
   9  -4  -3 144633. 4426.76   1
  -5   9  -3 162795. 4614.13   1
  -4   9  -3 162544. 4622.83   1
  -4  -5  -3 151550. 4589.77   2
   5  -9   3 164916. 4701.74   2
   9  -5  -3 155723. 4541.36   1
  -9   5   3 145393. 4420.65   1
  -4  -5  -3 165367. 4727.94   1
  -5  -4  -3 164542. 4694.90   1
   4   5   3 161741. 4721.40   1
   5   4   3 160762. 4665.25   1
   5  -9   3 163043. 4617.49   1
   4  -9   3 164938. 4725.82   2
  -9   4   3 174807. 4765.35   1
   5  -9   2 342286. 7833.53   1
  -5   9  -2 362351. 7925.74   1
  -4   9  -2 371466. 8064.00   1
  -4  -5  -2 365264. 8016.09   1
  -5  -4  -2 350626. 7904.97   1
  -9   5   2 345502. 7873.99   1
   4   5   2 376683. 8042.23   1
   9  -4  -2 391205. 8009.57   1
   5  -9   2 342665. 7928.73   2
  -9   4   2 299044. 7580.88   1
   9  -5  -2 374537. 7975.75   1
   5   4   2 365920. 8011.33   1
   4  -9   2 376811. 8032.21   1
  -4  -5  -2 377265. 8080.64   2
   4  -9   2 358697. 7978.67   2
  -5  -4  -2 363447. 8014.64   2
  -5   9  -1 285978. 6727.29   1
   9  -5  -1 254312. 6407.03   1
  -4   9  -1 279712. 6702.59   1
   4  -9   1 285038. 6628.68   1
  -4  -5  -1 280515. 6659.82   1
  -5  -4  -1 295937. 6672.83   1
   5   4   1 279072. 6596.79   1
   4   5   1 277233. 6613.92   1
   5  -9   1 278621. 6671.52   2
  -9   4   1 260941. 6526.42   1
   4  -9   1 276561. 6664.12   2
  -9   5   1 312277. 6830.31   1
   9  -4  -1 272832. 6521.02   1
  -4  -5  -1 269037. 6581.52   2
  -5  -4  -1 272912. 6594.17   2
   9  -5   0 30247.3 1765.89   1
  -9   4   0 29440.2 1769.77   1
  -5   9   0 31873.7 1865.05   1
   5  -9   0 30090.0 1783.86   1
  -4   9   0 30627.6 1837.04   1
   4  -9   0 28308.2 1753.69   1
   5  -9   0 29986.9 1784.92   2
  -4  -5   0 25824.9 1653.76   1
  -5  -4   0 31652.6 1784.22   1
   4   5   0 29672.9 1742.44   1
  -9   5   0 30322.4 1771.16   1
   5   4   0 30191.4 1733.60   1
   4  -9   0 30199.8 1811.15   2
   9  -4   0 27837.9 1711.89   1
  -4  -5   0 30055.0 1792.22   2
  -5  -4   0 29986.0 1773.03   2
   9  -5   1 90350.0 3306.57   1
  -5   9   1 102668. 3591.21   1
   5  -9  -1 97255.4 3417.72   1
  -4   9   1 95404.2 3434.16   1
   4  -9  -1 95484.8 3413.77   1
  -9   4  -1 106411. 3558.95   1
  -4  -5   1 106095. 3442.68   1
   9  -4   1 98965.0 3422.78   1
  -5  -4   1 102091. 3382.79   1
   4   5  -1 97306.1 3331.82   1
  -4  -5   1 103924. 3476.39   2
   5  -9  -1 99210.2 3457.24   2
   4  -9  -1 97009.3 3461.88   2
  -9   5  -1 100369. 3457.82   1
  -5  -4   1 95956.6 3389.94   2
   5   4  -1 101442. 3390.60   1
   5  -9  -2 659547. 12417.1   1
   4  -9  -2 645127. 12368.1   1
  -5  -4   2 618344. 11981.2   1
  -9   5  -2 655838. 12433.5   1
   4  -9  -2 633756. 12372.0   2
   5  -9  -2 639826. 12335.6   2
  -5   9   3 77170.1 3053.61   1
   5  -9  -3 74945.7 3016.68   1
   4  -9  -3 72245.1 2964.47   1
  -4   9   3 74674.9 2972.22   1
  -4  -5   3 74587.5 2946.35   2
  -9   4  -3 85250.6 3149.26   1
   9  -4   3 76279.3 2980.72   1
   5  -9  -3 73318.7 3001.66   2
  -9   5  -3 80419.8 3072.55   1
   4  -9  -3 72343.3 2969.84   2
   9  -5   3 77576.3 2979.43   1
  -5  -4   3 82713.6 3049.58   2
  -5   9   4 31914.2 1865.44   1
   5  -9  -4 28921.4 1801.95   1
   4  -9  -4 29092.3 1797.05   1
  -4   9   4 30568.5 1816.31   1
   9  -4   4 30451.5 1805.94   1
   4  -9  -4 28724.4 1794.95   2
  -9   4  -4 27573.2 1738.68   1
  -9   5  -4 30896.1 1829.25   1
   5  -9  -4 30285.9 1849.91   2
   9  -5   4 31678.4 1816.25   1
  -4  -5   4 27543.4 1697.37   2
  -5  -4   4 26296.0 1657.74   2
   9  -5   5 74877.2 2945.77   1
  -5   9   5 71924.9 2932.64   1
   5  -9  -5 68214.5 2897.82   1
   4  -9  -5 71810.5 2938.28   1
  -4   9   5 67035.7 2841.38   1
  -9   5  -5 67543.2 2842.59   1
   4  -9  -5 69566.3 2934.23   2
   9  -4   5 67890.8 2796.80   1
  -9   4  -5 69426.7 2914.27   1
   5  -9  -5 71500.4 2908.10   2
  -4  -5   5 69280.7 2800.95   2
   5  -9  -6 42599.9 2270.34   1
  -5   9   6 45195.8 2308.98   1
   4  -9  -6 45798.6 2347.40   1
  -9   5  -6 48292.5 2367.91   1
  -4   9   6 44940.5 2293.27   1
   9  -4   6 43670.5 2266.76   1
  -9   4  -6 44260.5 2308.24   1
   9  -5   6 45834.7 2244.03   1
   5  -9  -6 48282.1 2388.71   2
   4  -9  -6 45898.3 2362.98   2
   5  -9  -7 4321.45 724.199   1
   4  -9  -7 4600.63 760.533   1
   9  -4   7 4317.58 714.544   1
  -5   9   7 4733.37 755.822   1
  -4   9   7 4039.66 719.318   1
   9  -5   7 3602.08 666.948   1
  -9   4  -7 4874.36 771.934   1
  -9   5  -7 3799.80 700.485   1
   4  -9  -7 4326.84 744.878   2
   5  -9  -7 4535.64 767.736   2
   5  -9  -8 8001.96 1005.55   1
   4  -9  -8 6727.41 942.651   1
   9  -4   8 8310.95 962.992   1
  -5   9   8 7197.14 912.503   1
  -4   9   8 8340.47 1006.02   1
   9  -5   8 6702.51 897.176   1
  -9   5  -8 8211.60 1004.26   1
  -9   4  -8 8042.02 970.585   1
   5  -9  -8 7179.43 965.407   2
   4  -9  -8 7147.71 962.190   2
   5  -9  -9 32854.5 2013.02   1
   4  -9  -9 30646.8 1979.31   1
  -5   9   9 34684.5 2070.09   1
  -4   9   9 34928.2 2055.62   1
   4  -9  -9 34672.2 2088.77   2
   9  -4   9 30609.7 1931.73   1
   9  -5   9 31089.8 1939.92   1
  -9   4  -9 29018.3 1899.69   1
  -9   5  -9 35050.3 2084.42   1
   5  -9  -9 35473.9 2132.03   2
   5  -9 -10 224768. 6151.67   1
   4  -9 -10 233869. 6276.80   1
  -5   9  10 210931. 6029.41   1
  -4   9  10 256085. 6387.11   1
   9  -4  10 235843. 6220.96   1
   9  -5  10 232123. 6204.78   1
  -9   4 -10 229674. 6260.30   1
  -9   5 -10 236038. 6287.87   1
   5  -9 -10 220030. 6237.85   2
   4  -9 -10 239976. 6413.31   2
   5  -9 -11 183120. 5471.99   1
   4  -9 -11 190041. 5511.23   1
  -5   9  11 183798. 5363.16   1
  -4   9  11 186570. 5418.44   1
   9  -4  11 186676. 5455.51   1
   9  -5  11 189557. 5456.49   1
  -9   4 -11 182517. 5456.72   1
  -9   5 -11 187220. 5507.65   1
   4  -9 -11 195270. 5712.55   2
   5  -9 -12 54433.6 2757.65   1
   4  -9 -12 60212.8 2863.72   1
  -5   9  12 57743.6 2769.09   1
   9  -4  12 53925.9 2738.68   1
  -4   9  12 60189.3 2820.64   1
   9  -5  12 57108.8 2768.84   1
  -9   4 -12 54018.8 2734.36   1
  -9   5 -12 54328.1 2768.29   1
   5  -9 -13 107901. 3992.79   1
   4  -9 -13 103011. 3965.24   1
   9  -4  13 99268.5 3870.26   1
  -5   9  13 116077. 4060.33   1
  -4   9  13 112500. 4046.87   1
   9  -5  13 100571. 3869.97   1
  -9   4 -13 105450. 4028.44   1
  -9   5 -13 97747.3 3890.89   1
   9  -4  14 251951. 6866.20   1
   5  -9 -14 243371. 6788.83   1
  -5   9  14 256434. 6847.00   1
   4  -9 -14 284524. 7126.44   1
   9  -5  14 218634. 6593.55   1
  -4   9  14 262491. 6848.32   1
  -9   4 -14 257065. 6907.30   1
  -9   5 -14 244921. 6839.55   1
   9  -4  15 23739.4 1861.58   1
   9  -5  15 24838.3 1891.08   1
   5  -9 -15 25940.4 1917.42   1
  -5   9  15 23142.4 1828.55   1
   4  -9 -15 25928.1 1952.95   1
  -4   9  15 24698.9 1861.97   1
  -9   4 -15 23847.7 1875.15   1
  -9   5 -15 26295.0 1986.23   1
  -3  -6 -15 4477.82 904.767   2
  -6  -3 -14 33336.8 2140.04   2
  -3  -6 -14 32571.0 2129.81   1
  -6  -3 -14 34126.4 2188.14   1
   3   6  14 33000.1 2074.77   1
   6   3  14 35133.9 2157.14   1
  -3  -6 -14 30807.3 2163.26   2
   3   6  13 3903.76 745.807   1
  -3  -6 -13 3852.36 786.634   2
  -6  -3 -13 4603.29 857.188   2
   6   3  13 3647.36 735.934   1
  -3  -6 -13 3368.52 737.408   1
  -6  -3 -13 3276.90 758.976   1
  -6  -3 -12 325174. 7893.03   2
  -3  -6 -12 316831. 7856.35   1
  -6  -3 -12 313279. 7805.86   1
   3   6  12 333939. 7760.84   1
   6   3  12 325375. 7761.29   1
  -3  -6 -12 328016. 7940.03   2
   3   6  11 5444.06 863.244   1
  -3  -6 -11 6122.13 936.647   2
  -6  -3 -11 5350.97 892.127   2
   6   3  11 4080.52 748.068   1
  -3  -6 -11 5948.28 928.605   1
  -6  -3 -11 5152.76 879.538   1
   3  -9  11 4370.46 848.232   2
  -6  -3 -10 37879.3 2233.69   2
  -9   6  10 42690.2 2303.27   1
   3  -9  10 34984.4 2212.06   2
  -3  -6 -10 38004.0 2267.68   1
  -6  -3 -10 42276.7 2318.69   1
   3   6  10 36730.4 2202.80   1
   9  -6 -10 42172.7 2305.70   1
   6   3  10 38395.4 2169.34   1
  -3  -6 -10 35349.1 2166.19   2
   9  -6  -9 403.836 384.745   1
   3   6   9 428.954 387.361   1
   3  -9   9 207.293 291.051   2
  -3  -6  -9 237.498 383.741   2
  -6  -3  -9 411.116 398.774   2
  -9   6   9 650.337 441.131   1
   6   3   9-337.041 409.330   1
  -3  -6  -9-311.981 376.525   1
  -6  -3  -9 570.827 354.518   1
  -6  -3  -8 393577. 8921.26   2
  -3  -6  -8 403293. 9021.29   1
  -6  -3  -8 407911. 9076.41   1
   3   6   8 382095. 8844.76   1
   9  -6  -8 373296. 8692.76   1
   6  -9   8 405164. 9045.32   2
   3  -9   8 400459. 8938.19   2
   6   3   8 400561. 8993.46   1
  -6   9  -8 408192. 8937.02   1
  -3  -6  -8 403664. 9047.11   2
  -6  -3  -7 41990.0 2246.05   2
  -3  -6  -7 38149.2 2185.15   1
  -6  -3  -7 41645.2 2274.22   1
   6  -9   7 41025.1 2178.04   1
   3   6   7 41281.6 2274.94   1
   6  -9   7 40460.8 2270.68   2
   9  -6  -7 41637.1 2214.14   1
   3  -9   7 40366.9 2251.65   2
   6   3   7 43120.4 2290.87   1
  -6   9  -7 42137.9 2206.94   1
   9  -3  -7 38126.9 2083.43   1
  -9   6   7 41808.5 2218.47   1
  -3  -6  -7 39266.0 2203.15   2
  -9   3   6 2415.32 522.070   1
   3   6   6 2681.47 643.173   1
  -3  -6  -6 2681.76 576.403   2
  -6  -3  -6 3215.38 645.951   2
  -9   6   6 3362.33 641.864   1
  -6   9  -6 2847.77 621.816   1
   9  -3  -6 3251.28 614.713   1
   3  -9   6 2694.54 610.512   2
   6   3   6 3087.62 654.961   1
   6  -9   6 2562.94 573.512   1
  -3  -6  -6 2271.16 553.819   1
  -6  -3  -6 2974.53 687.531   1
   6  -9   6 3045.52 699.378   2
   9  -6  -6 2848.96 598.858   1
  -3  -6  -5 2104.88 602.204   2
   3   6   5 1946.95 524.728   1
  -6  -3  -5 1529.32 494.835   2
  -9   6   5 2298.85 543.170   1
   9  -3  -5 1337.52 429.745   1
  -6   9  -5 1874.11 520.385   1
   6  -9   5 2189.27 493.395   1
  -3   9  -5 1809.50 468.279   1
   6   3   5 1540.84 533.499   1
  -3  -6  -5 1738.78 529.783   1
  -6  -3  -5 1339.52 476.414   1
   6  -9   5 2047.47 585.749   2
   9  -6  -5 2355.14 581.316   1
   3  -9   5 1954.15 537.745   2
  -9   3   5 1978.91 540.858   1
  -6  -3  -4 383096. 8379.59   2
   6  -9   4 377582. 8280.74   1
  -3   9  -4 392983. 8344.24   1
   3  -9   4 355866. 8229.99   2
   3  -9   4 378339. 8219.80   1
  -3  -6  -4 366448. 8367.69   1
  -6  -3  -4 372045. 8374.45   1
   9  -6  -4 387935. 8375.93   1
   3   6   4 369306. 8368.63   1
  -9   3   4 398703. 8305.36   1
  -3  -6  -4 405095. 8582.74   2
   9  -3  -4 399190. 8362.19   1
   6  -9   4 372443. 8432.49   2
   6   3   4 390723. 8499.50   1
  -9   6   4 350580. 8153.38   1
  -6   9  -4 376166. 8328.90   1
  -6   9  -3 28774.3 1757.13   1
  -6  -3  -3 25307.3 1693.52   2
  -3   9  -3 25883.4 1688.52   1
   3  -9   3 26406.1 1682.48   1
   6  -9   3 29471.2 1729.90   1
  -3  -6  -3 28080.7 1741.75   1
   9  -6  -3 25735.5 1684.51   1
  -6  -3  -3 25866.1 1711.61   1
   3   6   3 26151.8 1686.13   1
  -9   3   3 28949.7 1720.43   1
   6  -9   3 25774.3 1740.09   2
   3  -9   3 26306.4 1692.00   2
   9  -3  -3 32575.2 1833.50   1
  -9   6   3 28496.0 1755.56   1
   6   3   3 27205.8 1717.11   1
  -3  -6  -3 24979.1 1693.57   2
  -6  -3  -2 20774.5 1497.01   2
  -6   9  -2 20191.6 1489.04   1
  -3   9  -2 20655.1 1475.75   1
   3  -9   2 22033.1 1527.89   1
  -3  -6  -2 20115.7 1475.51   1
   9  -6  -2 22608.1 1549.53   1
   6  -9   2 19279.1 1463.44   1
  -6  -3  -2 23683.8 1543.12   1
   3   6   2 20570.0 1486.95   1
  -9   3   2 22328.8 1473.19   1
   9  -3  -2 21840.3 1487.83   1
   6  -9   2 19515.7 1489.94   2
   3  -9   2 21400.9 1537.67   2
  -9   6   2 22387.7 1550.67   1
  -3  -6  -2 22765.3 1544.47   2
   6   3   2 20487.3 1484.96   1
   6  -9   1 3484.01 660.061   1
   3   6   1 3806.77 655.597   1
  -3  -6  -1 3846.06 703.766   2
  -6  -3  -1 3176.73 673.627   2
   3  -9   1 4080.57 631.947   1
  -6   9  -1 3181.05 580.119   1
  -3   9  -1 3425.55 641.476   1
   6   3   1 2731.86 557.637   1
   9  -6  -1 3690.88 638.030   1
  -3  -6  -1 3176.89 625.316   1
  -6  -3  -1 3280.63 644.786   1
   6  -9   1 2834.83 649.124   2
  -9   6   1 3864.25 688.573   1
   9  -3  -1 5041.00 716.942   1
   3  -9   1 4673.71 711.941   2
  -9   3   1 3113.98 582.222   1
   6  -9   0 619200. 12231.2   1
   3  -9   0 627185. 12235.7   1
  -3  -6   0 652633. 12324.3   2
   6  -9   0 643770. 12406.2   2
   3   6  -1 300.244 254.401   1
   3  -9  -1 154.923 400.625   2
   6  -9  -1-345.853 379.282   2
  -3  -6   1 407.640 372.121   2
  -9   6  -1 491.221 350.424   1
  -6  -3   1 34.6049 288.650   2
   9  -6   1 6.55938 287.750   1
   3  -9  -1 387.794 385.736   1
  -6   9   1 152.035 312.352   1
   6  -9  -1 461.885 380.678   1
   9  -3   1 146.719 246.876   1
   6   3  -1 781.234 417.892   1
  -3  -6   1 104.891 250.581   1
  -3   9   1 307.686 291.250   1
  -6  -3   1 148.284 331.732   1
  -9   3  -1 105.329 307.064   1
  -3  -6   2 6380.97 815.534   2
  -9   6  -2 5085.77 752.891   1
   6  -9  -2 4650.87 774.480   1
   3  -9  -2 5212.84 791.909   1
  -6   9   2 5607.09 786.489   1
   6   3  -2 5083.20 730.344   1
  -6  -3   2 5859.23 771.026   1
   3   6  -2 6128.38 752.273   1
  -3   9   2 5612.93 776.052   1
   9  -3   2 5850.35 790.036   1
   9  -6   2 4253.75 683.480   1
   6  -9  -2 6248.78 829.675   2
  -9   3  -2 5528.42 810.460   1
   3  -9  -2 5675.60 853.351   2
  -6  -3   2 8198.88 934.907   2
  -3  -6   3 1233.23 472.913   2
  -9   6  -3 962.844 505.620   1
  -6  -3   3 1643.50 487.818   2
   6  -9  -3 959.581 473.425   1
   3  -9  -3 1262.77 482.422   1
  -6   9   3 986.240 465.835   1
  -3   9   3 1017.87 413.497   1
   9  -3   3 1350.59 482.974   1
   9  -6   3 2096.74 588.115   1
   3  -9  -3 1273.27 427.912   2
   6  -9  -3 728.992 340.089   2
  -9   3  -3 1266.32 465.045   1
   6  -9  -4 541740. 10786.5   2
  -6   9   4 537349. 10781.1   1
   6  -9  -4 537824. 10730.0   1
   3  -9  -4 513544. 10657.6   1
  -3   9   4 510646. 10627.5   1
  -9   3  -4 516537. 10663.2   1
  -9   6  -4 477842. 10506.7   1
   3  -9  -4 522844. 10723.6   2
  -3  -6   4 581912. 10862.0   2
  -6   9   5 29016.5 1856.33   1
   6  -9  -5 27178.2 1803.15   1
   3  -9  -5 27568.2 1812.29   1
  -3   9   5 29202.8 1794.22   1
   9  -3   5 30312.6 1806.71   1
  -9   3  -5 28927.1 1832.37   1
  -9   6  -5 28864.8 1810.77   1
   6  -9  -5 26786.6 1773.65   2
   3  -9  -5 29829.8 1870.20   2
   9  -6   5 30290.6 1797.33   1
  -3  -6   5 30884.0 1818.24   2
   9  -6   6 5054.11 789.598   1
   6  -9  -6 3832.79 721.941   1
   3  -9  -6 4482.86 799.292   1
   9  -3   6 4546.11 743.024   1
  -6   9   6 4463.27 792.808   1
  -3   9   6 4696.88 785.385   1
  -9   3  -6 5093.04 798.859   1
   6  -9  -6 3695.41 721.371   2
  -3  -6   6 3572.07 627.657   2
   3  -9  -6 4204.29 793.209   2
  -9   6  -6 3683.99 688.831   1
   9  -3   7 3307.08 660.655   1
   6  -9  -7 3464.07 675.292   1
   3  -9  -7 4381.06 782.403   1
   3  -9  -7 2938.25 636.888   2
  -6   9   7 3482.64 670.029   1
  -3   9   7 3450.10 683.184   1
  -9   3  -7 2789.98 625.691   1
   6  -9  -7 3654.13 748.498   2
   9  -6   7 3643.49 662.276   1
  -9   6  -7 3752.41 692.941   1
  -6   9   8 360745. 8274.00   1
   6  -9  -8 323928. 7965.49   1
   3  -9  -8 352048. 8212.07   1
  -3   9   8 356478. 8161.31   1
   9  -3   8 362974. 8102.35   1
  -9   3  -8 343659. 8091.13   1
   9  -6   8 348925. 8078.89   1
  -9   6  -8 360205. 8228.14   1
   3  -9  -8 351745. 8271.88   2
   6  -9  -8 367356. 8283.69   2
  -6   9   9 11010.1 1181.94   1
   6  -9  -9 12491.6 1272.36   1
   3  -9  -9 12256.5 1241.59   1
  -3   9   9 11277.5 1190.04   1
   9  -3   9 13073.9 1238.03   1
   9  -6   9 13768.2 1284.25   1
  -9   3  -9 11667.0 1219.79   1
  -9   6  -9 14092.9 1310.83   1
   3  -9  -9 11899.2 1248.16   2
  -6   9  10 56494.2 2684.78   1
   6  -9 -10 50492.6 2593.44   1
   3  -9 -10 51851.4 2587.50   1
   9  -3  10 51272.9 2569.69   1
  -3   9  10 52805.3 2556.70   1
   9  -6  10 46251.4 2455.89   1
  -9   3 -10 45228.1 2491.68   1
  -9   6 -10 50419.3 2571.77   1
   3  -9 -10 51912.7 2646.04   2
   3  -9 -11 823.278 392.469   2
   6  -9 -11 1005.94 480.078   1
   3  -9 -11 1432.61 565.506   1
   9  -6  11 558.014 340.552   1
  -6   9  11 846.819 438.545   1
  -3   9  11 1649.34 529.654   1
  -9   3 -11 1312.71 502.031   1
  -9   6 -11 676.883 360.831   1
   9  -3  11 1247.43 488.615   1
  -6   9  12 268017. 6965.94   1
   6  -9 -12 264008. 6926.29   1
   9  -3  12 264540. 6912.91   1
   3  -9 -12 268353. 6939.29   1
  -3   9  12 274094. 6893.43   1
   9  -6  12 246205. 6687.71   1
  -9   3 -12 262876. 6949.98   1
  -9   6 -12 248787. 6769.77   1
   3  -9 -12 242078. 6960.28   2
   9  -6  13 44.1421 318.489   1
  -9   6 -13 530.127 396.002   1
   6  -9 -13 785.227 512.268   1
   3  -9 -13 1159.90 550.924   1
  -9   3 -13 682.882 465.441   1
  -6   9  13 405.173 383.834   1
   9  -3  13 396.224 416.920   1
  -3   9  13 376.252 347.491   1
   9  -3  14 35436.5 2245.70   1
  -6   9  14 34440.3 2242.18   1
   6  -9 -14 34223.5 2209.58   1
   3  -9 -14 36489.2 2279.27   1
  -3   9  14 36149.5 2194.36   1
  -9   3 -14 36151.1 2273.11   1
  -9   6 -14 33582.5 2231.86   1
   6  -9 -15 1031.67 441.815   1
   3  -9 -15 2309.57 649.678   1
  -6   9  15 1695.51 558.609   1
  -3   9  15 1804.26 564.155   1
   9  -3  15 1642.24 533.370   1
  -9   3 -15 2176.84 651.486   1
  -7  -2 -14 66137.7 3051.29   2
  -2  -7 -14 60386.7 2958.38   1
  -7  -2 -14 58840.6 2914.66   1
   2   7  14 53503.0 2733.68   1
   7   2  14 62368.9 2932.39   1
  -2  -7 -14 57258.9 2977.08   2
  -7  -2 -13 46381.3 2510.05   2
  -2  -7 -13 42322.7 2482.07   2
  -2  -7 -13 44442.9 2488.18   1
  -7  -2 -13 42942.8 2489.12   1
   2   7  13 42394.5 2397.17   1
   7   2  13 43878.7 2438.82   1
  -7  -2 -12 11079.0 1220.89   2
  -2  -7 -12 10586.7 1195.14   1
  -7  -2 -12 9830.36 1197.19   1
   2   7  12 9221.88 1137.17   1
   7   2  12 10883.2 1196.07   1
  -2  -7 -12 10137.7 1195.47   2
   9  -7 -11 63195.9 2986.36   1
  -7  -2 -11 66154.5 3009.80   2
  -2  -7 -11 67538.0 3034.72   1
  -7  -2 -11 70757.7 3112.43   1
   2   7  11 65938.9 2949.32   1
   2  -9  11 63472.0 3077.25   2
   7   2  11 75389.0 3122.24   1
  -2  -7 -11 66644.7 3098.74   2
  -9   7  11 67952.5 3097.06   1
   9  -7 -10 222291. 6106.23   1
  -7  -2 -10 225624. 6074.95   2
  -2  -7 -10 210110. 5996.85   1
  -7  -2 -10 217735. 6065.39   1
   2   7  10 215066. 5961.29   1
   2  -9  10 219474. 6175.62   2
   7   2  10 215000. 5956.74   1
  -2  -7 -10 208511. 5983.80   2
  -9   7  10 217735. 6047.84   1
   9  -7  -9 21435.2 1639.59   1
  -7  -2  -9 25237.8 1782.92   2
  -7   9  -9 23278.0 1693.20   1
  -2  -7  -9 21683.4 1658.64   1
  -7  -2  -9 23626.7 1736.81   1
   2   7   9 22498.9 1682.10   1
   2  -9   9 23175.9 1725.03   2
   7   2   9 24521.4 1719.73   1
  -2  -7  -9 24422.3 1720.52   2
  -9   7   9 25286.6 1770.35   1
  -7   9  -8 87321.1 3435.55   1
   7  -9   8 87670.6 3421.53   1
  -2  -7  -8 89844.6 3488.47   1
   2  -9   8 87544.8 3522.61   2
  -7  -2  -8 91001.4 3509.42   1
   2   7   8 88534.0 3446.23   1
  -7  -2  -8 93653.1 3553.39   2
  -2  -7  -8 91161.2 3474.49   2
   7   2   8 88171.1 3406.79   1
  -9   7   8 85569.0 3406.40   1
   9  -7  -8 87483.9 3434.47   1
  -7   9  -7 25603.6 1717.75   1
  -7  -2  -7 23266.9 1639.13   2
   2  -9   7 22171.9 1683.20   2
   7  -9   7 22489.2 1644.47   1
  -2  -7  -7 21581.9 1633.56   1
  -7  -2  -7 22485.7 1658.72   1
   2   7   7 22654.0 1666.56   1
   9  -7  -7 25276.8 1717.60   1
  -2  -7  -7 21383.9 1616.81   2
  -9   7   7 21500.2 1598.37   1
   7   2   7 23000.2 1682.46   1
  -7  -2  -6 338913. 7981.07   2
  -2  -7  -6 331738. 7928.08   1
   7  -9   6 362453. 8024.98   1
  -7  -2  -6 345845. 8045.29   1
   2   7   6 342314. 8004.89   1
   9  -2  -6 342093. 7799.48   1
   7  -9   6 344660. 8087.48   2
   2  -9   6 339573. 7957.09   2
   9  -7  -6 341927. 7920.54   1
  -7   9  -6 361476. 8092.70   1
  -2  -7  -6 354548. 8081.86   2
  -9   7   6 343842. 7941.70   1
   7   2   6 350299. 8038.36   1
   7   2   5 228611. 5917.20   1
  -7  -2  -5 226545. 5909.41   2
   7  -9   5 210077. 5826.48   2
  -2  -7  -5 215561. 5817.50   1
  -7  -2  -5 204642. 5770.83   1
   2   7   5 220752. 5837.66   1
   9  -2  -5 211226. 5581.10   1
   7  -9   5 227397. 5827.79   1
  -9   2   5 217489. 5651.38   1
   2  -9   5 212619. 5771.24   2
   9  -7  -5 211774. 5704.19   1
  -7   9  -5 219245. 5794.10   1
  -2  -7  -5 213632. 5800.86   2
  -9   7   5 242081. 5937.72   1
   9  -7  -4 7279.89 946.188   1
   7   2   4 8268.18 973.721   1
  -7  -2  -4 10908.8 1125.74   2
   7  -9   4 7132.69 915.581   1
  -2  -7  -4 8220.72 991.391   1
  -7  -2  -4 9446.61 1049.81   1
   2   7   4 8112.36 982.512   1
   9  -2  -4 11568.5 1082.05   1
  -9   2   4 9503.46 1006.49   1
   7  -9   4 7036.62 934.875   2
   2  -9   4 10025.2 1070.53   2
  -2  -7  -4 8327.18 1016.94   2
  -9   7   4 9249.33 999.008   1
  -7   9  -4 7654.22 944.745   1
   7   2   3 300857. 7191.91   1
  -7  -2  -3 316180. 7219.83   2
  -2   9  -3 306588. 7057.26   1
   2  -9   3 294204. 7000.89   1
  -2  -7  -3 305656. 7207.52   1
   7  -9   3 293206. 7239.52   2
  -7  -2  -3 293298. 7098.72   1
   2   7   3 288829. 7102.46   1
   9  -2  -3 323895. 7218.55   1
   9  -7  -3 295109. 7068.32   1
  -9   2   3 332255. 7330.08   1
   2  -9   3 279540. 7005.84   2
  -2  -7  -3 291122. 7126.74   2
  -9   7   3 302579. 7116.49   1
   7  -9   3 304240. 7106.23   1
  -7   9  -3 300133. 7177.70   1
   7  -9   2 107208. 3642.78   1
   2  -9   2 104824. 3623.49   1
  -2   9  -2 113880. 3691.53   1
   7   2   2 114701. 3818.38   1
  -7  -2  -2 108980. 3748.16   2
  -2  -7  -2 104607. 3685.60   1
  -7  -2  -2 117780. 3840.22   1
   2   7   2 106570. 3726.83   1
   9  -2  -2 101509. 3561.38   1
   9  -7  -2 110237. 3702.96   1
  -9   2   2 120622. 3856.61   1
   7  -9   2 110046. 3838.85   2
   2  -9   2 107825. 3687.38   2
  -2  -7  -2 105546. 3716.46   2
  -9   7   2 102486. 3631.10   1
  -7   9  -2 111398. 3801.43   1
  -7   9  -1 15289.6 1330.74   1
  -7  -2  -1 18584.0 1450.27   2
   7   2   1 16679.5 1351.70   1
   2  -9   1 18760.1 1391.15   1
  -2   9  -1 16782.9 1333.08   1
   7  -9   1 17182.1 1330.64   1
   7  -9   1 16819.3 1416.58   2
  -2  -7  -1 19302.9 1404.90   1
   2   7   1 18267.9 1406.03   1
   9  -7  -1 16730.2 1304.71   1
  -7  -2  -1 18870.4 1432.35   1
   9  -2  -1 18936.6 1393.90   1
  -9   2   1 17701.1 1387.54   1
   2  -9   1 17420.7 1402.20   2
  -9   7   1 18675.1 1417.13   1
  -2  -7  -1 17653.5 1435.37   2
  -2  -7   0 980.332 400.381   2
  -7  -2   0 1573.80 505.510   2
  -9   7   0 1151.46 511.342   1
   2  -9   0 539.409 395.008   2
  -7   9   0 1390.28 461.403   1
   2  -9   0 1179.32 408.247   1
   7  -9   0 1471.96 490.895   1
  -2  -7   0 1113.43 379.125   1
   9  -2   0 1052.93 402.341   1
  -2   9   0 1452.33 486.885   1
   7   2   0 1402.97 464.495   1
   9  -7   0 1185.66 438.944   1
  -7  -2   0 1053.03 463.656   1
   7  -9   0 1202.32 395.846   2
  -9   2   0 1349.47 380.743   1
   2   7   0 1038.68 409.565   1
  -2  -7   1 895.795 453.741   2
  -7  -2   1 1304.03 523.104   2
  -9   7  -1 424.421 340.367   1
   7  -9  -1 1203.50 483.045   2
  -7   9   1 979.565 367.512   1
   2  -9  -1 384.327 318.381   1
   9  -2   1 1001.75 468.768   1
  -2  -7   1 980.323 414.346   1
   9  -7   1 669.182 431.659   1
  -2   9   1 698.605 363.768   1
   7   2  -1 792.128 361.338   1
  -7  -2   1 738.537 379.625   1
   2   7  -1 651.160 344.634   1
   7  -9  -1 340.838 352.652   1
  -9   2  -1 1037.26 446.042   1
   2  -9  -1 875.293 392.802   2
   7   2  -2 365499. 7990.01   1
  -7   9   2 366448. 8088.63   1
   2  -9  -2 356866. 8042.41   1
   9  -7   2 362948. 7996.20   1
  -2   9   2 354543. 8001.58   1
   2   7  -2 347444. 7796.03   1
   9  -2   2 334345. 7866.00   1
  -7  -2   2 385561. 8007.70   1
  -9   2  -2 362301. 8096.39   1
   7  -9  -2 358545. 8136.73   2
   7  -9  -2 356546. 8051.07   1
   2  -9  -2 347642. 8032.90   2
  -9   7  -2 347306. 8006.64   1
  -2  -7   2 362940. 8075.35   2
  -7  -2   2 378326. 8072.49   2
   7  -9  -3 110133. 3743.70   1
   7   2  -3 110830. 3613.81   1
  -7   9   3 102755. 3642.04   1
   9  -7   3 108333. 3692.74   1
   2  -9  -3 108381. 3749.80   1
  -2   9   3 112130. 3773.40   1
   9  -2   3 106307. 3682.11   1
  -9   2  -3 107445. 3690.53   1
   7  -9  -3 107928. 3784.25   2
  -9   7  -3 99745.7 3632.55   1
   2  -9  -3 106309. 3747.49   2
  -2  -7   3 107100. 3700.08   2
  -7   9   4 226085. 5892.19   1
   9  -7   4 219949. 5791.76   1
   2  -9  -4 218418. 5907.74   1
   7  -9  -4 225319. 5930.03   1
  -2   9   4 230437. 5968.42   1
   9  -2   4 240840. 5996.72   1
  -9   2  -4 222231. 5879.53   1
   7  -9  -4 226740. 5975.84   2
  -9   7  -4 211117. 5769.19   1
  -2  -7   4 235382. 5970.50   2
   2  -9  -4 233041. 6029.66   2
   9  -7   5 171749. 4998.45   1
  -7   9   5 172507. 5075.27   1
   2  -9  -5 174463. 5120.25   1
  -2  -7   5 190059. 5236.02   2
  -2   9   5 183723. 5215.12   1
   9  -2   5 177260. 5044.79   1
   7  -9  -5 185563. 5219.72   2
  -9   2  -5 176158. 5117.20   1
  -9   7  -5 175972. 5077.40   1
   2  -9  -5 177308. 5180.43   2
  -7   9   6 377457. 8598.66   1
   7  -9  -6 381013. 8624.74   1
   2  -9  -6 376119. 8675.28   1
  -2   9   6 371966. 8510.68   1
   9  -2   6 369094. 8482.94   1
   7  -9  -6 394767. 8729.93   2
  -9   2  -6 407062. 8782.84   1
  -9   7  -6 380023. 8686.67   1
  -2  -7   6 391759. 8635.80   2
   2  -9  -6 388839. 8657.15   2
   9  -7   6 397900. 8571.97   1
  -7   9   7 92229.6 3504.95   1
   7  -9  -7 86749.6 3423.43   1
   2  -9  -7 94952.9 3575.77   1
   9  -2   7 96849.0 3531.99   1
  -2   9   7 98909.4 3609.34   1
  -9   2  -7 95232.7 3575.04   1
  -9   7  -7 92746.6 3480.98   1
  -2  -7   7 94632.1 3562.77   2
   9  -7   7 89786.2 3384.82   1
   2  -9  -7 90500.1 3506.48   2
   7  -9  -7 86079.4 3378.42   2
   2  -9  -8 5055.66 836.057   2
   9  -7   8 7268.79 938.039   1
   9  -2   8 4460.84 796.094   1
   7  -9  -8 4352.31 745.664   1
  -7   9   8 5961.91 881.335   1
   2  -9  -8 4558.34 782.259   1
  -2   9   8 5256.63 818.771   1
  -9   2  -8 5207.30 855.010   1
  -9   7  -8 6775.90 911.952   1
  -7   9   9 82099.0 3394.07   1
   7  -9  -9 79679.1 3299.60   1
   9  -2   9 78625.0 3316.39   1
   2  -9  -9 87124.1 3446.65   1
  -2   9   9 85945.8 3380.00   1
  -9   2  -9 88782.0 3499.76   1
  -9   7  -9 80735.5 3343.37   1
   9  -7   9 88402.5 3421.81   1
   2  -9  -9 86238.7 3454.00   2
  -7   9  10 61998.9 2976.18   1
   7  -9 -10 66056.7 2986.19   1
   9  -2  10 65714.9 2951.59   1
   2  -9 -10 61446.0 2890.46   1
  -2   9  10 57763.4 2765.29   1
  -9   2 -10 67111.8 3031.36   1
   9  -7  10 64033.6 2918.35   1
  -9   7 -10 65450.7 2981.46   1
   2  -9 -10 62273.7 2961.96   2
  -7   9  11 81619.2 3437.87   1
   9  -2  11 76664.1 3237.62   1
   7  -9 -11 71266.6 3199.83   1
   2  -9 -11 74118.5 3233.04   1
  -2   9  11 75951.6 3214.24   1
  -9   2 -11 75636.8 3286.20   1
   9  -7  11 76602.8 3241.63   1
  -9   7 -11 73607.6 3270.62   1
   2  -9 -11 75693.6 3289.40   2
   9  -2  12 19307.8 1548.57   1
  -7   9  12 17797.0 1575.52   1
   7  -9 -12 15476.9 1488.49   1
   2  -9 -12 19384.6 1558.85   1
  -2   9  12 19844.3 1559.23   1
   9  -7  12 17026.1 1477.11   1
  -9   2 -12 16796.1 1539.42   1
  -9   7 -12 17098.9 1532.28   1
   2  -9 -12 16835.9 1593.97   2
   9  -2  13 21888.8 1730.25   1
  -7   9  13 16112.0 1514.49   1
   7  -9 -13 20076.5 1682.08   1
   2  -9 -13 19850.1 1648.59   1
  -2   9  13 19701.2 1633.39   1
  -9   2 -13 19539.1 1674.59   1
  -9   7 -13 19111.1 1600.47   1
   2  -9 -13 18901.1 1675.98   2
   9  -2  14 149700. 4975.92   1
  -7   9  14 149449. 5091.10   1
   7  -9 -14 141182. 4942.23   1
   2  -9 -14 151579. 4996.63   1
  -2   9  14 159472. 5027.24   1
  -9   2 -14 156865. 5113.69   1
   7  -9 -15 3657.39 813.474   1
  -1  -8 -14 127603. 4654.01   2
  -8  -1 -13 11776.8 1266.48   2
  -1  -8 -13 11134.0 1240.12   1
   1   8  13 12094.8 1279.79   1
  -8  -1 -13 11310.4 1243.72   1
   8   1  13 11119.3 1201.09   1
  -1  -8 -13 10933.2 1280.19   2
  -1  -8 -12 2495.35 709.175   2
  -8  -1 -12 3211.41 683.794   2
  -9   8  12 2171.43 589.303   1
  -1  -8 -12 3244.89 722.586   1
   8   1  12 2499.87 603.344   1
  -8  -1 -12 1608.35 612.489   1
   1   8  12 2454.24 640.385   1
   9  -8 -12 2177.68 630.991   1
  -9   8  11 73886.7 3277.88   1
   9  -8 -11 75082.3 3342.79   1
  -1  -8 -11 76063.3 3294.60   1
   1   8  11 78230.2 3258.97   1
  -8  -1 -11 74198.1 3302.57   1
  -8  -1 -11 84048.1 3432.42   2
  -1  -8 -11 74882.2 3322.19   2
   8   1  11 77492.3 3260.78   1
  -9   8  10 160472. 4970.54   1
  -8  -1 -10 167182. 5038.93   2
   9  -8 -10 144724. 4817.23   1
  -1  -8 -10 146854. 4855.56   1
   1   8  10 162589. 4937.21   1
  -8  -1 -10 158592. 4991.06   1
   1  -9  10 136933. 4780.08   2
  -8   9 -10 144694. 4852.62   1
  -1  -8 -10 156329. 4942.70   2
   8   1  10 148880. 4809.57   1
   8   1   9 117895. 4098.03   1
  -9   8   9 104365. 3941.32   1
  -8  -1  -9 123017. 4156.85   2
   9  -8  -9 104383. 3959.00   1
  -1  -8  -9 115523. 4134.98   1
   1   8   9 114260. 4041.23   1
  -8  -1  -9 121295. 4250.09   1
   1  -9   9 108768. 4105.78   2
  -8   9  -9 114104. 4123.13   1
  -1  -8  -9 113251. 4098.01   2
   8  -9   9 109209. 3981.70   1
  -9   8   8 107329. 3921.70   1
   8   1   8 113729. 3983.92   1
  -8  -1  -8 112392. 4001.10   2
   8  -9   8 115987. 4034.59   1
   9  -8  -8 106606. 3876.95   1
  -1  -8  -8 107342. 4004.15   1
   1   8   8 114210. 4003.81   1
  -8  -1  -8 103750. 3948.76   1
   1  -9   8 104162. 3974.58   2
  -8   9  -8 113398. 4010.37   1
  -1  -8  -8 112469. 4012.78   2
   8   1   7 13293.6 1294.47   1
  -8  -1  -7 16154.9 1411.64   2
   9  -8  -7 14912.8 1348.54   1
   8  -9   7 15193.7 1302.50   1
  -1  -8  -7 13267.6 1301.43   1
   1   8   7 14942.2 1364.77   1
  -8  -1  -7 15679.2 1400.63   1
   1  -9   7 12739.3 1284.99   2
  -8   9  -7 14422.4 1346.66   1
  -1  -8  -7 14892.1 1302.19   2
  -9   8   7 15006.3 1383.22   1
   8   1   6 205542. 5569.54   1
  -8  -1  -6 180132. 5399.52   2
   9  -8  -6 183975. 5342.07   1
   8  -9   6 187583. 5436.47   1
  -1  -8  -6 193914. 5541.71   1
   1   8   6 204469. 5595.78   1
  -8  -1  -6 195133. 5543.98   1
   1  -9   6 201812. 5600.91   2
  -8   9  -6 195772. 5504.13   1
  -1  -8  -6 190811. 5440.48   2
  -9   8   6 205580. 5578.88   1
   9  -8  -5 42816.2 2279.70   1
  -8  -1  -5 40473.6 2250.26   2
   8   1   5 41169.4 2250.13   1
  -1  -8  -5 39357.8 2237.69   1
   8  -9   5 42195.6 2253.31   1
   1   8   5 39146.5 2226.91   1
  -8  -1  -5 43836.0 2285.95   1
   1  -9   5 40447.0 2221.62   2
  -8   9  -5 43052.4 2292.13   1
  -1  -8  -5 38410.7 2206.84   2
  -9   8   5 45890.3 2337.62   1
  -1  -8  -4 54.5904 348.397   2
  -8  -1  -4 120.269 352.473   2
  -8   9  -4 477.970 443.600   1
  -9   8   4-36.5921 362.165   1
   9  -1  -4 95.5025 333.172   1
   9  -8  -4 1424.67 553.117   1
  -1  -8  -4 673.103 429.688   1
  -8  -1  -4-269.893 358.052   1
   8   1   4-3.63251 295.961   1
   8  -9   4 477.917 328.826   1
   1   8   4 663.490 426.743   1
  -9   1   4 340.650 363.163   1
   1  -9   4-11.1844 333.811   2
  -8  -1  -3 146177. 4523.10   2
   8   1   3 133738. 4362.25   1
  -1  -8  -3 143246. 4505.97   1
   9  -1  -3 146485. 4412.75   1
   1   8   3 135268. 4454.33   1
  -8  -1  -3 136568. 4388.84   1
  -9   1   3 153104. 4495.92   1
   8  -9   3 141387. 4421.00   1
   8  -9   3 145529. 4573.32   2
   1  -9   3 138646. 4433.50   2
   9  -8  -3 136863. 4394.43   1
  -1  -8  -3 148232. 4517.96   2
  -8   9  -3 150275. 4530.33   1
  -9   8   3 149824. 4540.10   1
  -8  -1  -2 213906. 5771.36   2
   8   1   2 201921. 5614.89   1
   1  -9   2 213841. 5640.67   1
  -1   9  -2 213741. 5603.78   1
  -1  -8  -2 222314. 5832.51   1
   9  -1  -2 214272. 5645.63   1
   1  -9   2 207468. 5708.52   2
   1   8   2 213971. 5719.95   1
  -8  -1  -2 231001. 5845.23   1
  -9   1   2 235592. 5827.39   1
   8  -9   2 206990. 5817.03   2
   9  -8  -2 210145. 5605.67   1
   8  -9   2 205403. 5625.34   1
  -1  -8  -2 205418. 5672.30   2
  -9   8   2 216795. 5714.61   1
  -8   9  -2 206346. 5657.97   1
  -8  -1  -1 103402. 3679.21   2
   8   1   1 110266. 3740.40   1
   1  -9   1 108718. 3724.48   1
  -1  -8  -1 112293. 3801.11   1
  -1   9  -1 104591. 3619.41   1
   9  -1  -1 109384. 3698.33   1
   1   8   1 107765. 3759.59   1
  -8  -1  -1 118131. 3870.93   1
  -9   1   1 104366. 3622.28   1
   9  -8  -1 101221. 3626.25   1
   8  -9   1 106332. 3825.47   2
   1  -9   1 105026. 3746.28   2
  -1  -8  -1 106347. 3713.81   2
   8  -9   1 107602. 3693.68   1
  -9   8   1 101900. 3647.36   1
  -8   9  -1 100568. 3657.88   1
  -8  -1   0 21368.9 1536.81   2
   8  -9   0 20897.1 1508.77   1
  -9   1   0 20469.2 1529.28   2
   8   1   0 19404.0 1491.05   1
   1  -9   0 20709.3 1543.12   1
  -1  -8   0 20430.7 1490.79   1
  -1   9   0 19769.9 1504.01   1
   9  -1   0 20726.8 1512.75   1
   1   8   0 21892.2 1545.88   1
  -8  -1   0 19966.7 1518.08   1
   9  -8   0 19713.2 1510.37   1
  -9   1   0 18718.2 1469.91   1
   8  -9   0 20055.4 1561.30   2
   1  -9   0 20033.6 1560.52   2
  -9   8   0 19969.4 1519.62   1
  -1  -8   0 18748.4 1468.74   2
  -8   9   0 21819.1 1576.70   1
  -8   9   1 83084.2 3240.74   1
  -8  -1   1 80483.2 3161.04   2
  -9   1  -1 88117.5 3327.14   2
   8   1  -1 85772.3 3217.87   1
   8  -9  -1 81784.9 3182.98   1
   1  -9  -1 82178.3 3231.63   1
  -1  -8   1 75131.4 3051.83   1
  -1   9   1 81858.2 3192.88   1
   9  -1   1 79882.2 3153.75   1
   1   8  -1 77464.6 3089.67   1
   9  -8   1 81378.7 3117.98   1
  -8  -1   1 77887.3 3090.20   1
  -9   1  -1 89696.3 3311.18   1
   8  -9  -1 88478.7 3398.13   2
   1  -9  -1 78723.8 3177.67   2
  -1  -8   1 85632.3 3256.88   2
  -9   8  -1 91628.8 3349.82   1
  -8   9   2 324319. 7585.88   1
  -9   1  -2 348869. 7789.64   2
   8   1  -2 336966. 7600.87   1
   1  -9  -2 349581. 7842.73   1
   8  -9  -2 348242. 7750.06   1
  -1   9   2 308713. 7565.93   1
   9  -1   2 321609. 7563.32   1
   9  -8   2 320771. 7555.30   1
  -8  -1   2 295166. 7270.12   1
  -9   1  -2 306033. 7470.73   1
   8  -9  -2 327368. 7734.19   2
  -1  -8   2 345534. 7783.44   2
   1  -9  -2 348337. 7830.65   2
  -9   8  -2 311207. 7531.57   1
  -8   9   3 49125.2 2445.14   1
  -9   1  -3 53399.4 2569.95   2
   8   1  -3 56209.1 2519.83   1
   1  -9  -3 53517.5 2550.09   1
   9  -1   3 45907.3 2390.59   1
   9  -8   3 50753.8 2479.34   1
  -1   9   3 53289.0 2545.43   1
   8  -9  -3 47372.8 2424.65   1
  -9   1  -3 50745.7 2476.30   1
   8  -9  -3 53277.2 2564.16   2
  -1  -8   3 50183.9 2464.78   2
  -9   8  -3 51815.4 2475.20   1
   1  -9  -3 50121.0 2481.72   2
  -8   9   4 93297.1 3492.21   1
  -9   1  -4 95928.4 3568.77   2
   9  -8   4 92490.8 3435.50   1
   1  -9  -4 85742.9 3405.02   1
   9  -1   4 96672.1 3527.62   1
  -1   9   4 90368.3 3450.01   1
   8  -9  -4 95812.8 3474.59   1
  -9   1  -4 92943.1 3496.23   1
   8  -9  -4 94158.0 3559.34   2
   1  -9  -4 93256.3 3480.86   2
  -1  -8   4 86597.9 3380.46   2
  -9   8  -4 93721.8 3505.41   1
  -8   9   5 60112.4 2695.60   1
  -9   1  -5 58977.6 2781.47   2
   9  -8   5 56087.5 2613.81   1
   1  -9  -5 58746.6 2732.58   2
   9  -1   5 58772.9 2712.55   1
   1  -9  -5 56796.2 2720.34   1
  -1   9   5 57538.4 2683.59   1
  -9   1  -5 60961.0 2721.90   1
   8  -9  -5 58503.3 2675.32   1
   8  -9  -5 59078.3 2755.46   2
  -1  -8   5 63544.9 2818.11   2
  -9   8  -5 60392.1 2687.12   1
  -8   9   6 129990. 4276.95   1
   9  -8   6 125874. 4186.08   1
  -9   1  -6 141325. 4523.48   2
   9  -1   6 130404. 4309.15   1
   1  -9  -6 140099. 4478.74   1
  -1   9   6 135190. 4382.35   1
  -9   1  -6 134658. 4389.31   1
   8  -9  -6 129346. 4281.38   1
  -1  -8   6 134756. 4456.60   2
  -9   8  -6 123502. 4237.81   1
   1  -9  -6 131794. 4366.00   2
  -8   9   7 111088. 3998.76   1
   1  -9  -7 118474. 4075.54   2
  -9   1  -7 123615. 4187.22   2
   9  -1   7 125084. 4156.24   1
   1  -9  -7 116484. 4097.90   1
  -1   9   7 107343. 3941.17   1
  -9   1  -7 114272. 4062.70   1
   8  -9  -7 121521. 4101.87   1
  -9   8  -7 120725. 4158.20   1
  -1  -8   7 119401. 4111.90   2
   9  -8   7 111776. 3933.11   1
  -9   8  -8 2706.72 595.785   1
   1  -9  -8 3850.46 712.403   2
  -9   1  -8 4322.46 761.312   2
   9  -8   8 3299.33 675.268   1
  -8   9   8 4379.22 742.319   1
   1  -9  -8 3875.09 718.306   1
  -1   9   8 2882.66 631.965   1
  -9   1  -8 4525.43 822.075   1
   8  -9  -8 3036.44 694.885   1
   9  -1   8 3206.45 706.781   1
   8  -9  -9 44213.5 2399.96   1
  -8   9   9 44333.4 2410.74   1
  -9   1  -9 44124.1 2415.10   2
   9  -1   9 39565.1 2242.97   1
   1  -9  -9 44327.4 2424.54   1
  -1   9   9 42637.3 2339.66   1
  -9   1  -9 45234.9 2417.57   1
  -9   8  -9 40538.6 2310.20   1
   9  -8   9 42833.6 2365.55   1
   1  -9  -9 42045.0 2387.16   2
  -8   9  10 198705. 5583.54   1
  -9   1 -10 172958. 5379.05   2
   9  -1  10 191638. 5469.83   1
   8  -9 -10 174895. 5445.25   1
   1  -9 -10 190577. 5546.59   1
  -1   9  10 198343. 5529.40   1
  -9   1 -10 179469. 5386.21   1
   9  -8  10 163900. 5266.68   1
  -9   8 -10 177225. 5475.49   1
   1  -9 -10 188713. 5565.59   2
  -8   9  11 14125.5 1372.49   1
   9  -1  11 12419.1 1293.60   1
  -9   1 -11 11891.7 1267.66   2
   8  -9 -11 14456.0 1425.33   1
   1  -9 -11 13295.2 1338.29   1
  -1   9  11 14575.7 1318.67   1
  -9   1 -11 12655.9 1331.54   1
   9  -8  11 12592.8 1289.84   1
  -9   8 -11 12929.4 1346.83   1
   1  -9 -11 13556.0 1365.59   2
   8  -9 -12 6924.13 1006.89   1
   1  -9 -12 7257.17 978.882   2
   9  -1  12 8954.55 1115.02   1
  -9   1 -12 8359.79 1089.11   2
  -8   9  12 7419.05 963.464   1
   1  -9 -12 8016.68 1025.87   1
  -9   1 -12 7132.03 1036.51   1
  -1   9  12 7979.91 995.006   1
  -9   8 -12 6818.89 1006.20   1
   9  -1  13 84882.1 3582.48   1
  -8   9  13 77743.0 3478.96   1
  -9   1 -13 76831.0 3377.69   2
   8  -9 -13 84275.7 3619.39   1
   1  -9 -13 89571.1 3636.50   1
  -1   9  13 89706.4 3559.53   1
  -9   1 -13 79525.0 3469.33   1
   1  -9 -13 76111.7 3509.84   2
  -8   9  14 91102.3 3831.97   1
   8  -9 -14 97055.4 3952.31   1
   1  -9 -14 89507.5 3861.19   2
  -9   0  -1 149.322 260.833   1
  -9   0  -1 804.364 464.016   2
   9  -9  -1 637.497 429.733   1
  -9   9  -1 706.351 381.005   1
  -9   9   1 1117.38 500.208   1
   0  -9   1 1216.22 547.640   1
   0  -9  -1 246.459 379.630   1
   0   9  -1-144.539 391.891   1
   0   9   1 395.181 364.493   1
  -9   0   1 311.799 356.095   1
   9  -9   1 633.273 309.590   1
   9   0   1 475.908 416.917   1
   9   0  -1 425.955 362.610   1
   0  -9   1 281.555 381.365   2
   0  -9  -1 719.415 464.584   2
   0  -9  -2 1853.62 577.570   2
   9   0  -2 2419.36 596.899   1
  -9   0  -2 1329.81 451.565   2
  -9   9  -2 1966.14 549.146   1
  -9   9   2 1972.13 542.900   1
   9  -9  -2 1653.47 494.782   1
   0  -9  -2 1762.94 523.196   1
   0   9   2 1298.26 466.907   1
  -9   0  -2 1968.09 573.836   1
  -9   0   2 2034.88 566.942   1
   9  -9   2 2036.13 576.602   1
   9   0   2 2244.58 569.759   1
   0  -9   2 2710.66 658.139   2
   9   0  -3 1294.62 431.239   1
   0  -9  -3 822.026 431.365   2
  -9   0  -3 1512.31 577.194   2
  -9   9  -3 1046.61 427.059   1
  -9   9   3 977.318 463.278   1
   0  -9  -3 876.733 474.846   1
   9  -9  -3 1283.11 547.643   1
   9  -9   3 525.848 368.353   1
   0   9   3 1162.07 440.439   1
  -9   0  -3 930.787 402.989   1
   9  -9  -3 2014.75 607.740   2
   9   0   3 1299.66 525.740   1
   0  -9   3 1818.33 605.956   2
  -9   0  -4 63401.1 2937.67   2
   9  -9  -4 59725.9 2714.75   1
   9   0   4 57320.9 2692.96   1
   0  -9  -4 58880.1 2780.75   1
   9  -9   4 59671.6 2737.64   1
   0   9   4 57404.0 2739.63   1
  -9   0  -4 54086.8 2674.31   1
   0  -9   4 60770.6 2817.35   2
  -9   9  -4 56845.8 2706.75   1
   9  -9  -4 60533.9 2851.08   2
   0  -9  -4 59163.3 2768.86   2
  -9   9   4 67204.7 2866.61   1
   0  -9  -5 509.207 444.956   2
  -9   9  -5 351.700 386.609   1
  -9   0  -5 880.290 459.527   2
  -9   9   5 361.246 339.545   1
   9  -9   5 410.517 396.140   1
   0  -9  -5 279.316 347.912   1
  -9   0  -5 375.702 324.990   1
   0   9   5-36.2858 287.004   1
   9  -9  -5 441.509 294.771   1
   9   0   5 740.327 437.015   1
   0  -9   5 618.488 415.020   2
   0  -9  -6 1931.09 574.530   2
   0   9   6 1962.58 564.971   1
  -9   9  -6 2636.65 631.959   1
   9  -9   6 2047.25 562.470   1
  -9   0  -6 2249.56 617.031   2
  -9   9   6 1732.82 527.755   1
   0  -9  -6 2507.59 603.078   1
  -9   0  -6 2036.97 571.562   1
   9   0   6 1902.72 500.737   1
   0  -9   6 2205.07 605.678   2
   9  -9  -6 2074.22 520.288   1
   0  -9  -7 975.158 461.242   2
  -9   9  -7 1315.16 466.172   1
   9  -9  -7 1104.36 462.656   1
  -9   0  -7 1282.08 487.484   2
  -9   9   7 927.454 436.405   1
   0  -9  -7 1160.70 481.582   1
   9  -9   7 1423.48 520.544   1
  -9   0  -7 875.037 424.141   1
   9   0   7 497.575 301.803   1
   0  -9   7 1213.05 431.174   2
   0   9   7 1263.21 440.254   1
  -9   9   8 237721. 6427.47   1
   9   0   8 264779. 6647.27   1
  -9   0  -8 254215. 6668.83   2
   0  -9  -8 245567. 6621.65   1
   9  -9  -8 229488. 6407.91   1
   0   9   8 242592. 6468.86   1
  -9   0  -8 259476. 6637.14   1
  -9   9  -8 245288. 6586.57   1
   0  -9   8 239449. 6601.96   2
   0  -9  -8 247000. 6565.34   2
   9  -9   8 229550. 6321.13   1
  -9   9  -9 619.674 363.255   1
   0  -9  -9 606.912 426.274   2
  -9   0  -9 1102.69 501.979   2
   9  -9   9 1283.85 540.773   1
   9  -9  -9 65.6941 360.350   1
  -9   9   9 484.542 427.627   1
   0  -9  -9 294.501 365.405   1
   9   0   9 314.885 385.772   1
  -9   0  -9 639.133 420.086   1
   0   9   9-222.755 416.569   1
   9  -9  10 2714.16 688.249   1
   0  -9 -10 2430.18 704.176   2
  -9   0 -10 2347.07 662.253   2
  -9   9  10 1679.71 530.649   1
   0  -9 -10 1981.82 603.324   1
   9  -9 -10 2699.43 714.642   1
   9   0  10 2431.66 591.054   1
  -9   0 -10 2675.51 657.836   1
   0   9  10 2867.85 676.557   1
  -9   9 -10 2633.08 629.925   1
   0  -9 -11-564.244 534.487   2
  -9   0 -11 510.275 525.855   2
  -9   9  11 39.6184 315.967   1
   0  -9 -11 791.299 468.805   1
   9  -9 -11 67.7114 306.009   1
   9   0  11 106.170 347.946   1
  -9   0 -11 6.38505 374.309   1
   0   9  11 292.747 274.438   1
  -9   9  12 309784. 8085.39   1
  -9   0 -12 330739. 8209.05   2
   0  -9 -12 312397. 8029.87   1
   0   9  12 332597. 8078.05   1
   9  -9 -12 317752. 8235.83   1
  -9   0 -12 363032. 8487.47   1
   0  -9 -12 349035. 8457.26   2
   9   0  12 355476. 8257.87   1
   0  -9 -13 533.285 354.246   2
   9  -9 -13 540.471 382.844   1
  -5  -5 -13-211.309 403.238   2
  -5  -5 -12 754417. 14647.6   2
   5   5  12 763231. 14498.6   1
  -5  -5 -11-149.278 387.950   2
   5   5  11 32.3940 319.365   1
  -5  -5 -11 359.903 404.722   1
  -5  -5 -10 26519.6 1922.87   2
  -5  -5 -10 31117.4 2084.21   1
   5   5  10 31507.4 2024.83   1
   5 -10  10 26871.0 1946.16   2
  -5  -5  -9 583.966 478.350   2
   5   5   9-6.64958 353.479   1
  -5  -5  -9 195.310 385.277   1
   5 -10   9-413.161 454.431   2
  -5  -5  -8 85099.3 3505.74   2
  10  -5  -8 89418.5 3466.81   1
   5   5   8 87420.5 3527.18   1
   5 -10   8 93724.6 3680.87   2
 -10   5   8 91977.3 3559.29   1
 -10   5   7-40.1509 320.790   1
  10  -5  -7 10.1205 315.285   1
  -5  -5  -7-227.040 397.485   2
   5   5   7 261.776 372.673   1
  -5  -5  -7 85.5764 323.946   1
   5 -10   7 1094.94 450.787   2
  10  -5  -6 19466.7 1501.50   1
  -5  -5  -6 19583.6 1565.87   1
   5   5   6 20585.5 1569.73   1
   5 -10   6 20990.6 1593.84   2
 -10   5   6 17745.8 1452.18   1
  -5  -5  -6 17508.5 1497.17   2
 -10   5   5 308.613 310.943   1
  -5  -5  -5 1080.71 519.766   2
   5   5   5-199.838 255.897   1
  -5  10  -5 65.0829 304.647   1
  -5  -5  -5 165.414 338.728   1
   5 -10   5 30.8004 249.703   1
   5 -10   5-74.7678 352.585   2
  10  -5  -5-124.574 290.907   1
  -5  10  -4 243496. 6243.93   1
  10  -5  -4 240741. 6200.89   1
  -5  -5  -4 238103. 6317.71   1
   5 -10   4 248331. 6295.36   1
   5   5   4 232609. 6241.32   1
   5 -10   4 242942. 6312.66   2
 -10   5   4 251002. 6330.61   1
  -5  -5  -4 239737. 6288.66   2
 -10   5   3 143.132 303.825   1
  -5  -5  -3-234.468 339.085   2
   5 -10   3-378.639 275.853   1
   5   5   3-80.9880 278.160   1
  -5  10  -3 155.048 326.547   1
  -5  -5  -3 184.762 400.095   1
  10  -5  -3 14.8435 326.024   1
   5 -10   3 82.4838 327.109   2
  10  -5  -2 40715.7 2172.96   1
  -5  10  -2 40910.4 2175.51   1
   5 -10   2 44406.6 2280.64   1
  -5  -5  -2 42512.3 2269.61   1
   5   5   2 37319.8 2144.78   1
   5 -10   2 39324.9 2203.79   2
 -10   5   2 39172.3 2127.98   1
  -5  -5  -2 42780.0 2282.09   2
 -10   5   1-69.3241 328.141   1
  -5  -5  -1 331.907 414.695   2
   5   5   1 480.985 377.330   1
   5 -10   1 344.317 369.241   1
  -5  10  -1-87.4091 325.835   1
  10  -5  -1-277.180 321.409   1
  -5  -5  -1 582.059 484.270   1
   5 -10   1 543.155 414.718   2
  -5  -5   1-5.47070 324.728   2
  10  -5   1-160.142 304.657   1
   5   5  -1 865.495 452.444   1
   5 -10  -1 4.28672 313.149   1
  -5  10   1 530.455 386.019   1
  -5  -5   1-22.6072 327.184   1
   5 -10  -1 555.552 420.793   2
 -10   5  -1 111.414 398.959   1
  -5  10   2 24838.7 1725.92   1
   5 -10  -2 21611.9 1620.79   1
 -10   5  -2 21170.0 1566.18   1
   5 -10  -2 23292.4 1676.99   2
  10  -5   2 23230.1 1598.69   1
  -5  -5   2 25027.9 1753.65   2
  -5  -5   3-229.775 321.509   2
   5 -10  -3 394.902 470.438   1
  -5  10   3 178.852 316.956   1
   5 -10  -3-50.5131 327.465   2
  10  -5   3 405.961 353.763   1
 -10   5  -3-85.4525 287.348   1
  -5  10   4 260089. 6650.57   1
   5 -10  -4 257714. 6627.78   1
  10  -5   4 258879. 6564.25   1
 -10   5  -4 272254. 6764.06   1
   5 -10  -4 266879. 6749.95   2
   5 -10  -5 514.231 424.092   1
  -5  10   5-216.589 401.443   1
  10  -5   5-47.7371 299.971   1
   5 -10  -5-30.7498 317.153   2
 -10   5  -5-40.5485 308.293   1
   5 -10  -6 44934.2 2385.40   1
  -5  10   6 46347.6 2396.74   1
  10  -5   6 47748.7 2363.97   1
 -10   5  -6 49716.1 2486.12   1
   5 -10  -6 47389.4 2483.86   2
   5 -10  -7 323.211 430.926   1
  -5  10   7 905.457 497.620   1
  10  -5   7 1065.43 442.005   1
 -10   5  -7 319.210 427.484   1
   5 -10  -7 624.047 426.594   2
   5 -10  -8 61332.1 2819.04   1
  -5  10   8 64877.2 2867.91   1
  10  -5   8 60000.8 2763.30   1
 -10   5  -8 64196.5 2930.76   1
   5 -10  -8 57509.9 2871.11   2
   5 -10  -9 426.035 326.760   1
  10  -5   9 118.147 364.671   1
  -5  10   9-218.876 342.355   1
 -10   5  -9-265.348 387.501   1
   5 -10  -9-223.685 330.761   2
   5 -10 -10 19551.5 1617.35   1
  -5  10  10 22414.9 1685.69   1
  10  -5  10 20481.7 1614.78   1
 -10   5 -10 19506.2 1619.42   1
   5 -10 -10 19124.4 1630.82   2
  10  -5  11 583.397 432.257   1
   5 -10 -11-375.025 368.904   1
  -5  10  11 214.951 330.881   1
 -10   5 -11 320.428 427.875   1
   5 -10 -12 934924. 17388.1   1
  -5  10  12 942231. 17264.3   1
  10  -5  12 890952. 17238.8   1
 -10   5 -12 916799. 17393.2   1
  10  -5  13 424.792 417.372   1
   5 -10 -13 211.814 379.590   1
  -5  10  13-62.2120 301.254   1
 -10   5 -13-126.034 343.456   1
 -10   5 -14 6204.81 954.195   1
  10  -5  14 5541.79 937.453   1
  -4  -6 -13 9874.64 1220.28   2
  -6  -4 -12 22495.1 1787.73   2
  -4  -6 -12 25003.3 1809.40   1
  -6  -4 -12 21042.8 1733.60   1
   4   6  12 24876.7 1745.75   1
   6   4  12 22577.8 1734.43   1
  -4  -6 -12 21762.5 1758.74   2
  -6  -4 -11 156837. 5064.64   2
  -4  -6 -11 170360. 5216.42   1
  -6  -4 -11 176171. 5383.83   1
   4   6  11 168639. 5090.69   1
   4 -10  11 158863. 5286.12   2
   6   4  11 163277. 5066.87   1
  -4  -6 -11 156415. 5082.53   2
  -6  -4 -10 168711. 5174.40   2
  -4  -6 -10 163687. 5228.76   1
  -6  -4 -10 178015. 5345.42   1
   4   6  10 172390. 5190.98   1
   6   4  10 176352. 5225.20   1
  -4  -6 -10 165360. 5172.12   2
  -6  -4  -9 130130. 4449.84   2
   6   4   9 114867. 4181.22   1
  -4  -6  -9 130199. 4424.49   1
  10  -6  -9 122456. 4312.22   1
  -6  -4  -9 137059. 4517.90   1
   4   6   9 130431. 4368.27   1
   6 -10   9 127158. 4448.79   2
   4 -10   9 133415. 4513.90   2
 -10   6   9 131109. 4458.27   1
  -4  -6  -9 122868. 4266.46   2
  -6  -4  -8 22880.8 1732.66   2
   6 -10   8 17638.5 1606.11   2
  -4  -6  -8 18971.6 1606.45   1
  10  -6  -8 17053.6 1485.62   1
  -6  -4  -8 21745.9 1684.73   1
   4   6   8 21414.1 1613.92   1
   4 -10   8 21615.1 1689.31   2
   6   4   8 22987.3 1656.40   1
 -10   6   8 21729.1 1615.91   1
  -4  -6  -8 17789.9 1520.09   2
  -4  -6  -7 8240.58 1003.07   2
   4   6   7 6793.58 947.247   1
 -10   6   7 6567.96 947.397   1
  -6  -4  -7 6292.75 957.177   2
   6   4   7 5638.13 878.012   1
  10  -4  -7 6456.14 881.556   1
  -6  -4  -7 8072.20 1031.60   1
  -4  -6  -7 5953.65 921.622   1
  10  -6  -7 5516.89 859.069   1
   4 -10   7 7411.33 1015.38   2
   6 -10   7 6557.10 982.278   2
  -6  -4  -6 97668.0 3746.70   2
   6 -10   6 101370. 3718.96   1
  10  -6  -6 108899. 3804.96   1
  -4  -6  -6 96890.6 3756.35   1
  -6  -4  -6 105202. 3831.77   1
   4   6   6 96357.6 3693.05   1
   6 -10   6 105446. 3879.91   2
   4 -10   6 103616. 3835.18   2
 -10   4   6 124456. 4015.07   1
   6   4   6 93097.0 3619.62   1
 -10   6   6 112593. 3899.28   1
  10  -4  -6 103587. 3695.65   1
  -6  10  -6 102856. 3761.72   1
  -4  -6  -6 101470. 3721.52   2
  -6  -4  -5 24869.3 1777.27   2
 -10   4   5 20563.0 1587.39   1
  10  -6  -5 27177.7 1757.05   1
  -4  -6  -5 22508.0 1694.97   1
  -6  -4  -5 23437.2 1702.92   1
   4   6   5 23747.5 1723.16   1
   6 -10   5 24859.4 1782.47   2
   4 -10   5 21672.4 1672.16   2
   6   4   5 23869.3 1722.34   1
 -10   6   5 28045.4 1795.05   1
  10  -4  -5 22800.2 1657.35   1
  -4  -6  -5 23178.6 1728.95   2
  -6  10  -5 26114.3 1743.11   1
   6 -10   5 23444.1 1692.75   1
 -10   4   4 3544.41 701.679   1
  -4  -6  -4 3149.91 646.699   2
 -10   6   4 3028.80 630.210   1
   4   6   4 3600.18 686.719   1
  -6  -4  -4 3352.22 725.429   2
  10  -4  -4 3667.02 649.390   1
  -6  10  -4 3667.49 711.477   1
   6   4   4 4014.12 757.975   1
  -4  10  -4 4239.37 684.123   1
  10  -6  -4 2533.70 588.145   1
  -4  -6  -4 3906.02 718.532   1
  -6  -4  -4 4992.06 823.819   1
   4 -10   4 3676.98 663.836   1
   6 -10   4 3043.71 670.372   1
   6 -10   4 3637.07 722.060   2
   4 -10   4 3262.80 732.624   2
  -6  10  -3 58703.2 2650.30   1
   6   4   3 54695.6 2587.64   1
  -4  10  -3 59169.7 2665.59   1
  10  -6  -3 49845.7 2452.97   1
   6 -10   3 58475.5 2690.06   1
  -4  -6  -3 53739.6 2597.84   1
  -6  -4  -3 54877.2 2611.47   1
   4   6   3 54169.1 2571.87   1
 -10   4   3 63995.5 2764.56   1
   6 -10   3 53608.4 2561.43   2
   4 -10   3 53336.5 2549.11   2
  10  -4  -3 55318.4 2565.09   1
 -10   6   3 47815.3 2443.02   1
  -4  -6  -3 49899.3 2522.04   2
  -6  -4  -3 52507.8 2619.76   2
  -6  10  -2 327826. 7663.10   1
  -4  10  -2 340117. 7805.80   1
   4 -10   2 329260. 7688.33   1
  10  -6  -2 345961. 7681.23   1
  -4  -6  -2 330841. 7723.45   1
  -6  -4  -2 334900. 7762.47   1
   6 -10   2 330225. 7693.02   1
   4   6   2 321047. 7617.07   1
 -10   4   2 311973. 7497.14   1
   6 -10   2 311248. 7667.45   2
   4 -10   2 321651. 7674.16   2
  10  -4  -2 327334. 7562.31   1
   6   4   2 326401. 7643.18   1
 -10   6   2 318742. 7589.74   1
  -4  -6  -2 310544. 7582.66   2
  -6  -4  -2 327677. 7780.13   2
 -10   4   1 71140.6 2894.49   1
  -6  10  -1 66753.3 2885.95   1
   6 -10   1 65872.0 2866.02   1
  10  -6  -1 68065.2 2852.73   1
  -4  10  -1 72306.2 3034.60   1
   4 -10   1 68283.7 2917.75   1
  -4  -6  -1 71660.3 2954.78   1
  -6  -4  -1 68262.9 2926.12   1
   4   6   1 70529.0 2955.07   1
  10  -4  -1 65674.5 2844.67   1
   6 -10   1 62586.6 2914.03   2
   4 -10   1 67372.3 2890.42   2
 -10   6   1 68562.9 2905.05   1
   6   4   1 67121.9 2896.00   1
  -4  -6  -1 68365.0 2944.01   2
  -6  -4  -1 73315.4 3054.49   2
  10  -6   0 64748.4 2780.92   1
  -6  10   0 63554.6 2810.54   1
  -4  10   0 67913.3 2955.22   1
   4 -10   0 68647.9 2970.87   1
   6 -10   0 66342.2 2895.86   1
  -4  -6   0 65526.7 2833.77   1
  -6  -4   0 64870.8 2848.53   1
   4   6   0 66767.1 2849.15   1
 -10   4   0 66742.6 2869.15   1
  10  -4   0 71823.3 2948.94   1
   6 -10   0 64181.4 2848.41   2
   4 -10   0 72670.1 2983.91   2
 -10   6   0 73517.6 2980.59   1
   6   4   0 73719.9 2947.83   1
  -4  -6   0 67781.0 2893.89   2
  -6  -4   0 75408.6 3047.19   2
  10  -6   1 139684. 4423.70   1
  -6  10   1 139307. 4475.90   1
   6   4  -1 138214. 4380.22   1
  -4  10   1 145780. 4552.35   1
   4 -10  -1 148832. 4559.85   1
  -6  -4   1 145348. 4437.69   1
   4 -10  -1 145769. 4521.49   2
   4   6  -1 132468. 4330.79   1
  10  -4   1 146197. 4478.06   1
 -10   4  -1 151259. 4557.01   1
   6 -10  -1 149844. 4607.54   2
 -10   6  -1 141590. 4468.46   1
  -4  -6   1 163206. 4728.49   2
  -6  -4   1 150555. 4621.09   2
  -6  10   2 351768. 8188.74   1
   6 -10  -2 366963. 8203.72   1
   4 -10  -2 366055. 8205.56   1
  -4  10   2 365767. 8178.27   1
  10  -4   2 361201. 8072.13   1
 -10   4  -2 348124. 8077.60   1
   6 -10  -2 353209. 8162.46   2
 -10   6  -2 340599. 8116.44   1
   4 -10  -2 356132. 8153.30   2
  -4  -6   2 356033. 8166.53   2
  -6  -4   2 333028. 8057.71   2
  10  -6   2 336136. 7914.28   1
  -6  10   3 69520.0 3020.85   1
   6 -10  -3 72542.9 3040.16   1
   4 -10  -3 68836.1 3001.99   1
  -4  10   3 74537.2 3044.61   1
  10  -4   3 78688.1 3055.99   1
 -10   4  -3 77044.8 3090.14   1
 -10   6  -3 72628.3 2988.25   1
   6 -10  -3 71291.2 3025.92   2
   4 -10  -3 72795.1 3077.38   2
  -4  -6   3 75696.9 3091.18   2
  -6  10   4 11555.5 1223.59   1
   6 -10  -4 11009.7 1147.71   1
   4 -10  -4 12041.7 1168.19   1
  -4  10   4 10982.5 1161.17   1
  10  -4   4 10511.7 1119.62   1
 -10   4  -4 11744.3 1185.58   1
 -10   6  -4 10112.4 1092.76   1
   6 -10  -4 9883.33 1115.94   2
   4 -10  -4 10620.3 1183.17   2
  10  -6   4 11493.1 1153.38   1
  -4  -6   4 10750.6 1135.91   2
  -6  10   5 44089.2 2358.83   1
   6 -10  -5 43891.9 2326.68   1
   4 -10  -5 42055.3 2311.76   1
  -4  10   5 43771.3 2313.86   1
  10  -4   5 43409.3 2307.16   1
 -10   4  -5 45518.3 2368.79   1
 -10   6  -5 43153.7 2295.91   1
  10  -6   5 44427.2 2318.08   1
   6 -10  -5 42606.5 2353.25   2
   4 -10  -5 44653.9 2387.74   2
  -6  10   6 60760.0 2815.64   1
   6 -10  -6 62429.3 2840.19   1
   4 -10  -6 59210.5 2790.86   1
  -4  10   6 55121.0 2656.97   1
  10  -4   6 65121.4 2808.73   1
 -10   4  -6 61594.9 2801.46   1
  10  -6   6 57851.5 2675.79   1
 -10   6  -6 64243.8 2814.47   1
   6 -10  -6 64885.9 2925.59   2
   4 -10  -6 59543.4 2823.06   2
  -6  10   7 80971.8 3307.12   1
   6 -10  -7 74586.3 3224.28   1
   4 -10  -7 78546.1 3273.02   1
  -4  10   7 75221.1 3140.54   1
  10  -4   7 80974.7 3262.33   1
  10  -6   7 81398.2 3248.80   1
 -10   4  -7 84229.4 3334.57   1
 -10   6  -7 80539.5 3297.20   1
   6 -10  -7 79216.4 3326.37   2
   4 -10  -7 78516.0 3327.52   2
   6 -10  -8 1539.52 560.075   1
  10  -4   8 1310.35 466.439   1
   4 -10  -8 2370.13 622.261   1
  -6  10   8 1322.26 445.873   1
  -4  10   8 1876.37 524.590   1
  10  -6   8 1048.29 449.348   1
 -10   4  -8 1322.00 554.674   1
   6 -10  -8 1399.59 475.827   2
 -10   6  -8 1291.75 531.362   1
   4 -10  -8 1637.18 571.831   2
  -6  10   9 12196.8 1255.10   1
   6 -10  -9 11578.8 1197.36   1
   4 -10  -9 13524.7 1315.32   1
  -4  10   9 11203.8 1191.95   1
  10  -4   9 12345.0 1226.94   1
  10  -6   9 10092.8 1127.58   1
 -10   4  -9 11382.7 1211.71   1
 -10   6  -9 10950.0 1196.15   1
   4 -10  -9 11425.5 1255.03   2
  -6  10  10 351857. 8037.95   1
   6 -10 -10 322239. 7904.10   1
   4 -10 -10 318523. 7851.25   1
  -4  10  10 320103. 7772.61   1
  10  -4  10 322400. 7755.94   1
  10  -6  10 322619. 7854.00   1
 -10   4 -10 291222. 7678.71   1
 -10   6 -10 325744. 7916.72   1
   4 -10 -10 302723. 7916.23   2
  -6  10  11 20464.4 1660.06   1
   6 -10 -11 18234.2 1574.28   1
   4 -10 -11 20736.9 1685.97   1
  -4  10  11 22220.7 1698.56   1
  10  -4  11 19223.7 1591.20   1
  10  -6  11 19794.7 1618.45   1
 -10   4 -11 19644.4 1650.23   1
 -10   6 -11 19448.2 1652.75   1
   4 -10 -11 21883.3 1773.27   2
  -6  10  12 62792.5 2994.11   1
   6 -10 -12 59904.2 2963.16   1
   4 -10 -12 59730.2 2945.89   1
  10  -4  12 65497.2 3027.22   1
  -4  10  12 58141.9 2845.37   1
  10  -6  12 57421.0 2853.49   1
 -10   4 -12 64266.0 3031.84   1
 -10   6 -12 56141.3 2884.14   1
  -6  10  13 139781. 4813.38   1
   6 -10 -13 149151. 4950.67   1
  10  -4  13 150815. 4967.61   1
   4 -10 -13 150829. 4975.30   1
  -4  10  13 139745. 4717.73   1
  10  -6  13 131529. 4721.15   1
 -10   4 -13 153215. 5015.59   1
 -10   6 -13 133231. 4786.17   1
 -10   6 -14 79442.5 3584.41   1
  -3  -7 -12 3582.68 696.284   2
  -7  -3 -12 3887.97 765.983   2
   7   3  12 2939.05 692.867   1
  -3  -7 -12 2465.76 617.737   1
  -7  -3 -12 3036.36 687.273   1
   3 -10  12 3327.40 777.744   2
   3   7  12 2755.81 648.412   1
  -7  -3 -11 9633.11 1156.33   2
  -3  -7 -11 10291.9 1174.70   1
  -7  -3 -11 9479.83 1187.29   1
   3   7  11 10067.7 1121.27   1
   7   3  11 8932.17 1068.61   1
   3 -10  11 7146.94 1009.85   2
  -3  -7 -11 8492.04 1082.98   2
  -7  -3 -10 271678. 6788.92   2
  -3  -7 -10 244045. 6633.45   1
  -7  -3 -10 235015. 6607.17   1
   3   7  10 255359. 6621.83   1
  10  -7 -10 234090. 6523.21   1
   3 -10  10 219249. 6535.23   2
   7   3  10 247478. 6563.50   1
 -10   7  10 231598. 6592.06   1
  -3  -7 -10 255271. 6653.08   2
  -7  -3  -9 50063.6 2586.92   2
  -3  -7  -9 49368.7 2627.59   1
  -7  -3  -9 54881.4 2723.48   1
   3   7   9 52825.7 2625.39   1
  10  -7  -9 47787.5 2546.11   1
   7   3   9 51234.9 2603.61   1
   3 -10   9 46824.7 2576.20   2
 -10   7   9 53324.0 2677.25   1
  -3  -7  -9 47216.3 2539.68   2
  -7  -3  -8 14932.7 1351.88   2
  -3  -7  -8 13752.4 1376.05   1
  -7  -3  -8 15187.7 1432.43   1
   3   7   8 13772.1 1329.89   1
  10  -7  -8 13944.6 1350.89   1
   3 -10   8 13412.2 1348.93   2
   7   3   8 13772.9 1310.88   1
 -10   7   8 14262.2 1367.70   1
  -3  -7  -8 13126.3 1357.13   2
  -7  -3  -7 234688. 6362.47   2
  -3  -7  -7 229746. 6321.13   1
   7 -10   7 237852. 6400.71   1
  -7  -3  -7 238310. 6385.71   1
   3   7   7 233392. 6261.41   1
   7 -10   7 226823. 6291.91   2
   3 -10   7 232988. 6364.13   2
   7   3   7 229924. 6291.05   1
  -7  10  -7 239648. 6396.09   1
 -10   7   7 230492. 6327.43   1
  -3  -7  -7 237701. 6334.27   2
  -7  -3  -6 164709. 5076.48   2
  -3  -7  -6 168453. 5134.46   1
  -7  -3  -6 160603. 5033.59   1
  10  -7  -6 166547. 5031.05   1
   7 -10   6 159295. 5005.63   1
   3   7   6 164508. 5036.58   1
  10  -3  -6 164302. 4958.20   1
   7 -10   6 177780. 5191.74   2
   3 -10   6 172977. 5137.96   2
   7   3   6 174591. 5154.70   1
 -10   7   6 175189. 5107.52   1
  -7  10  -6 171841. 5126.62   1
  -3  -7  -6 169851. 5108.39   2
  -7  -3  -5 73554.5 3148.83   2
  -3  -7  -5 70647.5 3058.95   1
  -7  -3  -5 77351.8 3197.93   1
  10  -7  -5 74219.3 3073.66   1
   3   7   5 71911.1 3100.12   1
  10  -3  -5 73681.6 3045.56   1
 -10   3   5 75292.5 3127.82   1
   7 -10   5 70593.3 3151.93   2
   3 -10   5 72134.7 3073.36   2
   7 -10   5 75228.3 3103.48   1
 -10   7   5 72201.1 3051.72   1
   7   3   5 73473.5 3128.74   1
  -3  -7  -5 76077.9 3122.73   2
  -7  10  -5 78470.6 3197.13   1
  -7  -3  -4 33431.6 2082.22   2
  -3  -7  -4 34310.2 2075.47   1
  10  -7  -4 36650.2 2037.80   1
  -7  -3  -4 33656.3 2056.63   1
   3   7   4 34816.6 2065.99   1
  10  -3  -4 35436.8 2048.80   1
 -10   3   4 31522.9 1946.50   1
   7 -10   4 35776.7 2121.68   2
   3 -10   4 35471.1 2071.86   2
   7 -10   4 37196.2 2105.76   1
 -10   7   4 37936.9 2118.31   1
   7   3   4 34719.1 2069.54   1
  -3  -7  -4 31551.0 2011.29   2
  -7  10  -4 33007.2 2013.94   1
  -3  -7  -3 1032.84 492.711   2
  -7  -3  -3 713.683 454.088   2
 -10   7   3 783.812 420.490   1
  -7  10  -3 488.252 338.186   1
   3 -10   3 451.376 314.002   1
  -3  10  -3 1530.49 500.173   1
   7   3   3 211.360 303.371   1
  -3  -7  -3 1858.24 557.458   1
   7 -10   3 1199.92 503.302   1
  10  -7  -3 834.559 408.007   1
  -7  -3  -3 766.133 491.092   1
  10  -3  -3 203.049 292.173   1
   7 -10   3 692.239 499.331   2
   3 -10   3 742.583 402.469   2
 -10   3   3 954.093 409.709   1
   3   7   3 721.271 348.020   1
  -7  10  -2 228114. 6032.81   1
  -7  -3  -2 240439. 6178.42   2
  -3  10  -2 237585. 6100.55   1
   3 -10   2 232604. 6064.88   1
   7 -10   2 211379. 5860.57   1
  10  -7  -2 203964. 5728.15   1
  -3  -7  -2 228051. 6011.28   1
  -7  -3  -2 229722. 6038.77   1
   3   7   2 222434. 5947.37   1
  10  -3  -2 223168. 5866.23   1
 -10   3   2 229418. 5998.68   1
   7 -10   2 219401. 6029.77   2
   3 -10   2 207523. 5829.65   2
 -10   7   2 211758. 5784.45   1
  -3  -7  -2 226717. 6002.87   2
   7   3   2 220345. 5966.20   1
  -7  -3  -1 22612.0 1724.83   2
  -7  10  -1 23027.5 1612.61   1
   7 -10   1 23644.1 1682.58   2
 -10   7   1 24448.2 1694.35   1
  -3  10  -1 22691.5 1644.03   1
   3 -10   1 23176.4 1668.03   1
  10  -7  -1 21940.8 1589.04   1
  -3  -7  -1 23629.0 1708.01   1
   7 -10   1 21325.8 1598.74   1
  -7  -3  -1 24233.6 1668.08   1
   3   7   1 22539.5 1618.78   1
  10  -3  -1 18254.3 1434.91   1
 -10   3   1 20598.7 1551.31   1
   3 -10   1 21537.8 1602.64   2
  -3  -7  -1 21572.7 1628.41   2
   7   3   1 22683.8 1654.54   1
  -7  10   0 37079.9 2067.10   1
   3 -10   0 35999.0 2107.64   1
  -3  10   0 36306.8 2062.78   1
  10  -7   0 38720.3 2075.22   1
  -3  -7   0 35680.4 2077.53   1
  -7  -3   0 34886.7 2069.58   1
   3   7   0 35855.4 2068.83   1
   7 -10   0 36203.6 2069.54   1
  10  -3   0 36067.0 2018.27   1
 -10   3   0 34722.6 2041.78   1
   7 -10   0 35639.7 2108.97   2
   3 -10   0 32180.7 1998.98   2
 -10   7   0 35213.9 2039.90   1
  -3  -7   0 36983.1 2121.74   2
   7   3   0 36696.9 2090.42   1
  -7  -3   0 35510.0 2121.79   2
  -7  10   1 102527. 3693.30   1
  10  -7   1 105555. 3661.38   1
   3 -10  -1 104432. 3741.36   1
  -3  10   1 98470.2 3640.70   1
  -7  -3   1 97969.1 3592.88   1
  10  -3   1 103680. 3645.42   1
 -10   3  -1 112211. 3858.89   1
   7 -10  -1 105834. 3725.50   1
   7 -10  -1 103057. 3763.85   2
   3 -10  -1 100282. 3729.74   2
 -10   7  -1 103601. 3676.15   1
  -3  -7   1 99836.2 3701.63   2
   7   3  -1 108206. 3756.30   1
  -7  -3   1 98076.7 3696.12   2
  -7  10   2 172664. 5019.24   1
  10  -7   2 180684. 5053.29   1
   3 -10  -2 176316. 5166.27   1
  -3  10   2 175706. 5109.14   1
  10  -3   2 167922. 4988.03   1
 -10   3  -2 189771. 5256.55   1
   7 -10  -2 176892. 5241.65   2
 -10   7  -2 179417. 5112.37   1
   3 -10  -2 169303. 5092.60   2
  -3  -7   2 175773. 5147.83   2
   7 -10  -2 174809. 5150.38   1
  10  -7   3 117979. 3976.00   1
  -7  10   3 115399. 3934.04   1
   3 -10  -3 117119. 4066.04   1
   7 -10  -3 118696. 4030.96   1
  -3  10   3 115648. 3999.27   1
  10  -3   3 117010. 3965.13   1
 -10   3  -3 125451. 4152.21   1
   7 -10  -3 117365. 4072.85   2
 -10   7  -3 116444. 4018.64   1
   3 -10  -3 112654. 4000.83   2
  -3  -7   3 116895. 4042.48   2
 -10   7  -4 346.881 322.315   1
   3 -10  -4-242.181 425.441   1
  -7  10   4 406.043 355.242   1
  10  -3   4 409.681 347.783   1
  10  -7   4 466.555 298.352   1
  -3  10   4 179.529 296.504   1
   7 -10  -4 795.623 427.192   2
 -10   3  -4-55.1747 345.866   1
   7 -10  -4 156.363 295.999   1
   3 -10  -4 576.432 375.946   2
  -3  -7   4-11.1876 372.412   2
  -7  10   5 72706.2 3045.93   1
   7 -10  -5 74491.9 3117.96   1
   3 -10  -5 68443.0 3012.52   1
  -3  10   5 63676.2 2907.42   1
  10  -3   5 71642.7 3012.61   1
 -10   3  -5 66790.9 2948.86   1
   7 -10  -5 71381.6 3115.76   2
 -10   7  -5 72524.2 3052.61   1
   3 -10  -5 70863.0 3073.27   2
  -3  -7   5 71316.7 3076.99   2
  10  -7   5 66646.1 2905.69   1
  -7  10   6 330159. 7691.97   1
   7 -10  -6 295402. 7454.04   1
   3 -10  -6 322195. 7691.21   1
  -3  10   6 316090. 7562.99   1
  10  -3   6 307973. 7454.28   1
 -10   3  -6 325665. 7694.24   1
 -10   7  -6 314705. 7539.05   1
   7 -10  -6 307329. 7683.51   2
  10  -7   6 305779. 7443.66   1
   3 -10  -6 312124. 7668.96   2
  -7  10   7 65912.5 2975.10   1
   7 -10  -7 61933.9 2854.28   1
   3 -10  -7 61502.2 2841.83   1
  -3  10   7 60318.2 2821.90   1
  10  -3   7 63294.1 2840.44   1
 -10   3  -7 66788.8 2962.35   1
 -10   7  -7 61833.2 2824.32   1
  10  -7   7 61717.0 2791.16   1
   7 -10  -7 61014.3 2908.70   2
   3 -10  -7 58895.3 2872.15   2
  -7  10   8 63231.3 2948.41   1
   7 -10  -8 60134.9 2871.61   1
   3 -10  -8 63686.3 2966.30   1
  -3  10   8 65246.8 2906.67   1
  10  -3   8 67184.5 2956.18   1
 -10   3  -8 61691.3 2933.67   1
  10  -7   8 70213.0 2988.99   1
 -10   7  -8 67390.4 3036.06   1
   3 -10  -8 58927.8 2921.62   2
  -7  10   9 107370. 4033.11   1
   7 -10  -9 98499.2 3776.40   1
   3 -10  -9 111802. 4001.70   1
  10  -3   9 105530. 3845.85   1
  -3  10   9 104734. 3826.37   1
 -10   3  -9 108484. 3950.46   1
  10  -7   9 102385. 3857.71   1
 -10   7  -9 102017. 3892.44   1
   3 -10  -9 98262.8 3918.20   2
  -7  10  10 90013.2 3625.53   1
   7 -10 -10 86554.2 3535.48   1
   3 -10 -10 88920.4 3562.04   1
  10  -3  10 89072.1 3501.81   1
  -3  10  10 85087.7 3428.97   1
  10  -7  10 74695.4 3302.33   1
 -10   3 -10 90088.4 3581.12   1
 -10   7 -10 83050.4 3509.49   1
   3 -10 -10 81337.0 3530.46   2
  -7  10  11 28163.6 2000.77   1
   7 -10 -11 28630.1 1967.92   1
  10  -3  11 32291.2 2020.34   1
   3 -10 -11 30234.8 1985.67   1
  -3  10  11 27761.9 1897.69   1
  10  -7  11 26297.9 1881.52   1
 -10   3 -11 26666.8 1935.15   1
 -10   7 -11 28270.3 1938.34   1
   3 -10 -11 22812.2 1851.81   2
  -7  10  12 8633.26 1154.93   1
  10  -3  12 8243.46 1052.05   1
   7 -10 -12 9240.79 1140.28   1
   3 -10 -12 9538.33 1207.76   1
  10  -7  12 8266.09 1071.78   1
 -10   3 -12 8827.71 1110.33   1
  -3  10  12 8484.76 1052.06   1
 -10   7 -12 8755.43 1079.65   1
   3 -10 -12 8228.32 1116.29   2
  10  -7  13 563.750 423.892   1
   7 -10 -13 671.635 406.574   1
  -7  10  13-43.6156 332.438   1
 -10   7 -13 428.863 408.043   1
  -2  -8 -12 218724. 6291.00   2
  -2  -8 -11 1353.66 404.198   2
  -8  -2 -11 1421.64 548.550   2
  10  -8 -11 781.141 434.090   1
 -10   8  11 1205.66 462.276   1
   8   2  11 1725.24 591.871   1
  -2  -8 -11 2055.37 603.849   1
  -8  -2 -11 1372.93 483.278   1
   2   8  11 988.877 415.797   1
  -2  -8 -10 4351.65 838.024   2
  10  -8 -10 4004.78 779.993   1
  -8  -2 -10 4835.35 814.907   2
 -10   8  10 4596.79 783.037   1
   8   2  10 4633.26 834.458   1
  -2  -8 -10 4081.67 740.377   1
  -8  -2 -10 3466.57 720.056   1
   2 -10  10 3491.70 759.882   2
   2   8  10 4353.19 768.838   1
  -2  -8  -9 8085.00 1010.70   2
  -8  -2  -9 7964.54 1048.26   2
  -2  -8  -9 8889.49 1148.38   1
  -8  -2  -9 11304.3 1238.92   1
   2   8   9 8821.50 1090.66   1
  10  -8  -9 9773.57 1118.28   1
   2 -10   9 6779.02 1009.42   2
   8   2   9 8964.45 1099.72   1
 -10   8   9 8284.79 1068.62   1
  -8  -2  -8 306083. 7594.28   2
   8 -10   8 281435. 7475.47   1
  -2  -8  -8 317305. 7752.11   1
  -8  -2  -8 317282. 7776.27   1
   2   8   8 318462. 7657.39   1
   2 -10   8 286869. 7591.52   2
  10  -8  -8 318432. 7647.36   1
  -8  10  -8 296404. 7608.97   1
  -2  -8  -8 326127. 7709.14   2
   8   2   8 332432. 7728.19   1
 -10   8   8 278467. 7381.04   1
  10  -8  -7 6373.55 926.391   1
  -2  -8  -7 5428.49 896.491   2
  -8  10  -7 6497.10 916.711   1
  -8  -2  -7 6149.27 938.344   2
 -10   8   7 6083.18 944.242   1
   8 -10   7 5306.54 866.928   1
  -2  -8  -7 5836.85 909.960   1
   8   2   7 4814.65 843.082   1
  -8  -2  -7 6371.14 973.083   1
   2 -10   7 4675.15 822.588   2
   2   8   7 6227.27 927.302   1
  -2  -8  -6 344.805 441.168   2
  -8  10  -6 173.263 333.241   1
  -8  -2  -6 749.547 490.877   2
 -10   8   6 334.578 342.778   1
  -2  -8  -6 256.115 367.087   1
   8   2   6-94.7574 310.010   1
   8 -10   6 589.385 438.274   1
  -8  -2  -6-15.5494 422.256   1
   2 -10   6 77.6069 399.164   2
   2   8   6 124.566 336.939   1
  10  -8  -6 296.212 293.578   1
  -8  -2  -5 19823.5 1563.06   2
  -2  -8  -5 17991.7 1547.39   1
   2   8   5 20547.7 1615.65   1
  -8  -2  -5 22329.7 1656.21   1
   8 -10   5 20567.9 1580.46   1
  10  -8  -5 18055.5 1468.22   1
   2 -10   5 21834.0 1626.41   2
  -8  10  -5 20011.5 1610.77   1
  -2  -8  -5 16782.4 1506.02   2
 -10   8   5 19798.9 1580.94   1
   8   2   5 19741.0 1576.97   1
  -8  -2  -4 309105. 7768.25   2
  -2  -8  -4 311715. 7744.29   1
   2   8   4 329912. 7854.10   1
  -8  -2  -4 326590. 7834.07   1
  10  -2  -4 338468. 7763.20   1
  10  -8  -4 311982. 7591.72   1
   8 -10   4 331391. 7758.79   1
 -10   2   4 344219. 7861.19   1
   8 -10   4 331643. 7916.81   2
   2 -10   4 330392. 7825.10   2
  -2  -8  -4 348359. 7941.65   2
 -10   8   4 288760. 7469.61   1
  -8  10  -4 319348. 7732.28   1
   8   2   4 318784. 7710.99   1
  -2  -8  -3 1036.01 467.042   2
   8 -10   3 1021.55 416.348   1
  -8  -2  -3 2039.54 536.774   2
 -10   8   3 1568.03 521.320   1
  -8  10  -3 2095.54 592.853   1
  10  -2  -3 1101.77 466.913   1
  -2  -8  -3 1275.18 504.612   1
   8   2   3 923.623 484.016   1
  -8  -2  -3 795.192 402.946   1
   8 -10   3 887.147 425.098   2
  10  -8  -3 1126.08 483.334   1
 -10   2   3 1462.90 506.533   1
   2   8   3 1865.87 597.697   1
   2 -10   3 1662.75 540.089   2
   8   2   2 21739.2 1644.64   1
  -8  -2  -2 19609.8 1595.93   2
  -2  10  -2 20896.6 1591.18   1
  -2  -8  -2 20087.1 1621.11   1
   2   8   2 22254.5 1626.64   1
  10  -2  -2 21560.6 1591.27   1
  10  -8  -2 21841.0 1599.25   1
  -8  -2  -2 21213.8 1623.95   1
 -10   2   2 21035.1 1600.21   1
   8 -10   2 19584.4 1620.67   2
   2 -10   2 19539.3 1557.06   2
  -2  -8  -2 19628.8 1601.19   2
 -10   8   2 23094.7 1670.72   1
   8 -10   2 21238.9 1593.69   1
  -8  10  -2 23157.6 1644.11   1
  -2  -8  -1 3706.61 706.708   2
  -8  -2  -1 4671.23 783.513   2
 -10   8   1 4645.74 796.603   1
  -8  10  -1 3659.61 703.198   1
   2 -10   1 3754.89 745.031   1
  10  -2  -1 3507.71 696.849   1
  -2  -8  -1 3492.58 718.253   1
  -2  10  -1 4264.35 735.703   1
   8 -10   1 4601.18 778.892   1
   8   2   1 3491.58 680.226   1
  10  -8  -1 4369.38 733.432   1
  -8  -2  -1 4358.91 746.252   1
   8 -10   1 3528.88 730.702   2
   2   8   1 4044.01 722.365   1
 -10   2   1 4163.32 740.454   1
   2 -10   1 4529.86 772.118   2
  -8  10   0 328895. 7793.52   1
  -8  -2   0 318401. 7836.88   2
   8   2   0 353920. 7921.24   1
   8 -10   0 325138. 7701.34   1
   2 -10   0 335572. 7887.58   1
  -2  10   0 335187. 7789.96   1
  -2  -8   0 318403. 7716.95   1
  10  -8   0 316684. 7630.72   1
   2   8   0 338208. 7793.60   1
  10  -2   0 318905. 7661.04   1
  -8  -2   0 326899. 7789.43   1
 -10   2   0 358997. 7954.00   1
   8 -10   0 317502. 7869.80   2
   2 -10   0 322799. 7776.07   2
 -10   8   0 322819. 7727.67   1
  -2  -8   0 313970. 7709.79   2
  -2  -8   1 596.336 367.524   2
   8 -10  -1 176.520 326.542   1
 -10   8  -1-173.173 452.999   1
 -10   2  -1-8.74823 349.691   2
  -8  10   1-102.535 316.094   1
  10  -2   1-335.853 407.082   1
   2 -10  -1 30.2443 303.743   1
  10  -8   1 539.818 453.539   1
  -2  10   1 240.397 333.838   1
   8   2  -1 38.3315 356.879   1
  -8  -2   1-4.39430 281.663   1
   8 -10  -1-332.902 397.987   2
 -10   2  -1 423.543 322.849   1
   2 -10  -1 19.2661 335.964   2
  -8  10   2 33342.0 2018.76   1
 -10   2  -2 35099.3 2152.44   2
   2 -10  -2 35394.0 2119.94   1
  10  -8   2 32066.4 1965.21   1
  -2  10   2 32689.5 1984.70   1
  10  -2   2 35566.1 2072.25   1
   8 -10  -2 36192.8 2069.72   1
 -10   2  -2 33242.1 2033.90   1
   8 -10  -2 33021.2 2076.79   2
   2 -10  -2 33354.1 2067.05   2
 -10   8  -2 31556.0 1940.17   1
  -2  -8   2 34864.0 2127.54   2
 -10   8  -3 8250.91 994.529   1
  10  -8   3 9114.09 1027.74   1
 -10   2  -3 6376.59 927.925   2
  10  -2   3 6169.04 852.698   1
  -8  10   3 7881.11 1003.70   1
   2 -10  -3 6569.51 949.896   1
   8 -10  -3 9908.55 1079.20   1
  -2  10   3 6231.75 911.408   1
 -10   2  -3 6603.39 927.451   1
   8 -10  -3 8087.05 1021.73   2
   2 -10  -3 6149.65 932.911   2
  -2  -8   3 6813.82 972.411   2
  -8  10   4 441599. 9574.97   1
  10  -8   4 443334. 9525.15   1
   2 -10  -4 430303. 9672.71   1
  -2  10   4 429974. 9571.34   1
  10  -2   4 447450. 9609.62   1
 -10   2  -4 450167. 9677.09   1
   8 -10  -4 450241. 9612.15   1
   8 -10  -4 445918. 9842.58   2
 -10   8  -4 431282. 9558.45   1
  -2  -8   4 443740. 9733.37   2
   2 -10  -4 432506. 9615.43   2
 -10   8  -5 649.119 413.298   1
  10  -2   5 338.075 349.575   1
   8 -10  -5 528.556 399.055   1
  -8  10   5 117.260 337.091   1
   2 -10  -5 556.388 353.017   1
  10  -8   5 573.597 418.566   1
  -2  10   5-225.552 334.868   1
 -10   2  -5 389.640 459.767   1
   8 -10  -5 367.855 386.117   2
  -2  -8   5 246.299 355.815   2
   2 -10  -5 465.893 392.303   2
 -10   8  -6 2228.48 578.799   1
  10  -2   6 2682.74 629.569   1
  -8  10   6 2404.18 609.956   1
  10  -8   6 2509.09 604.936   1
   2 -10  -6 2208.18 551.489   1
   8 -10  -6 2491.06 610.751   1
  -2  10   6 2524.14 636.295   1
 -10   2  -6 2253.95 587.295   1
   8 -10  -6 2184.94 631.268   2
  -2  -8   6 1964.43 569.194   2
   2 -10  -6 2892.15 634.255   2
   8 -10  -7 16283.4 1421.25   1
  -8  10   7 14972.6 1380.18   1
   2 -10  -7 17084.4 1472.08   1
  10  -2   7 15883.7 1381.31   1
  -2  10   7 16501.8 1456.01   1
 -10   2  -7 18349.5 1516.58   1
 -10   8  -7 15339.1 1366.54   1
  10  -8   7 14589.5 1355.77   1
   2 -10  -7 15393.6 1424.23   2
  -8  10   8 264328. 6920.79   1
   8 -10  -8 266591. 7028.59   1
  10  -2   8 281806. 7079.99   1
   2 -10  -8 286654. 7227.99   1
  -2  10   8 276298. 7050.17   1
 -10   2  -8 267898. 7022.37   1
 -10   8  -8 264999. 6924.80   1
  10  -8   8 280768. 7111.84   1
   2 -10  -8 280046. 7165.96   2
   2 -10  -9 14.6644 372.451   2
   8 -10  -9-308.738 410.280   1
  -8  10   9 399.691 402.701   1
   2 -10  -9-87.2898 420.231   1
  -2  10   9 405.821 432.954   1
 -10   2  -9 411.726 346.587   1
  10  -8   9-141.710 388.834   1
  10  -2   9 143.796 410.450   1
 -10   8  -9 195.742 303.153   1
   2 -10 -10 737.760 444.616   2
  -8  10  10 762.861 371.048   1
   2 -10 -10 1707.05 604.791   1
   8 -10 -10 1005.34 483.969   1
  -2  10  10 59.4984 411.265   1
  10  -8  10 828.962 444.667   1
 -10   2 -10 646.081 417.950   1
  10  -2  10 460.709 370.715   1
 -10   8 -10 847.733 448.684   1
   2 -10 -11 10.0990 387.641   2
 -10   2 -11 408.168 330.997   2
  -8  10  11 254.111 277.228   1
   2 -10 -11 1220.04 545.233   1
  10  -8  11 562.277 362.723   1
  -2  10  11 434.316 401.651   1
 -10   2 -11 620.091 420.660   1
  10  -2  11 516.667 450.319   1
   8 -10 -11 1327.72 449.394   1
 -10   8 -11 960.109 495.033   1
  -8  10  12 156647. 5133.17   1
   8 -10 -12 167839. 5279.25   1
  10  -8  12 160750. 5247.20   1
 -10   8 -12 150395. 5158.08   1
   2 -10 -12 146191. 5153.31   2
   2 -10 -13 1634.63 692.548   2
 -10   9  11 4163.82 796.613   1
  10  -9 -11 3940.56 784.518   1
  10  -9 -10 237296. 6708.56   1
  -9  -1 -10 246162. 6679.70   2
  -1  -9 -10 259825. 6832.35   1
   1   9  10 250044. 6626.16   1
  -9  -1 -10 256079. 6864.58   1
  -1  -9 -10 247715. 6761.79   2
   9   1  10 260322. 6730.34   1
 -10   9  10 229118. 6598.07   1
  10  -9  -9 34943.2 2179.50   1
  -9  -1  -9 38068.0 2246.84   2
  -1  -9  -9 39504.1 2338.12   1
   1   9   9 34780.7 2162.23   1
  -9  -1  -9 35500.2 2256.33   1
   1 -10   9 30066.6 2135.96   2
  -9  10  -9 30392.2 2122.43   1
  -1  -9  -9 34958.1 2226.71   2
   9 -10   9 28053.3 1994.82   1
 -10   9   9 28079.5 2019.56   1
   9   1   9 40933.9 2283.67   1
  -1  -9  -8 1858.41 620.347   2
  -9  10  -8 1782.37 550.707   1
  -9  -1  -8 1724.10 581.732   2
 -10   9   8 1529.53 556.384   1
  10  -9  -8 2100.42 618.089   1
  -1  -9  -8 1968.88 623.607   1
   9   1   8 3240.14 720.450   1
   9 -10   8 2310.51 609.845   1
  -9  -1  -8 2004.04 587.445   1
   1   9   8 2319.37 598.002   1
   1 -10   8 2133.25 629.638   2
   9   1   7 98930.4 3800.07   1
  -9  -1  -7 96832.2 3809.43   2
   9 -10   7 95061.3 3766.10   1
  -1  -9  -7 108732. 3989.84   1
   1   9   7 100032. 3813.60   1
  -9  -1  -7 110269. 4062.69   1
   1 -10   7 96939.1 3820.89   2
  -9  10  -7 96459.9 3802.72   1
  -1  -9  -7 101190. 3841.35   2
  10  -9  -7 100600. 3825.72   1
 -10   9   7 102219. 3817.24   1
   9   1   6 21936.0 1647.22   1
  -9  -1  -6 22922.7 1758.22   2
   9 -10   6 20265.4 1631.37   1
  -1  -9  -6 20023.3 1637.53   1
   1   9   6 20335.6 1644.95   1
  -9  -1  -6 22382.5 1722.08   1
   1 -10   6 20179.7 1657.04   2
  -9  10  -6 20135.3 1645.40   1
  10  -9  -6 23180.8 1679.52   1
  -1  -9  -6 22359.9 1711.22   2
 -10   9   6 21702.4 1649.63   1
   9   1   5 9827.06 1135.82   1
  -9  -1  -5 10204.7 1168.71   2
  -1  -9  -5 12765.6 1293.02   1
   9 -10   5 10690.2 1185.23   1
   1   9   5 11912.9 1256.16   1
  -9  -1  -5 11885.5 1215.22   1
   1 -10   5 12028.1 1246.83   2
  10  -9  -5 10895.2 1162.67   1
  -9  10  -5 13340.1 1274.78   1
  -1  -9  -5 11129.4 1193.20   2
 -10   9   5 11722.1 1223.39   1
  -9  -1  -4 39601.1 2321.83   2
   9   1   4 40226.5 2313.72   1
  -1  -9  -4 43062.3 2403.72   1
   1   9   4 38589.8 2272.82   1
   9 -10   4 42882.7 2359.41   1
  -9  -1  -4 42896.7 2373.50   1
  10  -9  -4 42535.9 2266.22   1
   1 -10   4 42249.6 2360.74   2
  -1  -9  -4 42309.6 2354.21   2
  -9  10  -4 42495.7 2377.92   1
 -10   9   4 40594.2 2282.19   1
  -9  -1  -3 28581.5 1963.60   2
   9   1   3 32906.7 2031.19   1
  -1  -9  -3 30848.3 2033.32   1
  10  -1  -3 33025.0 2037.82   1
   1   9   3 31658.5 2035.83   1
  -9  -1  -3 27942.4 1908.76   1
   9 -10   3 31893.5 1985.70   1
  10  -9  -3 34926.9 2054.69   1
   1 -10   3 31038.0 2011.89   2
  -1  -9  -3 35108.6 2062.85   2
  -9  10  -3 35701.0 2096.66   1
 -10   9   3 33470.5 2055.87   1
  -9  -1  -2 308049. 7549.72   2
   9   1   2 293663. 7324.44   1
  -1  -9  -2 285447. 7367.56   1
  10  -1  -2 291517. 7293.23   1
   1   9   2 283221. 7258.29   1
  -9  -1  -2 292056. 7300.51   1
 -10   1   2 301921. 7384.92   1
  10  -9  -2 299573. 7262.69   1
   9 -10   2 305477. 7322.43   1
   1 -10   2 303566. 7409.46   2
  -1  -9  -2 298733. 7358.15   2
 -10   9   2 302366. 7338.11   1
  -9  10  -2 289087. 7256.80   1
  -9  -1  -1 131481. 4490.68   2
   9   1   1 137753. 4450.29   1
  -1  10  -1 134123. 4417.50   1
  -1  -9  -1 129929. 4469.70   1
  10  -1  -1 139583. 4483.55   1
   1   9   1 137997. 4471.52   1
  -9  -1  -1 124682. 4294.01   1
  10  -9  -1 132914. 4339.71   1
 -10   1   1 142326. 4517.15   1
   9 -10   1 126682. 4443.14   2
   9 -10   1 130527. 4303.76   1
   1 -10   1 133441. 4444.59   2
  -1  -9  -1 137496. 4479.43   2
 -10   9   1 129405. 4337.91   1
  -9  10  -1 130126. 4330.38   1
   9   1   0 38451.7 2235.78   1
   1 -10   0 39169.2 2281.21   1
  -1  10   0 35192.9 2134.29   1
  10  -1   0 40774.6 2238.47   1
   1   9   0 36493.2 2138.50   1
  10  -9   0 36699.9 2110.73   1
  -9  -1   0 39008.1 2206.06   1
 -10   1   0 34270.3 2071.39   1
   9 -10   0 33710.1 2175.52   2
   1 -10   0 36410.8 2181.41   2
   9 -10   0 39909.5 2195.76   1
  -1  -9   0 36773.2 2161.47   2
 -10   9   0 35984.1 2104.12   1
  -9  10   0 36320.0 2101.00   1
  -1  -9   1 91049.7 3526.55   2
   9   1  -1 91197.8 3512.76   1
   9 -10  -1 98689.7 3735.40   2
   1 -10  -1 91348.0 3626.47   1
  10  -1   1 96983.2 3602.82   1
  -1  10   1 92881.9 3576.03   1
  10  -9   1 91265.0 3497.36   1
  -9  -1   1 88994.8 3510.98   1
 -10   1  -1 83994.0 3442.10   1
   1 -10  -1 89404.2 3553.80   2
 -10   9  -1 90823.0 3532.89   1
  -9  10   1 93322.4 3537.25   1
   9 -10  -1 91853.6 3520.78   1
 -10   1  -2 284780. 7349.19   2
   9 -10  -2 295424. 7121.25   1
   1 -10  -2 270519. 7103.38   1
  10  -1   2 286819. 7128.06   1
  -1  10   2 286705. 7157.60   1
  10  -9   2 301855. 7198.32   1
 -10   1  -2 253609. 6927.14   1
   9 -10  -2 289537. 7323.49   2
  -1  -9   2 280173. 7120.19   2
   1 -10  -2 277527. 7124.26   2
 -10   9  -2 292388. 7171.30   1
  -9  10   2 289179. 7149.04   1
  -9  10   3 68798.4 3062.44   1
 -10   1  -3 73529.7 3242.14   2
   9 -10  -3 64854.9 2945.44   1
   1 -10  -3 67101.8 3101.93   1
  10  -1   3 69814.8 3059.77   1
  10  -9   3 73892.6 3052.50   1
  -1  10   3 71142.0 3124.28   1
 -10   1  -3 70684.8 3091.58   1
   9 -10  -3 71213.4 3231.69   2
  -1  -9   3 74528.4 3217.37   2
 -10   9  -3 68970.8 3027.40   1
   1 -10  -3 72791.9 3085.15   2
 -10   9  -4 972.442 463.945   1
 -10   1  -4 643.157 403.151   2
  10  -9   4 280.671 345.086   1
  -9  10   4 912.461 451.336   1
   1 -10  -4 1074.03 515.061   1
 -10   1  -4 1024.02 510.960   1
  -1  10   4 700.913 404.017   1
   9 -10  -4 651.994 502.827   2
   9 -10  -4 726.072 449.756   1
  10  -1   4 1028.22 405.796   1
  -1  -9   4 883.925 469.136   2
   1 -10  -4 1053.05 493.288   2
  -9  10   5 18375.2 1516.94   1
 -10   1  -5 17973.4 1567.73   2
  10  -9   5 17929.9 1483.72   1
  10  -1   5 18783.5 1545.45   1
   1 -10  -5 17414.1 1534.20   1
   9 -10  -5 18617.2 1531.53   1
  -1  10   5 18125.6 1523.44   1
 -10   1  -5 18700.1 1538.71   1
  -1  -9   5 18609.4 1586.81   2
 -10   9  -5 19346.3 1543.84   1
   1 -10  -5 16711.6 1493.73   2
  -9  10   6 50201.2 2578.99   1
  10  -9   6 50914.6 2582.27   1
 -10   1  -6 51308.6 2704.72   2
  10  -1   6 51579.3 2619.18   1
   1 -10  -6 44565.1 2482.95   1
  -1  10   6 49929.9 2592.05   1
   9 -10  -6 50155.0 2585.81   1
 -10   1  -6 46085.3 2527.03   1
 -10   9  -6 52522.9 2626.90   1
  -1  -9   6 49033.7 2646.70   2
   1 -10  -6 52769.0 2626.06   2
   1 -10  -7 8955.22 1112.26   2
  -9  10   7 8661.70 1064.17   1
 -10   1  -7 9367.79 1114.77   2
  10  -1   7 10264.7 1131.16   1
   1 -10  -7 10351.0 1185.42   1
  -1  10   7 10213.1 1150.74   1
   9 -10  -7 9261.94 1084.01   1
 -10   1  -7 9572.68 1125.20   1
 -10   9  -7 9737.16 1156.92   1
  -1  -9   7 8998.29 1109.34   2
  10  -9   7 8947.51 1092.12   1
  -9  10   8 56057.6 2739.96   1
 -10   1  -8 54509.1 2757.34   2
  10  -1   8 52082.1 2643.21   1
   1 -10  -8 54604.4 2748.57   1
  -1  10   8 51129.9 2583.78   1
   9 -10  -8 47650.4 2567.88   1
 -10   1  -8 45976.0 2525.49   1
 -10   9  -8 46488.9 2564.62   1
  10  -9   8 43270.3 2450.41   1
   1 -10  -8 53911.9 2719.36   2
  -9  10   9 117034. 4163.59   1
 -10   1  -9 111507. 4113.14   2
  10  -1   9 109414. 3963.21   1
   1 -10  -9 114151. 4155.66   1
  -1  10   9 111708. 4054.77   1
 -10   1  -9 117819. 4168.31   1
   9 -10  -9 116326. 4189.51   1
 -10   9  -9 102599. 4008.09   1
   1 -10  -9 117899. 4233.38   2
  -9  10  10 141502. 4675.74   1
  10  -1  10 132644. 4428.37   1
 -10   1 -10 135647. 4590.62   2
   1 -10 -10 133582. 4595.41   1
  -1  10  10 121492. 4309.73   1
 -10   1 -10 129363. 4466.58   1
   9 -10 -10 128183. 4515.40   1
  10  -9  10 117441. 4377.51   1
 -10   9 -10 120752. 4432.39   1
   1 -10 -10 133300. 4660.75   2
  -9  10  11 79378.2 3477.17   1
   9 -10 -11 76815.6 3418.20   1
  10  -9  11 76075.7 3447.25   1
 -10   9 -11 79374.0 3530.26   1
   1 -10 -11 85017.6 3619.23   2
  10   0   0 40869.2 2347.47   1
 -10   0   0 42171.4 2402.73   1
  10 -10   0 46577.6 2402.04   1
   0 -10   0 46033.7 2479.89   2
 -10  10   0 43499.3 2379.89   1
  10   0   1 124491. 4360.68   1
  10   0  -1 127286. 4397.35   1
   0 -10  -1 113848. 4308.29   1
   0  10   1 127476. 4428.83   1
  10 -10   1 141535. 4462.43   1
 -10   0  -1 105479. 4077.48   1
 -10   0   1 111465. 4216.43   1
  10 -10  -1 131020. 4295.14   1
   0 -10   1 132122. 4433.12   2
   0 -10  -1 133944. 4415.54   2
 -10  10  -1 138525. 4472.76   1
 -10  10   1 130510. 4324.50   1
  10   0   2 322276. 7727.40   1
   0 -10  -2 299130. 7767.59   1
   0  10   2 306719. 7726.98   1
  10 -10   2 333835. 7741.78   1
 -10   0  -2 275406. 7470.34   1
  10 -10  -2 340373. 7781.08   1
   0 -10   2 305779. 7746.71   2
   0 -10  -2 319754. 7741.02   2
 -10  10  -2 331639. 7810.31   1
 -10  10   2 324105. 7724.08   1
 -10   0  -3 37012.8 2290.28   2
  10   0   3 38916.2 2265.96   1
   0 -10  -3 37338.5 2275.04   1
   0  10   3 37130.2 2248.62   1
  10 -10   3 43654.0 2367.10   1
 -10   0  -3 37192.9 2226.24   1
   0 -10   3 37416.9 2216.50   2
  10 -10  -3 41898.9 2272.61   1
   0 -10  -3 40232.4 2306.18   2
 -10  10  -3 46076.7 2393.80   1
 -10  10   3 40594.8 2220.05   1
   0 -10  -4 7269.31 1024.37   2
 -10  10  -4 7756.76 1008.24   1
 -10   0  -4 7620.81 1087.11   2
 -10   0  -4 7468.24 1012.96   1
  10 -10   4 7096.57 973.873   1
   0 -10  -4 6955.50 1028.11   1
   0  10   4 7968.68 1029.40   1
  10   0   4 6286.02 955.492   1
  10 -10  -4 7341.77 960.169   1
   0 -10   4 6066.80 912.471   2
 -10  10   4 8330.02 1063.65   1
  10 -10  -5 14669.1 1375.66   1
 -10   0  -5 14943.6 1475.33   2
  10   0   5 18521.2 1527.64   1
  10 -10   5 16102.7 1455.00   1
   0 -10  -5 13903.1 1402.22   1
   0  10   5 15787.9 1458.81   1
 -10   0  -5 16581.8 1514.36   1
   0 -10   5 15151.3 1455.40   2
 -10  10  -5 15435.2 1411.99   1
   0 -10  -5 16601.4 1507.73   2
 -10  10   5 16927.3 1502.53   1
  10 -10  -6 12326.4 1278.84   1
 -10   0  -6 11447.1 1308.52   2
  10   0   6 15118.5 1402.95   1
  10 -10   6 12585.2 1282.12   1
   0 -10  -6 13876.2 1351.91   1
   0  10   6 12782.8 1303.61   1
 -10   0  -6 13872.6 1363.07   1
   0 -10   6 12150.5 1316.99   2
 -10  10  -6 12871.9 1330.73   1
   0 -10  -6 12633.0 1299.60   2
 -10  10   6 14506.7 1378.64   1
  10 -10   7 29509.2 2004.71   1
  10   0   7 33186.3 2088.54   1
 -10   0  -7 29616.0 2075.64   2
  10 -10  -7 33953.2 2125.16   1
   0 -10  -7 32870.2 2163.39   1
   0  10   7 32663.2 2076.77   1
 -10   0  -7 31287.7 2072.98   1
   0 -10   7 25249.8 1916.43   2
 -10  10  -7 31089.9 2062.50   1
   0 -10  -7 30917.0 2079.41   2
 -10  10   7 33176.7 2102.75   1
   0 -10  -8 3927.24 800.816   2
 -10  10  -8 4119.85 802.241   1
 -10   0  -8 4510.99 816.143   2
 -10  10   8 6836.09 970.268   1
  10 -10   8 4636.89 811.658   1
   0 -10  -8 5133.83 898.460   1
  10 -10  -8 5829.19 938.420   1
  10   0   8 4733.89 845.462   1
 -10   0  -8 5003.86 903.602   1
   0  10   8 5114.78 842.412   1
 -10   0  -9 49415.8 2659.97   2
  10 -10  -9 55081.8 2767.16   1
   0  10   9 50003.1 2604.60   1
 -10  10  -9 38893.1 2423.69   1
  10 -10   9 43336.8 2521.26   1
   0 -10  -9 43452.9 2539.78   2
 -10  10   9 51458.2 2736.69   1
   5 -11  11 22525.3 1837.52   2
  -5  -6 -10 187577. 5644.28   1
  -6  -5 -10 189842. 5681.90   1
   5   6  10 185294. 5456.68   1
   6   5  10 189258. 5526.69   1
  -5  -6 -10 175075. 5381.19   2
  -6  -5 -10 174196. 5423.47   2
  -5  -6  -9 57083.2 2924.13   1
  -6  -5  -9 62106.1 3043.81   1
   5   6   9 55661.4 2746.88   1
   6   5   9 58110.5 2871.34   1
   6 -11   9 60993.7 3006.32   2
   5 -11   9 58288.3 2907.60   2
  -5  -6  -9 60931.4 2886.48   2
  -6  -5  -9 59204.1 2928.84   2
  -5  -6  -8 1718.70 577.683   2
  -6  -5  -8 1771.06 535.461   2
   5   6   8 807.329 386.576   1
   6   5   8 620.446 419.863   1
  -5  -6  -8 724.264 420.265   1
  -6  -5  -8 1345.42 597.887   1
   6 -11   8 1139.03 488.715   2
   5 -11   8 1505.98 527.924   2
  11  -6  -8 1200.86 467.042   1
  11  -6  -7 38142.7 2201.24   1
  -5  -6  -7 37517.1 2231.52   1
  -6  -5  -7 33525.8 2170.76   1
   5   6   7 34670.4 2139.50   1
   6   5   7 32111.1 2072.02   1
   6 -11   7 35008.3 2183.73   2
   5 -11   7 36730.3 2224.53   2
 -11   6   7 28621.7 1970.56   1
  11  -5  -7 30320.9 2032.60   1
  -5  -6  -7 30065.5 2025.02   2
  -6  -5  -7 35330.5 2227.19   2
  11  -6  -6 76611.1 3212.39   1
  -5  -6  -6 74162.4 3277.15   1
  -6  -5  -6 72282.5 3204.43   1
   6 -11   6 72289.1 3169.73   2
   5   6   6 72642.8 3175.68   1
   6   5   6 75043.9 3243.16   1
   5 -11   6 75743.0 3238.93   2
 -11   5   6 76499.1 3272.16   1
 -11   6   6 64747.9 2975.26   1
  11  -5  -6 71967.5 3160.27   1
  -5  -6  -6 70891.8 3154.28   2
  -6  -5  -6 69335.4 3171.33   2
  11  -6  -5 35799.2 2133.35   1
  -5  -6  -5 34640.9 2160.06   1
  -6  -5  -5 34844.9 2192.79   1
   5   6   5 35618.8 2172.66   1
   6   5   5 34976.7 2172.98   1
   6 -11   5 39432.2 2278.07   2
   5 -11   5 34022.2 2156.23   2
 -11   5   5 37157.7 2215.05   1
 -11   6   5 37411.1 2168.91   1
  11  -5  -5 37273.3 2173.85   1
  -5  -6  -5 38512.1 2290.56   2
  -6  -5  -5 34281.8 2175.23   2
  -6  11  -5 36795.1 2214.49   1
  -6  11  -4 25659.7 1847.58   1
  -5  11  -4 23925.6 1779.62   1
  11  -6  -4 28559.5 1870.42   1
   6 -11   4 26283.6 1819.18   1
  -5  -6  -4 22350.7 1756.78   1
  -6  -5  -4 24148.8 1816.57   1
   5   6   4 23305.5 1747.85   1
   6   5   4 23852.3 1741.26   1
   6 -11   4 24774.9 1797.94   2
 -11   5   4 24304.0 1728.04   1
   5 -11   4 24115.5 1775.69   2
 -11   6   4 26988.8 1793.19   1
  11  -5  -4 24105.0 1712.62   1
  -5  -6  -4 20647.7 1709.32   2
  -6  -5  -4 23051.4 1761.06   2
  -6  11  -3 124719. 4284.10   1
  11  -6  -3 114512. 4045.16   1
  -5  11  -3 127142. 4251.56   1
  -5  -6  -3 119213. 4241.64   1
   6 -11   3 114560. 4156.13   1
  -6  -5  -3 118479. 4235.66   1
   5   6   3 121747. 4193.54   1
   6   5   3 127297. 4262.03   1
 -11   5   3 128119. 4241.84   1
   6 -11   3 120947. 4214.92   2
   5 -11   3 116718. 4127.96   2
   5 -11   3 118431. 4203.51   1
 -11   6   3 118815. 4119.22   1
  11  -5  -3 118256. 4080.14   1
  -5  -6  -3 123303. 4267.72   2
  -6  -5  -3 132606. 4399.36   2
  -6  11  -2 275223. 7068.91   1
  -5  11  -2 292033. 7189.56   1
   5 -11   2 288666. 7237.57   1
  -5  -6  -2 268715. 7061.78   1
  -6  -5  -2 286736. 7212.02   1
   6 -11   2 273991. 6995.30   1
   5   6   2 278050. 7102.76   1
   6   5   2 275115. 7134.28   1
 -11   5   2 258436. 6827.23   1
   6 -11   2 295815. 7238.67   2
   5 -11   2 287198. 7137.74   2
 -11   6   2 265177. 6958.16   1
  11  -5  -2 291578. 7091.34   1
  -5  -6  -2 289560. 7213.27   2
  -6  -5  -2 268521. 7050.76   2
  11  -6  -2 303329. 7108.96   1
  -6  11  -1 45169.1 2380.03   1
  -5  11  -1 42218.7 2376.25   1
  -5  -6  -1 46432.9 2491.08   1
  -6  -5  -1 41964.3 2391.86   1
   5   6   1 45165.0 2390.02   1
   6   5   1 45818.9 2397.93   1
 -11   5   1 44143.4 2335.81   1
   6 -11   1 45128.8 2429.63   2
   5 -11   1 47361.9 2455.86   2
 -11   6   1 47410.7 2441.60   1
  11  -5  -1 43032.8 2295.08   1
   6 -11   1 43386.2 2407.00   1
  -5  -6  -1 44743.9 2433.93   2
  11  -6  -1 44041.3 2309.39   1
  -6  -5  -1 47127.1 2514.27   2
  -6  11   0 17770.9 1472.68   1
  -5  11   0 19020.0 1529.28   1
   5 -11   0 14855.7 1369.27   1
   6 -11   0 16899.0 1424.00   1
   6   5   0 17767.9 1516.96   1
 -11   5   0 16499.5 1437.16   1
  11  -5   0 16980.1 1420.14   1
   6 -11   0 15534.5 1413.60   2
 -11   6   0 17070.1 1446.91   1
   5 -11   0 16416.8 1462.14   2
  11  -6   0 14927.1 1356.65   1
  -5  -6   0 17334.4 1523.85   2
  -6  -5   0 20647.2 1652.22   2
 -11   6  -1 3350.63 693.230   1
  -5  -6   1 5174.03 886.168   2
  -6  -5   1 5324.39 941.747   2
  11  -6   1 4993.35 783.681   1
   5 -11  -1 3948.88 730.047   1
  -6  11   1 5203.98 814.038   1
  -5  11   1 4314.84 798.731   1
  11  -5   1 3373.07 688.483   1
   6 -11  -1 5129.56 816.263   2
   5 -11  -1 3914.89 726.502   2
 -11   5  -1 5874.74 847.850   1
  -6  11   2 241518. 6427.39   1
  -5  11   2 248304. 6502.52   1
   6 -11  -2 239957. 6388.11   1
   5 -11  -2 240172. 6385.51   1
  11  -5   2 238156. 6240.26   1
 -11   6  -2 238276. 6303.71   1
   6 -11  -2 235403. 6413.21   2
   5 -11  -2 234080. 6354.10   2
  11  -6   2 245632. 6301.05   1
  -5  -6   2 225372. 6389.53   2
  -6  11   3 67324.6 3012.62   1
  -5  11   3 64607.2 2944.03   1
   6 -11  -3 63624.1 2936.48   1
   5 -11  -3 63994.1 2958.38   1
  11  -5   3 64705.2 2847.85   1
 -11   5  -3 60902.7 2814.90   1
 -11   6  -3 59303.3 2799.44   1
  11  -6   3 62773.8 2811.01   1
   6 -11  -3 64159.0 2959.58   2
   5 -11  -3 63773.3 2959.43   2
  -6  11   4 15234.3 1375.77   1
   6 -11  -4 12197.9 1292.58   1
  -5  11   4 14980.4 1362.27   1
   5 -11  -4 12343.1 1307.12   1
  11  -5   4 15065.8 1290.85   1
 -11   5  -4 13412.0 1317.02   1
  11  -6   4 17209.6 1389.65   1
 -11   6  -4 16069.8 1376.28   1
   6 -11  -4 13837.9 1406.92   2
   5 -11  -4 14337.7 1395.84   2
  -6  11   5 76069.8 3251.76   1
   6 -11  -5 76991.7 3233.99   1
  -5  11   5 74957.0 3204.16   1
   5 -11  -5 75183.1 3236.46   1
  11  -5   5 72530.1 3085.74   1
  11  -6   5 77906.8 3153.92   1
 -11   5  -5 81171.0 3321.93   1
 -11   6  -5 75453.9 3171.21   1
   6 -11  -5 69959.8 3191.82   2
   5 -11  -5 64088.3 3073.22   2
  -6  11   6 74646.2 3198.31   1
   6 -11  -6 74160.6 3241.84   1
  -5  11   6 78345.6 3282.17   1
   5 -11  -6 77509.9 3289.01   1
  11  -5   6 77022.4 3171.55   1
  11  -6   6 72089.9 3090.19   1
 -11   5  -6 83144.3 3376.56   1
 -11   6  -6 74056.3 3226.92   1
   6 -11  -6 70208.4 3209.46   2
   5 -11  -6 72345.5 3238.91   2
  -6  11   7 25360.7 1806.91   1
   6 -11  -7 25476.7 1837.28   1
   5 -11  -7 25791.3 1810.22   1
  -5  11   7 25096.0 1785.17   1
  11  -5   7 26450.3 1808.06   1
  11  -6   7 26260.9 1795.87   1
 -11   5  -7 26847.3 1872.21   1
 -11   6  -7 27950.2 1872.92   1
   6 -11  -7 21298.2 1743.42   2
   5 -11  -7 22374.8 1798.84   2
  -6  11   8 15464.5 1449.54   1
   6 -11  -8 16223.2 1500.22   1
   5 -11  -8 17561.6 1490.81   1
  -5  11   8 18985.7 1525.76   1
  11  -5   8 15899.6 1452.98   1
  11  -6   8 17007.8 1449.60   1
 -11   5  -8 17120.6 1474.96   1
 -11   6  -8 17916.2 1549.23   1
   6 -11  -8 14264.5 1442.12   2
   5 -11  -8 15445.4 1479.70   2
  -6  11   9 59281.3 2867.51   1
   6 -11  -9 58883.2 2878.70   1
   5 -11  -9 57538.9 2828.52   1
  -5  11   9 58848.3 2817.27   1
  11  -5   9 59694.2 2795.87   1
  11  -6   9 60270.0 2859.81   1
 -11   5  -9 59362.7 2855.16   1
 -11   6  -9 60749.2 2917.90   1
   5 -11  -9 52151.0 2847.33   2
  -6  11  10 231006. 6277.94   1
   6 -11 -10 219081. 6181.60   1
   5 -11 -10 222397. 6207.16   1
  -5  11  10 218916. 6097.87   1
  11  -5  10 221787. 6149.47   1
  11  -6  10 221626. 6166.77   1
 -11   5 -10 223752. 6234.00   1
 -11   6 -10 217773. 6187.87   1
  11  -6  11 65492.0 3064.49   1
 -11   6 -11 69769.0 3202.67   1
   4 -11  11 761.052 394.915   2
  -7  -4 -10 12511.1 1336.71   2
  -4  -7 -10 11347.0 1248.91   1
  -7  -4 -10 10805.8 1237.76   1
   4   7  10 11645.4 1208.74   1
   4 -11  10 8307.89 1139.80   2
   7   4  10 10724.6 1231.54   1
  -4  -7 -10 10752.0 1226.97   2
  -7  -4  -9 11880.9 1327.19   2
  11  -7  -9 12121.6 1307.57   1
  -4  -7  -9 13788.7 1351.93   1
  -7  -4  -9 13609.1 1406.38   1
   4   7   9 13826.7 1354.15   1
   4 -11   9 13333.8 1402.42   2
   7   4   9 14283.5 1368.08   1
  -4  -7  -9 15124.8 1414.57   2
  -7  -4  -8 437697. 9862.92   2
  11  -7  -8 421729. 9716.51   1
  -4  -7  -8 447628. 9966.28   1
  -7  -4  -8 469902. 10156.6   1
   4   7   8 471924. 9937.68   1
   7 -11   8 460815. 9973.53   2
   4 -11   8 400328. 9649.14   2
   7   4   8 452866. 9823.76   1
 -11   7   8 378799. 9488.78   1
  -4  -7  -8 433711. 9693.87   2
   4   7   7 691.084 463.174   1
  -4  -7  -7 405.168 411.181   2
 -11   7   7-118.678 352.572   1
  -7  -4  -7 293.601 382.997   2
   7   4   7 293.205 288.823   1
  11  -7  -7 23.1090 364.127   1
  -4  -7  -7 800.591 484.715   1
  -7  -4  -7 380.091 471.663   1
   7 -11   7 515.340 406.292   2
   4 -11   7 407.401 441.500   2
   4   7   6 1960.17 551.543   1
  -4  -7  -6 3746.01 779.401   2
 -11   7   6 2596.83 667.941   1
  -7  -4  -6 4003.14 835.655   2
  -7  11  -6 2143.59 583.705   1
   7   4   6 3413.41 717.181   1
  11  -7  -6 2507.24 602.191   1
  -4  -7  -6 2694.69 677.428   1
  -7  -4  -6 3589.39 737.285   1
   7 -11   6 2310.77 657.503   2
   4 -11   6 3489.88 725.864   2
  -7  -4  -5 30203.9 2065.83   2
  11  -7  -5 36195.4 2134.33   1
  -4  -7  -5 29719.7 2016.02   1
  -7  -4  -5 34094.1 2132.28   1
   4   7   5 31206.6 2020.46   1
 -11   4   5 30144.7 2004.05   1
  11  -4  -5 33076.1 2079.32   1
   7 -11   5 35223.0 2168.27   2
   4 -11   5 30356.6 2029.54   2
   7 -11   5 34335.1 2094.13   1
   7   4   5 33108.0 2082.92   1
 -11   7   5 34647.4 2118.15   1
  -4  -7  -5 30971.0 2005.26   2
  -7  11  -5 33277.9 2108.63   1
  11  -7  -4 209737. 5792.10   1
  -4  -7  -4 195942. 5775.06   1
  -7  -4  -4 202402. 5829.62   1
   4   7   4 202373. 5775.60   1
  11  -4  -4 202720. 5721.70   1
 -11   4   4 187280. 5588.25   1
   7 -11   4 206078. 5814.33   2
   4 -11   4 204447. 5772.69   2
   7   4   4 191038. 5682.42   1
 -11   7   4 200578. 5712.58   1
  -4  -7  -4 202591. 5753.82   2
   7 -11   4 203241. 5839.85   1
  -7  11  -4 204053. 5803.34   1
  -7  -4  -4 218059. 6033.79   2
   4   7   3 1495.00 566.652   1
  -4  -7  -3 2590.48 639.020   2
 -11   7   3 1359.03 475.894   1
  -7  -4  -3 861.376 394.654   2
  11  -7  -3 1957.07 510.654   1
  -7  11  -3 626.023 399.791   1
   7   4   3 737.023 394.509   1
  -4  11  -3 1581.63 468.395   1
  -4  -7  -3 841.712 471.559   1
  -7  -4  -3 1310.74 502.613   1
   7 -11   3 969.047 472.596   1
  11  -4  -3 1861.23 551.787   1
   7 -11   3 1421.67 580.275   2
   4 -11   3 1820.58 532.278   2
 -11   4   3 2256.65 561.716   1
  -7  11  -2 32528.0 2056.88   1
  -4  11  -2 35487.6 2154.77   1
  11  -7  -2 31238.3 1948.88   1
   4 -11   2 34295.3 2122.90   1
   7 -11   2 32611.5 2074.48   1
  -4  -7  -2 34879.7 2118.78   1
  -7  -4  -2 31769.0 2047.03   1
   4   7   2 32267.0 2068.36   1
  11  -4  -2 38256.2 2128.22   1
 -11   4   2 32640.9 2033.96   1
   7 -11   2 34546.6 2156.43   2
   4 -11   2 33910.0 2094.45   2
   7   4   2 35719.7 2121.74   1
 -11   7   2 26052.3 1847.28   1
  -4  -7  -2 32533.1 2056.64   2
  -7  -4  -2 33550.5 2183.31   2
  -4  -7  -1 5446.85 881.551   2
 -11   7   1 6036.73 879.334   1
  -7  -4  -1 5901.48 991.438   2
   4 -11   1 5638.82 878.083   1
  -7  11  -1 7056.28 971.877   1
   7   4   1 6347.97 959.646   1
  -4  11  -1 6751.81 970.693   1
   7 -11   1 5654.84 861.359   1
  -4  -7  -1 6783.61 957.588   1
  -7  -4  -1 5731.51 894.823   1
  11  -4  -1 4178.28 719.551   1
  11  -7  -1 6785.39 933.470   1
   7 -11   1 5044.71 845.792   2
   4 -11   1 5134.33 851.362   2
 -11   4   1 6507.57 940.970   1
   4   7   1 6211.99 929.654   1
  11  -7   0 450201. 9464.67   1
  -7  11   0 414300. 9442.42   1
  -4  11   0 454221. 9734.08   1
   4 -11   0 432984. 9617.13   1
  11  -4   0 411498. 9267.78   1
   7 -11   0 432576. 9486.42   1
 -11   4   0 433119. 9552.91   1
   7 -11   0 413303. 9500.49   2
   4 -11   0 430598. 9511.04   2
 -11   7   0 455543. 9604.39   1
   7   4   0 428309. 9538.77   1
  -4  -7   0 402961. 9423.39   2
  -7  -4   0 417885. 9642.90   2
  -4  -7   1 1837.92 612.617   2
 -11   7  -1 1529.32 520.413   1
   4 -11  -1 637.009 387.581   1
   7 -11  -1 2193.47 576.810   1
  -7  11   1 605.263 411.319   1
  -4  11   1 869.638 516.182   1
  11  -7   1 1354.29 479.330   1
  11  -4   1 903.762 386.078   1
   7 -11  -1 1398.57 523.543   2
 -11   4  -1 1412.46 527.453   1
   4 -11  -1 1024.01 557.741   2
   7 -11  -2 41812.4 2332.00   1
  -7  11   2 39592.6 2195.63   1
  -4  11   2 42265.1 2308.76   1
   4 -11  -2 37451.3 2230.36   1
  11  -4   2 35836.6 2126.32   1
 -11   4  -2 41030.2 2280.55   1
   7 -11  -2 36753.4 2259.64   2
 -11   7  -2 41951.4 2307.74   1
   4 -11  -2 39378.3 2287.41   2
  -4  -7   2 35653.1 2223.23   2
  11  -7   2 40085.7 2204.50   1
  -4  -7   3 7597.17 1026.51   2
  -4  11   3 7542.88 1013.88   1
   4 -11  -3 6978.22 982.600   1
   7 -11  -3 6549.55 947.133   1
  -7  11   3 6531.49 918.205   1
  11  -4   3 6594.52 893.951   1
 -11   7  -3 8104.87 1035.62   1
   7 -11  -3 5345.71 830.165   2
  11  -7   3 7899.42 980.418   1
 -11   4  -3 7317.50 988.180   1
   4 -11  -3 6777.99 959.838   2
  -7  11   4 222585. 6023.01   1
   4 -11  -4 208047. 6000.82   1
  -4  11   4 207279. 5907.08   1
  11  -4   4 212957. 5903.56   1
 -11   7  -4 223247. 6028.71   1
   7 -11  -4 212665. 6130.15   2
   4 -11  -4 220059. 6137.22   2
  11  -7   4 224938. 5946.69   1
   7 -11  -5-428.973 410.406   1
   4 -11  -5 84.5099 403.054   1
  11  -4   5 207.752 397.957   1
  -7  11   5 464.689 369.634   1
  -4  11   5 413.424 428.549   1
 -11   4  -5 606.934 420.514   1
   7 -11  -5 345.036 365.074   2
   4 -11  -5 57.0111 351.463   2
  11  -7   5-397.490 350.682   1
 -11   7  -5 96.9307 256.599   1
   7 -11  -6 5233.59 828.683   1
  11  -4   6 4152.08 696.850   1
   4 -11  -6 5116.43 866.915   1
  -7  11   6 4660.10 855.580   1
  -4  11   6 3730.71 737.003   1
 -11   4  -6 3992.67 756.893   1
  11  -7   6 5079.27 836.353   1
   7 -11  -6 4513.92 799.968   2
   4 -11  -6 3796.86 740.522   2
 -11   7  -6 4846.15 792.030   1
  -7  11   7 21312.9 1651.48   1
   7 -11  -7 20555.5 1624.16   1
   4 -11  -7 20037.9 1640.57   1
  -4  11   7 21441.3 1656.03   1
  11  -4   7 18014.4 1484.96   1
 -11   4  -7 23213.1 1733.43   1
  11  -7   7 21953.8 1615.99   1
 -11   7  -7 20994.1 1661.96   1
   7 -11  -7 18997.4 1737.01   2
   4 -11  -7 20062.6 1645.56   2
  -7  11   8 501916. 10632.9   1
   7 -11  -8 470073. 10457.9   1
   4 -11  -8 497953. 10634.3   1
  -4  11   8 500935. 10473.9   1
  11  -4   8 496835. 10455.2   1
  11  -7   8 474730. 10371.6   1
 -11   4  -8 465250. 10395.0   1
 -11   7  -8 471380. 10477.8   1
   4 -11  -8 464056. 10619.3   2
  11  -4   9 320.151 341.029   1
   7 -11  -9 42.4475 300.083   1
   4 -11  -9-158.014 398.500   1
  -7  11   9 365.897 476.366   1
  11  -7   9-400.151 399.885   1
  -4  11   9 454.023 393.357   1
 -11   4  -9 238.526 367.894   1
 -11   7  -9 309.781 419.207   1
   4 -11  -9 294.410 468.786   2
  -7  11  10 36460.0 2243.08   1
   7 -11 -10 34402.3 2190.07   1
   4 -11 -10 32595.6 2133.19   1
  -4  11  10 30722.7 2034.50   1
  11  -4  10 37332.1 2182.10   1
  11  -7  10 33357.3 2129.96   1
 -11   4 -10 32318.6 2130.60   1
 -11   7 -10 34105.1 2182.68   1
   4 -11 -10 27986.3 2089.05   2
  11  -7  11 5259.25 889.750   1
 -11   7 -11 5244.16 897.412   1
   4 -11 -11 5184.84 961.581   2
  11  -8 -10 49209.8 2702.49   1
   3 -11  10 45201.6 2665.08   2
  -8  -3  -9 114741. 4209.96   2
  -3  -8  -9 118396. 4290.43   1
  -8  -3  -9 121819. 4375.97   1
  11  -8  -9 111571. 4181.03   1
   3   8   9 118173. 4210.89   1
   3 -11   9 97140.1 4064.42   2
   8   3   9 118009. 4219.06   1
 -11   8   9 96962.6 3978.57   1
  -3  -8  -9 114960. 4173.17   2
  -3  -8  -8 1032.30 501.863   2
  -8  -3  -8 33.8338 400.587   2
 -11   8   8 92.4588 369.117   1
   8   3   8 114.149 264.410   1
  -3  -8  -8 47.3670 309.692   1
  -8  -3  -8 126.430 426.455   1
  11  -8  -8 413.470 322.359   1
   3 -11   8 349.518 379.603   2
   3   8   8 758.312 382.204   1
  -8  -3  -7 120374. 4300.70   2
  -3  -8  -7 121543. 4341.01   1
  -8  -3  -7 117936. 4300.78   1
  11  -8  -7 118119. 4171.28   1
   3   8   7 117550. 4221.46   1
   3 -11   7 121966. 4343.01   2
   8   3   7 123033. 4291.07   1
  -8  11  -7 104616. 4118.42   1
 -11   8   7 123875. 4347.96   1
  -3  -8  -7 110946. 4147.73   2
  -8  -3  -6 266130. 7123.20   2
  -3  -8  -6 254675. 7029.20   1
  11  -8  -6 291175. 7159.01   1
   8 -11   6 262894. 7065.92   1
  -8  -3  -6 270560. 7140.73   1
   3   8   6 281281. 7179.57   1
   8 -11   6 283485. 7143.58   2
   3 -11   6 268096. 7062.31   2
   8   3   6 283750. 7157.47   1
 -11   8   6 272290. 7072.46   1
  -8  11  -6 262045. 7025.87   1
  -3  -8  -6 272151. 7074.30   2
  -8  -3  -5 33670.8 2167.50   2
  -3  -8  -5 33121.7 2162.69   1
  11  -8  -5 36731.8 2132.91   1
  -8  -3  -5 33561.0 2156.87   1
   3   8   5 36305.7 2194.47   1
   8 -11   5 32996.8 2096.48   1
   8 -11   5 37732.1 2262.80   2
   3 -11   5 36079.4 2204.74   2
   8   3   5 35296.3 2155.51   1
 -11   8   5 39286.2 2244.53   1
  -8  11  -5 33193.4 2130.64   1
  -3  -8  -5 37464.0 2217.09   2
  -8  -3  -4 122006. 4431.73   2
  -3  -8  -4 122434. 4463.71   1
  11  -8  -4 138025. 4513.49   1
  -8  -3  -4 133647. 4539.79   1
   3   8   4 139029. 4589.71   1
  11  -3  -4 144162. 4658.31   1
 -11   3   4 136624. 4603.37   1
   8 -11   4 133385. 4508.67   1
   8 -11   4 143348. 4716.17   2
   3 -11   4 145343. 4641.10   2
 -11   8   4 146042. 4616.98   1
   8   3   4 135901. 4590.16   1
  -3  -8  -4 143074. 4626.27   2
  -8  11  -4 135922. 4532.67   1
  -8  -3  -3 9133.75 1139.05   2
  11  -8  -3 10013.9 1087.74   1
   8   3   3 7663.19 983.340   1
  -8  -3  -3 6971.82 1008.70   1
  -3  -8  -3 7581.07 1026.13   1
   3   8   3 9646.13 1126.74   1
  11  -3  -3 7703.38 1040.31   1
 -11   3   3 7769.93 993.516   1
   8 -11   3 9403.12 1131.71   2
   3 -11   3 8326.41 1053.98   2
   8 -11   3 7072.51 964.061   1
 -11   8   3 9624.72 1101.73   1
  -3  -8  -3 10183.2 1137.98   2
  -8  11  -3 9646.21 1093.16   1
  -8  -3  -2 133939. 4736.53   2
   8 -11   2 138338. 4572.49   1
  -3  11  -2 142368. 4693.76   1
  11  -8  -2 142457. 4533.56   1
  -3  -8  -2 122151. 4456.15   1
  -8  -3  -2 129253. 4494.75   1
   3   8   2 136675. 4594.41   1
  11  -3  -2 145855. 4616.73   1
 -11   3   2 135357. 4507.85   1
   8 -11   2 143015. 4715.35   2
   3 -11   2 145784. 4632.33   2
 -11   8   2 135989. 4513.71   1
  -3  -8  -2 131467. 4527.77   2
   8   3   2 141567. 4615.46   1
  -8  11  -2 145130. 4674.35   1
  -3  -8  -1 5191.39 880.394   2
 -11   8   1 5206.54 788.663   1
  -8  -3  -1 4162.51 793.191   2
  -8  11  -1 5006.14 875.028   1
   3 -11   1 5252.13 872.425   1
  11  -8  -1 3690.55 718.771   1
  11  -3  -1 4203.79 759.733   1
   8   3   1 5032.06 843.925   1
  -3  11  -1 4864.85 776.010   1
  -8  -3  -1 4782.18 845.250   1
   8 -11   1 4379.89 791.925   1
   8 -11   1 4421.98 787.489   2
   3   8   1 4482.56 782.187   1
 -11   3   1 4590.30 794.431   1
   3 -11   1 5545.79 840.871   2
  -3  -8   0 4143.00 773.265   2
 -11   8   0 4601.81 818.596   1
  11  -8   0 4054.20 721.588   1
  -8  11   0 4466.59 750.219   1
   3 -11   0 4018.85 748.513   1
  11  -3   0 5964.75 875.113   1
   8   3   0 4897.68 848.801   1
  -3  11   0 4611.95 850.340   1
   8 -11   0 4831.20 861.569   2
 -11   3   0 3718.15 714.035   1
   8 -11   0 4320.69 750.131   1
   3 -11   0 4957.75 786.750   2
  -8  11   1 29843.9 1939.76   1
  11  -8   1 29830.8 1878.75   1
   3 -11  -1 26140.0 1892.23   1
  -3  11   1 28768.6 1953.28   1
   8 -11  -1 30984.9 2000.89   1
  11  -3   1 29978.2 1913.93   1
 -11   3  -1 28971.9 1913.84   1
   8 -11  -1 27399.1 1952.81   2
   3 -11  -1 29899.1 1957.52   2
 -11   8  -1 25364.1 1774.54   1
  -3  -8   1 26404.8 1873.85   2
  -8  11   2 106021. 3896.35   1
  11  -8   2 110416. 3846.46   1
   3 -11  -2 101179. 3866.94   1
  -3  11   2 100492. 3829.07   1
  11  -3   2 104242. 3823.53   1
   8 -11  -2 109597. 3934.04   1
 -11   3  -2 112488. 4004.22   1
   8 -11  -2 109022. 4066.90   2
 -11   8  -2 107121. 3864.45   1
   3 -11  -2 104136. 3888.59   2
  -3  -8   2 107415. 4019.66   2
  11  -8   3 131052. 4281.52   1
  -8  11   3 133248. 4399.20   1
   3 -11  -3 117055. 4285.60   1
  -3  11   3 131314. 4375.61   1
  11  -3   3 123636. 4248.29   1
 -11   3  -3 142940. 4545.36   1
   8 -11  -3 129947. 4350.97   1
   8 -11  -3 122593. 4420.85   2
 -11   8  -3 138872. 4467.47   1
   3 -11  -3 133726. 4493.12   2
  -3  -8   3 118803. 4314.67   2
 -11   8  -4 3968.19 772.495   1
   8 -11  -4 4522.19 812.070   1
  11  -3   4 2702.17 631.257   1
  -8  11   4 3588.99 695.433   1
   3 -11  -4 3963.55 754.576   1
  11  -8   4 4447.71 737.769   1
  -3  11   4 4239.65 754.319   1
 -11   3  -4 2974.08 716.311   1
   8 -11  -4 3540.20 724.777   2
   3 -11  -4 3037.20 700.652   2
  -3  -8   4 3389.50 742.730   2
  -8  11   5 156475. 4835.71   1
   3 -11  -5 146510. 4918.66   1
  -3  11   5 154617. 4887.73   1
  11  -3   5 157799. 4879.24   1
 -11   3  -5 156890. 4941.69   1
   8 -11  -5 146544. 4969.76   2
 -11   8  -5 145963. 4781.94   1
   3 -11  -5 158100. 5034.49   2
  11  -8   5 156673. 4822.64   1
   8 -11  -5 155889. 4893.32   1
   8 -11  -6 239141. 6427.53   1
  -8  11   6 230798. 6207.74   1
   3 -11  -6 224091. 6361.61   1
  -3  11   6 224591. 6244.47   1
  11  -3   6 232934. 6219.01   1
 -11   3  -6 244540. 6436.14   1
 -11   8  -6 237126. 6310.80   1
   8 -11  -6 211335. 6380.70   2
  11  -8   6 233811. 6261.87   1
   3 -11  -6 230603. 6405.77   2
  -8  11   7 73308.9 3162.13   1
   8 -11  -7 74751.6 3235.79   1
   3 -11  -7 73775.0 3272.49   1
  -3  11   7 75617.8 3209.64   1
  11  -3   7 74140.3 3153.70   1
 -11   3  -7 75639.0 3245.08   1
 -11   8  -7 70964.2 3135.77   1
  11  -8   7 70545.2 3144.35   1
   3 -11  -7 70873.7 3225.91   2
  -8  11   8 104224. 3907.79   1
   3 -11  -8 111997. 4157.72   1
  11  -3   8 109810. 3972.29   1
  -3  11   8 106794. 3945.64   1
   8 -11  -8 109071. 4018.35   1
 -11   3  -8 107719. 4018.61   1
  11  -8   8 105170. 3931.87   1
 -11   8  -8 104245. 3979.99   1
   3 -11  -8 105514. 4085.07   2
  -8  11   9 14963.4 1386.30   1
   3 -11  -9 13216.3 1336.20   1
  11  -3   9 13509.0 1332.02   1
  -3  11   9 13044.5 1298.50   1
   8 -11  -9 14406.7 1382.67   1
 -11   3  -9 13478.3 1368.60   1
  11  -8   9 11750.6 1239.93   1
 -11   8  -9 12123.3 1304.65   1
   3 -11  -9 12846.1 1362.09   2
  11  -8  10 138660. 4730.07   1
 -11   8 -10 143156. 4863.39   1
   3 -11 -10 141107. 4923.54   2
   3 -11 -11 2375.18 705.766   2
  11  -9 -10 32041.1 2181.48   1
  11  -9  -9 20984.0 1749.16   1
   2 -11   9 20342.5 1762.32   2
 -11   9   9 24407.1 1848.32   1
  -2  -9  -8 2497.96 637.459   2
  -9  11  -8 1728.73 578.430   1
  -9  -2  -8 1432.82 549.704   2
 -11   9   8 2412.53 621.317   1
  -2  -9  -8 2557.16 696.696   1
   9   2   8 1833.18 610.295   1
  -9  -2  -8 2036.06 582.022   1
   2   9   8 2232.20 601.659   1
   2 -11   8 1492.06 538.111   2
  11  -9  -8 1804.03 565.066   1
  -9  -2  -7 16133.6 1529.26   2
   9 -11   7 14616.5 1444.73   1
  -2  -9  -7 17286.0 1535.10   1
   2   9   7 15195.3 1462.56   1
  -9  -2  -7 15432.9 1483.35   1
  11  -9  -7 15565.5 1436.33   1
   2 -11   7 15709.5 1471.02   2
  -9  11  -7 15053.7 1448.87   1
  -2  -9  -7 16398.9 1509.26   2
 -11   9   7 14188.9 1425.94   1
   9   2   7 16780.5 1476.07   1
  -9  -2  -6 206346. 6032.16   2
   9 -11   6 182810. 5770.40   1
  -2  -9  -6 202350. 5961.66   1
   2   9   6 214137. 6029.75   1
  -9  -2  -6 227103. 6257.67   1
  11  -9  -6 218166. 6016.96   1
   2 -11   6 192702. 5912.22   2
  -9  11  -6 186562. 5851.46   1
  -2  -9  -6 226185. 6142.04   2
 -11   9   6 208636. 6014.15   1
   9   2   6 229343. 6156.47   1
  -9  -2  -5 142861. 4950.15   2
  -2  -9  -5 144478. 4957.87   1
   9 -11   5 147822. 4946.19   1
   2   9   5 157406. 5074.39   1
  -9  -2  -5 166556. 5195.42   1
  11  -9  -5 179981. 5199.99   1
   2 -11   5 151207. 4963.64   2
  -9  11  -5 160502. 5084.21   1
  -2  -9  -5 169515. 5138.87   2
 -11   9   5 174278. 5225.14   1
   9   2   5 162124. 5094.13   1
  -9  -2  -4 56919.1 2927.38   2
  -2  -9  -4 57157.1 2928.95   1
   2   9   4 60202.1 2941.24   1
  -9  -2  -4 50198.4 2744.71   1
  11  -9  -4 72141.3 3071.45   1
   9 -11   4 66358.2 3008.76   1
   2 -11   4 67296.6 3034.10   2
  -2  -9  -4 62657.9 2956.16   2
 -11   9   4 60141.8 2893.96   1
  -9  11  -4 62772.9 2975.73   1
   9   2   4 64638.9 3003.00   1
  -9  -2  -3 29887.9 2109.03   2
  -2  -9  -3 29977.8 2060.88   1
  11  -2  -3 30549.8 2010.94   1
   2   9   3 34800.9 2179.97   1
  11  -9  -3 33822.4 2079.86   1
  -9  -2  -3 33529.7 2165.85   1
   9 -11   3 35565.4 2155.04   1
   9 -11   3 34787.0 2194.96   2
   2 -11   3 34971.3 2156.02   2
  -2  -9  -3 33434.4 2116.52   2
 -11   9   3 36619.1 2199.61   1
  -9  11  -3 34465.6 2130.62   1
   9   2   3 34124.3 2144.18   1
  -9  -2  -2 190706. 5990.53   2
  -2  -9  -2 187269. 5824.85   1
  11  -2  -2 187652. 5681.82   1
  11  -9  -2 224893. 5904.19   1
   2   9   2 202687. 5878.95   1
  -9  -2  -2 180668. 5692.44   1
 -11   2   2 234660. 6229.55   1
   9 -11   2 205834. 6009.53   2
   9 -11   2 213495. 5878.98   1
   2 -11   2 220304. 6028.92   2
 -11   9   2 202132. 5796.49   1
  -2  -9  -2 204508. 5856.18   2
  -9  11  -2 212202. 5905.60   1
   9   2   2 208729. 5912.06   1
  -2  -9  -1 1002.02 450.699   2
 -11   9   1 965.507 384.001   1
   9 -11   1 1164.62 524.788   1
  11  -2  -1 569.150 386.210   1
  -9  11  -1 707.031 370.481   1
  11  -9  -1 221.979 305.874   1
   9   2   1 898.201 477.002   1
  -9  -2  -1 185.488 323.566   1
   9 -11   1 484.190 427.407   2
 -11   2   1 452.823 373.667   1
   2 -11   1 1097.16 527.409   2
  -2  -9   0 4648.03 813.235   2
 -11   9   0 6324.47 920.937   1
  11  -2   0 5593.88 847.487   1
  -9  11   0 5894.22 894.495   1
   2 -11   0 4328.84 796.499   1
   9 -11   0 5474.18 853.291   1
  11  -9   0 6812.40 921.015   1
  -2  11   0 4814.69 790.334   1
   9   2   0 5435.68 894.852   1
   9 -11   0 5244.65 912.484   2
 -11   2   0 5021.17 876.233   1
   2 -11   0 5812.40 870.023   2
   9 -11  -1 73521.6 3106.58   1
   2 -11  -1 62412.2 2997.79   1
  -2  11   1 64757.6 3042.64   1
  11  -9   1 69865.7 2966.58   1
  11  -2   1 68212.8 3033.67   1
 -11   2  -1 70112.3 3134.65   1
   9 -11  -1 68504.9 3176.64   2
   2 -11  -1 64001.3 2997.35   2
 -11   9  -1 73326.6 3106.87   1
  -2  -9   1 62998.1 3034.45   2
  -9  11   1 70021.0 3092.72   1
  -9  11   2 79041.1 3243.76   1
  11  -9   2 78827.2 3218.41   1
   9 -11  -2 76280.9 3249.02   1
   2 -11  -2 68145.0 3183.93   1
  -2  11   2 73737.5 3212.21   1
  11  -2   2 74129.3 3182.14   1
 -11   2  -2 74718.1 3246.28   1
   9 -11  -2 68334.0 3289.33   2
 -11   9  -2 76677.1 3217.39   1
   2 -11  -2 79697.2 3332.63   2
  -2  -9   2 73189.9 3281.11   2
  -9  11   3 136553. 4426.81   1
 -11   2  -3 94442.2 4041.20   2
  11  -9   3 134293. 4321.05   1
   2 -11  -3 112479. 4240.89   1
  -2  11   3 119518. 4273.16   1
   9 -11  -3 133944. 4386.56   1
  11  -2   3 124866. 4313.88   1
 -11   2  -3 122536. 4301.04   1
   9 -11  -3 124267. 4509.74   2
 -11   9  -3 130808. 4310.62   1
   2 -11  -3 132232. 4478.08   2
  -2  -9   3 115596. 4314.36   2
  -9  11   4 13541.4 1288.66   1
  11  -9   4 13659.5 1265.75   1
 -11   2  -4 9664.64 1182.21   2
   2 -11  -4 10643.2 1251.61   1
  11  -2   4 11512.8 1233.44   1
  -2  11   4 11688.9 1242.93   1
   9 -11  -4 14405.0 1316.14   1
 -11   2  -4 11489.6 1297.51   1
   9 -11  -4 13610.6 1401.14   2
 -11   9  -4 13606.9 1275.01   1
  -2  -9   4 11521.0 1309.86   2
   2 -11  -4 10188.9 1185.28   2
  -9  11   5 93664.0 3565.92   1
   2 -11  -5 86131.2 3576.63   1
  11  -2   5 96938.3 3621.05   1
  -2  11   5 84519.3 3519.33   1
   9 -11  -5 91703.1 3535.44   1
 -11   2  -5 92521.4 3656.42   1
 -11   9  -5 90976.2 3610.97   1
  -2  -9   5 85278.7 3658.84   2
   2 -11  -5 86475.2 3607.14   2
  11  -9   5 89041.8 3475.54   1
  -9  11   6 201970. 5673.86   1
  11  -2   6 190525. 5634.10   1
   2 -11  -6 187142. 5716.60   1
  -2  11   6 199730. 5721.02   1
   9 -11  -6 197386. 5625.86   1
 -11   2  -6 213038. 5940.35   1
 -11   9  -6 200673. 5776.09   1
   2 -11  -6 197200. 5767.15   2
  11  -9   6 203957. 5725.58   1
  -9  11   7 26293.3 1877.93   1
 -11   2  -7 21482.2 1842.96   2
  11  -2   7 31486.0 1998.27   1
   2 -11  -7 26069.1 1928.20   1
  -2  11   7 27089.7 1905.55   1
   9 -11  -7 29345.2 1986.95   1
 -11   2  -7 28751.6 1979.95   1
 -11   9  -7 31070.7 1995.20   1
  11  -9   7 29434.5 1937.44   1
   2 -11  -7 29782.6 2034.68   2
  -9  11   8 9437.11 1128.05   1
 -11   2  -8 7611.50 1121.88   2
  11  -2   8 9546.93 1141.79   1
   2 -11  -8 10052.8 1205.90   1
  -2  11   8 8936.00 1088.87   1
 -11   2  -8 9157.44 1113.18   1
 -11   9  -8 7886.95 1036.36   1
  11  -9   8 7649.75 1024.81   1
   2 -11  -8 7803.65 1094.07   2
   9 -11  -8 8127.92 1074.62   1
  11  -9   9 1915.63 553.003   1
 -11   9  -9 2521.84 612.616   1
 -10  11  -8 103493. 4094.99   1
 -10  11  -7 4969.79 882.724   1
 -10  -1  -7 3862.46 789.560   2
  -1 -10  -7 4601.00 844.958   1
   1  10   7 4965.04 884.145   1
  10 -11   7 4110.38 817.731   1
   1 -11   7 4326.00 818.805   2
 -10  11  -6 7402.93 991.375   1
  10 -11   6 5259.32 853.149   1
 -10  -1  -6 5996.36 958.581   2
  -1 -10  -6 6459.56 1003.35   1
 -10  -1  -6 7133.48 1020.71   1
  10   1   6 7210.59 1038.97   1
  11 -10  -6 7274.67 1046.26   1
   1  10   6 6660.75 998.962   1
   1 -11   6 6487.42 984.533   2
 -11  10   6 7642.58 1019.35   1
  -1 -10  -5 6263.40 953.251   2
 -10  11  -5 5139.59 880.372   1
 -10  -1  -5 4866.85 893.018   2
 -11  10   5 4697.51 809.508   1
  -1 -10  -5 5259.34 890.740   1
  10 -11   5 4628.94 767.110   1
  10   1   5 5374.25 912.504   1
 -10  -1  -5 5255.85 889.737   1
   1  10   5 5227.05 827.674   1
   1 -11   5 5923.44 924.922   2
  11 -10  -5 4239.69 774.360   1
  10   1   4 247648. 6619.74   1
 -10  -1  -4 216162. 6523.23   2
  -1 -10  -4 197488. 6243.18   1
  10 -11   4 242782. 6558.53   1
   1  10   4 227049. 6446.92   1
 -10  -1  -4 223695. 6459.38   1
  11 -10  -4 269242. 6665.04   1
   1 -11   4 226042. 6396.60   2
 -10  11  -4 244038. 6530.67   1
  -1 -10  -4 241718. 6486.83   2
 -11  10   4 254163. 6579.44   1
  -1 -10  -3-18.1044 376.888   2
 -10  11  -3 541.825 405.591   1
 -11  10   3 323.560 300.791   1
  -1 -10  -3 79.5753 361.141   1
  10   1   3 492.358 314.296   1
  10 -11   3 960.394 463.179   1
 -10  -1  -3 189.375 337.914   1
   1  10   3 342.562 314.869   1
  11 -10  -3 493.304 333.628   1
   1 -11   3 871.132 464.253   2
 -11  10   2 1486.37 602.729   1
 -10  11  -2 2023.22 571.927   1
  -1 -10  -2 1264.81 499.983   1
  10   1   2 1900.62 603.036   1
 -10  -1  -2 1351.75 493.674   1
   1  10   2 1587.37 521.522   1
  11 -10  -2 1841.71 587.727   1
  10 -11   2 1166.49 421.798   1
   1 -11   2 1508.39 521.240   2
  -1 -10  -2 2453.24 624.745   2
 -11  10   1 2248.97 554.084   1
 -10  11  -1 2212.83 590.116   1
  10   1   1 1681.50 571.619   1
  11 -10  -1 2907.92 630.751   1
 -10  -1  -1 1775.89 582.466   1
 -11   1   1 2141.90 582.290   1
  10 -11   1 2543.72 645.497   1
   1 -11   1 2249.92 578.997   2
  11  -1  -1 2330.21 630.735   1
  -1 -10  -1 2040.52 586.000   2
  10   1   0 350632. 8631.66   1
  11  -1   0 351465. 8628.27   1
  11 -10   0 395910. 8719.50   1
  10 -11   0 398435. 8764.46   1
   1 -11   0 399523. 8898.03   2
  -1 -10   0 369339. 8755.04   2
 -11  10   0 388906. 8695.33   1
 -10  11   0 381799. 8657.03   1
  10 -11  -1 3210.70 737.440   1
 -11  10  -1 2706.58 567.789   1
 -10  11   1 3201.08 694.864   1
  11 -10   1 3388.13 698.644   1
  -1  11   1 3255.63 718.921   1
 -11   1  -1 2437.11 610.107   1
  11  -1   1 2810.44 634.282   1
   1 -11  -1 3027.45 703.738   2
  -1 -10   1 2895.50 658.276   2
 -11  10  -2-309.564 328.491   1
 -10  11   2 664.573 447.121   1
  10 -11  -2 327.540 349.277   1
   1 -11  -2-148.110 372.847   1
  11 -10   2 402.102 373.287   1
  -1  11   2-77.3800 337.138   1
 -11   1  -2-87.6931 409.549   1
  11  -1   2-197.872 416.927   1
  -1 -10   2 563.851 445.817   2
   1 -11  -2 942.054 431.168   2
 -11  10  -3 8268.28 1027.69   1
 -10  11   3 7831.17 965.956   1
  11 -10   3 8394.43 1017.58   1
   1 -11  -3 5623.22 900.439   1
  10 -11  -3 7469.51 966.619   1
  -1  11   3 6327.37 983.546   1
 -11   1  -3 7992.33 1035.93   1
  11  -1   3 7179.09 996.170   1
  -1 -10   3 4991.81 875.855   2
   1 -11  -3 6956.82 990.731   2
  10 -11  -4 160430. 4950.04   1
 -11   1  -4 125320. 4802.09   2
  11 -10   4 157380. 4892.30   1
  11  -1   4 156229. 4942.68   1
   1 -11  -4 138189. 4862.37   1
  -1  11   4 148757. 4912.36   1
 -11   1  -4 179957. 5299.15   1
  -1 -10   4 130774. 4842.02   2
 -11  10  -4 166708. 5048.27   1
   1 -11  -4 162938. 5056.00   2
 -10  11   4 164621. 5025.85   1
  11 -10   5 8072.70 1043.01   1
  10 -11  -5 7654.93 999.852   1
 -11   1  -5 5183.10 901.010   2
   1 -11  -5 6091.60 923.014   1
  -1  11   5 8767.85 1076.86   1
 -11   1  -5 7655.09 1020.43   1
 -11  10  -5 10714.2 1222.61   1
  11  -1   5 7732.99 1059.33   1
   1 -11  -5 7440.79 1021.48   2
  -1 -10   5 6985.38 1030.51   2
 -10  11   5 9320.53 1092.00   1
 -11  10  -6 1227.38 442.428   1
 -11   1  -6 794.730 336.692   2
 -10  11   6 941.305 473.273   1
   1 -11  -6 1080.00 485.331   1
  11 -10   6 1110.20 439.544   1
  -1  11   6 721.932 440.873   1
  10 -11  -6 1218.46 483.474   1
 -11   1  -6 1064.45 474.405   1
  11  -1   6 290.962 309.933   1
  -1 -10   6 1094.96 449.175   2
   1 -11  -6 1385.85 487.229   2
 -11  10  -7 9122.35 1131.51   1
 -11   1  -7 9001.02 1164.20   2
  11 -10   7 8117.50 1052.13   1
  11   0   0 21635.2 1760.01   1
   0 -11   0 24454.8 1841.65   2
  11   0   1 11266.8 1277.36   1
  11 -11   1 14887.5 1383.04   1
 -11   0  -1 11943.8 1338.00   1
   0 -11   1 14679.0 1425.02   2
   0 -11  -1 15176.7 1419.74   2
 -11  11  -1 14999.5 1426.87   1
  11   0   2 99122.6 3879.86   1
   0  11   2 96362.5 3942.59   1
 -11   0  -2 91032.3 3802.93   1
   0 -11   2 106828. 4056.83   2
  11   0   3 62308.9 3015.64   1
   0 -11  -3 62179.9 3156.24   1
   0  11   3 63289.7 3124.57   1
 -11   0  -3 69133.2 3243.12   1
   0 -11   3 65684.1 3145.74   2
  11   0   4 23900.8 1832.09   1
   0 -11  -4 22696.6 1869.70   1
   0  11   4 25288.1 1889.52   1
 -11   0  -4 23686.6 1873.57   1
   0 -11   4 26397.7 1948.32   2
   0 -11  -5 71124.6 3394.51   1
   0  11   5 78734.6 3471.37   1
   0 -11   5 76820.3 3466.36   2
  -6  -6  -7-477.802 438.345   2
   6   6   7-342.786 372.167   1
  -6  -6  -7-188.293 401.897   1
   6 -12   7-88.1896 299.170   2
  -6  -6  -6 32532.7 2158.22   1
   6   6   6 33099.5 2143.05   1
   6 -12   6 38260.4 2246.57   2
 -12   6   6 28996.7 2010.23   1
  12  -6  -6 26442.9 1925.09   1
  -6  -6  -6 31307.7 2115.21   2
 -12   6   5-73.0079 278.329   1
  -6  -6  -5 253.612 291.232   2
   6   6   5-168.822 363.916   1
  12  -6  -5 704.356 428.279   1
  -6  -6  -5-320.804 408.108   1
   6 -12   5-96.6423 434.765   2
  -6  -6  -4 366128. 9195.33   1
   6   6   4 399085. 9354.51   1
   6 -12   4 440155. 9445.55   2
 -12   6   4 386997. 9142.17   1
  12  -6  -4 411352. 9239.18   1
  -6  -6  -4 420042. 9410.88   2
  -6  -6  -3 134.078 315.872   2
   6   6   3-183.744 372.114   1
  12  -6  -3 122.115 295.300   1
   6 -12   3 279.903 384.103   1
  -6  12  -3-302.799 357.654   1
  -6  -6  -3 591.181 493.366   1
   6 -12   3-842.589 497.695   2
 -12   6   3 256.293 461.142   1
  -6  -6  -2 3381.08 755.764   2
  12  -6  -2 4069.15 723.370   1
   6   6   2 3456.19 681.169   1
  -6  12  -2 4232.33 784.872   1
   6 -12   2 2790.06 633.848   1
   6 -12   2 4593.49 851.120   2
 -12   6   2 4248.91 773.853   1
  12  -6  -1 520.110 439.508   1
  -6  -6  -1-9.69055 318.293   2
  -6  12  -1 39.9710 324.878   1
   6 -12   1 168.055 315.278   1
   6 -12   1 233.717 420.517   2
 -12   6   1-380.132 439.702   1
  -6  12   0 162983. 5110.56   1
   6 -12   0 141606. 4898.89   1
 -12   6   0 169939. 5159.69   1
  12  -6   0 174684. 5095.63   1
   6 -12   0 171947. 5232.85   2
  -6  -6   0 145587. 5042.59   2
   6 -12  -1 366.002 319.466   1
  -6  12   1-124.440 323.313   1
   6 -12  -1-103.004 412.577   2
  12  -6   1-123.222 322.798   1
 -12   6  -1-237.078 355.854   1
   6 -12  -2 235.888 315.420   1
  -6  12   2 638.920 368.762   1
  12  -6   2 610.874 447.529   1
   6 -12  -2 292.601 336.779   2
 -12   6  -2 1497.19 557.113   1
   6 -12  -3 818.255 503.550   1
  -6  12   3-745.612 524.456   1
  12  -6   3-47.7780 326.881   1
   6 -12  -3 158.558 353.885   2
 -12   6  -3 438.751 475.831   1
  -6  12   4 289004. 7439.30   1
   6 -12  -4 284943. 7371.90   1
  12  -6   4 275091. 7051.64   1
   6 -12  -4 272146. 7293.37   2
   6 -12  -5 300.825 285.026   1
  -6  12   5 361.787 413.181   1
  12  -6   5-145.948 386.135   1
   6 -12  -5-208.899 439.966   2
 -12   6  -5 624.721 421.775   1
  -6  12   6 20894.5 1695.57   1
   6 -12  -6 18656.8 1623.25   1
  12  -6   6 20398.0 1577.45   1
 -12   6  -6 20914.4 1662.17   1
   6 -12  -6 16876.1 1555.94   2
   6 -12  -7-84.5333 282.797   2
   6 -12  -8 279225. 7581.07   2
  12  -7  -7 90328.4 3773.80   1
  -5  -7  -7 101782. 4037.87   1
  -7  -5  -7 107331. 4149.10   1
   5   7   7 108209. 4032.57   1
   7   5   7 110068. 4090.79   1
   5 -12   7 117256. 4214.23   2
 -12   7   7 79669.5 3592.49   1
  -7  -5  -7 107926. 4003.42   2
  12  -7  -6 175597. 5582.32   1
  -5  -7  -6 185671. 5751.97   1
  -7  -5  -6 196273. 5896.57   1
   5   7   6 192459. 5698.44   1
   7   5   6 194485. 5769.75   1
   7 -12   6 207479. 5891.87   2
   5 -12   6 201794. 5828.16   2
 -12   7   6 175349. 5554.13   1
  -5  -7  -6 193485. 5752.69   2
  -7  -5  -6 183038. 5692.48   2
  12  -7  -5 114992. 4136.58   1
  -5  -7  -5 101213. 4057.45   1
  -7  -5  -5 96369.6 4024.30   1
   5   7   5 111572. 4155.96   1
 -12   5   5 99170.6 3970.04   1
  12  -5  -5 99232.2 3962.52   1
   7   5   5 111167. 4123.01   1
   7 -12   5 117552. 4236.21   2
   5 -12   5 128451. 4365.72   2
 -12   7   5 109065. 4101.12   1
  -5  -7  -5 121182. 4263.60   2
  -7  -5  -5 123268. 4353.61   2
   5   7   4 4243.07 799.307   1
 -12   7   4 3743.38 681.873   1
  -5  -7  -4 3454.69 759.724   2
  -7  -5  -4 3199.28 728.215   2
   7   5   4 4598.48 839.163   1
  -7  12  -4 3221.04 696.774   1
   7 -12   4 4575.40 808.675   1
  -5  -7  -4 3328.21 763.867   1
  12  -7  -4 3087.30 647.841   1
  -7  -5  -4 3605.09 784.931   1
   7 -12   4 3772.72 751.816   2
   5 -12   4 6251.46 919.686   2
  12  -5  -4 4364.53 791.696   1
 -12   5   4 3547.25 742.385   1
   5   7   3 1570.89 543.978   1
 -12   7   3 531.094 482.165   1
  -5  -7  -3 889.592 516.196   2
  -7  -5  -3 710.349 491.057   2
   7   5   3 797.295 454.102   1
  -7  12  -3 152.633 321.443   1
  12  -7  -3 769.187 366.629   1
  -5  -7  -3 315.598 299.600   1
  -7  -5  -3 984.416 456.460   1
   7 -12   3 367.208 353.967   1
   7 -12   3 764.058 363.378   2
  12  -5  -3 801.543 446.065   1
   5 -12   3 1100.38 544.352   2
 -12   5   3 494.080 355.239   1
  -7  12  -2 138052. 4701.63   1
   5 -12   2 127295. 4598.78   1
  -5  12  -2 131572. 4667.81   1
   7 -12   2 129654. 4585.25   1
   5   7   2 134142. 4644.65   1
  12  -5  -2 145183. 4661.89   1
 -12   5   2 138994. 4670.22   1
   7   5   2 138347. 4691.54   1
   7 -12   2 155780. 4878.19   2
   5 -12   2 150431. 4753.99   2
 -12   7   2 153626. 4881.53   1
  -5  -7  -2 140078. 4746.96   2
  -7  -5  -2 132118. 4731.93   2
  12  -7  -2 149190. 4720.73   1
  -7  12  -1 28008.9 1942.62   1
  -5  12  -1 26049.3 1907.23   1
   5 -12   1 23036.2 1813.36   1
   7 -12   1 24499.6 1834.50   1
  12  -5  -1 30698.3 1977.18   1
 -12   5   1 25559.1 1842.30   1
   7 -12   1 28769.0 1991.87   2
 -12   7   1 31578.7 1980.57   1
   5 -12   1 30099.2 1991.42   2
  -5  -7  -1 28443.6 1959.01   2
  12  -7  -1 27839.1 1856.10   1
  -7  -5  -1 25568.9 1935.82   2
  -7  12   0 23106.9 1714.39   1
  -5  12   0 25505.2 1842.80   1
   5 -12   0 22153.9 1801.40   1
  12  -5   0 24567.8 1764.42   1
   7 -12   0 22056.2 1723.44   1
 -12   5   0 21342.8 1696.30   1
   7 -12   0 24495.9 1839.72   2
 -12   7   0 23603.1 1754.78   1
   5 -12   0 24366.4 1783.43   2
  12  -7   0 24405.8 1741.20   1
  -5  -7   0 21726.5 1777.07   2
  -7  12   1 108057. 3930.80   1
  -5  12   1 101221. 3960.84   1
   5 -12  -1 98466.1 3880.79   1
  12  -5   1 107044. 3908.18   1
 -12   5  -1 118425. 4168.70   1
 -12   7  -1 103836. 3846.74   1
   7 -12  -1 104307. 4076.54   2
   5 -12  -1 105654. 3962.81   2
   7 -12  -1 109059. 4043.81   1
  12  -7   1 115352. 3964.12   1
  -5  -7   1 95877.5 3925.84   2
   7 -12  -2 58567.6 2895.34   1
  -7  12   2 63107.5 2883.23   1
  -5  12   2 56204.7 2894.20   1
   5 -12  -2 52660.4 2789.85   1
  12  -5   2 62650.5 2829.58   1
 -12   5  -2 64085.8 2969.27   1
 -12   7  -2 60096.9 2852.22   1
   7 -12  -2 56161.2 2868.84   2
   5 -12  -2 58152.3 2876.30   2
  12  -7   2 63252.4 2878.73   1
  -7  12   3 9774.97 1135.66   1
  -5  12   3 10651.0 1187.89   1
   5 -12  -3 10429.1 1179.44   1
   7 -12  -3 10511.3 1187.72   1
  12  -5   3 11136.4 1182.74   1
 -12   5  -3 11467.5 1242.98   1
 -12   7  -3 10399.0 1178.06   1
  12  -7   3 9759.60 1083.69   1
   7 -12  -3 10269.9 1214.62   2
   5 -12  -3 11187.0 1255.68   2
   5 -12  -4 6663.12 1025.86   1
  -7  12   4 6932.99 981.626   1
  -5  12   4 8245.57 1068.37   1
  12  -5   4 8871.32 1071.48   1
 -12   5  -4 8161.21 1051.13   1
  12  -7   4 6268.82 934.147   1
   7 -12  -4 6053.12 969.755   2
   5 -12  -4 6607.75 991.235   2
 -12   7  -4 6411.11 956.704   1
  -7  12   5 11806.1 1273.78   1
   7 -12  -5 13750.1 1360.89   1
  -5  12   5 14719.0 1399.95   1
   5 -12  -5 13329.6 1308.54   1
  12  -5   5 14710.4 1319.53   1
 -12   5  -5 13115.4 1347.89   1
  12  -7   5 13647.5 1274.54   1
 -12   7  -5 13732.2 1293.09   1
   7 -12  -5 10727.7 1254.05   2
   5 -12  -5 13834.3 1410.85   2
  -7  12   6 340870. 8263.39   1
   7 -12  -6 358598. 8422.67   1
  -5  12   6 335305. 8242.61   1
   5 -12  -6 344694. 8408.51   1
  12  -5   6 353082. 8193.46   1
  12  -7   6 356835. 8275.09   1
 -12   5  -6 346176. 8288.12   1
 -12   7  -6 367903. 8436.59   1
   7 -12  -6 303629. 8298.71   2
   5 -12  -6 328742. 8350.21   2
   7 -12  -7 56325.4 3009.23   2
   5 -12  -7 59603.4 2996.08   2
   5 -12  -8 18417.4 1640.55   2
  12  -8  -8 4076.09 814.223   1
  12  -8  -7 48542.9 2657.59   1
  -4  -8  -7 51942.2 2827.67   1
   4   8   7 57255.3 2821.96   1
 -12   8   7 56761.1 2866.11   1
  -8  -4  -6 225612. 6523.27   2
  12  -8  -6 241858. 6533.93   1
  -4  -8  -6 214025. 6401.47   1
  -8  -4  -6 225959. 6477.68   1
   4   8   6 224697. 6392.66   1
   4 -12   6 237615. 6556.99   2
   8   4   6 233725. 6416.47   1
 -12   8   6 233714. 6477.47   1
  -8  -4  -5 6588.58 1051.01   2
  -8  12  -5 7688.93 1023.85   1
  12  -8  -5 9087.01 1062.16   1
  -4  -8  -5 7149.19 1026.51   1
   4   8   5 6857.70 984.493   1
  -8  -4  -5 7140.86 1024.33   1
   4 -12   5 9005.21 1143.20   2
   8   4   5 9146.45 1122.98   1
   8 -12   5 9975.99 1150.09   2
 -12   8   5 9453.87 1154.95   1
   8 -12   5 6803.14 1000.99   1
  -4  -8  -5 9479.73 1136.81   2
  12  -8  -4 81491.8 3340.84   1
  -4  -8  -4 60913.3 3101.66   1
  -8  -4  -4 63125.5 3153.11   1
   4   8   4 67358.1 3209.08   1
  12  -4  -4 70194.5 3248.55   1
   8 -12   4 84036.5 3452.36   2
   8 -12   4 68767.5 3225.88   1
   4 -12   4 79136.8 3387.12   2
   8   4   4 73898.1 3243.19   1
 -12   8   4 82995.0 3428.78   1
  -4  -8  -4 81846.5 3425.69   2
  -8  12  -4 70376.6 3244.05   1
  -8  -4  -4 72715.3 3393.64   2
  12  -8  -3 55498.8 2650.56   1
  -4  -8  -3 47181.4 2645.58   1
  -8  -4  -3 40948.8 2485.82   1
   4   8   3 45506.2 2590.58   1
  12  -4  -3 48667.1 2587.29   1
 -12   4   3 44039.4 2547.70   1
   8 -12   3 53661.5 2768.27   2
   4 -12   3 52500.0 2617.57   2
   8   4   3 45368.5 2566.16   1
 -12   8   3 50921.8 2609.54   1
   8 -12   3 46496.9 2580.67   1
  -4  -8  -3 48772.7 2630.56   2
  -8  12  -3 49619.0 2643.52   1
  -8  -4  -3 47909.7 2725.52   2
   8 -12   2 117730. 4257.96   1
  12  -8  -2 119349. 4182.96   1
  12  -4  -2 120481. 4251.01   1
 -12   4   2 102415. 4039.21   1
   8 -12   2 128094. 4453.60   2
   4 -12   2 124230. 4265.37   2
   8   4   2 111433. 4216.38   1
 -12   8   2 121486. 4250.10   1
  -4  -8  -2 122183. 4405.73   2
  -8  -4  -2 114197. 4360.65   2
  -8  12  -2 119746. 4252.93   1
  -8  12  -1 31721.4 2073.02   1
  12  -8  -1 30085.0 1961.39   1
  -4  12  -1 28226.6 2040.20   1
   8 -12   1 31432.3 2039.99   1
  12  -4  -1 30209.1 1980.56   1
 -12   4   1 24454.7 1837.16   1
   8 -12   1 31437.3 2097.06   2
   4 -12   1 32915.8 2034.04   2
 -12   8   1 34312.6 2091.08   1
  -4  -8  -1 28516.6 2014.60   2
  -4  -8   0 96.2609 375.196   2
 -12   8   0 659.830 373.522   1
  -8  12   0 337.708 357.133   1
   4 -12   0 74.0903 337.136   1
  -4  12   0 454.847 361.422   1
  12  -4   0 352.537 401.032   1
  12  -8   0 537.679 384.539   1
   8 -12   0 154.030 483.280   2
 -12   4   0 193.608 301.297   1
   4 -12   0 264.890 371.617   2
   8 -12   0-177.094 336.277   1
  -4  -8   1 7675.87 1040.27   2
  -8  12   1 6473.85 935.692   1
   4 -12  -1 6877.23 1004.03   1
   8 -12  -1 8030.87 1064.25   1
  12  -4   1 5630.38 875.430   1
  -4  12   1 5765.54 921.265   1
 -12   8  -1 8557.77 1078.58   1
   8 -12  -1 6854.66 985.083   2
 -12   4  -1 7504.24 985.921   1
   4 -12  -1 7228.02 960.436   2
  12  -8   1 7672.40 1001.96   1
  -8  12   2 110502. 4063.06   1
  -4  12   2 111979. 4167.55   1
   4 -12  -2 100084. 4011.56   1
  12  -4   2 118991. 4133.47   1
   8 -12  -2 124870. 4266.61   1
 -12   4  -2 105007. 3976.44   1
   8 -12  -2 110715. 4184.53   2
 -12   8  -2 115515. 4096.76   1
   4 -12  -2 117906. 4180.15   2
  -4  -8   2 98718.4 4057.04   2
  12  -8   2 113483. 3982.59   1
  -8  12   3 67165.5 3047.09   1
  -4  12   3 60077.6 2975.14   1
   4 -12  -3 59884.7 3000.95   1
  12  -4   3 65379.5 2950.86   1
 -12   4  -3 68677.9 3066.53   1
   8 -12  -3 65470.0 3022.18   1
   8 -12  -3 59657.8 2996.31   2
 -12   8  -3 66556.9 2952.45   1
   4 -12  -3 63872.2 3034.90   2
  12  -8   3 65152.4 2876.07   1
  12  -8   4 2308.15 584.367   1
   8 -12  -4 1851.20 603.935   1
  12  -4   4 1500.42 491.489   1
   4 -12  -4 2038.53 639.663   1
  -8  12   4 2204.67 503.682   1
  -4  12   4 1367.23 530.967   1
 -12   4  -4 1773.52 540.601   1
   8 -12  -4 1397.43 523.025   2
   4 -12  -4 1034.68 482.775   2
 -12   8  -4 2501.79 659.582   1
  -8  12   5 106503. 3951.11   1
   4 -12  -5 108878. 4110.87   1
  -4  12   5 116407. 4118.05   1
  12  -4   5 116970. 4030.94   1
 -12   4  -5 105992. 4035.92   1
 -12   8  -5 104762. 3938.94   1
  12  -8   5 107074. 3935.33   1
   8 -12  -5 96131.9 4063.53   2
   4 -12  -5 110613. 4163.76   2
   8 -12  -5 113328. 4090.78   1
   4 -12  -6 143200. 4784.74   1
  -4  12   6 143381. 4702.04   1
   4 -12  -6 140038. 4804.12   2
   4 -12  -7 59418.3 3012.21   2
  -9  -3  -6 10616.4 1282.62   2
  -3  -9  -6 10833.8 1295.55   1
   3   9   6 11193.7 1299.64   1
  -9  12  -6 12904.7 1396.68   1
 -12   9   5 1985.38 584.046   1
  -9  -3  -5 1893.81 648.981   2
  -9  12  -5 1716.33 586.220   1
   9   3   5 1673.96 558.686   1
  -3  -9  -5 2432.99 681.335   1
  12  -9  -5 2429.61 628.933   1
  -9  -3  -5 1556.60 562.614   1
   9 -12   5 1478.23 528.318   1
   3   9   5 1422.83 500.270   1
  -9  -3  -4 335144. 8811.72   2
  12  -9  -4 381687. 8676.07   1
  -3  -9  -4 316654. 8493.00   1
  -9  -3  -4 333267. 8676.11   1
   3   9   4 353283. 8734.40   1
   9 -12   4 340857. 8573.27   1
   9 -12   4 381422. 8827.44   2
   3 -12   4 412170. 8966.73   2
 -12   9   4 401038. 8901.33   1
   9   3   4 353653. 8591.63   1
  -3  -9  -4 369952. 8684.27   2
  -9  12  -4 354712. 8672.47   1
  -3  -9  -3 9030.56 1069.68   2
  -9  -3  -3 5203.72 908.495   2
  -9  12  -3 8588.26 1081.02   1
  12  -9  -3 8804.99 1073.10   1
   9   3   3 7606.95 1028.27   1
  12  -3  -3 7281.13 1040.89   1
  -9  -3  -3 7287.42 1075.09   1
   9 -12   3 9772.40 1158.67   1
   9 -12   3 8832.29 1124.20   2
   3   9   3 7241.73 1017.12   1
 -12   9   3 8713.27 1093.72   1
   3 -12   3 7666.15 1055.30   2
  -3  -9  -2 552.573 384.490   2
 -12   9   2 8.95057 361.119   1
   9 -12   2 835.823 476.242   1
  -9  12  -2 1305.51 520.966   1
  12  -9  -2 911.412 386.280   1
  12  -3  -2 809.721 407.904   1
   9   3   2 405.335 405.632   1
  -9  -3  -2 754.914 489.273   1
   9 -12   2 1066.91 552.427   2
 -12   3   2 740.411 477.751   1
   3 -12   2 1196.75 467.549   2
  -3  -9  -1 1393.00 518.920   2
 -12   9   1 1001.92 459.282   1
  12  -9  -1 1709.23 584.760   1
  -9  12  -1 932.138 495.670   1
  12  -3  -1 1224.98 463.401   1
   9 -12   1 1105.59 459.495   1
   9 -12   1 1103.15 451.818   2
 -12   3   1 914.445 434.272   1
   3 -12   1 2047.69 587.885   2
   9 -12   0 121842. 4304.80   1
  12  -9   0 117684. 4085.21   1
  -3  12   0 108205. 4240.58   1
  12  -3   0 111802. 4091.66   1
 -12   3   0 107234. 4096.10   1
   9 -12   0 113575. 4355.63   2
   3 -12   0 119398. 4222.60   2
 -12   9   0 127811. 4291.82   1
  -3  -9   0 104021. 4131.06   2
  -9  12   0 119125. 4239.36   1
 -12   9  -1 790.576 466.960   1
  12  -3   1 626.537 460.759   1
  -9  12   1 569.280 425.447   1
   3 -12  -1-200.975 305.531   1
  -3  12   1 1401.93 566.750   1
   9 -12  -1-251.569 384.399   1
  12  -9   1 502.202 516.255   1
   9 -12  -1 338.223 358.007   2
 -12   3  -1 267.508 287.809   1
   3 -12  -1 770.175 444.599   2
  -3  -9   1 619.897 524.989   2
  -9  12   2 9029.64 1125.59   1
  12  -9   2 9821.98 1102.65   1
   3 -12  -2 8140.01 1099.54   1
  -3  12   2 9266.60 1099.53   1
   9 -12  -2 9705.04 1100.31   1
  12  -3   2 8651.58 1064.92   1
 -12   3  -2 8690.85 1107.98   1
 -12   9  -2 9974.12 1124.22   1
   3 -12  -2 9333.66 1175.96   2
   9 -12  -2 7142.42 1052.17   2
  -3  -9   2 7483.26 1023.98   2
 -12   9  -3 2416.31 589.894   1
   9 -12  -3 1801.57 528.186   1
  12  -3   3 1329.23 499.104   1
  -9  12   3 1703.22 501.577   1
   3 -12  -3 1961.61 610.581   1
  12  -9   3 1751.36 516.851   1
  -3  12   3 552.946 403.954   1
 -12   3  -3 1540.61 528.092   1
   9 -12  -3 1377.03 549.254   2
   3 -12  -3 819.294 426.939   2
  -3  -9   3 1988.81 598.065   2
   3 -12  -4 260144. 7196.68   1
  -3  12   4 265773. 7096.62   1
  12  -3   4 286912. 7128.14   1
 -12   3  -4 282145. 7252.80   1
   9 -12  -4 251717. 7286.61   2
   3 -12  -4 269290. 7182.17   2
 -12   3  -5 1926.50 633.149   2
   3 -12  -5 2682.41 692.487   1
  -3  12   5 2910.85 680.491   1
 -12   3  -6 926.916 635.619   2
  10   2   4 6050.99 913.320   1
 -10  -2  -4 5312.84 931.118   1
   2  10   4 4654.70 813.476   1
 -10  -2  -3 94130.2 3878.91   1
  10   2   3 90345.8 3759.84   1
  10   2   2 102692. 3991.78   1
  12  -2  -1 33789.8 2160.11   1
 -12   2   1 22858.6 1851.91   1
  12  -2   0 12015.2 1290.55   1
 -12   2   0 10985.4 1295.25   1
  -2 -10   0 12312.6 1294.09   2
  12  -2   1 292.667 306.357   1
 -12   2  -1 952.717 462.391   1
  10 -12  -1 203.376 388.687   2
  -2 -10   1 393.525 420.826   2
   2 -12  -2 92167.6 3948.50   1
  -2  12   2 90247.7 3755.44   1
  12  -2   2 103394. 3923.02   1
 -12   2  -2 95544.1 3875.75   1
  10 -12  -2 99829.4 4086.79   2
  -2 -10   2 88684.3 3851.65   2
   2 -12  -3 16686.8 1601.90   1
  -2  12   3 18015.3 1595.28   1
  -2 -10   3 20154.2 1755.12   2
  -2  12   4 24728.6 1858.47   1
  -7  13  -2 63180.9 3130.92   1
  -6  -7  -2 64506.8 3258.63   2
  -7  -6  -2 67456.4 3333.76   2
  -6  -7  -1 1560.82 565.908   2
  -7  13  -1 1145.42 491.974   1
  -6  13  -1 1724.40 590.416   1
   7 -13   1 2026.93 598.046   1
  -7  13   0 427.569 396.137   1
  -6  13   0-87.8482 307.786   1
   7 -13   0-43.0003 273.108   1
   6 -13   0-83.1785 273.411   1
  -6  13   1 1728.31 546.978   1
   6 -13  -1 968.364 437.944   1
  -5  13   0 210960. 6283.73   1
   5 -13  -1 362.302 383.815   1
  -5  13   1 405.620 400.007   1
   0   0   0    0.00    0.00   0
;
_shelx_hkl_checksum              66223
loop_
_space_group_symop_operation_xyz
'x, y, z'
'-y, x-y, z'
'-x+y, -x, z'
'-y, -x, -z+1/2'
'-x+y, y, -z+1/2'
'x, x-y, -z+1/2'
'-x, -y, -z'
'y, -x+y, -z'
'x-y, x, -z'
'y, x, z-1/2'
'x-y, -y, z-1/2'
'-x, -x+y, z-1/2'
loop_
_atom_site_label
_atom_site_type_symbol
_atom_site_fract_x
_atom_site_fract_y
_atom_site_fract_z
_atom_site_U_iso_or_equiv
_atom_site_adp_type
_atom_site_occupancy
_atom_site_site_symmetry_order
_atom_site_calc_flag
_atom_site_refinement_flags_posn
_atom_site_refinement_flags_adp
_atom_site_refinement_flags_occupancy
Co1 Co 0.6667 0.3333 0.2500 0.00815(10) Uani 1 6 d S T P
Fe1 Fe 1.0000 0.0000 0.0000 0.00673(10) Uani 1 6 d S T P
O1 O 0.88334(10) 0.34348(9) 0.16803(5) 0.01781(15) Uani 1 1 d . . .
O2 O 1.01315(8) 0.20893(9) 0.08297(5) 0.01368(14) Uani 1 1 d . . .
C1 C 0.87327(12) 0.21002(12) 0.12029(7) 0.01366(16) Uani 1 1 d . . .
H1 H 0.7553 0.1044 0.1116 0.035(5) Uiso 1 1 calc R . .
N1 N 1.2776(4) 0.5553(7) 0.2500 0.122(5) Uani 0.334 2 d S T P
C2 C 1.3333 0.6667 0.1550(9) 0.156(4) Uani 1 3 d S T P
loop_
_atom_site_aniso_label
_atom_site_aniso_U_11
_atom_site_aniso_U_22
_atom_site_aniso_U_33
_atom_site_aniso_U_23
_atom_site_aniso_U_13
_atom_site_aniso_U_12
Co1 0.00723(11) 0.00723(11) 0.00997(16) 0.000 0.000 0.00362(5)
Fe1 0.00592(11) 0.00592(11) 0.00834(16) 0.000 0.000 0.00296(5)
O1 0.0167(3) 0.0138(3) 0.0221(4) -0.0053(2) 0.0049(2) 0.0070(2)
O2 0.0127(2) 0.0127(2) 0.0166(3) -0.00261(19) 0.00167(19) 0.0071(2)
C1 0.0129(3) 0.0134(3) 0.0164(4) -0.0036(2) -0.0008(2) 0.0078(3)
N1 0.0265(19) 0.0110(17) 0.323(15) 0.000 -0.066(5) 0.0055(9)
C2 0.0222(8) 0.0222(8) 0.423(12) 0.000 0.000 0.0111(4)
loop_
_atom_type_symbol
_atom_type_description
_atom_type_scat_dispersion_real
_atom_type_scat_dispersion_imag
_atom_type_scat_source
C C 0.0030 0.0010 'International Tables Vol C Tables 4.2.6.8 and 6.1.1.4'
H H 0.0000 0.0000 'International Tables Vol C Tables 4.2.6.8 and 6.1.1.4'
N N 0.0050 0.0030 'International Tables Vol C Tables 4.2.6.8 and 6.1.1.4'
O O 0.0090 0.0050 'International Tables Vol C Tables 4.2.6.8 and 6.1.1.4'
Fe Fe 0.3380 0.7600 'International Tables Vol C Tables 4.2.6.8 and 6.1.1.4'
Co Co 0.3460 0.8760 'International Tables Vol C Tables 4.2.6.8 and 6.1.1.4'
loop_
_geom_angle_atom_site_label_1
_geom_angle_atom_site_label_2
_geom_angle_atom_site_label_3
_geom_angle
_geom_angle_site_symmetry_1
_geom_angle_site_symmetry_3
O1 Co1 O1 89.55(4) . 4_665
O1 Co1 O1 83.72(4) . 6
O1 Co1 O1 93.43(3) 4_665 6
O1 Co1 O1 93.43(3) . 3_665
O1 Co1 O1 83.72(4) 4_665 3_665
O1 Co1 O1 176.00(3) 6 3_665
O1 Co1 O1 93.43(3) . 2_655
O1 Co1 O1 176.00(3) 4_665 2_655
O1 Co1 O1 89.55(4) 6 2_655
O1 Co1 O1 93.43(3) 3_665 2_655
O1 Co1 O1 176.00(3) . 5_655
O1 Co1 O1 93.43(3) 4_665 5_655
O1 Co1 O1 93.43(3) 6 5_655
O1 Co1 O1 89.55(4) 3_665 5_655
O1 Co1 O1 83.72(4) 2_655 5_655
O2 Fe1 O2 180.00(5) 9_545 3_765
O2 Fe1 O2 91.39(3) 9_545 8_665
O2 Fe1 O2 88.61(3) 3_765 8_665
O2 Fe1 O2 88.61(3) 9_545 2_645
O2 Fe1 O2 91.39(3) 3_765 2_645
O2 Fe1 O2 180.00(5) 8_665 2_645
O2 Fe1 O2 88.61(3) 9_545 .
O2 Fe1 O2 91.39(3) 3_765 .
O2 Fe1 O2 88.61(3) 8_665 .
O2 Fe1 O2 91.39(3) 2_645 .
O2 Fe1 O2 91.39(3) 9_545 7_755
O2 Fe1 O2 88.61(3) 3_765 7_755
O2 Fe1 O2 91.39(3) 8_665 7_755
O2 Fe1 O2 88.61(3) 2_645 7_755
O2 Fe1 O2 180.0 . 7_755
C1 O1 Co1 124.92(6) . .
C1 O2 Fe1 124.95(6) . .
O1 C1 O2 124.04(8) . .
N1 N1 N1 60.0 2_755 3_775
N1 N1 C2 63.2(2) 2_755 4_775
N1 N1 C2 63.2(2) 3_775 4_775
N1 N1 C2 63.2(2) 2_755 .
N1 N1 C2 63.2(2) 3_775 .
C2 N1 C2 117.2(6) 4_775 .
N1 C2 N1 53.6(5) 3_775 .
N1 C2 N1 53.6(5) 3_775 2_755
N1 C2 N1 53.6(5) . 2_755
loop_
_geom_bond_atom_site_label_1
_geom_bond_atom_site_label_2
_geom_bond_distance
_geom_bond_site_symmetry_2
Co1 O1 2.0700(7) .
Co1 O1 2.0700(7) 4_665
Co1 O1 2.0700(7) 6
Co1 O1 2.0700(7) 3_665
Co1 O1 2.0700(7) 2_655
Co1 O1 2.0700(7) 5_655
Fe1 O2 2.0151(6) 9_545
Fe1 O2 2.0151(6) 3_765
Fe1 O2 2.0151(6) 8_665
Fe1 O2 2.0151(6) 2_645
Fe1 O2 2.0151(6) .
Fe1 O2 2.0152(6) 7_755
O1 C1 1.2429(10) .
O2 C1 1.2616(9) .
N1 N1 1.373(9) 2_755
N1 N1 1.373(9) 3_775
N1 C2 1.522(11) 4_775
N1 C2 1.522(11) .
C2 N1 1.522(11) 3_775
C2 N1 1.522(11) 2_755
