#------------------------------------------------------------------------------
#$Date: 2017-02-04 00:26:08 +0200 (Sat, 04 Feb 2017) $
#$Revision: 191251 $
#$URL: file:///home/coder/svn-repositories/cod/cif/4/34/51/4345103.cif $
#------------------------------------------------------------------------------
#
# This file is available in the Crystallography Open Database (COD),
# http://www.crystallography.net/
#
# All data on this site have been placed in the public domain by the
# contributors.
#
data_4345103
loop_
_publ_author_name
'Mazzuca, Lidia'
'Ca\~nadillas-Delgado, Laura'
'Rodr\'iguez-Velamaz\'an, J Alberto'
'Fabelo, Oscar'
'Scarrozza, Marco'
'Stroppa, Alessandro'
'Picozzi, Silvia'
'Zhao, Jiong-Peng'
'Bu, Xian-He'
'Rodr\'iguez-Carvajal, Juan'
_publ_section_title
;
 Magnetic Structures of Heterometallic M(II)-M(III) Formate Compounds.
;
_journal_issue                   1
_journal_name_full               'Inorganic chemistry'
_journal_page_first              197
_journal_page_last               207
_journal_paper_doi               10.1021/acs.inorgchem.6b01866
_journal_volume                  56
_journal_year                    2017
_chemical_formula_sum            'C8 H14 Co Fe N O12'
_chemical_formula_weight         430.97
_chemical_name_systematic
;
 ?
;
_space_group_crystal_system      trigonal
_space_group_IT_number           163
_space_group_name_Hall           '-P 3 2c'
_space_group_name_H-M_alt        'P -3 1 c'
_symmetry_space_group_name_Hall  '-P 3 2c'
_symmetry_space_group_name_H-M   'P -3 1 c'
_atom_sites_solution_hydrogens   geom
_audit_creation_method           SHELXL-2014
_cell_angle_alpha                90
_cell_angle_beta                 90
_cell_angle_gamma                120
_cell_formula_units_Z            2
_cell_length_a                   8.21630(10)
_cell_length_b                   8.21630(10)
_cell_length_c                   13.6768(2)
_cell_measurement_reflns_used    6662
_cell_measurement_temperature    45(2)
_cell_measurement_theta_max      32.471
_cell_measurement_theta_min      5.399
_cell_volume                     799.591(18)
_computing_cell_refinement       'CrysAlis PRO software program'
_computing_data_collection       'CrysAlis PRO software program'
_computing_data_reduction        'CrysAlis PRO software program'
_computing_molecular_graphics    'Mercury (McRae, 2006)'
_computing_publication_material  'WINGX (Farrugia, 1999)'
_computing_structure_refinement  'SHELXL-2014 (Sheldrick, 2014)'
_computing_structure_solution    'SHELXL-2014 (Sheldrick, 2014)'
_diffrn_ambient_temperature      45(2)
_diffrn_measured_fraction_theta_full 0.807
_diffrn_measured_fraction_theta_max 0.855
_diffrn_measurement_device_type  'CRISTAL beamline, SOLEIL synchrotron'
_diffrn_radiation_type           synchrotron
_diffrn_radiation_wavelength     0.66951
_diffrn_reflns_av_R_equivalents  0.0341
_diffrn_reflns_av_unetI/netI     0.0148
_diffrn_reflns_Laue_measured_fraction_full 0.807
_diffrn_reflns_Laue_measured_fraction_max 0.855
_diffrn_reflns_limit_h_max       12
_diffrn_reflns_limit_h_min       -12
_diffrn_reflns_limit_k_max       13
_diffrn_reflns_limit_k_min       -13
_diffrn_reflns_limit_l_max       18
_diffrn_reflns_limit_l_min       -19
_diffrn_reflns_number            9221
_diffrn_reflns_point_group_measured_fraction_full 0.807
_diffrn_reflns_point_group_measured_fraction_max 0.855
_diffrn_reflns_theta_full        23.685
_diffrn_reflns_theta_max         32.471
_diffrn_reflns_theta_min         5.399
_diffrn_source                   synchrotron
_exptl_absorpt_coefficient_mu    1.617
_exptl_absorpt_correction_T_max  1.00000
_exptl_absorpt_correction_T_min  0.88725
_exptl_absorpt_correction_type   multi-scan
_exptl_absorpt_process_details
;
 
'CrysAlisPro, Agilent Technologies,
Version 1.171.37.33 (release 27-03-2014 CrysAlis171 .NET)
(compiled Mar 27 2014,17:12:48)
Empirical absorption correction using spherical harmonics,
 implemented in SCALE3 ABSPACK scaling algorithm.'
;
_exptl_crystal_colour            red
_exptl_crystal_density_diffrn    1.790
_exptl_crystal_description       prism
_exptl_crystal_F_000             436
_exptl_crystal_size_max          0.09
_exptl_crystal_size_mid          0.07
_exptl_crystal_size_min          0.06
_refine_diff_density_max         0.353
_refine_diff_density_min         -0.397
_refine_diff_density_rms         0.053
_refine_ls_extinction_method     none
_refine_ls_goodness_of_fit_ref   1.097
_refine_ls_hydrogen_treatment    refU
_refine_ls_matrix_type           full
_refine_ls_number_parameters     41
_refine_ls_number_reflns         997
_refine_ls_number_restraints     0
_refine_ls_restrained_S_all      1.097
_refine_ls_R_factor_all          0.0249
_refine_ls_R_factor_gt           0.0245
_refine_ls_shift/su_max          0.000
_refine_ls_shift/su_mean         0.000
_refine_ls_structure_factor_coef Fsqd
_refine_ls_weighting_details
'w=1/[\s^2^(Fo^2^)+(0.0353P)^2^+0.3004P] where P=(Fo^2^+2Fc^2^)/3'
_refine_ls_weighting_scheme      calc
_refine_ls_wR_factor_gt          0.0641
_refine_ls_wR_factor_ref         0.0644
_reflns_Friedel_coverage         0.000
_reflns_number_gt                979
_reflns_number_total             997
_reflns_threshold_expression     'I > 2\s(I)'
_cod_data_source_file            FeCo_45K.cif
_cod_data_source_block           shelx
_cod_original_cell_volume        799.59(2)
_cod_database_code               4345103
_shelx_space_group_comment
;
The symmetry employed for this shelxl refinement is uniquely defined
by the following loop, which should always be used as a source of
symmetry information in preference to the above space-group names.
They are only intended as comments.
;
_shelxl_version_number           2014-3
_shelx_res_file
;
TITL FeCo_warm1 in P-31c
CELL  0.66951   8.2163   8.2163  13.6768   90.000   90.000  120.000
ZERR     2.00   0.0001   0.0001   0.0002    0.000    0.000    0.000
LATT   1
SYMM  - Y,   X - Y,   Z
SYMM  - X + Y, - X,   Z
SYMM  - Y, - X, 1/2 - Z
SYMM  - X + Y,   Y, 1/2 - Z
SYMM    X,   X - Y, 1/2 - Z
SFAC  C        2.31000 20.84392  1.02000 10.20751   1.58860   0.56870 =
         0.86500  51.65125   0.21560   0.003   0.001     5.315   0.770  12.011
SFAC  H        0.49300 10.51091  0.32291 26.12573   0.14019   3.14236 =
         0.04081  57.79977   0.00304   0.000   0.000     0.000   0.320   1.008
SFAC  N       12.21261  0.00570  3.13220  9.89331   2.01250  28.99754 =
         1.16630   0.58260 -11.52901   0.005   0.003    10.897   0.700  14.007
SFAC  O        3.04850 13.27711  2.28680  5.70111   1.54630   0.32390 =
         0.86700  32.90894   0.25080   0.009   0.005    20.072   0.660  15.999
SFAC  FE      11.76951  4.76111  7.35731  0.30720   3.52220  15.35351 =
         2.30450  76.88058   1.03690   0.338   0.760  2867.351   1.260  55.845
SFAC  CO      12.28411  4.27910  7.34091  0.27840   4.00340  13.53591 =
         2.34880  71.16927   1.01180   0.346   0.876  3304.255   1.260  58.933
UNIT  16   28   2    24   2    2
MERG   2
FMAP   2
PLAN   20
ACTA
L.S.   8
WGHT    0.035300    0.300400
FVAR      18.09030
CO1   6    0.666667    0.333333    0.250000    10.16667    0.00625    0.00625 =
         0.00814    0.00000    0.00000    0.00312
FE1   5    1.000000    0.000000    0.000000    10.16667    0.00479    0.00479 =
         0.00685    0.00000    0.00000    0.00239
O1    4    0.883373    0.343575    0.168053    11.00000    0.01539    0.01225 =
         0.01935   -0.00491    0.00471    0.00638
O2    4    1.013227    0.208870    0.082943    11.00000    0.01106    0.01114 =
         0.01371   -0.00231    0.00145    0.00622
C1    1    0.873248    0.210177    0.120148    11.00000    0.01129    0.01188 =
         0.01419   -0.00353   -0.00098    0.00703
AFIX  43
H1    2    0.755257    0.104845    0.111169    11.00000    0.03029
AFIX   0
C2    1    1.333333    0.666667    0.155826    10.33333    0.02070    0.02070 =
         0.35911    0.00000    0.00000    0.01035
N1    3    1.277629    0.555258    0.250000    10.16700    0.02092    0.01016 =
         0.27140    0.00000   -0.05029    0.00508
HKLF    4

REM  FeCo_warm1 in P-31c
REM R1 =  0.0245 for     979 Fo > 4sig(Fo)  and  0.0249 for all     997 data
REM     41 parameters refined using      0 restraints

END

WGHT      0.0353      0.3010

REM Highest difference peak  0.353,  deepest hole -0.397,  1-sigma level  0.053
Q1    1   1.3371  0.5684  0.1805  11.00000  0.05    0.35
Q2    1   0.8688  0.2894  0.1313  11.00000  0.05    0.32
Q3    1   1.3333  0.6667  0.2500  10.16667  0.05    0.29
Q4    1   0.9271  0.2072  0.0818  11.00000  0.05    0.28
Q5    1   0.6667  0.3333  0.3309  10.33333  0.05    0.25
Q6    1   1.4567  0.7411  0.1577  11.00000  0.05    0.23
Q7    1   1.3549  0.6241  0.2860  11.00000  0.05    0.22
Q8    1   0.9977  0.1047  0.0559  11.00000  0.05    0.21
Q9    1   1.2654  0.7170  0.1193  11.00000  0.05    0.20
Q10   1   0.6667  0.3333  0.0443  10.33333  0.05    0.19
Q11   1   0.6667  0.3333  0.1087  10.33333  0.05    0.18
Q12   1   0.6005  0.2010  0.2500  10.50000  0.05    0.17
Q13   1   1.0000  0.0000 -0.0876  10.33333  0.05    0.17
Q14   1   0.7497  0.1510  0.0779  11.00000  0.05    0.16
Q15   1   1.3333  0.6667  0.0868  10.33333  0.05    0.16
Q16   1   0.7840  0.3255  0.1966  11.00000  0.05    0.15
Q17   1   1.0320  0.2253 -0.0037  11.00000  0.05    0.15
Q18   1   0.9967  0.1520  0.0297  11.00000  0.05    0.15
Q19   1   0.8266  0.2746  0.2205  11.00000  0.05    0.15
Q20   1   0.6981  0.4086  0.2988  11.00000  0.05    0.15
;
_shelx_res_checksum              17141
_shelx_hkl_file
;
   0   0  -3 8.39967 77.7702   1
   0   0   3 9.11911 75.8616   1
   0   0   5 77.3567 90.3907   1
   0   0  -5 259.915 93.7048   1
   0   0   6 52832.5 1351.94   1
   0   0  -6 55525.2 1399.25   1
   0   0   7 66.0845 101.889   1
   0   0  -7 111.454 89.5059   1
   0   0  -9 27.6713 143.995   1
   0   0   9 225.717 144.385   1
   0   0 -10 25808.0 1179.51   1
   0   0  10 29295.8 1212.52   1
   0   0 -11 137.611 142.725   1
   0   0  11 168.703 151.189   1
   0   0 -13 232.836 250.524   1
   0   0  13 221.745 163.942   1
   0   1   4 6471.99 442.055   1
  -1   1  -4 5210.64 360.298   1
  -1   1   4 5743.48 376.285   1
  -1   0   4 5926.11 285.439   1
   0   1  -4 5775.68 234.982   1
   0  -1  -4 5827.28 427.613   1
   1   0  -4 6239.65 287.343   1
  -1   0  -4 5679.64 395.435   1
   1  -1  -4 5158.08 378.258   1
   1   0   4 6469.89 443.295   1
   1  -1   4 6214.14 377.188   1
   0  -1  -4 7390.99 439.588   2
   0  -1   4 5733.09 358.215   2
   0  -1   4 5459.26 219.963   1
   1  -1  -4 5919.68 304.884   2
   1  -1  -5 13537.6 568.552   2
   1   0  -5 18337.1 563.740   1
  -1   1   5 15331.8 681.826   1
  -1   0   5 17928.4 550.846   1
  -1   1  -5 17519.6 690.173   1
   1   0   5 18202.4 782.713   1
  -1   0  -5 17216.0 785.117   1
   1  -1  -5 16417.8 705.879   1
   0   1  -5 17551.6 507.801   1
   1  -1   5 16574.3 668.405   1
   0   1   5 16762.0 774.204   1
   0  -1  -5 15810.0 754.622   1
   0  -1   5 18833.5 507.171   1
   0  -1  -5 13756.1 692.803   2
   0  -1  -6 30429.5 1112.60   2
  -1   1  -6 34409.5 1075.83   1
  -1   0   6 35697.9 891.002   1
   1   0   6 30472.5 1120.93   1
   1  -1  -6 30735.8 935.859   2
   0   1  -6 32328.2 821.578   1
   0   1   6 30087.1 1131.75   1
   1   0  -6 34388.9 899.468   1
   0  -1   6 32687.8 809.654   1
   1  -1  -6 30980.2 1088.19   1
  -1   1   6 28718.2 1044.31   1
   0  -1  -6 31115.8 1161.96   1
  -1   0  -6 33716.3 1194.36   1
   1  -1   6 30170.2 1003.75   1
   1  -1   7 133570. 2527.65   1
   1   0   7 121586. 2659.46   1
   0   1   7 126579. 2737.18   1
   1   0  -7 121044. 2223.54   1
  -1   1   7 120717. 2519.74   1
   1  -1  -7 126726. 2606.49   1
   0  -1  -7 134362. 2839.95   1
  -1   0  -7 132153. 2777.33   1
  -1   1  -7 131786. 2561.56   1
   1  -1  -7 123814. 2343.12   2
   0  -1  -7 120604. 2663.37   2
   0   1   8 58866.9 1816.22   1
   0   1  -8 57842.3 1391.53   1
   1  -1   8 63407.6 1674.65   1
   0  -1   8 62415.8 1392.30   1
   1  -1  -8 58094.3 1532.90   2
   1   0  -8 55579.3 1430.18   1
   1  -1  -8 61585.5 1761.18   1
   0  -1  -8 49934.9 1746.63   1
  -1   1  -8 56455.8 1645.63   1
  -1   1   8 53679.9 1629.56   1
  -1   0  -8 58292.6 1819.89   1
   1   0   8 57179.2 1785.63   1
  -1   0   8 56112.3 1397.63   1
   0  -1  -8 51824.5 1709.74   2
   0  -1  -9 260853. 4952.89   1
   1  -1  -9 303024. 4938.47   1
   0  -1 -11 232297. 4667.92   1
   0  -1 -11 209774. 4438.86   2
   0   1 -11 234114. 4007.16   1
   1  -1 -11 239680. 4524.98   1
   1  -1  11 253053. 4454.21   1
  -1   1 -11 239195. 4443.69   1
   1   0  11 233469. 4591.91   1
   1  -1 -11 201109. 4150.98   2
  -1   0 -11 234833. 4724.86   1
  -1   1  11 239459. 4435.80   1
   1   0 -11 221504. 4020.91   1
   0  -1 -12 80076.8 2580.55   2
   0   1  12 82322.0 2589.14   1
   1   0  12 81659.4 2592.76   1
   1  -1  12 91503.0 2494.23   1
  -1   1 -12 91022.2 2556.37   1
  -1   1  12 94322.2 2595.78   1
   1  -1 -12 94970.4 2692.38   1
   1  -1 -12 79980.5 2325.00   2
  -1   0 -12 83463.1 2655.28   1
   0  -1 -12 95269.7 2801.52   1
   1  -1 -13 214993. 4548.49   1
   0  -1 -13 211763. 4702.42   1
   0   1  13 215265. 4665.83   1
  -1   0 -13 209361. 4669.44   1
   1   0  13 208452. 4590.31   1
   0  -1 -13 203185. 4559.19   2
  -1   1 -13 205712. 4399.71   1
  -1   1  13 206126. 4400.29   1
   0  -1 -14 504316. 8290.61   1
  -1   0 -14 493811. 8255.58   1
  -1  -1 -15 214.455 231.325   1
  -1  -1 -15 32.6357 179.304   2
   1   1  15 75.8427 190.402   1
  -1  -1 -14 16287.7 1310.45   1
  -1  -1 -14 20469.2 1397.12   2
   1   1  14 20207.3 1364.36   1
   1   1  13-73.8673 178.767   1
  -1  -1 -13 90.8488 184.857   1
  -1  -1 -12 632470. 10134.0   1
  -1  -1 -11-150.758 239.681   1
  -1  -1 -11-132.552 175.615   2
   1   1  11 274.160 216.318   1
   2  -1 -11-138.525 164.898   1
  -2   1  11-22.7852 103.169   1
  -1   2 -11 8.73307 99.7194   1
   1  -2  11 0.58823 117.742   1
  -1  -1 -10 85080.1 2615.51   2
  -1   2 -10 90532.0 2117.92   1
  -2   1  10 91797.9 2233.86   1
   1  -2  10 88950.7 2076.59   1
   1   1  10 85743.0 2571.65   1
  -1  -1 -10 88101.1 2659.55   1
   2  -1 -10 85990.0 2262.22   1
   2  -1  -9-72.7685 136.196   1
  -1  -1  -9 277.497 191.743   2
  -2   1   9 70.7630 123.149   1
   1  -2   9 95.5677 80.3935   1
  -1  -1  -9 82.0211 210.612   1
   1   1   9-204.179 188.538   1
   2  -1  -9 180.428 90.2016   2
  -1   2  -9 251.209 109.483   1
  -1  -1  -7-3.68871 184.104   1
   1   1   7 377.490 243.547   1
   2  -1  -7 72.8332 48.6127   2
  -2   1   7 138.259 120.295   1
   2  -1  -7 250.664 127.359   1
  -1   2  -7 1.04304 96.8602   1
   1  -2   6 10988.1 535.359   1
  -1  -1  -6 10261.6 721.293   1
   1   1   6 10880.8 743.935   1
   2  -1  -6 8743.43 305.674   2
  -2   1   6 12114.4 618.693   1
   2  -1  -6 10540.1 574.378   1
  -1   2  -6 12428.6 570.744   1
  -1   2  -5 142.214 107.546   1
  -2   1   5 124.401 119.073   1
  -1  -1  -5 106.615 144.093   1
   1  -2   5-26.2381 94.3099   1
   1   1   5 88.6916 109.547   1
   1  -2   5 93.4362 110.426   2
   2  -1  -5 406.434 134.492   1
  -1  -1  -5-20.8992 160.413   2
  -2   1   3 300.194 128.721   1
   1   1   3 100.748 98.0976   1
   1  -2   3 404.722 164.494   2
  -1  -1  -3 65.8981 106.126   1
   2  -1  -3 229.551 60.0631   2
   1  -2   3 216.607 80.1167   1
  -1  -1  -3 111.005 135.965   2
   1  -2   1 325.780 133.519   1
   1   1   1 278.301 108.085   1
  -2   1   1 301.091 121.468   1
   2  -1  -1 157.439 102.611   1
  -1   2  -1 337.429 128.809   1
  -1  -1  -1 282.510 107.138   1
  -1  -1  -1 233.982 123.598   2
   1  -2   1 81.2926 126.296   2
   1   1  -1-49.6374 91.1825   1
  -1  -1   1 35.1417 102.521   2
  -2   1  -1 43.7389 119.743   1
   1  -2  -1 173.794 117.856   2
  -1  -1   1-77.3980 78.9315   1
   2  -1   1 199.838 132.231   1
   1  -2  -1 115.393 115.827   1
  -2   1  -3-4.97517 136.398   1
  -1  -1   3 40.1511 70.3861   2
   2  -1   3 274.212 125.600   1
   1  -2  -3-106.848 141.448   2
   1  -2  -3-0.90936 161.254   1
  -1   2   3 145.057 174.011   1
  -2   1  -5 185.932 120.318   1
  -1  -1   5 113.019 85.3070   2
   2  -1   5 270.567 135.845   1
  -1   2   5 410.306 174.006   1
   1  -2  -5 357.168 156.955   1
   1  -2  -5 382.719 183.110   2
  -2   1  -6 13821.8 793.438   1
   2  -1   6 13813.1 773.583   1
   1  -2  -6 16043.8 857.423   1
  -1   2   6 13038.6 787.502   1
   1  -2  -6 13540.7 728.314   2
   1  -2  -7-33.2016 120.265   1
  -2   1  -7-50.6198 184.441   1
   2  -1   7 179.891 153.944   1
  -1   2   7 138.454 138.303   1
   1  -2  -7 164.409 127.690   2
  -2   1  -9 271.064 180.884   1
   1   1  -9 68.8638 48.1198   1
   1  -2  -9 364.581 185.908   2
  -1  -1   9 61.4535 27.7006   1
  -1   2   9 443.608 208.591   1
   2  -1   9 23.5926 168.753   1
   1  -2 -10 194746. 4170.73   1
   1  -2 -10 182873. 3832.76   2
   2  -1  10 205498. 4115.64   1
  -2   1 -10 197953. 4145.44   1
  -1   2  10 181578. 3996.19   1
   1  -2 -11 212.352 146.945   1
   2  -1  11 159.003 170.587   1
   1  -2 -11 141.140 200.579   2
  -1   2  11 211.925 148.843   1
  -2   1 -11 157.843 133.329   1
  -1   2  13 236.819 237.066   1
   1  -2 -13 3.03121 134.315   2
   2  -1  13 100.018 199.794   1
   1  -2 -13 212.131 217.544   1
  -2   1 -13 148.704 203.421   1
   1  -2 -14 40600.2 1984.51   1
  -2   1 -14 45940.3 2074.43   1
  -1   2  14 42956.5 1969.42   1
  -2   2   0 152160. 2685.24   1
   0  -2  -1 107731. 2131.27   1
  -2   2  -1 115429. 2183.33   1
   0   2  -1 117905. 2010.36   1
  -2   0  -1 102926. 2123.41   1
   2  -2  -7 114306. 2249.05   2
  -2   0  -7 118277. 2887.79   1
   0  -2  -7 115545. 2785.04   2
   0  -2  -7 124229. 2954.97   1
  -2   0   7 121297. 2051.30   1
  -2   2   7 125460. 2727.58   1
  -2   2  -7 123199. 2648.82   1
   2  -2   7 124592. 2606.26   1
   0   2   7 118787. 2897.64   1
   2   0   7 124511. 2890.09   1
   0   2   8 4048.89 509.165   1
   0   2  -8 3425.09 218.622   1
  -2   0   8 3679.09 299.896   1
   2  -2  -8 4106.53 474.802   1
   2  -2  -8 4031.62 386.916   2
   2  -2   8 3419.97 402.192   1
   0  -2  -8 4849.19 523.658   2
   0  -2  -8 3402.04 474.349   1
   2   0  -8 3749.06 314.966   1
   0  -2   8 3519.75 202.222   1
   2   0   8 4094.67 497.044   1
  -2   2   8 4119.04 458.432   1
  -2   2  -8 3623.94 419.044   1
  -2   0  -8 3879.83 514.701   1
  -2   0  -9 65962.5 2159.15   1
   2   0   9 70427.1 2151.15   1
   2  -2   9 67947.2 1907.05   1
   0  -2  -9 69008.2 2208.91   1
   0   2   9 67062.2 2145.10   1
   0  -2  -9 69247.0 2130.35   2
   0  -2   9 62130.7 1066.67   1
   2  -2  -9 65363.0 2011.11   1
   0   2  -9 60000.5 1112.98   1
  -2   2   9 74103.9 2075.27   1
  -2   2  -9 65139.8 1909.08   1
  -2   0   9 64147.7 1390.00   1
   2  -2  -9 66803.8 1670.19   2
   2   0  -9 72187.1 1502.00   1
  -2   2  10 293462. 5426.38   1
   0  -2 -10 346058. 6088.40   1
  -2   0 -11 356374. 6672.62   1
   2   0  11 365893. 6599.77   1
   2  -2 -11 358810. 6384.90   1
  -2   0 -12 102862. 3146.49   1
   2  -2 -12 99188.2 2904.72   1
   2   0  12 105695. 3093.01   1
  -2   2  12 107670. 2933.50   1
   2  -2  12 99531.8 2734.71   1
  -2   2 -12 101112. 2840.42   1
   0  -2 -12 99138.9 3094.60   1
   0   2  12 100662. 3051.75   1
   0  -2 -12 99349.0 2992.95   2
  -2   2  13 166082. 3879.05   1
   0  -2 -13 141304. 3847.02   2
  -2   0 -13 145236. 3981.34   1
   2   0  13 148897. 3936.37   1
   0  -2 -13 144746. 4021.23   1
   2  -2 -13 168006. 3993.90   1
   0   2  13 145949. 3918.46   1
   0  -2 -14 271851. 5782.98   2
   2   0  14 264238. 5750.51   1
  -2   0 -14 254589. 5780.00   1
   0  -2 -14 270139. 5927.50   1
   0   2  14 282489. 5911.50   1
   0  -2 -15 3864.90 684.441   1
   0   2  15 4128.51 668.746   1
  -2   0 -15 3249.63 595.537   1
   2   0  15 4561.83 672.862   1
  -2   0 -16 3620.28 696.545   2
  -2  -1 -17 195579. 5445.57   2
  -1  -2 -16 968.935 368.106   1
   1   2  16 1358.31 438.853   1
  -2  -1 -16 1598.72 507.350   1
  -1  -2 -16 1585.07 527.546   2
  -2  -1 -16 892.231 356.234   2
   2   1  16 1182.52 395.344   1
  -2  -1 -15 237572. 5879.35   1
  -1  -2 -15 250555. 5961.44   1
  -2  -1 -15 241478. 5803.52   2
   2   1  15 246159. 5818.24   1
  -1  -2 -15 244587. 5834.32   2
   1   2  15 245779. 5803.51   1
  -2  -1 -14 100212. 3478.75   2
  -2  -1 -14 93261.6 3328.47   1
   2   1  14 95538.4 3301.53   1
  -1  -2 -14 92673.9 3230.88   2
   1   2  14 99251.9 3321.67   1
  -1  -2 -14 98871.5 3372.60   1
   2   1  13 27553.2 1629.65   1
  -1  -2 -13 25270.5 1638.78   1
  -2  -1 -13 23582.0 1543.38   2
   1   2  13 26456.0 1600.50   1
  -1  -2 -13 26474.8 1639.49   2
  -2  -1 -13 27040.4 1642.44   1
   2   1  12 1704.38 439.837   1
  -2  -1 -12 1649.16 425.920   1
  -2  -1 -12 1463.01 360.394   2
  -1  -2 -12 1931.92 459.146   2
  -3   2  12 1426.70 311.642   1
   1   2  12 2360.71 478.082   1
  -1  -2 -12 1422.76 406.122   1
   3  -2 -12 1712.23 396.364   1
   3  -1 -11 2866.58 376.112   1
  -2  -1 -11 2860.97 528.431   1
  -2  -1 -11 2654.87 470.540   2
   3  -2 -11 2402.72 426.341   1
  -2   3 -11 2243.12 377.394   1
  -3   2  11 2356.44 386.290   1
  -1  -2 -11 2947.79 501.382   2
   2   1  11 2304.26 442.355   1
   2  -3  11 2479.94 365.199   1
   1   2  11 2854.35 530.351   1
  -1  -2 -11 3182.91 582.647   1
  -2   3  -9 79937.7 2110.98   1
  -1   3  -9 80664.9 1772.07   1
  -2  -1  -9 73598.6 2532.04   1
   1  -3   9 74688.0 1693.03   1
   2   1   9 83287.5 2600.83   1
   3  -2  -9 75102.2 2217.91   1
  -3   2   9 78754.1 2198.86   1
   3  -2  -9 68167.5 1417.75   2
   1   2   9 71722.7 2453.82   1
  -3   1   9 88253.9 2040.45   1
  -1  -2  -9 75914.0 2559.21   1
   2  -3   9 78215.2 2065.78   1
   3  -1  -9 87685.5 2100.20   1
  -1  -2  -9 78382.7 2513.64   2
  -2   3  -7 299034. 4835.21   1
  -2  -1  -2 138452. 2711.68   2
   2  -3   2 130637. 2670.94   2
  -1  -2  -2 124517. 2659.07   2
   2   1   2 116396. 2560.23   1
   1  -3   2 123126. 2352.34   1
   3  -2  -2 108954. 2456.17   1
   1  -3   2 125929. 2609.04   2
  -2  -1  -2 132886. 2680.05   1
   1   2   2 122057. 2620.79   1
   2  -3   2 122770. 2461.35   1
  -1  -2  -2 123442. 2613.23   1
  -3   1   0 945.355 222.370   1
  -1  -2   0 548.263 147.397   2
   3  -1   0 1316.02 218.383   1
  -2   3   0 785.418 179.876   1
   2  -3   0 849.784 219.732   2
   2  -3   0 747.811 183.523   1
  -1   3   0 707.925 207.856   1
  -2  -1   0 656.848 163.512   1
   1  -3   0 635.766 196.732   1
  -1  -2   0 758.072 158.597   1
  -2  -1   0 1105.29 224.894   2
  -3   2   0 767.455 193.503   1
   3  -2   0 793.878 185.701   1
   2   1   0 547.155 150.432   1
   1  -3   0 522.577 143.491   2
   1   2   0 675.969 166.003   1
  -3   1  -1 177632. 3233.27   1
   1  -3  -1 173316. 3215.45   1
  -1  -2   1 175883. 3080.23   2
   2  -3  -3 43469.9 1337.77   2
  -1  -2   3 45592.2 1299.78   2
  -2  -1   3 51136.0 1138.56   1
   1  -3  -3 46180.5 1512.91   1
  -2  -1   3 47571.2 1154.78   2
  -3   1  -3 43242.6 1480.75   1
  -1   3   3 46837.3 1529.62   1
   3  -2   3 44719.3 1440.05   1
   1  -3  -3 41977.2 1402.83   2
  -1  -2   3 48175.2 1040.56   1
  -3   2  -3 44211.2 1453.30   1
   2  -3  -3 42032.5 1462.97   1
   2   1  -3 49290.2 1128.76   1
   3  -1   3 44520.5 1470.87   1
   1   2  -3 45139.1 1030.76   1
  -2   3   3 45109.6 1496.57   1
   1  -3  -8 47433.4 1789.47   2
   2  -3  -8 44968.5 1578.72   2
  -3   2  -8 48625.1 1818.08   1
   2  -3  -8 47943.8 1869.38   1
  -3   1  -8 54229.1 1961.46   1
  -1  -2   8 54358.6 1625.16   2
   3  -2   8 54368.4 1856.76   1
  -2   3   8 46137.5 1753.14   1
   3  -1   8 57370.7 1974.17   1
   1  -3  -8 51068.4 1932.05   1
  -1   3   8 52845.7 1952.71   1
   1  -3 -10 218820. 4615.24   2
   2  -3 -10 203596. 4625.86   1
  -1   3  10 210981. 4673.13   1
  -3   1 -10 236990. 4907.65   1
  -3   2 -10 229586. 4714.07   1
   1  -3 -10 218174. 4866.81   1
   2  -3 -10 233657. 4377.17   2
   3  -1  10 232494. 4764.93   1
  -2   3  10 242563. 4802.64   1
   3  -2  10 226919. 4639.08   1
   2  -3 -11 78112.7 2633.42   1
  -3   1 -11 72724.5 2581.39   1
  -2   3  11 76778.7 2497.89   1
   1  -3 -11 70229.0 2425.90   2
   3  -1  11 67904.7 2454.60   1
   2  -3 -11 70070.1 2205.57   2
   3  -2  11 70912.7 2402.93   1
  -1   3  11 73299.8 2561.06   1
  -3   2 -11 74569.3 2479.42   1
   2  -3 -12 724.222 255.141   2
   3  -2  12 754.890 288.408   1
   2  -3 -12 948.110 341.021   1
   1  -3 -12 640.302 259.757   1
  -1   3  12 1134.09 341.059   1
  -3   2 -12 749.289 270.054   1
   3  -1  12 703.918 300.584   1
  -2   3  12 643.007 259.800   1
   1  -3 -12 906.653 350.123   2
  -3   1 -12 313.331 182.613   1
  -3   2 -13 25939.5 1543.14   1
   1  -3 -13 25860.2 1546.56   2
  -1   3  13 26845.8 1564.06   1
  -3   1 -13 25457.1 1589.83   1
   3  -1  13 26166.0 1571.91   1
   2  -3 -13 27770.2 1615.72   1
   3  -2  13 26596.6 1531.22   1
  -2   3  13 28566.5 1598.40   1
   1  -3 -13 26369.3 1593.87   1
   1  -3 -14 232878. 5440.19   1
  -3   2 -14 228879. 5171.53   1
  -1   3  14 219744. 5176.26   1
   3  -1  14 221607. 5205.19   1
  -3   1 -14 226284. 5296.54   1
   1  -3 -15 44412.5 2244.26   1
  -3   1 -15 44521.2 2238.40   1
  -1   3  15 40162.6 2091.72   1
   2  -3 -15 47698.4 2318.83   1
   1  -3 -16 222927. 5741.57   1
   0  -3   1 1741.07 281.652   2
   3  -3  -1 1625.13 290.278   1
   0   3  -1 1861.15 263.829   1
   3   0  -1 2518.04 286.857   1
  -3   0  -1 2688.69 365.277   1
   3  -3   1 2108.71 334.394   1
   3  -3  -1 1985.84 293.591   2
  -3   3  -1 1513.72 276.862   1
  -3   3   1 1883.06 291.236   1
   0  -3  -1 2138.72 308.870   1
   0  -3   1 1884.87 276.601   1
   0   3   1 2773.87 354.965   1
   3   0   1 2593.83 339.400   1
  -3   0   1 2003.93 289.924   1
   0  -3  -1 2114.27 336.925   2
   3  -3   1 1515.79 267.644   2
  -3   0   2 33164.8 970.366   2
   3  -3  -2 32597.1 1261.63   1
   3  -3   2 35992.0 1329.43   2
  -3   3  -2 30759.7 1221.92   1
  -3   3   2 34673.4 1294.69   1
   0  -3   2 32571.8 1035.72   1
  -3   0  -2 32035.2 1258.55   1
   3  -3  -2 30845.2 1103.06   2
   3   0   2 33526.3 1270.50   1
   0  -3  -2 30655.1 1230.94   1
   0   3  -2 31773.9 1037.07   1
   0   3   2 29981.2 1219.99   1
   0  -3   2 32050.5 1194.99   2
   3  -3   2 31572.7 1211.24   1
   3   0  -2 28681.6 1034.65   1
  -3   0   2 30838.4 1050.66   1
   0  -3  -2 31004.5 1260.22   2
   3  -3   3 37728.7 1355.17   1
  -3   3   3 38840.8 1410.59   1
  -3   0   3 43478.2 1060.35   2
  -3   0   3 44657.1 1238.64   1
  -3   0  -3 42317.2 1515.30   1
   0  -3  -3 39570.0 1448.87   1
   0   3   3 40959.3 1483.71   1
   0   3  -3 43909.7 1172.03   1
   3   0  -3 38627.5 1180.73   1
   3  -3  -3 36147.5 1201.97   2
   0  -3  -3 39234.0 1472.13   2
   0  -3   3 41927.3 1129.14   1
   3   0   3 42696.1 1499.40   1
  -3   3  -3 38043.5 1365.34   1
   3  -3  -3 40201.1 1459.24   1
   0  -3   3 40412.7 1383.75   2
   3  -3   3 37770.9 1477.29   2
   0   3  -5 15274.8 560.526   1
   3  -3  -5 14891.9 915.667   1
   0  -3  -5 14740.7 950.049   1
  -3   3   5 14088.6 868.544   1
   3   0   5 15042.2 931.658   1
  -3   0   5 13951.5 412.476   2
   0  -3   5 15771.3 859.536   2
   0  -3  -5 16403.5 963.995   2
   0   3   5 14223.9 923.571   1
   3   0  -5 15531.9 678.297   1
  -3   0   5 16382.6 684.847   1
   0  -3   5 14331.0 533.899   1
  -3   0  -5 14967.4 969.797   1
   3  -3   5 16565.5 893.766   1
  -3   3  -5 14123.3 854.745   1
   3  -3  -5 14713.6 735.281   2
   0   3  -6 8293.41 370.145   1
  -3   0  -6 7773.05 710.910   1
   0  -3  -6 8365.47 709.195   2
  -3   3  -6 8700.82 662.264   1
   3  -3  -6 7664.96 674.302   1
  -3   3   6 8040.57 655.451   1
  -3   0   6 8368.02 480.030   1
   3  -3  -6 6606.47 498.899   2
   0  -3   6 7601.61 608.215   2
   0   3   6 9850.45 792.914   1
   0  -3   6 8462.06 351.268   1
   3   0  -6 8721.71 488.699   1
   3   0   6 10377.1 785.437   1
   3  -3   6 12165.2 781.788   1
   0  -3  -6 7243.95 675.069   1
  -3   3   7 17328.0 1008.64   1
   3   0  -7 15844.4 671.606   1
   0   3   7 14484.7 986.692   1
   0  -3   7 15232.7 899.503   2
   0  -3  -7 14699.6 983.671   2
   0  -3  -7 15478.0 1057.31   1
   3  -3  -7 15825.2 787.392   2
  -3   3  -7 15870.0 966.201   1
   3  -3   7 17225.9 937.571   1
  -3   0   7 16658.4 661.543   1
  -3   0  -7 14363.7 1020.10   1
   3  -3  -7 17072.8 1036.96   1
   3   0   7 16176.5 1047.78   1
   3  -3   9 10941.5 798.026   1
   0  -3  -9 9870.60 922.116   1
   3   0   9 10643.7 910.846   1
  -3   0   9 10614.6 533.790   1
  -3   0  -9 11040.6 917.572   1
   0  -3  -9 11754.7 935.036   2
   3   0  -9 10475.8 544.958   1
  -3   3   9 11237.0 850.315   1
   0   3   9 10711.5 907.443   1
  -3   3  -9 9958.06 804.334   1
   3  -3  -9 10378.2 651.153   2
   3  -3  -9 9588.90 841.217   1
  -3   0 -10 1807.83 413.071   1
   0  -3 -10 1374.72 360.666   1
   0  -3 -10 1445.54 403.872   2
  -3   3 -10 1771.13 369.043   1
   3  -3 -10 1350.26 353.349   1
   3  -3 -10 1354.32 255.387   2
   0   3  10 2014.29 397.374   1
   3   0  10 1718.94 365.185   1
  -3   3  10 2133.87 414.741   1
  -3   3  11 1112.77 299.169   1
   3  -3 -11 1092.09 309.608   1
   0  -3 -11 1297.12 353.319   2
  -3   0 -11 1206.31 270.381   1
   0   3  11 1196.35 300.930   1
   0  -3 -11 1280.88 409.987   1
  -3   3 -11 1325.83 355.699   1
   3  -3  11 1090.12 290.565   1
   3   0  11 897.268 247.369   1
   0  -3 -12 472258. 8720.37   1
  -3   0 -12 500929. 8885.50   1
   3  -3 -13 422.946 213.508   1
   0  -3 -13 64.3498 209.807   2
   3   0  13 334.740 313.129   1
  -3   3  13 219.743 259.287   1
   0   3  13-152.929 292.566   1
  -3   0 -13 98.0900 222.365   1
   0  -3 -13-132.587 285.014   1
   0  -3 -14 774.345 315.208   1
   0  -3 -14 884.254 338.396   2
   0   3  14 615.528 335.068   1
   3   0  14 885.689 302.462   1
  -3   0 -14 556.377 348.291   1
   3   0  15 774.786 374.456   1
   0  -3 -15 624.992 367.047   2
   0   3  15 315.346 197.446   1
  -3   0 -15 972.123 384.964   1
   0  -3 -15 129.934 220.423   1
   0  -3 -16 379486. 7875.70   1
   0   3  16 360900. 7607.86   1
   3   0  16 369254. 7646.00   1
  -3   0 -17 2199.31 619.381   2
   0  -3 -17 1243.09 481.907   1
  -2  -2 -17-131.254 217.984   1
  -2  -2 -17 94.3789 219.834   2
   2   2  17 598.705 337.504   1
  -2  -2 -16 568305. 10617.0   1
   2   2  16 605313. 10761.5   1
  -2  -2 -16 582306. 10664.3   2
  -2  -2 -15 650.118 348.945   1
   2   2  15 289.943 243.815   1
  -2  -2 -15-48.5985 337.348   2
  -2  -2 -14 171253. 4823.16   1
  -2  -2 -14 169297. 4705.03   2
   2   2  14 170341. 4725.33   1
  -2  -2 -13 62.7223 248.661   1
   2   2  13 173.036 213.060   1
  -2  -2 -13-100.635 283.203   2
  -2  -2 -12 73970.9 2877.36   1
   2   2  12 79547.2 2895.05   1
  -2  -2 -12 76408.6 2890.42   2
   2   2  11 156.338 272.953   1
   4  -2 -11 179.156 187.303   1
  -2  -2 -11-74.3836 217.915   1
  -4   2  11-115.455 136.535   1
  -2  -2 -10 290959. 6053.27   1
  -4   2  10 310519. 5389.55   1
  -2  -2 -10 287025. 5990.81   2
   2   2  10 305622. 6070.19   1
  -2  -2  -9 73.7464 212.135   2
  -4   2   9-24.3900 136.242   1
   2   2   9-106.831 259.002   1
  -2   4  -9 101.859 115.021   1
   2  -4   9 211.659 106.260   1
  -2  -2  -9-12.1256 233.541   1
   4  -2  -7 230.667 150.724   1
   2   2   7 42.5129 194.711   1
   2  -4   7-144.148 198.991   2
  -2  -2  -7-125.541 181.335   2
  -4   2   7 110.135 173.514   1
  -2  -2  -7 295.607 241.005   1
  -2   4  -7-18.4068 136.514   1
   4  -2  -6 1185.41 281.069   1
  -2   4  -6 1553.19 275.131   1
   2  -4   6 1819.26 384.770   2
   2   2   6 1512.14 357.251   1
  -2  -2  -6 1115.72 334.254   1
   2  -4   6 1621.56 262.077   1
  -4   2   6 1387.42 293.929   1
  -2  -2  -6 2035.40 388.337   2
   2  -4   5-119.258 164.108   2
   2  -4   5 440.366 165.343   1
  -2  -2  -5-113.536 268.289   2
  -4   2   5 411.675 219.468   1
  -2  -2  -5-130.076 184.215   1
   2   2   5 146.170 170.948   1
   4  -2  -5 123.730 147.149   1
  -2   4  -5 112.444 99.6378   1
  -2   4  -3 213.601 154.194   1
   2  -4   3 159.279 181.054   2
   4  -2  -3 255.617 174.708   1
  -2  -2  -3 610.390 233.266   2
   2   2   3 78.8267 173.522   1
  -2  -2  -3 56.1960 212.253   1
  -4   2   3 484.920 206.962   1
   2  -4   3-104.554 154.304   1
  -2  -2  -1 404.120 145.239   2
   2  -4   1 314.528 200.260   2
  -2  -2  -1 335.498 169.144   1
  -2   4  -1 396.216 208.079   1
   2   2   1 161.954 149.321   1
  -4   2   1 323.263 175.613   1
   4  -2  -1 1022.99 273.516   1
   2  -4   1 257.625 133.307   1
   2   2  -1-29.1664 103.957   1
  -2   4   1-87.3250 184.128   1
  -2  -2   1-19.7353 99.7173   1
   2  -4  -1-4.30240 129.731   1
   2  -4  -1 107.195 148.544   2
  -4   2  -1 12.9335 106.260   1
   4  -2   1-19.6857 132.552   1
  -2  -2   1 28.3920 138.314   2
   2  -4  -3 425.154 204.649   2
  -2  -2   3-29.6797 102.660   1
  -4   2  -3 247.554 197.956   1
   4  -2   3 133.121 199.158   1
  -2   4   3-129.253 195.175   1
   2  -4  -3 286.985 198.555   1
  -2  -2   3 27.8943 128.295   2
   2   2  -3 53.3798 112.588   1
   2  -4  -5 167.776 173.345   1
   2  -4  -5 223.470 155.339   2
  -2  -2   5 96.0485 53.1792   1
  -2  -2   5 239.694 122.722   2
  -2   4   5 28.2527 194.113   1
   4  -2   5-179.305 151.930   1
   2   2  -5 350.375 89.9381   1
  -4   2  -5 168.637 189.183   1
  -2  -2   6 1314.10 220.430   2
   2  -4  -6 878.348 258.469   1
   2  -4  -6 1664.63 332.141   2
  -2   4   6 1180.00 336.129   1
   4  -2   6 690.694 260.156   1
  -4   2  -6 1096.79 301.993   1
  -2   4   7-138.458 204.274   1
   2  -4  -7 242.688 139.888   2
  -2  -2   7 38.9375 114.525   2
   2  -4  -7-62.2732 163.055   1
   4  -2   7 139.415 182.405   1
   2  -4  -9 104.857 186.234   1
  -4   2  -9 99.5213 192.869   1
  -2   4   9 261.845 165.890   1
   4  -2   9 323.056 220.633   1
   2  -4  -9 505.949 219.367   2
   2  -4 -10 220791. 4666.04   2
  -4   2 -10 221049. 4952.17   1
  -2   4  10 219949. 4875.41   1
   2  -4 -10 230333. 5051.68   1
   4  -2  10 219864. 4851.52   1
  -2   4  11 103.388 207.940   1
  -4   2 -11 197.728 171.206   1
   2  -4 -11 173.059 193.834   2
   4  -2  11 83.5958 259.203   1
   2  -4 -11 342.408 203.043   1
   2  -4 -12 72109.7 2774.64   1
   4  -2  12 72445.2 2683.64   1
  -4   2 -12 72421.1 2735.28   1
   2  -4 -12 77161.3 2628.50   2
  -2   4  12 71384.2 2683.61   1
  -2   4  13-135.627 206.895   1
  -4   2 -13 54.7874 280.626   1
   2  -4 -13 437.786 302.713   1
   4  -2  13 43.0872 237.889   1
   2  -4 -14 65337.8 2766.34   1
  -2   4  14 62504.5 2629.79   1
  -4   2 -14 66870.1 2799.42   1
   4  -2  14 71576.5 2778.89   1
  -4   2 -15-217.268 269.050   1
  -2   4  15-64.2700 208.416   1
   2  -4 -15 266.451 240.006   1
   2  -4 -16 669048. 11678.7   1
  -3  -1 -18 182379. 5468.92   2
   3   1  17 25579.9 1867.04   1
  -3  -1 -17 25858.0 1922.87   1
  -1  -3 -17 26869.4 1963.53   1
   1   3  17 24289.9 1814.91   1
  -3  -1 -17 24960.3 1861.97   2
  -3  -1 -16 1892.83 606.331   1
  -3  -1 -16 1759.83 570.306   2
  -1  -3 -16 1470.78 484.331   2
  -1  -3 -16 1257.58 411.273   1
   1   3  16 1288.14 442.091   1
   3   1  16 1289.41 440.781   1
   1   3  15 232750. 5698.58   1
  -1  -3 -15 227377. 5778.62   1
  -1  -3 -15 215059. 5574.28   2
  -3  -1 -15 224433. 5778.69   1
   3   1  15 223121. 5642.14   1
  -3  -1 -14 99054.4 3510.41   1
   1   3  14 98060.1 3519.60   1
  -1  -3 -14 106613. 3575.73   2
   3   1  14 106167. 3578.50   1
  -3  -1 -14 103491. 3672.22   2
  -1  -3 -14 102701. 3624.76   1
   3   1  13 272246. 6121.40   1
  -1  -3 -13 273863. 6208.88   1
  -1  -3 -13 287106. 6273.07   2
  -3  -1 -13 282996. 6302.04   2
  -3  -1 -13 275032. 6254.19   1
   1   3  13 288250. 6257.49   1
   4  -3 -12 23063.9 1405.12   1
   1   3  12 23524.1 1562.55   1
   3   1  12 22061.1 1513.76   1
  -1  -3 -12 21675.2 1483.75   1
  -3  -1 -12 23121.7 1565.79   2
  -3  -1 -12 23734.7 1566.30   1
  -4   3  12 23914.1 1370.29   1
  -1  -3 -12 21584.3 1469.04   2
   4  -3 -11 11204.9 953.896   1
   3   1  11 14510.9 1161.20   1
  -1  -3 -11 11441.6 1076.85   1
  -3  -1 -11 13600.2 1193.89   1
   1   3  11 13249.7 1125.88   1
  -1  -3 -11 11789.1 1055.78   2
  -3  -1 -11 13069.1 1169.48   2
   3  -4  11 12003.3 908.801   1
  -4   3  11 12713.1 1002.44   1
  -3   4 -11 13751.8 968.661   1
   1   3   9 11070.6 970.747   1
   3   1   9 10561.9 958.339   1
  -1  -3  -9 9781.95 958.363   1
  -4   3   9 12274.9 908.261   1
  -3  -1  -9 10201.6 967.350   1
   1  -4   9 12492.6 943.002   2
  -3  -1  -9 11128.7 944.561   2
   3  -4   9 10468.6 800.433   1
   4  -3  -9 13627.6 982.239   1
  -4   1   9 12174.8 743.220   1
  -3   4  -9 10784.0 833.267   1
   4  -1  -9 11102.2 718.707   1
  -1  -3  -9 11258.7 978.758   2
   4  -1  -8 279523. 4795.97   1
  -3  -1  -8 310916. 5912.37   2
  -3  -1  -8 302858. 5870.33   1
   1   3   8 309240. 5863.42   1
  -1  -3  -8 289648. 5681.78   2
   3  -4   8 288331. 5087.49   1
  -1  -3  -8 297449. 5819.73   1
   4  -3  -8 265305. 5277.54   1
  -1  -3  -7 408720. 7130.47   1
   4  -3  -4 23241.4 1160.75   1
   3  -4   4 22121.3 1070.49   1
  -1  -3  -4 23191.3 1198.77   2
  -1  -3  -4 22639.1 1207.64   1
   4  -3  -4 21506.5 931.187   2
  -4   3   4 24711.2 1182.82   1
  -3  -1  -4 23439.0 1224.58   2
   1   3   4 21494.8 1169.39   1
  -3  -1  -4 23011.6 1205.64   1
   1  -4   4 26905.6 1230.19   2
  -3   4  -4 23385.0 1097.52   1
   3   1   4 21812.4 1190.38   1
   3  -4   4 24737.6 1255.65   2
  -1   4  -4 20880.7 925.823   1
  -4   1   4 20218.6 961.665   1
   4  -1  -4 20670.3 986.974   1
   1  -4   4 22118.6 928.221   1
  -4   3   3 286402. 5014.84   1
  -3  -1   0 70614.7 1971.33   1
   3   1   0 67793.4 1936.33   1
  -1  -3   0 74999.3 1984.54   1
  -3  -1   0 72837.2 1959.03   2
   4  -1   0 69951.6 1979.82   1
   3  -4   0 72924.6 2086.12   1
   1  -4   0 78274.1 2159.61   2
   1   3   0 70779.6 1940.70   1
  -4   3   0 81027.7 2192.19   1
   1  -4   0 77594.3 2073.61   1
  -1   4   0 71183.0 1987.24   1
   3  -4   0 73022.3 2076.01   2
  -3   4   0 68544.0 2067.14   1
  -4   1   0 70822.5 1986.05   1
   4  -3   0 70201.1 2061.90   1
  -1  -3   0 78717.6 2123.51   2
   3  -4  -3 54112.0 1827.89   1
  -1   4   3 47241.2 1744.84   1
   4  -3   3 47864.7 1707.61   1
   1   3  -3 49485.7 1363.50   1
  -3  -1   3 49706.4 1410.26   1
   3   1  -3 49818.5 1437.01   1
   1  -4  -3 49565.3 1755.19   2
   1  -4  -3 53440.6 1841.05   1
  -3   4   3 48389.7 1736.13   1
  -3  -1   3 48616.9 1402.03   2
  -1  -3   3 50290.8 1631.50   2
  -4   1  -3 50440.9 1793.96   1
   3  -4  -3 47325.0 1606.77   2
  -4   3  -3 48393.9 1718.93   1
  -1  -3   3 52795.4 1374.13   1
   4  -1   3 46601.9 1710.78   1
  -4   3  -4 323304. 5637.12   1
   3  -4  -4 327751. 5723.25   1
   3  -4  -5 46821.9 1653.64   2
  -3  -1   5 51536.1 1317.90   2
   4  -1   5 56100.3 1961.84   1
  -4   3  -5 49514.3 1815.52   1
   4  -3   5 53728.4 1849.18   1
  -1   4   5 58037.2 2012.73   1
  -3   4   5 51764.2 1856.48   1
  -4   1  -5 54195.4 1937.80   1
   1  -4  -5 54992.6 1983.15   1
  -3  -1   5 53533.8 1322.15   1
   1  -4  -5 53751.9 1884.91   2
   3   1  -5 52600.4 1340.36   1
  -1  -3   5 52504.7 1156.14   1
   3  -4  -5 52606.8 1907.32   1
   1   3  -5 52749.3 1190.56   1
  -1  -3   5 50145.6 1670.10   2
  -1  -3   7 300461. 5163.27   2
   1  -4  -7 302466. 5832.87   1
  -3   4   7 308267. 5663.68   1
   1  -4  -7 307442. 5643.11   2
  -4   1  -7 311567. 5825.02   1
  -1   4   8 8869.05 840.768   1
  -1  -3   8 10114.0 733.062   2
   4  -1   8 7899.91 780.563   1
   3  -4  -8 7897.77 700.573   2
   1  -4  -8 9408.79 893.203   1
   4  -3   8 9065.17 781.231   1
  -3   4   8 8243.82 762.621   1
  -4   3  -8 9233.93 821.057   1
  -4   1  -8 9422.30 883.599   1
   1  -4  -8 9254.76 842.920   2
  -1   4   9 512935. 8610.75   1
  -4   1 -10 181383. 4429.28   1
   4  -3  10 181070. 4197.63   1
  -1   4  10 167413. 4285.31   1
   1  -4 -10 178572. 4269.74   2
  -3   4  10 177827. 4304.91   1
   4  -1  10 178136. 4346.96   1
   3  -4 -10 173502. 4336.70   1
   1  -4 -10 185700. 4465.40   1
   3  -4 -10 185802. 3874.76   2
  -4   3 -10 182598. 4289.50   1
  -1   4  11 216127. 4975.38   1
  -4   1 -11 204306. 4958.08   1
   1  -4 -11 203782. 4922.59   1
   4  -1  11 222647. 4969.68   1
   3  -4 -11 193806. 4755.78   1
   4  -3  11 217180. 4735.82   1
  -4   3 -11 212675. 4851.91   1
  -3   4  11 186169. 4625.16   1
   1  -4 -11 219332. 4926.12   2
   3  -4 -11 211232. 4297.59   2
   4  -3  12 8303.37 864.986   1
  -3   4  12 7488.13 850.669   1
   1  -4 -12 8318.23 940.359   1
  -4   1 -12 8439.96 923.756   1
  -4   3 -12 7436.42 818.806   1
   1  -4 -12 8020.08 913.338   2
   3  -4 -12 9392.44 937.714   1
   4  -1  12 9056.79 945.861   1
  -1   4  12 8447.53 895.762   1
  -3   4  13 11316.3 1065.29   1
   1  -4 -13 10230.4 1048.13   1
  -4   1 -13 10356.4 1070.39   1
   4  -3  13 11725.8 1040.41   1
   1  -4 -13 11401.5 1090.32   2
  -4   3 -13 10296.1 998.045   1
   3  -4 -13 12226.9 1144.13   1
   4  -1  13 11482.4 1114.68   1
  -1   4  13 10296.3 1015.47   1
  -3   4  14 453668. 8199.19   1
  -4   1 -14 429336. 8362.05   1
   4  -1  14 422937. 8191.20   1
  -1   4  14 436489. 8305.04   1
   1  -4 -14 394625. 8163.44   1
   1  -4 -14 421273. 8112.02   2
   3  -4 -14 412013. 8132.48   1
  -1   4  15 49605.1 2412.88   1
   4  -1  15 48620.2 2397.89   1
   3  -4 -15 45932.1 2322.11   1
  -4   1 -15 46996.2 2436.96   1
   1  -4 -15 46563.7 2434.23   1
  -1   4  16 114659. 3926.12   1
   1  -4 -16 113479. 4003.59   1
   1  -4 -17 103193. 3912.59   1
  -4   4   0 74601.9 2214.58   1
  -4   0   0 65735.5 2016.27   1
   4  -4   0 75073.0 2145.04   2
   4   0   0 68649.2 2031.64   1
   4  -4   0 78573.4 2251.39   1
   0  -4   0 73271.0 2056.52   1
   0   4   0 71007.8 2065.81   1
   0  -4   0 70845.0 2152.22   2
   4  -4  -4 181905. 3989.56   1
   4  -4   4 185769. 3865.94   1
  -4   0   4 192545. 3474.64   1
  -4   4  -4 184035. 3894.50   1
   0  -4   4 174099. 3721.39   2
   4   0  -4 169715. 3391.93   1
   0  -4  -4 181628. 4006.91   1
   0   4   4 187537. 4026.23   1
  -4   4   4 190043. 3970.58   1
   4  -4  -4 187837. 3592.18   2
   0  -4  -4 188751. 4023.45   2
  -4   0  -4 180336. 3991.91   1
   4   0   4 175266. 3914.10   1
   4   0  -5 111310. 2446.57   1
   0  -4  -5 111191. 3004.45   2
   0   4   5 119461. 3107.03   1
  -4   0  -5 115759. 3090.28   1
   4   0   5 101939. 2917.42   1
   0  -4   5 107657. 2779.69   2
   0  -4  -5 115908. 3088.47   1
   4  -4  -5 111784. 2983.53   1
   4  -4   5 109955. 2807.85   1
  -4   0   5 101095. 1949.96   2
  -4   4   5 103062. 2846.79   1
  -4   0   5 114522. 2444.66   1
  -4   4  -5 108568. 2851.49   1
   4  -4  -5 108079. 2551.08   2
   0  -4   5 112826. 2242.87   1
   0   4  -5 116657. 2271.33   1
  -4   4   6 38589.5 1657.40   1
   0  -4  -6 40652.1 1749.78   2
  -4   4  -6 38551.8 1621.39   1
   4  -4  -6 38569.5 1681.62   1
   4  -4  -6 37359.5 1368.10   2
  -4   0  -6 38900.8 1764.77   1
   4   0  -6 34911.0 1235.03   1
   4   0   6 40669.2 1765.08   1
  -4   0   6 33455.3 793.481   2
   0  -4   6 40420.4 1637.03   2
   0  -4  -6 40192.4 1759.35   1
   0   4  -6 37654.0 1082.02   1
   4  -4   6 38032.2 1573.23   1
  -4   0   6 39899.6 1267.00   1
   0  -4   6 33194.2 1010.42   1
   0   4   6 38607.0 1718.40   1
   4   0  -7 7676.22 536.656   1
   0  -4  -7 7537.60 728.936   2
  -4   4   7 8000.76 756.253   1
   4   0   7 6883.86 739.267   1
   4  -4  -7 7592.90 592.783   2
   0   4   7 5738.46 692.681   1
   4  -4  -7 6760.51 714.050   1
   0  -4  -7 6600.55 736.608   1
   4  -4   7 6537.23 638.556   1
   0   4  -7 6034.15 367.971   1
  -4   0   7 7266.93 517.752   1
  -4   4  -7 7249.55 708.915   1
   0  -4   7 7423.41 715.285   2
  -4   0  -7 6243.13 704.122   1
   4   0  -8 4888.66 415.128   1
   0  -4   8 4627.14 601.613   2
   4  -4  -8 4182.85 479.677   2
  -4   4  -8 4415.96 581.311   1
  -4   4   8 6175.03 645.210   1
   4   0   8 4108.38 594.241   1
   0   4   8 4068.68 594.055   1
  -4   0  -8 4377.51 621.291   1
  -4   0   8 4713.04 394.757   1
   4  -4   8 5212.69 572.111   1
   4  -4  -8 4113.08 581.630   1
   0  -4  -8 4238.91 606.573   2
   0  -4  -8 3940.67 606.052   1
   4  -4  -9 76176.9 2661.17   1
   0   4   9 82534.2 2801.20   1
  -4   0  -9 80399.2 2791.77   1
   0  -4  -9 78837.4 2733.00   2
  -4   4  -9 82069.6 2614.59   1
   4  -4   9 81355.0 2519.81   1
   0  -4  -9 74330.9 2723.82   1
   4   0   9 75774.3 2669.38   1
  -4   4   9 80368.3 2620.04   1
   4  -4  -9 75052.4 2113.62   2
   0  -4   9 80047.5 2541.00   2
   0  -4 -11 412398. 7698.52   2
   4   0  11 402657. 7645.77   1
   0   4  11 381924. 7621.04   1
   0  -4 -11 412962. 7808.57   1
  -4   0 -11 406799. 7818.56   1
   4  -4 -11 439417. 7731.48   1
  -4   4 -12 125763. 3608.97   1
   4  -4  12 125039. 3509.68   1
   0  -4 -12 119348. 3703.25   2
   0  -4 -12 125831. 3849.50   1
  -4   4  12 136158. 3708.52   1
  -4   0 -12 112190. 3732.02   1
   4  -4 -12 115515. 3583.59   1
   4   0  12 124134. 3761.89   1
   0   4  12 126956. 3812.44   1
   4   0  13 267437. 6108.68   1
  -4   0 -13 268384. 6239.33   1
   0  -4 -13 260245. 6194.14   1
  -4   4  13 284401. 5967.32   1
   0   4  13 262673. 6132.03   1
   0  -4 -13 277819. 6198.35   2
   4  -4 -13 289245. 6206.86   1
   0  -4 -14 473960. 8986.37   2
   0   4  14 495527. 9061.81   1
  -4   0 -14 461511. 8956.15   1
   0  -4 -14 460855. 8973.38   1
   4  -4 -14 435462. 8534.29   1
   4   0  14 471350. 8944.16   1
   0   4  15 45467.6 2394.93   1
   4   0  15 43608.0 2322.88   1
   0  -4 -15 40661.9 2298.36   2
  -4   0 -15 41649.2 2348.67   1
   0  -4 -15 42989.8 2365.89   1
  -4   0 -15 39123.7 2256.16   2
   0   4  16 1996.09 566.337   1
  -4   0 -16 1794.23 550.094   2
   0  -4 -16 2656.96 658.279   1
   4   0  16 3008.81 662.151   1
  -4   0 -16 1823.94 594.779   1
   0  -4 -17 11152.9 1272.01   1
   0   4  17 11988.6 1276.96   1
  -4   0 -17 10639.1 1234.74   2
  -4   0 -17 10806.3 1225.38   1
  -4   0 -18 23612.9 1842.31   2
  -4   0 -19 27811.3 2061.99   2
  -3  -2 -18 139329. 4748.47   2
   2   3  18 132708. 4655.71   1
  -2  -3 -18 127473. 4630.48   1
  -3  -2 -18 140681. 4771.32   1
   2   3  17 68708.9 3191.89   1
  -2  -3 -17 72065.6 3249.25   1
  -3  -2 -17 71706.0 3327.75   1
  -3  -2 -17 71900.8 3231.70   2
  -2  -3 -17 69953.4 3238.80   2
   3   2  17 70116.2 3184.26   1
  -3  -2 -16 35037.1 2221.65   1
  -2  -3 -16 37235.2 2232.74   1
   3   2  16 33666.4 2179.40   1
   2   3  16 35500.4 2163.51   1
  -2  -3 -16 35667.0 2238.09   2
  -3  -2 -16 36442.7 2221.55   2
  -3  -2 -15 35223.5 2084.20   2
   3   2  15 34244.4 2088.29   1
  -2  -3 -15 30935.1 2022.79   1
  -2  -3 -15 34103.1 2135.01   2
   2   3  15 37866.8 2165.94   1
  -3  -2 -15 37600.2 2203.80   1
  -3  -2 -14 221120. 5685.16   2
   2   3  14 233284. 5779.39   1
   3   2  14 219872. 5705.98   1
  -3  -2 -14 223773. 5768.07   1
  -2  -3 -14 244794. 5948.01   2
  -2  -3 -14 227102. 5778.61   1
  -3  -2 -13 25755.0 1682.52   2
   3   2  13 26437.8 1708.84   1
   2   3  13 24363.9 1694.16   1
  -2  -3 -13 26532.9 1795.12   1
  -2  -3 -13 23811.0 1655.57   2
  -3  -2 -13 24272.1 1712.50   1
   3   2  12 9661.04 1027.42   1
  -3  -2 -12 10329.1 1091.59   1
  -2  -3 -12 11335.5 1085.01   2
  -2  -3 -12 11086.1 1126.63   1
   2   3  12 10715.4 1102.32   1
  -3  -2 -12 11219.6 1123.61   2
  -5   3  11 170685. 4049.06   1
  -2  -3 -11 162903. 4455.25   2
   3   2  11 167684. 4481.13   1
  -3  -2 -11 173242. 4605.05   2
  -2  -3 -11 176915. 4653.28   1
   5  -3 -11 179027. 4261.66   1
   2   3  11 156354. 4422.02   1
  -3  -2 -11 169286. 4584.30   1
  -5   2  10 226585. 4620.19   1
   2   3  10 235076. 5469.37   1
  -3  -2 -10 232691. 5457.36   2
  -3   5 -10 242127. 4826.04   1
   3   2  10 229470. 5364.32   1
   5  -3 -10 238825. 5048.30   1
  -2  -3 -10 240821. 5470.01   2
  -2  -3 -10 233373. 5450.12   1
  -3  -2 -10 246230. 5595.15   1
   5  -2 -10 249258. 4831.34   1
   2   3   9 267512. 5886.59   1
   5  -2  -9 322724. 5516.87   1
  -3  -2  -9 291329. 6052.90   2
   2  -5   9 283630. 5879.51   2
  -3  -2  -9 301352. 6155.99   1
  -2  -3  -9 292171. 6074.45   1
   3   2   9 278612. 5980.61   1
  -2  -3  -9 281674. 5991.02   2
  -5   3   9 266345. 5386.87   1
   2   3   8 51363.3 2195.55   1
  -5   3   8 56023.4 2022.90   1
  -5   2   8 44529.7 1728.88   1
   3  -5   8 54468.7 1832.07   1
   3  -5   8 51147.4 2131.77   2
  -3   5  -8 52633.5 1871.94   1
   3   2   8 47170.5 2085.04   1
  -2   5  -8 48043.7 1659.09   1
  -2  -3  -8 51112.4 2205.11   1
  -2  -3  -8 50204.1 2167.14   2
   5  -2  -8 49929.4 1848.88   1
  -3  -2  -8 52611.3 2235.32   2
   5  -3  -8 53137.7 2031.22   1
  -3  -2  -8 49390.0 2147.59   1
   2  -5   8 48717.0 2069.19   2
   2  -5   8 51217.4 1634.19   1
   5  -3  -7 232222. 4688.99   1
   5  -2  -7 226925. 4480.55   1
   3  -5   7 248986. 4518.69   1
  -2  -3  -7 223442. 4991.56   2
   2  -5   7 217572. 4790.37   2
  -5   3   7 227956. 4605.62   1
  -3   5  -7 225396. 4483.40   1
   3   2   7 209894. 4883.49   1
  -3  -2  -7 228415. 5071.62   1
   3  -5   7 242027. 5083.94   2
   2   3   7 235080. 5081.29   1
  -3  -2  -7 241629. 5126.52   2
  -5   2   7 231158. 4479.19   1
  -2  -3  -7 229090. 5069.72   1
   2  -5   7 228344. 4126.43   1
   5  -3  -5 243005. 4971.29   1
   2  -5   5 273393. 5291.61   2
  -2  -3  -5 285857. 5458.93   2
  -3  -2  -5 277353. 5452.30   1
  -2  -3  -5 283760. 5452.76   1
   3   2   5 285378. 5480.52   1
  -5   3   5 250040. 4971.06   1
   3  -5   5 272413. 5364.42   2
  -3  -2  -4 175565. 3932.51   2
   2   3   4 168960. 3913.72   1
   3  -5   4 173236. 3623.81   1
  -5   3   4 159634. 3635.12   1
   5  -2  -4 173603. 3676.34   1
  -3  -2  -4 175442. 3914.54   1
  -3   5  -4 166353. 3616.77   1
  -2  -3  -4 169222. 3880.00   1
   3   2   4 152299. 3779.83   1
   3  -5   4 182294. 3997.44   2
  -2   5  -4 161758. 3426.36   1
   2  -5   4 161431. 3773.77   2
  -2  -3  -4 175685. 3978.20   2
   5  -3  -4 172290. 3746.33   1
   3  -5   3 160438. 3477.88   1
  -3   5  -3 157949. 3494.66   1
  -5   2   3 145924. 3364.56   1
  -2  -3  -3 158795. 3661.02   1
   5  -3  -3 158379. 3558.76   1
   5  -2  -3 156492. 3479.92   1
   3   2   3 164594. 3723.70   1
  -5   3   3 156186. 3541.31   1
   2  -5   3 168673. 3736.79   2
  -3  -2  -3 152887. 3601.79   1
  -3  -2  -3 163724. 3692.38   2
   2   3   3 154350. 3624.18   1
  -2  -3  -3 166768. 3765.03   2
   2  -5   3 164066. 3413.96   1
   3  -5   3 166602. 3761.16   2
  -2   5  -3 143899. 3307.65   1
  -2  -3  -2 440461. 7114.51   1
  -2  -3  -1 69198.1 2114.46   1
  -3  -2  -1 73591.6 2188.62   1
  -5   2   1 65850.1 2125.98   1
  -3   5  -1 70074.6 2203.88   1
   3   2   1 61554.4 2070.45   1
   3  -5   1 76306.2 2255.49   1
   2  -5   1 72084.0 2149.24   1
   5  -2  -1 69026.0 2146.06   1
   3  -5   1 71630.6 2263.20   2
  -2  -3  -1 73048.7 2231.66   2
   5  -3  -1 71633.0 2193.29   1
   2  -5   1 74394.7 2299.94   2
  -5   3   1 72882.0 2229.05   1
   2   3   1 62790.7 2069.93   1
  -3  -2  -1 73037.3 2202.86   2
  -2   5  -1 68799.2 2121.23   1
  -5   3   0 34230.1 1493.37   1
   3  -5   0 33262.1 1484.57   1
   2   3   0 31026.3 1343.74   1
  -5   2   0 31063.1 1417.28   1
  -3  -2   0 34647.1 1418.07   2
   5  -3   0 32946.8 1471.98   1
   5  -2   0 32386.1 1398.42   1
  -2  -3   0 32101.4 1346.45   1
  -2   5   0 30982.1 1399.93   1
   3   2   0 29876.0 1336.08   1
   2  -5   0 32454.2 1479.44   2
  -3   5   0 33567.4 1464.74   1
  -3  -2   0 32507.9 1379.31   1
   3  -5   0 32688.1 1476.05   2
   2  -5   0 35074.2 1489.70   1
  -2  -3   0 30757.5 1385.47   2
  -3  -2   1 190181. 3765.19   1
   5  -3   1 194310. 4094.54   1
   5  -2   1 191417. 4020.38   1
  -5   2  -1 180438. 3949.63   1
   2   3  -1 190297. 3734.12   1
   3  -5  -1 204563. 4194.61   1
  -2  -3   1 192391. 3722.09   1
   2  -5  -1 188777. 4024.05   1
  -3  -2   1 198032. 3894.27   2
   3  -5  -1 201599. 4126.34   2
  -2  -3   1 197424. 3936.06   2
  -2   5   1 187144. 4022.92   1
   2  -5  -1 199497. 4139.04   2
  -3   5   1 191982. 4070.15   1
  -3  -2   4 81442.8 2181.51   2
  -2  -3   4 89176.0 1959.79   1
   2  -5  -4 84878.3 2633.74   1
   5  -2   4 86094.9 2601.85   1
  -3   5   4 92266.5 2671.96   1
  -3  -2   4 86138.6 2001.70   1
  -2  -3   4 82065.1 2260.79   2
   2   3  -4 82258.1 1960.33   1
   3  -5  -4 91856.5 2692.28   1
   2  -5  -4 77066.1 2465.19   2
  -5   2  -4 79761.0 2561.79   1
   3  -5  -4 80986.3 2457.71   2
  -5   3  -4 87674.1 2604.95   1
  -2   5   4 85348.9 2608.87   1
   3   2  -4 88165.2 2052.28   1
   5  -3   4 90100.9 2598.07   1
   5  -3   5 451993. 7431.08   1
  -3   5   5 436482. 7477.24   1
   3  -5  -7 358249. 6586.59   1
  -2   5   7 340028. 6401.53   1
  -5   3  -7 340070. 6405.37   1
  -5   2  -7 328307. 6351.62   1
   2  -5  -7 334439. 6257.38   2
   3  -5  -7 334555. 6108.64   2
   5  -3   7 342662. 6285.74   1
   2  -5  -7 350156. 6550.30   1
  -5   2  -8 52805.4 2187.10   1
   5  -3   8 55758.1 2176.73   1
   5  -2   8 53147.9 2160.24   1
   2  -5  -8 50080.6 2173.52   1
   2  -5  -8 51299.2 2100.21   2
   3  -5  -8 56509.4 2092.99   2
  -2   5   8 53270.7 2205.91   1
   3  -5  -8 49883.0 2170.46   1
  -5   3  -8 59581.1 2276.44   1
  -3   5   8 56739.4 2233.70   1
  -2  -3   8 56828.1 1855.15   2
   5  -2   9 53653.0 2225.29   1
   2  -5  -9 57558.1 2239.41   2
  -3   5   9 51010.4 2184.09   1
   5  -3   9 52683.8 2152.18   1
  -5   3  -9 57383.8 2314.01   1
   3  -5  -9 52691.9 2278.35   1
   3  -5  -9 56104.3 2103.62   2
   2  -5  -9 62941.4 2419.16   1
  -2   5   9 50052.3 2184.04   1
  -5   2  -9 53724.8 2279.29   1
   3  -5 -10 367054. 7098.67   1
   2  -5 -10 371579. 7157.30   1
  -5   2 -10 348722. 6989.47   1
   5  -2  10 356269. 6909.38   1
   2  -5 -10 367612. 6843.96   2
   5  -3  10 349719. 6772.33   1
  -5   3 -10 354032. 6921.14   1
   3  -5 -10 367749. 6585.02   2
  -2   5  10 350144. 6934.48   1
  -3   5  10 368902. 6971.91   1
  -5   3 -11 29396.7 1726.03   1
  -5   2 -11 26410.0 1670.74   1
   2  -5 -11 27146.8 1698.12   1
   5  -2  11 28965.0 1700.19   1
  -2   5  11 28263.9 1655.87   1
   5  -3  11 31210.0 1704.12   1
   3  -5 -11 30290.4 1754.39   1
   2  -5 -11 26847.8 1654.19   2
   3  -5 -11 31444.9 1634.06   2
  -3   5  11 28217.2 1717.62   1
  -5   3 -12 45489.2 2218.85   1
   5  -3  12 45721.4 2158.61   1
  -2   5  12 42959.3 2158.42   1
   5  -2  12 47227.1 2215.06   1
  -5   2 -12 45283.0 2239.30   1
  -3   5  12 45848.8 2195.14   1
   2  -5 -12 45780.7 2143.78   2
   3  -5 -12 49374.7 2293.59   1
   2  -5 -12 42373.9 2193.94   1
  -3   5  13 122939. 3824.58   1
  -2   5  13 117820. 3761.74   1
   2  -5 -13 118852. 3883.48   1
  -5   2 -13 111689. 3748.55   1
   2  -5 -13 118328. 3683.93   2
   3  -5 -13 116270. 3837.46   1
  -5   3 -13 124213. 3894.53   1
   5  -2  13 119143. 3766.88   1
   5  -3  13 124460. 3831.31   1
  -2   5  14 152668. 4443.99   1
   3  -5 -14 156230. 4586.20   1
   2  -5 -14 154992. 4593.00   1
   5  -2  14 163030. 4597.70   1
  -3   5  14 136677. 4257.51   1
  -5   2 -14 147609. 4507.24   1
  -5   3 -14 146315. 4415.88   1
   5  -3  14 144274. 4298.51   1
   2  -5 -15 104807. 3802.14   1
  -3   5  15 104319. 3721.50   1
   3  -5 -15 108433. 3841.53   1
   5  -2  15 103573. 3695.84   1
  -5   2 -15 105314. 3810.51   1
  -2   5  15 113174. 3860.61   1
  -2   5  16 8501.18 1069.04   1
   2  -5 -16 9580.51 1169.07   1
  -5   2 -16 9724.54 1170.61   1
   3  -5 -16 11075.0 1196.95   1
   2  -5 -17 51757.9 2789.03   1
  -4  -1 -19 2071.43 621.091   2
  -4  -1 -18 2483.77 607.126   2
   1   4  18 2400.49 663.831   1
  -1  -4 -18 2353.56 599.423   1
  -4  -1 -18 2704.99 724.352   1
   1   4  17 2120.83 605.103   1
  -1  -4 -17 3212.94 737.988   1
  -4  -1 -17 1920.61 528.696   2
   4   1  17 2189.97 627.994   1
  -4  -1 -17 2331.12 650.796   1
  -1  -4 -16 116533. 4157.92   1
   1   4  16 105956. 3913.30   1
   4   1  16 113946. 4054.75   1
  -4  -1 -16 110909. 4052.20   1
  -1  -4 -16 112510. 4055.73   2
  -4  -1 -16 114743. 4067.02   2
  -4  -1 -15 1440.15 406.007   2
  -4  -1 -15 1427.09 495.477   1
  -1  -4 -15 1878.45 532.889   1
   4   1  15 1489.37 493.841   1
  -1  -4 -15 1474.49 562.204   2
   1   4  15 1663.06 415.979   1
   4   1  14 6426.99 899.000   1
  -1  -4 -14 4905.01 813.848   2
  -1  -4 -14 5572.49 816.372   1
  -4  -1 -14 5363.32 816.359   1
  -4  -1 -14 5670.25 834.679   2
   1   4  14 5738.81 880.722   1
  -1  -4 -13 508.236 365.534   1
   5  -4 -13 235.125 240.212   1
   1   4  13 389.124 331.909   1
  -1  -4 -13 759.367 424.754   2
  -4  -1 -13 402.128 201.684   1
   4   1  13-67.7337 276.962   1
  -4  -1 -13 213.329 247.356   2
   5  -4 -11 362.687 265.040   1
   4   1  11 1096.20 376.297   1
  -4   5 -11 684.482 253.909   1
   1   4  11 579.078 307.551   1
  -1  -4 -11 1112.46 406.231   1
  -5   4  11 1540.31 392.337   1
  -4  -1 -11 1001.56 332.904   1
  -4  -1 -11 1222.11 450.080   2
  -1  -4 -11 747.761 351.605   2
  -1  -4 -10 7377.22 880.092   2
  -4  -1 -10 7054.09 866.513   2
  -4   5 -10 8297.47 817.857   1
  -4  -1 -10 7350.42 892.005   1
   5  -4 -10 6582.37 785.380   1
  -1  -4 -10 7482.55 875.775   1
   4   1  10 7385.40 837.722   1
   1   4  10 6315.71 785.848   1
  -5   4  10 8812.90 828.557   1
   4  -5  10 8014.31 785.144   1
   1  -5  10 7502.59 860.925   2
   5  -4  -9 7649.73 798.370   1
   4  -5   9 8760.50 794.692   1
   1  -5   9 6717.69 797.326   2
  -4   5  -9 7124.10 731.648   1
  -5   4   9 8993.00 817.700   1
  -4  -1  -9 6621.78 808.114   2
  -1  -4  -9 7392.68 827.530   1
   1   4   9 6541.19 813.396   1
  -1  -4  -9 7051.82 822.235   2
   4   1   9 7362.01 860.789   1
  -4  -1  -9 7750.50 883.709   1
   5  -1  -8 248850. 4658.97   1
   4  -5   8 257060. 5049.69   1
   4   1   8 250300. 5436.30   1
  -4  -1  -8 246826. 5500.91   2
   5  -4  -8 259647. 5352.65   1
  -1  -4  -8 259403. 5588.12   1
  -5   4   8 265665. 5264.53   1
   1   4   8 258317. 5569.32   1
  -1  -4  -8 234317. 5382.53   2
  -4   5  -8 260772. 5204.65   1
  -4  -1  -8 275932. 5698.82   1
   1  -5   8 257223. 5302.86   2
   5  -1  -7 3804.56 457.252   1
  -5   1   7 3842.15 459.543   1
  -4   5  -7 4368.07 561.966   1
   5  -4  -7 4919.18 629.780   1
  -1  -4  -7 3965.98 622.079   1
   1   4   7 4199.16 624.325   1
   1  -5   7 3800.71 550.466   2
  -5   4   7 4187.45 547.872   1
  -4  -1  -7 3713.94 580.430   2
  -1   5  -7 3877.31 413.401   1
   4  -5   7 4254.71 550.765   1
  -4  -1  -7 4385.81 630.853   1
   4   1   7 4382.58 628.970   1
  -1  -4  -7 3625.90 598.622   2
   1  -5   7 3317.17 345.599   1
   5  -4  -7 4778.53 462.746   2
  -1  -4  -6 19927.4 1313.28   1
  -5   1   6 17125.7 986.743   1
   5  -4  -6 20293.8 1028.95   2
   4  -5   6 17862.6 1101.73   1
   1  -5   6 18887.1 912.202   1
  -1  -4  -6 20710.0 1327.65   2
   1  -5   6 19910.8 1219.54   2
  -4  -1  -6 20209.1 1303.40   2
  -5   4   6 20606.4 1204.31   1
   1   4   6 19769.7 1280.45   1
   4  -5   6 21179.9 1385.06   2
  -1   5  -6 20568.3 972.256   1
  -4  -1  -6 21004.6 1335.37   1
  -4   5  -6 19561.8 1173.11   1
   4   1   6 18991.5 1236.95   1
   5  -1  -6 18042.3 1035.13   1
  -4  -1  -5 40710.2 1780.29   2
  -5   1   5 41218.3 1531.70   1
  -1  -4  -5 38437.1 1778.02   1
  -5   1   5 33911.0 1052.91   2
   5  -4  -5 40508.7 1453.39   2
   4  -5   5 38724.6 1615.08   1
   5  -1  -5 36283.7 1484.26   1
   4  -5   5 37555.6 1790.83   2
  -4   5  -5 37316.5 1638.77   1
   5  -4  -5 35271.4 1649.91   1
  -5   4   5 41576.5 1724.51   1
   4   1   5 38041.9 1735.90   1
  -1   5  -5 39511.8 1408.39   1
  -4  -1  -5 37167.7 1732.62   1
   1   4   5 37517.6 1726.19   1
   1  -5   5 44423.9 1474.16   1
  -1  -4  -5 37398.1 1735.90   2
   1  -5   5 41710.8 1740.68   2
   5  -4  -3 4831.99 547.809   2
   1   4   3 4848.95 557.085   1
   5  -4  -3 4793.50 607.684   1
  -4  -1  -3 5001.07 583.735   2
   1  -5   3 5634.97 597.255   2
  -4   5  -3 5172.36 581.198   1
  -4  -1  -3 5293.06 641.645   1
  -1  -4  -3 5978.02 643.532   2
   4  -5   3 5807.70 650.236   2
   5  -1  -3 4584.59 528.004   1
   1  -5   3 5510.34 546.646   1
  -5   1   3 5541.76 537.495   1
   4   1   3 5499.87 629.114   1
  -1  -4  -3 5488.07 624.595   1
  -5   4   3 6182.11 622.566   1
  -1   5  -3 5646.79 544.442   1
   4  -5   3 5281.87 586.174   1
   5  -1  -2 56387.8 1868.97   1
   4  -5   2 52917.2 1928.84   1
  -5   4   2 54489.3 1991.83   1
  -5   1   2 46142.8 1715.23   1
   1  -5   2 54365.5 1799.93   1
  -1   5  -2 50817.2 1768.94   1
  -1  -4  -2 59680.5 2066.36   2
  -4  -1  -2 56922.0 2010.71   1
   5  -4  -2 56420.7 1909.41   2
   1   4   2 50898.1 1928.83   1
   4  -5   2 54346.7 2011.60   2
  -1  -4  -2 55409.5 1956.55   1
   4   1   2 54427.3 1989.68   1
   5  -4  -2 49601.0 1899.16   1
   1  -5   2 55307.1 2007.65   2
  -4  -1  -2 54148.4 1935.53   2
  -4   5  -2 51805.6 1924.17   1
   4  -5   1 465.066 196.917   1
  -5   4   1-27.5343 173.330   1
   4  -5   1 36.0070 160.919   2
   4   1   1 30.5093 159.371   1
   5  -1  -1 781.254 265.288   1
   1   4   1 83.4104 159.984   1
  -1  -4  -1 177.474 184.374   1
   1  -5   1 61.6782 203.706   2
  -1   5  -1 264.439 204.130   1
  -4   5  -1 110.002 143.106   1
   5  -4  -1 596.056 210.549   1
   1  -5   1 282.247 172.708   1
  -4  -1  -1 207.344 162.015   1
   5  -4  -1 308.334 210.312   2
  -1  -4  -1 266.576 178.069   2
  -4  -1  -1 578.490 224.001   2
  -5   1   1 832.134 282.255   1
  -4  -1   1 22152.9 1123.54   1
  -1   5   1 21800.4 1193.19   1
   4  -5  -1 16719.8 1060.95   2
   4  -5  -1 17017.4 1111.11   1
  -4  -1   1 19879.6 1027.53   2
  -1  -4   1 20816.1 1048.76   1
   1  -5  -1 20966.5 1210.81   2
  -1  -4   1 21578.0 1162.26   2
   5  -4   1 18725.6 1114.89   1
  -5   1  -1 21273.1 1189.33   1
   4   1  -1 21594.0 1100.60   1
   1   4  -1 19640.9 1060.31   1
  -4   5   1 17514.3 1112.85   1
   5  -1   1 20924.5 1182.46   1
   1  -5  -1 19563.9 1138.98   1
  -5   4  -1 18870.9 1117.37   1
   5  -1   2 106188. 2964.88   1
  -1   5   2 116054. 3042.99   1
   4   1  -2 121596. 2847.74   1
  -1  -4   2 126643. 3044.22   2
   4  -5  -2 122335. 3036.69   2
   1  -5  -2 122400. 3146.00   1
   1  -5  -2 118032. 3107.47   2
  -4  -1   2 120781. 2753.36   2
   5  -4   2 116393. 3053.38   1
  -5   1  -2 124942. 3184.38   1
   4  -5  -2 120029. 3165.46   1
  -4  -1   2 119784. 2799.32   1
   1   4  -2 118940. 2771.70   1
  -4   5   2 119386. 3132.80   1
  -5   4  -2 123069. 3144.67   1
  -1  -4   2 122343. 2767.33   1
  -1  -4   3 11322.8 709.775   1
  -1  -4   3 11307.9 829.662   2
  -5   1  -3 10727.6 895.499   1
   1   4  -3 11262.5 714.991   1
  -1   5   3 10970.4 860.161   1
  -4  -1   3 12735.4 792.200   1
  -4   5   3 12574.4 922.938   1
   5  -1   3 11283.6 898.671   1
   4   1  -3 12031.4 764.322   1
  -5   4  -3 12550.9 934.998   1
   1  -5  -3 11062.9 914.061   1
   1  -5  -3 9720.49 847.541   2
   4  -5  -3 12149.6 930.433   1
   5  -4   3 12107.7 916.183   1
   4  -5  -3 11352.2 832.548   2
  -4  -1   3 10645.8 706.887   2
  -1  -4   5 10796.8 601.646   1
  -5   1  -5 9925.83 885.695   1
  -1  -4   5 10766.6 798.715   2
   1  -5  -5 8969.70 871.065   1
  -4  -1   5 11612.7 696.973   1
   4  -5  -5 9769.50 887.750   1
  -4  -1   5 9925.54 639.564   2
  -4   5   5 11119.8 900.115   1
   5  -4   5 9731.74 824.228   1
  -1   5   5 9048.73 860.687   1
   5  -1   5 9472.03 869.695   1
  -5   4  -5 9350.26 840.437   1
   1   4  -5 10612.3 606.492   1
   4  -5  -5 9679.62 794.335   2
   1  -5  -5 10757.5 884.874   2
   4   1  -5 10859.8 687.096   1
   1   4  -6 42416.7 1163.96   1
  -4  -1   6 41238.4 1318.81   1
   5  -4   6 46334.0 1875.21   1
   1  -5  -6 39938.2 1831.57   2
   4   1  -6 46611.6 1426.18   1
   4  -5  -6 42866.4 1683.41   2
   4  -5  -6 47675.7 1966.31   1
  -4  -1   6 38940.0 1227.51   2
  -1   5   6 42666.8 1911.17   1
  -1  -4   6 39205.9 1665.48   2
  -5   4  -6 43122.3 1870.84   1
  -5   1  -6 46372.4 1976.73   1
  -4   5   6 46291.3 1898.47   1
   1  -5  -6 45091.6 1958.37   1
   5  -1   6 42948.6 1891.46   1
  -1  -4   6 40187.3 1116.76   1
  -4   5   7 35886.4 1722.05   1
   1  -5  -7 33382.0 1748.07   1
   1  -5  -7 36711.8 1746.77   2
   4  -5  -7 34007.4 1735.14   1
   5  -1   7 37341.0 1797.67   1
   4   1  -7 31978.4 1109.29   1
   4  -5  -7 37476.8 1567.33   2
  -1   5   7 36408.5 1798.90   1
  -5   1  -7 34262.9 1755.26   1
  -5   4  -7 33935.8 1657.59   1
  -1  -4   7 34063.5 1519.65   2
   5  -4   7 34493.9 1630.23   1
  -4   5   8 320786. 6173.84   1
   4  -5  -8 305738. 6215.23   1
  -1  -4   8 326556. 5815.21   2
  -1   5   8 314124. 6331.72   1
  -5   4  -8 317560. 6173.14   1
  -5   1  -8 301306. 6240.06   1
   5  -1   8 306201. 6207.03   1
   1  -5  -8 321106. 6258.89   2
   5  -4   8 312283. 6020.66   1
   1  -5  -8 331194. 6455.85   1
  -4   5   9 4310.74 621.383   1
   5  -4   9 5077.22 645.819   1
   1  -5  -9 5731.28 758.028   1
  -5   1  -9 5961.71 753.893   1
   4  -5  -9 6000.12 668.844   2
  -1  -4   9 5608.87 649.310   2
   4  -5  -9 5615.38 763.816   1
   1  -5  -9 5075.39 718.826   2
   5  -1   9 6007.09 757.374   1
  -5   4  -9 3844.24 585.279   1
  -1   5   9 5163.94 700.935   1
  -1  -4  10 13646.7 1047.29   2
   5  -4  10 15385.1 1154.95   1
   1  -5 -10 16514.5 1233.44   2
   4  -5 -10 15055.3 1208.35   1
  -1   5  10 14381.4 1204.98   1
  -5   1 -10 15338.4 1227.63   1
  -4   5  10 14797.3 1156.81   1
  -5   4 -10 16009.3 1209.21   1
   5  -1  10 13537.4 1164.35   1
   4  -5 -10 15652.4 1037.34   2
   1  -5 -10 15132.1 1246.56   1
  -1   5  11 2727.95 580.207   1
   4  -5 -11 3460.16 581.999   1
   1  -5 -11 3127.65 596.200   1
   5  -4  11 3413.70 573.226   1
  -4   5  11 3342.94 550.119   1
   5  -1  11 2578.77 536.033   1
  -5   1 -11 2858.88 548.191   1
  -5   4 -11 3742.17 612.262   1
   1  -5 -11 3245.17 610.915   2
   1  -5 -13 422.104 337.139   1
   1  -5 -13 710.302 355.463   2
  -1   5  13 5.06229 235.164   1
  -4   5  13 160.101 202.019   1
   5  -4  13 272.954 264.580   1
   5  -1  13-6.97299 239.659   1
  -5   4 -13-108.462 249.233   1
   4  -5 -13 307.729 214.548   1
  -5   1 -13-261.416 279.010   1
   1  -5 -14 11326.0 1183.03   1
  -5   1 -14 12538.7 1230.27   1
  -1   5  14 11158.1 1165.24   1
   1  -5 -14 11793.3 1217.67   2
  -4   5  14 9287.19 1040.67   1
   5  -1  14 12349.4 1241.73   1
   4  -5 -14 10936.0 1130.81   1
  -5   1 -15 2029.25 577.209   1
   5  -1  15 1188.10 443.143   1
  -1   5  15 1633.14 568.253   1
   1  -5 -15 1341.07 505.717   1
   4  -5 -15 1508.96 407.805   1
  -5   1 -16 211227. 5847.36   1
   1  -5 -16 208869. 5805.29   1
   5  -1  16 203403. 5692.21   1
  -1   5  17 539.070 270.808   1
   1  -5 -17 788.462 364.814   1
  -5   1 -17 1194.54 395.179   1
  -5   1 -18 15494.0 1565.87   2
  -5   1 -19 1975.74 575.024   2
   5   0   0 226295. 4505.52   1
  -5   0   0 207985. 4366.20   1
   5  -5   0 215738. 4522.66   2
   0  -5   0 225577. 4448.57   1
   0  -5   0 206984. 4478.81   2
  -5   5   0 215615. 4566.16   1
  -5   0   0 214982. 4336.24   2
   0   5   0 207857. 4370.53   1
   5  -5   0 219322. 4626.79   1
   0  -5  -3 360479. 6517.16   1
   5  -5  -3 352984. 6460.12   1
   0  -5  -3 373189. 6611.58   2
   0   5   3 357735. 6490.17   1
   0  -5  -4 14219.4 1063.35   1
   5  -5  -4 12648.0 1030.53   1
   0  -5   4 15645.9 879.953   1
   5   0   4 12173.2 997.039   1
  -5   5   4 12775.8 1006.21   1
   0   5  -4 12709.4 820.345   1
   0   5   4 13997.1 1061.98   1
   5   0  -4 12299.9 844.925   1
  -5   0  -4 14897.8 1076.02   1
  -5   0   4 12682.2 756.407   2
  -5   0   4 14409.9 904.730   1
   5  -5  -4 15193.6 973.670   2
   0  -5  -4 14807.8 1077.85   2
  -5   5  -4 12327.9 977.728   1
   0  -5   4 13073.4 979.168   2
   5  -5   4 12969.0 948.358   1
   5   0   5 25799.2 1496.32   1
   0  -5   5 23657.2 1362.65   2
   0  -5  -5 22961.1 1398.96   2
   0  -5  -5 25460.1 1450.93   1
   5  -5   5 26670.3 1445.01   1
   0  -5   5 25336.7 1097.36   1
  -5   0   5 23474.8 947.179   2
   0   5   5 24950.2 1467.10   1
  -5   0  -5 25245.3 1479.19   1
   5  -5  -5 25109.2 1282.33   2
   5  -5  -5 26669.6 1476.33   1
   5   0  -5 25955.9 1206.86   1
  -5   0   5 30476.8 1298.33   1
  -5   5  -5 26636.1 1415.73   1
  -5   5   5 25928.1 1433.39   1
   0   5  -5 25730.3 1117.37   1
   0  -5  -6 2003.97 478.439   2
   5  -5  -6 2319.92 492.835   1
  -5   5  -6 3431.73 540.862   1
   0  -5   6 3130.49 359.101   1
   0  -5  -6 3070.85 574.209   1
   5  -5  -6 2433.95 421.264   2
   0   5   6 2381.47 499.244   1
   0   5  -6 3048.86 371.267   1
  -5   5   6 2489.47 443.181   1
  -5   0  -6 2309.37 503.772   1
   5   0  -6 2617.18 367.462   1
   5   0   6 2492.27 492.250   1
   0  -5   6 3007.59 471.114   2
   5  -5   6 2867.01 485.207   1
  -5   0   6 2856.44 381.998   1
   0  -5   7 1005.68 362.806   2
   5  -5  -7 971.001 285.923   2
   0   5   7 959.656 317.437   1
   5   0  -7 1178.68 267.476   1
   0  -5  -7 860.482 312.897   2
  -5   5   7 898.967 304.136   1
   0  -5  -7 872.113 358.161   1
   5  -5   7 1202.86 331.306   1
  -5   5  -7 1177.05 383.093   1
  -5   0   7 1225.94 263.852   1
   5  -5  -7 1387.98 364.191   1
   5   0   7 1540.94 433.101   1
  -5   0  -7 797.483 335.363   1
   5  -5  -8 3577.40 564.799   1
   0  -5  -8 3470.75 618.307   2
  -5   5  -8 2944.72 505.021   1
   0  -5  -8 3503.90 592.696   1
   0  -5   8 3477.68 549.398   2
   5  -5   8 3016.31 477.876   1
  -5   0  -8 3407.98 600.844   1
   5  -5  -8 3507.24 482.809   2
   0   5   8 3924.49 620.254   1
  -5   5   8 2759.46 449.114   1
   5   0   8 3734.55 625.431   1
   5  -5  -9 105070. 3321.32   1
   5  -5   9 109132. 3193.27   1
   5   0   9 97233.0 3274.62   1
  -5   5   9 100847. 3200.44   1
  -5   0  -9 108495. 3425.35   1
  -5   5  -9 99600.9 3165.65   1
   0   5   9 110510. 3463.00   1
   0  -5  -9 118824. 3592.86   1
   0  -5   9 108247. 3210.64   2
   0  -5  -9 108300. 3424.60   2
   0  -5 -11 343654. 7175.10   2
   0  -5  11 360613. 6962.82   2
  -5   0 -11 320295. 7075.94   1
  -5   5  11 357090. 6995.92   1
  -5   5 -11 354607. 6976.59   1
   5  -5  11 347946. 6779.53   1
   0   5  11 340531. 7149.74   1
   5  -5 -11 363268. 7187.25   1
   0  -5 -11 340950. 7190.45   1
   5   0  11 344230. 7101.25   1
   0  -5 -12 132664. 4119.04   1
  -5   5 -12 123558. 3778.07   1
   5  -5  12 121379. 3658.08   1
   5  -5 -12 120801. 3830.72   1
  -5   0 -12 121026. 3972.75   1
  -5   5  12 131576. 3881.27   1
   0  -5 -12 126356. 3995.96   2
   5   0  12 129162. 4007.02   1
   0   5  12 123422. 3957.91   1
  -5   5  13 227995. 5550.72   1
   5  -5 -13 214714. 5558.90   1
   0  -5 -13 234095. 5864.99   1
   0   5  13 231621. 5767.51   1
   0  -5 -13 234692. 5850.46   2
  -5   0 -13 239704. 5906.35   1
   5   0  13 235971. 5783.29   1
   5   0  14 432811. 8625.22   1
   0   5  14 446859. 8735.75   1
   0  -5 -14 395168. 8475.43   1
   0  -5 -14 453099. 8833.43   2
  -5   0 -14 419595. 8669.52   1
   5  -5 -14 428631. 8554.83   1
  -5   0 -14 419540. 8575.37   2
   0  -5 -15 51827.7 2796.24   2
   0   5  15 59321.4 2769.03   1
  -5   0 -15 50172.5 2625.22   2
  -5   0 -15 55303.7 2732.97   1
   0  -5 -15 55821.7 2743.53   1
   5   0  15 57118.3 2774.74   1
   0   5  16 3167.64 653.329   1
   5   0  16 2521.24 621.235   1
   0  -5 -16 3746.81 768.683   1
  -5   0 -16 3599.62 758.913   1
  -5   0 -16 3016.78 723.436   2
  -5   0 -17 7776.75 1081.30   2
  -5   0 -17 9194.87 1180.89   1
   0   5  17 8579.11 1133.65   1
   5   0  17 8541.91 1118.48   1
   0  -5 -17 10242.2 1232.85   1
   0   5  18 5331.52 897.451   1
  -5   0 -18 5605.58 949.032   1
   0  -5 -18 5886.64 962.006   1
  -5   0 -18 6465.15 1012.85   2
  -5   0 -19 9024.86 1221.67   2
  -3  -3 -19 242.614 240.404   1
   3   3  18 8575.80 1111.50   1
  -3  -3 -18 8410.37 1151.96   1
  -3  -3 -18 7004.64 1075.49   2
  -3  -3 -17 76.7419 257.353   1
  -3  -3 -17 61.7320 332.724   2
   3   3  17 136.400 241.874   1
  -3  -3 -16 319162. 7394.32   1
   3   3  16 292677. 7143.72   1
  -3  -3 -16 307067. 7297.63   2
  -3  -3 -15 379.698 298.737   1
  -3  -3 -15-108.982 291.891   2
   3   3  15-232.404 340.788   1
   3   3  14 251595. 6303.72   1
  -3  -3 -14 263181. 6474.71   1
  -3  -3 -14 265722. 6442.10   2
  -3  -3 -13 59.6418 214.742   1
   3   3  13 274.600 284.429   1
  -3  -3 -13-96.4967 264.198   2
   3   3  12 222507. 5495.34   1
  -3  -3 -12 207995. 5446.17   2
  -3  -3 -12 203890. 5408.05   1
  -3  -3 -11 527.640 277.289   2
  -3  -3 -11-147.227 270.148   1
   3   3  11 148.391 214.923   1
  -3  -3 -10 561789. 9830.80   1
   3  -6   9 631.939 370.378   2
   6  -3  -9 403.106 303.934   1
   3   3   9 182.216 217.831   1
  -3  -3  -9 27.8630 289.212   1
  -6   3   9 134.674 161.704   1
  -3  -3  -9 21.1091 243.585   2
  -6   3   7 366.765 203.382   1
  -3  -3  -7 567.652 280.167   2
  -3   6  -7-7.89490 183.351   1
   3  -6   7-246.874 208.705   2
  -3  -3  -7-290.019 294.569   1
   6  -3  -7-14.8537 145.620   1
   3  -6   7 41.5283 134.731   1
   3   3   7 183.388 230.825   1
  -3  -3  -6 122587. 3533.88   2
   6  -3  -6 127545. 3358.59   1
   3   3   6 119063. 3499.52   1
  -3  -3  -6 116732. 3464.51   1
   3  -6   6 113603. 3389.82   2
   3  -6   6 129073. 3158.95   1
  -6   3   6 127970. 3313.67   1
  -3   6  -6 125624. 3181.84   1
   3  -6   5 275.403 138.437   1
  -3  -3  -5 131.072 274.453   2
   3  -6   5-118.245 299.083   2
  -3  -3  -5-21.3681 204.494   1
   3   3   5 124.377 320.082   1
   6  -3  -5 24.4055 149.950   1
  -3   6  -5 208.913 148.641   1
  -6   3   5-131.273 140.981   1
   3   3   3 151.544 236.798   1
  -3  -3  -3-23.3044 227.964   1
  -3   6  -3 72.6281 180.351   1
  -6   3   3 442.715 235.880   1
   6  -3  -3 119.987 210.536   1
  -3  -3  -3 365.047 244.745   2
   3  -6   3-165.589 189.432   2
  -3  -3  -2 256497. 5169.79   2
   3  -6   2 253103. 5164.27   2
   6  -3  -2 251980. 5046.20   1
   3   3   2 249192. 5078.61   1
  -3  -3  -2 244480. 5004.90   1
   3  -6   2 245609. 4934.03   1
  -3   6  -2 238151. 4933.90   1
  -3  -3  -1 262.575 224.716   1
  -3  -3  -1-99.2808 184.035   2
  -6   3   1 181.209 219.978   1
   3   3   1 14.1128 158.952   1
  -3   6  -1 141.356 156.013   1
   6  -3  -1 83.1790 169.915   1
   3  -6   1 92.4878 255.101   2
   3  -6   1 30.3397 190.114   1
  -3  -3   0 124972. 3180.10   1
   3  -6   0 137180. 3445.55   1
  -6   3   0 132912. 3416.18   1
  -3  -3   0 129982. 3303.65   2
   3  -6   0 133584. 3484.22   2
  -3   6   0 131637. 3369.58   1
   6  -3   0 137781. 3464.76   1
   3   3   0 127742. 3253.99   1
  -3   6   1 141.068 163.718   1
   3   3  -1 209.845 139.290   1
  -3  -3   1-153.974 206.412   2
  -3  -3   1-10.0662 139.060   1
  -6   3  -1 154.010 185.009   1
   3  -6  -1 275.292 240.574   2
   6  -3   1-353.611 280.005   1
   3  -6  -1 430.764 254.273   1
   3  -6  -2 306388. 5843.20   1
   3  -6  -2 318807. 5857.23   2
  -3   6   3 295.189 202.930   1
  -3  -3   3 262.396 221.156   1
   6  -3   3 507.154 216.454   1
   3   3  -3 533.776 197.697   1
   3  -6  -3 384.188 245.427   1
  -3  -3   3 469.048 259.094   2
  -6   3  -3 429.574 173.351   1
   3  -6  -3 453.836 198.204   2
   3   3  -5 967.363 227.076   1
   3  -6  -5-143.990 244.244   1
  -3  -3   5 135.463 170.026   2
  -6   3  -5 628.550 269.427   1
  -3  -3   5 372.831 172.505   1
  -3   6   5 375.947 230.538   1
   3  -6  -5 43.1631 246.579   2
   6  -3   5 114.064 196.465   1
   3  -6  -6 70345.5 2546.05   2
   3  -6  -6 70478.9 2632.19   1
   6  -3   6 65435.6 2445.15   1
  -6   3  -6 74161.5 2645.40   1
  -3   6   6 67772.5 2556.14   1
  -3   6   7 472.571 251.335   1
   3  -6  -7 140.307 185.187   1
  -6   3  -7 303.508 291.785   1
  -3  -3   7 35.5869 119.845   2
   6  -3   7 623.800 297.213   1
   3  -6  -7 296.834 287.693   2
   3  -6  -9 170.195 171.132   2
   6  -3   9 385.085 285.843   1
  -6   3  -9 86.1170 256.271   1
  -3   6   9-95.4504 270.169   1
   3  -6  -9-150.990 241.076   1
  -6   3 -10 414152. 7985.00   1
  -3   6  10 421056. 8001.48   1
   3  -6 -10 425041. 7792.25   2
   3  -6 -10 420695. 8097.87   1
  -3   6  11 420.499 309.662   1
   6  -3  11 735.042 378.109   1
  -6   3 -11 83.6678 251.247   1
   3  -6 -11 389.930 357.587   1
  -6   3 -12 321191. 6948.29   1
   3  -6 -12 323143. 6629.34   2
   6  -3  12 315975. 6795.45   1
   3  -6 -12 318998. 6966.50   1
   3  -6 -13-56.0086 261.238   1
  -3   6  13 118.157 293.634   1
   6  -3  13 565.173 362.996   1
  -6   3 -13 139.439 224.708   1
   3  -6 -14 162401. 4920.83   1
  -6   3 -14 170922. 5037.87   1
   3  -6 -15 106.162 358.842   1
   6  -3  15-2.31278 346.063   1
  -3   6  15 245.785 304.673   1
  -6   3 -15 386.547 402.369   1
   3  -6 -16 191473. 5543.38   1
  -3   6  16 185801. 5379.71   1
   3  -6 -17-308.174 343.418   1
  -4  -2 -19 78385.8 3663.36   2
  -2  -4 -19 83524.0 3745.73   1
  -4  -2 -19 75403.0 3582.51   1
  -2  -4 -18 104846. 4095.75   1
   4   2  18 100581. 4073.33   1
  -4  -2 -18 95418.6 3867.12   2
   2   4  18 100300. 4033.91   1
  -4  -2 -18 93370.3 3943.45   1
  -4  -2 -17 18218.4 1598.07   2
  -2  -4 -17 15470.9 1525.47   1
  -4  -2 -17 15573.5 1538.04   1
   2   4  17 17452.4 1596.31   1
   4   2  17 16911.5 1519.00   1
  -2  -4 -17 14869.3 1516.15   2
  -2  -4 -16 66107.4 3122.38   1
   2   4  16 77937.8 3270.79   1
   4   2  16 72397.0 3261.33   1
  -4  -2 -16 71474.8 3217.88   2
  -2  -4 -16 72728.3 3302.55   2
  -4  -2 -16 71906.6 3218.64   1
  -2  -4 -15 16649.2 1522.76   2
  -4  -2 -15 14490.6 1410.44   2
  -4  -2 -15 15297.8 1481.08   1
   4   2  15 15508.5 1480.08   1
   2   4  15 16723.0 1471.95   1
  -2  -4 -15 15185.8 1410.40   1
   4   2  14 219360. 5731.78   1
  -2  -4 -14 225669. 5854.95   2
   2   4  14 195545. 5474.25   1
  -2  -4 -14 213721. 5656.51   1
  -4  -2 -14 206834. 5601.90   2
  -4  -2 -14 212509. 5688.22   1
  -2  -4 -13 57338.6 2726.86   2
  -2  -4 -13 52527.3 2596.96   1
  -4  -2 -13 57452.0 2678.27   1
   4   2  13 56738.1 2653.99   1
   2   4  13 53899.2 2590.53   1
  -4  -2 -13 53435.3 2616.52   2
   4   2  12 30784.4 1858.85   1
   2   4  12 25142.0 1730.55   1
  -2  -4 -12 26261.1 1763.30   1
  -4  -2 -12 25363.3 1746.38   1
  -2  -4 -12 28507.9 1878.33   2
  -4  -2 -12 26541.6 1800.73   2
  -4  -2 -11 106124. 3635.10   2
  -4  -2 -11 102613. 3607.86   1
  -6   4  11 104759. 3289.95   1
   4   2  11 115901. 3743.88   1
   2   4  11 111523. 3640.40   1
   2  -6  11 111677. 3636.21   2
  -2  -4 -11 102315. 3600.02   1
   6  -4 -11 110195. 3447.36   1
  -2  -4 -11 106213. 3615.93   2
  -6   4  10 266668. 5586.37   1
  -4   6 -10 246798. 5311.21   1
   4   2  10 246657. 5829.19   1
   2  -6  10 267724. 5949.04   2
  -2  -4 -10 251832. 5932.59   2
  -4  -2 -10 256607. 5912.34   1
   6  -4 -10 247365. 5529.10   1
   2   4  10 246378. 5780.37   1
  -2  -4 -10 271664. 6066.22   1
  -4  -2 -10 267373. 5998.35   2
  -2  -4  -9 258985. 5837.96   2
  -6   4   9 268205. 5506.01   1
   2  -6   9 247695. 5599.93   2
  -4  -2  -9 246929. 5783.08   1
  -2  -4  -9 230577. 5636.43   1
  -6   2   9 249076. 5087.40   1
   6  -2  -9 255176. 5172.17   1
  -4  -2  -9 239749. 5716.53   2
  -4   6  -9 258492. 5352.43   1
   6  -4  -9 277660. 5693.87   1
   2   4   9 255794. 5813.37   1
   4   2   9 256222. 5808.36   1
   4  -6   9 270313. 5284.72   1
   2   4   8 17438.6 1303.58   1
  -6   4   8 20450.4 1310.17   1
   4  -6   8 20641.1 1230.30   1
  -4   6  -8 19861.4 1262.05   1
   4  -6   8 20187.8 1417.98   2
   4   2   8 17639.4 1313.47   1
   6  -2  -8 20552.9 1227.13   1
  -2  -4  -8 19003.9 1395.01   1
  -6   2   8 19123.5 1151.94   1
  -4  -2  -8 18184.4 1364.46   1
  -2  -4  -8 18557.0 1347.29   2
  -4  -2  -8 17871.8 1336.97   2
   6  -4  -8 18346.3 1271.92   1
   2  -6   8 17396.6 1290.23   2
  -6   4   7 225848. 4898.35   1
   4  -6   7 224749. 4715.61   1
  -4  -2  -7 220151. 5104.33   2
  -4   6  -7 228065. 4829.98   1
   4  -6   7 211982. 5041.90   2
   6  -2  -7 225789. 4694.37   1
  -2  -4  -7 210934. 5057.73   2
   2  -6   7 229242. 4348.12   1
  -4  -2  -7 220187. 5125.30   1
  -2  -4  -7 222587. 5157.21   1
   4   2   7 221257. 5080.97   1
   2   4   7 217177. 5112.76   1
  -6   2   7 210990. 4518.68   1
  -2   6  -7 229720. 4405.45   1
   2  -6   7 219625. 4994.89   2
   6  -4  -7 220311. 4943.40   1
  -4  -2  -6 463504. 8236.84   2
  -6   4   6 462820. 7977.89   1
  -2  -4  -6 482975. 8408.20   1
  -4   6  -5 167155. 3923.05   1
   2  -6   5 156362. 3988.46   2
   2  -6   5 178483. 3741.52   1
   2   4   5 142707. 3954.09   1
   4  -6   5 169479. 3873.80   1
   6  -2  -5 160714. 3772.33   1
  -2  -4  -5 165863. 4118.11   1
  -4  -2  -5 163716. 4121.29   1
  -2  -4  -5 160217. 4124.90   2
   6  -4  -5 166559. 4033.79   1
  -4  -2  -5 161692. 4090.78   2
   4  -6   5 158296. 4093.13   2
  -6   2   5 163534. 3775.36   1
  -2   6  -5 162655. 3635.06   1
   4   2   5 168313. 4145.99   1
  -6   4   5 168497. 3995.24   1
   4  -6   4 517759. 8697.36   2
  -6   4   3 278210. 5486.40   1
   2  -6   3 287405. 5324.25   1
   4  -6   3 290461. 5507.16   1
   6  -2  -3 279206. 5398.68   1
  -4  -2  -3 296029. 5776.96   1
  -2  -4  -3 292741. 5754.09   2
   4  -6   3 289516. 5774.12   2
   6  -4  -3 258630. 5445.91   1
  -4  -2  -3 276389. 5541.81   2
   2  -6   3 285212. 5640.23   2
  -2  -4  -3 301399. 5708.92   1
  -2   6  -1 46383.1 1826.53   1
  -4   6  -1 43560.3 1828.43   1
   4  -6   1 44532.1 1892.80   1
  -2  -4  -1 43201.9 1807.29   1
   2  -6   1 47129.6 1843.92   1
  -6   2   1 41117.0 1766.72   1
  -4  -2  -1 41825.2 1777.54   1
   6  -2  -1 42337.4 1778.49   1
   6  -4  -1 39793.7 1795.27   1
   2  -6   1 45042.5 1919.64   2
   2   4   1 43675.5 1830.39   1
  -2  -4  -1 46035.4 1912.56   2
   4  -6   1 42418.0 1873.72   2
  -6   4   1 41899.5 1821.83   1
   4   2   1 42295.2 1804.31   1
  -4  -2  -1 40007.9 1731.60   2
  -2  -4   0 1375.50 308.448   2
  -4  -2   0 954.692 318.633   2
   4  -6   0 2065.34 417.085   1
   2   4   0 1189.86 336.638   1
   6  -4   0 871.712 290.995   1
   6  -2   0 828.049 237.744   1
  -2   6   0 913.041 290.178   1
  -6   4   0 1289.67 369.596   1
   4  -6   0 733.672 249.370   2
  -4   6   0 1417.55 393.240   1
  -2  -4   0 1508.64 330.617   1
   4   2   0 1051.27 240.725   1
   2  -6   0 1098.15 326.818   2
   2  -6   0 1456.78 372.225   1
  -4  -2   0 1346.14 343.611   1
  -6   2   0 1430.51 344.370   1
  -4  -2   1 14784.5 1009.38   2
   2  -6  -1 17232.6 1183.38   2
   4  -6  -1 15500.5 1133.59   1
   2  -6  -1 16521.2 1114.73   1
  -2   6   1 17026.6 1144.89   1
  -4  -2   1 18365.5 1082.24   1
  -2  -4   1 16923.0 1027.63   1
   6  -4   1 15722.5 1072.80   1
  -6   4  -1 16020.6 1123.65   1
   4   2  -1 14815.5 996.161   1
  -4   6   1 16013.7 1107.02   1
   2   4  -1 15935.6 1000.32   1
  -2  -4   1 16034.3 1092.15   2
   4  -6  -1 18435.0 1206.66   2
   6  -2   1 12894.3 995.015   1
  -6   2  -1 18889.7 1185.54   1
  -4  -2   4 813.606 269.045   2
  -2  -4   4 793.352 187.855   1
   4  -6  -4 1266.46 339.105   1
   6  -2   4 2734.58 523.053   1
  -6   2  -4 1165.11 336.527   1
  -6   4  -4 910.602 313.227   1
  -4   6   4 1248.77 389.163   1
   2  -6  -4 789.293 290.236   2
   2   4  -4 911.332 258.430   1
   2  -6  -4 897.711 281.195   1
   4   2  -4 3278.38 441.816   1
   6  -4   4 1049.17 353.682   1
  -4  -2   4 736.114 238.316   1
  -2   6   4 893.824 362.900   1
   4  -6  -4 887.323 345.519   2
  -2  -4   4 941.079 314.251   2
   4  -6  -6 444947. 7966.90   1
  -4   6   7 46348.2 2087.54   1
  -6   4  -7 45113.3 2062.37   1
   4  -6  -7 43239.3 1910.95   2
   4  -6  -7 47481.2 2131.33   1
  -2   6   7 45823.2 2079.64   1
   6  -2   7 44617.7 2025.69   1
   6  -4   7 46019.5 2009.17   1
  -2  -4   7 45280.5 1854.43   2
  -6   2  -7 45562.0 2084.53   1
   2  -6  -7 42321.8 1997.28   2
   2  -6  -7 44104.8 2085.64   1
   2  -6  -8 189356. 4651.43   2
   2  -6  -8 189113. 4786.03   1
   4  -6  -8 198968. 4514.62   2
  -2  -4   8 190992. 4196.31   2
  -4   6   8 187955. 4638.99   1
   6  -2   8 193046. 4692.27   1
  -2   6   8 188012. 4685.95   1
  -6   2  -8 187196. 4692.71   1
   6  -4   8 189231. 4561.36   1
  -6   4  -8 182553. 4632.68   1
   4  -6  -8 206776. 4932.48   1
   4  -6  -9 45431.3 2201.79   1
  -6   2  -9 48571.5 2249.91   1
  -6   4  -9 47471.6 2200.81   1
   2  -6  -9 47438.0 2193.03   2
  -2   6   9 49529.1 2232.94   1
   4  -6  -9 52167.3 2173.26   2
   2  -6  -9 49621.8 2272.78   1
   6  -4   9 49487.1 2183.79   1
  -4   6   9 40024.4 2038.85   1
   6  -2   9 49103.5 2242.12   1
   6  -2  10 387846. 7608.72   1
   2  -6 -10 412745. 7894.99   1
  -2   6  10 428016. 7857.82   1
   6  -4  10 393209. 7481.23   1
   4  -6 -10 395927. 7337.47   2
   2  -6 -10 381585. 7513.25   2
  -4   6  10 368273. 7428.23   1
   4  -6 -10 388093. 7703.55   1
  -6   4 -10 391170. 7618.33   1
  -6   2 -10 385162. 7658.56   1
  -4   6  11 119711. 3744.66   1
   6  -2  11 108982. 3620.37   1
  -2   6  11 104681. 3560.03   1
  -6   2 -11 107891. 3657.98   1
   6  -4  11 115016. 3627.79   1
  -6   4 -11 108084. 3602.44   1
   2  -6 -11 113382. 3652.95   2
   4  -6 -11 108390. 3627.88   1
   2  -6 -11 110696. 3704.44   1
  -4   6  12 29209.3 1829.43   1
   6  -4  12 35654.1 1987.33   1
   4  -6 -12 30853.7 1907.79   1
  -6   2 -12 30860.0 1924.68   1
   2  -6 -12 33332.6 1947.89   2
   2  -6 -12 32598.9 1961.60   1
  -2   6  12 30997.9 1863.83   1
  -6   4 -12 29396.0 1872.84   1
   6  -2  12 32071.4 1927.59   1
   4  -6 -13 60055.9 2764.48   1
  -2   6  13 59750.8 2717.74   1
   2  -6 -13 63151.1 2771.76   2
  -6   2 -13 60789.5 2812.59   1
  -6   4 -13 62939.1 2800.40   1
  -4   6  13 66255.5 2837.18   1
   6  -4  13 64186.9 2773.75   1
   6  -2  13 64536.9 2791.06   1
   2  -6 -13 57486.8 2730.86   1
   6  -4  14 155382. 4651.90   1
  -2   6  14 147224. 4631.22   1
  -6   4 -14 160904. 4775.72   1
   6  -2  14 159977. 4773.64   1
   4  -6 -14 157157. 4692.69   1
  -6   2 -14 153001. 4760.35   1
  -4   6  14 153732. 4634.18   1
   2  -6 -14 152474. 4705.47   1
   6  -2  15 71899.5 3149.93   1
   2  -6 -15 70473.3 3146.45   1
  -6   2 -15 69572.5 3180.16   1
   4  -6 -15 67600.8 3077.50   1
  -2   6  15 67793.9 3055.90   1
  -4   6  15 76493.1 3224.15   1
  -6   2 -16 3576.26 740.275   1
   4  -6 -16 3228.21 611.469   1
   6  -2  16 2795.97 703.586   1
  -2   6  16 3314.64 682.886   1
   2  -6 -16 2668.76 630.589   1
   2  -6 -17 55558.9 2891.23   1
  -2   6  17 46033.0 2638.48   1
  -1  -5 -19 4375.28 839.897   1
  -5  -1 -19 5018.73 912.253   2
  -5  -1 -18 70933.1 3422.57   1
  -5  -1 -18 65876.8 3246.37   2
   1   5  18 71239.0 3377.06   1
   5   1  18 72285.6 3451.94   1
  -1  -5 -18 76324.1 3446.99   1
  -5  -1 -17 12464.3 1357.80   2
  -1  -5 -17 12644.9 1388.72   1
   5   1  17 12477.0 1386.05   1
  -5  -1 -17 12797.0 1426.30   1
   1   5  17 14516.7 1420.48   1
  -1  -5 -16 4480.24 833.982   2
   5   1  16 4471.93 825.249   1
  -1  -5 -16 4141.49 799.766   1
   1   5  16 5424.10 876.036   1
  -5  -1 -16 4972.79 744.383   2
  -5  -1 -16 4995.57 866.655   1
  -5  -1 -15 89720.4 3586.03   1
  -5  -1 -15 91378.3 3622.48   2
   5   1  15 90428.0 3629.68   1
   1   5  15 95367.0 3666.87   1
  -1  -5 -15 88732.5 3595.02   1
  -1  -5 -15 92454.0 3694.68   2
   5   1  14 195414. 5442.87   1
  -1  -5 -14 193246. 5463.14   1
   1   5  14 207228. 5539.51   1
  -1  -5 -14 196699. 5531.77   2
  -5  -1 -14 207775. 5569.63   2
  -5  -1 -14 194101. 5463.52   1
  -1  -5 -13 139573. 4383.45   1
   1   5  13 134091. 4341.80   1
  -5  -1 -13 125208. 4201.95   2
   5   1  13 138187. 4358.55   1
  -5  -1 -13 133522. 4312.36   1
  -1  -5 -13 128189. 4278.59   2
  -5  -1 -12 61517.3 2740.45   2
   1   5  12 59719.6 2707.26   1
  -1  -5 -12 61135.7 2781.36   1
  -5  -1 -12 61224.8 2795.64   1
   5   1  12 60455.1 2746.47   1
  -1  -5 -12 64633.3 2836.32   2
  -6   5  11 73902.0 2836.28   1
  -5  -1 -11 75509.1 3060.69   2
   5   1  11 68090.4 2871.87   1
  -1  -5 -11 70362.5 2932.64   1
   1  -6  11 72916.3 2937.75   2
  -1  -5 -11 72059.1 2964.95   2
  -5  -1 -11 73450.5 2987.59   1
   1   5  11 75241.3 3010.24   1
  -5   6 -11 74627.4 2822.38   1
  -6   5  10 501216. 8908.59   1
  -5  -1 -10 533685. 9444.17   2
  -1  -5 -10 524913. 9371.09   1
  -5   6 -10 488671. 8811.42   1
  -5  -1 -10 506462. 9253.21   1
   1   5  10 495985. 9140.24   1
  -1  -5 -10 510691. 9291.25   2
   5  -6   9 41349.5 1922.58   1
  -6   5   9 44006.9 2069.71   1
  -5   6  -9 43104.5 2014.80   1
   5   1   9 38804.7 2063.43   1
   6  -5  -9 38249.5 2006.31   1
  -5  -1  -9 39860.5 2090.68   1
   1  -6   9 41268.5 2046.52   2
  -5  -1  -9 38018.3 2049.73   2
  -1  -5  -9 41058.6 2114.01   2
   1   5   9 41594.4 2112.65   1
  -1  -5  -9 41643.1 2090.44   1
   5   1   8 51994.7 2347.65   1
  -6   5   8 50090.8 2196.80   1
  -5  -1  -8 52925.3 2364.57   2
   6  -5  -8 53177.1 2307.65   1
  -1  -5  -8 50909.6 2344.91   2
  -5  -1  -8 55360.9 2431.62   1
   5  -6   8 56644.7 2237.39   1
  -5   6  -8 54458.5 2256.46   1
  -1  -5  -8 50587.5 2334.84   1
   1   5   8 55451.5 2423.28   1
   6  -1  -8 53509.2 1977.70   1
   1  -6   8 56244.0 2333.26   2
   6  -5  -7 203830. 4778.43   1
  -5  -1  -7 195367. 4788.98   2
  -5  -1  -7 182207. 4701.02   1
  -1  -5  -7 171641. 4581.54   2
  -5   6  -7 181112. 4445.18   1
  -1  -5  -7 185751. 4726.78   1
  -6   1   7 222763. 4293.72   1
   1   5   7 184507. 4693.54   1
   6  -1  -7 197113. 4162.39   1
   5   1   7 190512. 4745.71   1
  -6   5   7 189454. 4591.39   1
   1  -6   7 180287. 4491.92   2
   5  -6   7 188003. 4397.07   1
  -6   5   6 45878.5 2023.43   1
  -1   6  -6 48811.4 1718.17   1
   5   1   6 38585.1 1935.78   1
  -5  -1  -6 47369.8 2130.09   2
   6  -5  -6 47621.8 1763.88   2
   6  -1  -6 43306.1 1768.24   1
  -1  -5  -6 43616.8 2025.58   1
   1  -6   6 44097.4 1988.06   2
   5  -6   6 39534.0 1817.33   1
  -6   1   6 39084.3 1650.86   1
  -5  -1  -6 40091.7 1997.13   1
   6  -5  -6 35766.7 1833.80   1
   1   5   6 40190.3 1985.55   1
  -1  -5  -6 45922.4 2074.70   2
   5  -6   6 42625.4 2065.81   2
   1  -6   6 40614.3 1562.83   1
  -5   6  -6 41911.0 1932.02   1
  -5  -1  -5 269054. 5644.90   1
  -5  -1  -5 266148. 5640.91   2
  -1  -5  -5 271127. 5723.37   2
  -1   6  -5 278480. 5022.50   1
   1   5   5 261570. 5574.10   1
  -6   1   5 253921. 4998.70   1
   5   1   5 264880. 5631.61   1
   6  -5  -5 275993. 5675.13   1
  -5   6  -5 258888. 5427.24   1
  -1  -5  -5 265549. 5635.11   1
   1  -6   5 272616. 4935.29   1
  -6   5   5 254722. 5427.92   1
   1  -6   5 250808. 5382.32   2
   6  -5  -5 278028. 5124.76   2
   5  -6   5 251206. 5658.04   2
   5  -6   5 259587. 5341.49   1
  -5  -1  -4 2332.98 483.094   1
   6  -1  -4 2198.35 423.825   1
  -6   5   4 2977.48 537.818   1
  -5   6  -4 2137.10 442.756   1
  -5  -1  -4 1387.71 392.207   2
   5  -6   4 2541.59 496.757   1
   6  -5  -4 2294.43 485.664   1
  -1  -5  -4 2489.80 480.349   2
  -1   6  -4 1813.81 347.090   1
   1  -6   4 1791.00 333.986   1
  -1  -5  -4 1922.97 429.030   1
  -6   1   4 2568.56 453.006   1
   1  -6   4 1792.98 426.647   2
   5   1   4 2320.45 464.593   1
   1   5   4 2186.72 441.356   1
   5  -6   4 2938.21 538.180   2
   6  -5  -4 2127.22 381.915   2
  -6   1   4 1625.41 307.851   2
  -5  -1  -3 29198.4 1555.98   2
   6  -5  -3 28567.5 1486.13   2
  -1  -5  -3 32513.2 1650.92   2
   1  -6   3 31370.2 1420.38   1
   1   5   3 26349.1 1502.34   1
   6  -5  -3 29596.2 1593.02   1
  -1  -5  -3 26669.7 1526.01   1
   6  -1  -3 25811.9 1375.20   1
   5  -6   3 32518.5 1680.69   2
  -5   6  -3 29362.7 1543.02   1
  -6   1   3 28208.6 1279.88   2
  -1   6  -3 28317.3 1391.07   1
   1  -6   3 27436.7 1525.64   2
  -5  -1  -3 27325.6 1529.52   1
  -6   1   3 26532.8 1389.04   1
  -6   5   3 32637.6 1614.35   1
   5   1   3 28099.2 1560.53   1
   5  -6   3 30652.2 1534.77   1
   6  -5  -1 130970. 3558.45   1
  -5  -1  -1 150617. 3649.39   2
  -1   6  -1 139507. 3516.57   1
  -1  -5  -1 137371. 3545.74   1
   1   5   1 136134. 3550.64   1
   5   1   1 141008. 3613.55   1
   1  -6   1 135039. 3427.83   1
   5  -6   1 142596. 3658.48   1
  -1  -5  -1 134128. 3630.28   2
  -6   1   1 128673. 3441.90   1
   6  -1  -1 140928. 3555.42   1
   5  -6   1 143069. 3749.59   2
   6  -5  -1 159953. 3760.16   2
  -5  -1  -1 151542. 3681.41   1
  -5   6  -1 130009. 3556.76   1
   1  -6   1 147166. 3745.54   2
  -6   5   1 135794. 3614.28   1
  -5  -1   0 293913. 5661.13   1
  -1  -5   0 301017. 5696.10   1
  -6   1   0 282082. 5684.80   1
  -5  -1   0 296722. 5581.34   2
   1  -6   0 318625. 5850.63   1
   6  -5   0 312922. 5984.03   1
   1   5   0 313115. 5792.20   1
  -1   6   0 295152. 5763.52   1
   5  -6   0 309791. 5921.93   2
  -1  -5   0 304286. 5942.20   2
  -6   5   0 304456. 5902.09   1
   1  -6   0 309388. 5960.10   2
  -1  -5   2 440099. 7549.41   2
   1  -6  -3 168310. 4215.98   1
  -5   6   3 190522. 4382.07   1
   5  -6  -3 183359. 4322.45   1
   5   1  -3 181298. 3916.96   1
  -1   6   3 173024. 4224.98   1
   6  -5   3 167460. 4143.21   1
   1   5  -3 176780. 3763.60   1
   6  -1   3 180802. 4275.62   1
  -6   5  -3 174626. 4244.79   1
   5  -6  -3 170857. 4060.95   2
  -5  -1   3 166455. 3750.61   1
  -6   1  -3 172585. 4225.11   1
   1  -6  -3 178011. 4266.70   2
  -1  -5   3 175485. 4098.18   2
  -5  -1   3 173733. 3726.89   2
  -1  -5   3 187170. 3823.18   1
   5   1  -4 19083.4 1096.97   1
  -1  -5   4 21237.0 1093.73   1
   1  -6  -4 19941.0 1307.31   2
   6  -5   4 20456.9 1288.98   1
   1  -6  -4 20184.3 1328.24   1
  -5  -1   4 22793.3 1185.98   1
  -1   6   4 20983.3 1338.21   1
  -5   6   4 19973.1 1319.62   1
   6  -1   4 20091.3 1299.70   1
  -6   5  -4 17485.5 1261.14   1
  -6   1  -4 19877.4 1323.65   1
   1   5  -4 20568.7 1065.69   1
   5  -6  -4 18857.9 1207.02   2
   5  -6  -4 17769.8 1284.43   1
  -1  -5   4 18810.0 1222.70   2
  -5  -1   4 18955.4 1029.39   2
   1  -6  -5 2719.36 539.431   2
   6  -5   5 2213.56 424.550   1
  -1  -5   5 2248.21 344.551   1
  -6   1  -5 2430.18 500.371   1
   5   1  -5 1958.19 342.808   1
  -5   6   5 2220.54 460.738   1
  -5  -1   5 2199.69 371.343   1
   5  -6  -5 2750.44 452.607   2
   1  -6  -5 2167.17 487.489   1
  -5  -1   5 1960.60 321.111   2
  -1  -5   5 2281.24 485.116   2
   1   5  -5 2305.17 329.097   1
  -6   5  -5 2188.99 462.133   1
  -1   6   5 1932.95 456.099   1
   5  -6  -5 2457.50 449.859   1
   6  -1   5 1863.21 448.782   1
   5  -6  -6 188221. 4665.16   1
   1  -6  -6 190116. 4682.95   1
   6  -1   6 183411. 4548.83   1
  -6   1  -6 182195. 4561.93   1
   5   1  -6 196580. 3887.33   1
  -1   6   6 181419. 4591.46   1
   5  -6  -6 185709. 4298.32   2
  -6   5  -6 187014. 4535.74   1
  -5   6   6 189675. 4597.23   1
   6  -5   6 179365. 4375.50   1
  -1  -5   6 199831. 4478.80   2
   1  -6  -6 189671. 4627.25   2
   6  -5   7 98619.8 3088.69   1
   6  -1   7 98231.1 3220.03   1
  -1   6   7 102939. 3278.66   1
   1  -6  -7 98427.6 3269.16   1
  -6   1  -7 91460.8 3167.43   1
  -1  -5   7 95833.9 2986.94   2
  -6   5  -7 100674. 3173.22   1
   5  -6  -7 106113. 3010.04   2
  -5   6   7 91545.6 3086.45   1
   1  -6  -7 98743.7 3220.58   2
   5  -6  -7 96437.9 3184.13   1
  -5   6   8 37112.0 1895.99   1
   1  -6  -8 37162.5 1985.24   1
   5  -6  -8 34173.9 1832.65   1
   6  -1   8 36336.4 1876.57   1
   1  -6  -8 35402.0 1900.93   2
  -6   1  -8 34606.2 1902.83   1
  -1  -5   8 33748.4 1700.06   2
  -6   5  -8 36155.3 1881.05   1
  -1   6   8 33555.4 1878.97   1
   6  -5   8 36208.0 1818.85   1
   5  -6  -8 37688.9 1770.82   2
  -6   5  -9 295907. 6222.40   1
   5  -6  -9 312066. 5892.27   2
   5  -6  -9 298922. 6362.43   1
   6  -1   9 281980. 6200.22   1
   1  -6  -9 296755. 6427.29   1
  -1   6   9 289941. 6302.16   1
  -5   6   9 263807. 5970.72   1
  -6   1  -9 277117. 6245.51   1
  -1  -5   9 272520. 5803.48   2
   6  -5   9 290472. 6085.03   1
   1  -6  -9 293568. 6306.13   2
   5  -6 -10 387192. 7760.17   1
   6  -1  10 404510. 7821.93   1
   6  -5  10 423063. 7740.24   1
   1  -6 -10 382351. 7760.34   1
  -1   6  10 370916. 7674.41   1
  -5   6  10 387670. 7644.17   1
  -6   1 -10 404280. 7901.79   1
  -6   5 -10 402029. 7743.37   1
   1  -6 -10 403003. 7853.44   2
   6  -1  11 122142. 3900.35   1
  -5   6  11 133302. 3986.67   1
   1  -6 -11 134612. 4155.93   1
   6  -5  11 137493. 3973.38   1
  -6   1 -11 129652. 4062.24   1
  -1   6  11 133189. 4132.07   1
  -6   5 -11 131751. 4010.38   1
   1  -6 -11 122315. 3954.77   2
   5  -6 -11 124003. 3986.88   1
  -5   6  12 33983.1 1966.48   1
  -6   1 -12 30783.5 1960.49   1
   6  -1  12 33370.4 1976.69   1
   1  -6 -12 31429.6 1935.86   1
   5  -6 -12 33637.3 2016.32   1
   6  -5  12 35618.6 1986.82   1
  -1   6  12 30095.7 1855.58   1
  -6   5 -12 30875.1 1931.02   1
   1  -6 -12 33848.8 1994.37   2
  -5   6  13 60689.6 2720.69   1
   1  -6 -13 54009.0 2668.07   1
   6  -5  13 57024.6 2631.28   1
   1  -6 -13 61719.1 2808.35   2
  -1   6  13 55224.8 2644.48   1
  -6   5 -13 61258.6 2762.22   1
  -6   1 -13 59329.5 2814.41   1
   5  -6 -13 64476.6 2831.70   1
   6  -1  13 54715.4 2663.89   1
   1  -6 -14 237383. 6203.06   1
   6  -1  14 257720. 6337.91   1
  -5   6  14 261132. 6254.91   1
   5  -6 -14 239175. 6151.93   1
   1  -6 -14 245228. 6312.75   2
  -6   1 -14 246916. 6339.14   1
   1  -6 -15 54191.5 2780.85   1
  -1   6  15 48343.8 2611.91   1
  -6   1 -15 55326.5 2773.80   1
   5  -6 -15 55283.7 2760.50   1
   6  -1  15 56647.4 2764.13   1
  -1   6  16 28585.6 1971.85   1
   1  -6 -16 29999.6 2041.14   1
  -6   1 -16 30702.4 2135.65   1
   6  -1  16 28399.0 2050.06   1
  -6   1 -17 43192.6 2491.54   2
  -6   1 -17 46511.6 2692.07   1
  -1   6  17 45274.8 2561.34   1
   1  -6 -17 44372.0 2555.88   1
   6  -1  17 41624.0 2566.82   1
   1  -6 -18 33780.2 2331.89   1
  -6   1 -18 30558.5 2223.86   2
  -1   6  18 35074.0 2303.06   1
  -6   1 -19 10981.5 1328.88   2
   6   0  -1 6419.53 737.173   1
  -6   0   1 6274.09 683.452   2
   0  -6  -1 4432.66 615.645   2
   6  -6   1 4455.91 642.369   2
   0  -6   1 6028.65 662.526   1
   6   0   1 5706.35 717.439   1
   6  -6  -1 5432.82 714.527   1
   0  -6   1 5143.52 693.345   2
   0   6  -1 5064.62 630.163   1
   0  -6  -1 5762.03 676.878   1
   6  -6   1 4752.32 647.320   1
  -6   0  -1 6229.32 692.400   2
  -6   6   1 5195.00 662.241   1
  -6   0  -1 5793.12 698.847   1
  -6   6  -1 5684.90 694.061   1
   6  -6  -1 5836.03 694.231   2
  -6   0   1 5621.18 641.795   1
   0   6   1 5259.32 664.050   1
   0  -6  -2 1555.98 410.118   2
   6  -6  -2 1562.04 392.147   1
  -6   6  -2 1050.46 332.917   1
   6  -6   2 1426.74 377.266   1
  -6   0   2 1484.57 362.631   2
  -6   6   2 1236.48 363.650   1
   0  -6   2 902.414 240.234   2
   6   0  -2 1690.54 372.964   1
   6   0   2 1872.52 410.150   1
   0  -6  -2 1827.69 394.243   1
   0   6   2 2386.94 471.477   1
  -6   0  -2 2052.64 446.819   2
  -6   0   2 1485.83 367.628   1
   6  -6   2 1005.70 335.483   2
   6  -6  -2 1544.81 427.379   2
  -6   0  -2 1418.48 392.654   1
   0   6  -2 1360.65 329.083   1
   6  -6  -3 12779.7 1064.31   1
  -6   6   3 12903.8 1077.40   1
  -6   0   3 13727.0 954.155   2
   0  -6   3 15097.5 1022.15   1
   6  -6  -3 12136.9 1010.09   2
   6  -6   3 14641.5 1186.97   2
   0   6   3 12351.4 1066.73   1
   0   6  -3 14038.7 996.821   1
   0  -6  -3 13367.7 1095.75   1
  -6   6  -3 10880.7 987.566   1
   0  -6   3 13882.4 1102.93   2
  -6   0   3 17049.4 1111.36   1
   6  -6   3 14127.6 1099.70   1
   6   0  -3 14507.7 1036.54   1
   0  -6  -3 12318.0 1071.12   2
  -6   0  -3 15200.3 1172.98   1
   6   0   3 14112.6 1124.45   1
   6  -6  -4 290226. 6241.97   1
   0  -6  -4 305074. 6324.17   1
  -6   6  -4 313781. 6299.68   1
  -6   6   4 310672. 6269.60   1
   6  -6   4 300905. 6160.80   1
   0  -6   4 331873. 6325.87   2
   0   6   4 305379. 6299.55   1
  -6   0  -4 309576. 6345.24   1
   6  -6  -4 349306. 6233.04   2
  -6   0   4 343671. 6001.08   1
   0  -6  -4 325787. 6468.23   2
   0   6   5 2342.44 504.340   1
   0  -6  -5 2550.75 485.180   2
   6  -6  -5 2366.07 537.204   1
   0  -6   5 2491.70 410.711   1
   0  -6  -5 2496.03 541.686   1
  -6   6   5 3221.31 550.310   1
   6   0  -5 2756.55 427.769   1
   0   6  -5 3061.70 435.138   1
   6  -6   5 2752.76 501.454   1
  -6   6  -5 2935.79 470.988   1
   6   0   5 2260.77 462.150   1
  -6   0  -5 2937.12 589.375   1
   6  -6  -5 2960.43 470.650   2
  -6   0   5 2395.27 412.154   1
   0  -6   5 1965.26 453.045   2
  -6   6  -6 7060.46 803.684   1
   6  -6   6 8388.25 857.114   1
  -6   6   6 7524.04 820.347   1
   0  -6  -6 6831.41 855.620   1
   6   0  -6 8172.20 746.100   1
   0   6   6 6883.79 831.602   1
  -6   0  -6 7685.52 897.578   1
  -6   0   6 8184.75 745.712   1
   6  -6  -6 8382.30 817.864   2
   0  -6  -6 7514.21 855.817   2
   6   0   6 6659.46 828.323   1
   0  -6   6 8229.15 839.384   2
   6  -6   7 6399.12 790.517   1
   0  -6  -7 4886.61 714.423   1
   6  -6  -7 5772.98 669.983   2
   0  -6  -7 5287.28 777.094   2
  -6   6   7 5316.12 723.101   1
  -6   6  -7 4997.90 693.457   1
   0  -6   7 5477.57 714.104   2
   6   0   7 4671.85 692.366   1
   0   6   7 3833.50 605.320   1
   6  -6  -7 4633.43 699.200   1
  -6   0  -7 4336.10 688.771   1
   0  -6  -8 540636. 9542.43   2
   6  -6  -8 532613. 9419.22   1
   0  -6  -8 553926. 9653.80   1
   0   6   8 517448. 9396.04   1
  -6   0  -8 553455. 9599.73   1
   6  -6  -9 3176.99 580.790   1
  -6   0  -9 3962.99 642.772   1
   0  -6  -9 3256.58 674.441   1
   0   6   9 3435.29 639.421   1
  -6   6   9 3626.51 626.954   1
   6   0   9 3202.62 600.670   1
   0  -6   9 4502.43 700.122   2
   6  -6   9 3603.86 570.049   1
   0  -6  -9 4565.35 755.920   2
  -6   6  -9 3404.15 618.016   1
   0   6  10 1079.18 352.520   1
  -6   6  10 1432.27 420.718   1
   6  -6 -10 1694.04 501.670   1
   6  -6  10 1425.28 400.041   1
   0  -6 -10 1306.66 479.860   1
   6   0  10 1626.61 525.515   1
  -6   0 -10 2532.30 589.662   1
   0  -6 -10 751.244 305.324   2
   0  -6  10 1846.05 409.576   2
  -6   6 -10 1891.16 484.628   1
  -6   6 -11 1397.93 415.552   1
  -6   0 -11 1670.44 467.608   1
   6  -6 -11 1242.08 347.647   1
   0   6  11 1957.66 505.625   1
   0  -6 -11 1954.89 523.144   2
   0  -6 -11 1418.07 415.790   1
   6  -6  11 1523.42 419.901   1
   6   0  11 1610.55 512.574   1
  -6   6  11 1125.80 404.484   1
   6   0  12 518344. 9810.99   1
   6  -6 -12 541745. 9954.05   1
  -6   6  12 527667. 9722.99   1
   0  -6 -12 513722. 9898.52   1
   0   6  12 532026. 9835.95   1
   0  -6 -12 548041. 10149.1   2
  -6   0 -12 526772. 9992.55   1
   0  -6 -13 900.653 430.503   2
   0  -6 -13 956.145 442.094   1
   6  -6 -13 482.376 365.021   1
  -6   6  13 298.661 207.885   1
   0   6  13 271.214 234.162   1
   6   0  13 716.772 344.056   1
  -6   0 -13 154.238 299.095   1
  -6   0 -13 125.570 262.456   2
   0  -6 -14 591.181 423.574   2
   6  -6 -14 546.210 284.870   1
   0   6  14 386.505 327.032   1
  -6   0 -14 150.922 278.702   2
  -6   0 -14 688.600 406.434   1
   0  -6 -14 665.626 267.856   1
   6   0  14 351.319 289.030   1
   0  -6 -15 867.694 337.994   2
  -6   0 -15 528.644 363.598   2
   0   6  15 102.585 252.301   1
   6   0  15 722.225 421.259   1
  -6   0 -15-149.198 265.014   1
   0  -6 -15 189.728 272.951   1
   0  -6 -16 196472. 5635.71   1
  -6   0 -16 195897. 5698.94   1
  -6   0 -16 187281. 5461.98   2
   6   0  16 182641. 5460.85   1
   0  -6 -17 1064.50 383.001   1
   6   0  17 1164.10 391.745   1
  -6   0 -17 1213.68 503.583   1
   0   6  17 1356.00 507.054   1
  -6   0 -17 2493.09 674.585   2
  -6   0 -18 1189.00 533.758   1
   0  -6 -18 818.589 434.931   1
  -6   0 -18 457.354 293.536   2
   0   6  18 1516.40 548.952   1
   6   0  18 734.115 466.018   1
  -4  -3 -18 168006. 5339.01   1
  -3  -4 -18 178341. 5512.32   1
   3   4  18 172225. 5454.59   1
   4   3  18 164361. 5306.11   1
  -4  -3 -18 162041. 5334.50   2
  -3  -4 -18 159636. 5343.44   2
  -3  -4 -17 71725.0 3396.81   2
  -3  -4 -17 80106.0 3516.97   1
  -4  -3 -17 78070.6 3480.29   1
  -4  -3 -17 74609.4 3412.68   2
   3   4  17 75804.3 3420.53   1
   4   3  17 75960.8 3403.93   1
  -3  -4 -16 87704.1 3705.02   2
  -4  -3 -16 95987.3 3825.20   1
  -4  -3 -16 85599.6 3614.85   2
   4   3  16 85538.7 3606.26   1
  -3  -4 -16 90751.7 3703.66   1
   3   4  15 5103.82 838.892   1
  -4  -3 -15 4076.49 779.160   2
   4   3  15 4419.06 812.230   1
  -3  -4 -15 4715.33 769.080   1
  -4  -3 -15 5113.82 799.218   1
  -3  -4 -15 4801.12 851.244   2
  -3  -4 -14 172195. 5262.67   2
   3   4  14 192889. 5398.88   1
  -4  -3 -14 192139. 5423.27   2
   4   3  14 191578. 5408.13   1
  -3  -4 -14 188124. 5344.91   1
  -4  -3 -14 184213. 5341.97   1
  -4  -3 -13 6488.76 960.641   2
   4   3  13 5411.31 844.629   1
   3   4  13 6278.13 883.655   1
  -3  -4 -13 5710.38 910.162   1
  -3  -4 -13 5496.31 918.359   2
  -4  -3 -13 6109.16 884.913   1
   4   3  12 9448.04 1100.45   1
  -4  -3 -12 8509.78 1023.82   2
  -4  -3 -12 8600.42 1080.92   1
  -3  -4 -12 10195.9 1153.61   1
  -3  -4 -12 8535.70 1081.38   2
   3   4  12 8199.26 1041.57   1
  -4  -3 -11 129595. 4160.29   2
  -3  -4 -11 135375. 4228.01   2
  -3  -4 -11 120348. 4056.91   1
  -4  -3 -11 124804. 4087.13   1
   4   3  11 130472. 4111.19   1
   3   4  11 126857. 4116.87   1
  -3  -4 -10 62758.9 2777.49   2
  -4  -3 -10 69168.8 2907.89   2
  -7   4  10 73339.7 2714.22   1
   7  -4 -10 65217.1 2644.83   1
  -3  -4 -10 69754.5 2882.99   1
  -4  -3 -10 67413.6 2874.99   1
   3   4  10 64674.8 2806.69   1
   3  -7  10 67114.6 2912.73   2
   4   3  10 67241.0 2839.79   1
  -4  -3  -9 215054. 5485.63   2
   3  -7   9 237550. 5631.23   2
  -3  -4  -9 251222. 5828.38   1
   7  -4  -9 259782. 5610.56   1
  -4  -3  -9 228912. 5589.70   1
   7  -3  -9 229468. 5190.40   1
   3   4   9 224937. 5566.25   1
   4   3   9 237640. 5662.58   1
  -7   3   9 227740. 5158.83   1
  -3  -4  -9 225477. 5641.81   2
  -7   4   9 249211. 5415.26   1
   4  -7   9 234999. 5684.52   2
  -4  -3  -8 3197.79 622.098   1
  -4  -3  -8 3001.14 573.248   2
  -4   7  -8 2904.45 494.490   1
   3   4   8 2439.50 524.026   1
   7  -4  -8 3082.44 569.975   1
   4   3   8 2766.18 538.612   1
   4  -7   8 2435.02 440.812   1
  -3  -4  -8 2773.52 581.618   1
   7  -3  -8 3450.48 516.719   1
  -3  -4  -8 4084.97 663.631   2
   3  -7   8 2260.00 521.107   2
  -7   4   8 2408.92 523.940   1
   4  -7   8 2613.79 559.837   2
  -7   3   8 3358.83 563.076   1
   4  -7   7 231896. 5404.55   2
  -3  -4  -7 217268. 5295.44   2
  -7   3   7 247056. 5165.52   1
   4   3   7 207731. 5213.41   1
   7  -3  -7 215225. 4935.20   1
  -3   7  -7 222552. 4772.54   1
  -4  -3  -7 198483. 5165.53   1
   4  -7   7 233303. 4930.98   1
   7  -4  -7 213606. 5042.47   1
   3  -7   7 210593. 5137.46   2
   3   4   7 230396. 5396.06   1
  -7   4   7 213392. 4961.31   1
   3  -7   7 225237. 4753.56   1
  -4  -3  -7 218788. 5327.01   2
  -4   7  -7 233684. 5016.43   1
  -3  -4  -7 223438. 5312.82   1
  -3   7  -5 153271. 3807.84   1
  -3  -4  -5 156986. 4164.55   2
  -4  -3  -5 151311. 4097.09   2
  -7   4   5 149212. 3925.00   1
   7  -3  -5 152436. 3894.59   1
  -3  -4  -5 145283. 4024.26   1
  -4  -3  -5 147304. 4070.64   1
   4  -7   5 145729. 3759.64   1
   3   4   5 142848. 4013.11   1
  -7   3   5 144906. 3781.01   1
   7  -4  -5 137115. 3833.78   1
   4  -7   5 150891. 4089.66   2
   3  -7   5 154048. 3767.37   1
   3  -7   5 140794. 3961.19   2
  -4   7  -5 146881. 3866.01   1
   4   3   5 151291. 4113.87   1
  -4  -3  -4 388310. 7269.54   2
   3  -7   4 368705. 7191.18   2
  -3  -4  -4 392838. 7301.99   1
   3  -7   4 394844. 6895.55   1
   4  -7   4 375121. 7205.61   2
   7  -4  -4 391722. 7127.21   1
  -3  -4  -4 395137. 7343.98   2
  -4  -3  -4 378517. 7219.92   1
   4   3   4 363507. 7111.79   1
   4   3   3 53093.6 2219.77   1
  -3   7  -3 51893.0 2099.55   1
   3  -7   3 55810.0 2306.89   2
   4  -7   3 50927.6 2091.45   1
   7  -3  -3 54513.8 2196.52   1
   3  -7   3 54059.1 2117.80   1
   4  -7   3 52802.7 2267.50   2
  -4  -3  -3 52575.4 2224.59   1
  -3  -4  -3 50323.0 2173.64   1
   7  -4  -3 51321.4 2133.27   1
   3   4   3 51421.1 2211.82   1
  -4  -3  -3 54606.3 2285.40   2
  -3  -4  -3 57310.5 2332.13   2
  -7   3   3 56914.1 2192.12   1
  -7   4   3 49406.7 2110.46   1
  -4   7  -3 48477.7 2096.67   1
   3  -7   2 392584. 7159.91   2
  -4  -3  -2 383429. 6959.70   1
   4  -7   2 375073. 7070.98   2
  -3   7  -2 377135. 6860.18   1
  -3  -4  -2 370320. 6889.57   1
   3  -7   2 375749. 6831.51   1
   7  -4  -2 380475. 6987.59   1
  -3  -4  -2 364307. 6975.16   2
  -4  -3  -1 49485.9 2088.80   2
  -4   7  -1 53189.9 2159.79   1
  -7   3   1 58438.0 2261.79   1
   3  -7   1 51284.0 2132.29   1
   4  -7   1 54698.5 2262.83   2
   7  -4  -1 53034.6 2202.33   1
   7  -3  -1 51855.8 2141.86   1
  -3  -4  -1 55075.3 2158.50   1
  -4  -3  -1 53580.6 2144.84   1
   3  -7   1 51806.2 2201.23   2
   3   4   1 51482.7 2128.59   1
   4  -7   1 53675.7 2175.63   1
  -7   4   1 58200.6 2280.50   1
   4   3   1 51974.8 2139.42   1
  -3   7  -1 49197.8 2091.26   1
  -3  -4  -1 56320.0 2221.15   2
   7  -3   0 16638.3 1190.50   1
   3  -7   0 15613.4 1189.04   2
  -4   7   0 16404.1 1208.56   1
  -3   7   0 15353.3 1140.51   1
   3  -7   0 16884.8 1212.40   1
   3   4   0 18034.5 1210.74   1
  -3  -4   0 16600.2 1144.71   1
   7  -4   0 16710.2 1182.57   1
  -4  -3   0 15787.6 1114.83   1
  -7   4   0 15451.3 1154.38   1
   4  -7   0 16780.8 1189.40   1
  -7   3   0 16673.3 1197.52   1
   4  -7   0 16242.3 1214.57   2
   4   3   0 17355.8 1186.65   1
  -4  -3   0 15867.5 1164.67   2
  -3  -4   0 16379.5 1165.02   2
   4   3  -1 96433.6 2885.64   1
  -7   3  -1 99189.6 3059.25   1
   4  -7  -1 90812.4 3021.09   2
   3  -7  -1 95462.6 3047.93   2
   4  -7  -1 96700.7 3053.17   1
  -3   7   1 91266.5 2986.07   1
  -7   4  -1 93735.0 2991.50   1
   7  -4   1 103118. 3113.26   1
   7  -3   1 94341.0 2995.08   1
  -3  -4   1 97382.9 2860.12   1
  -4  -3   1 106449. 2942.73   1
   3   4  -1 94947.2 2848.87   1
  -3  -4   1 96350.5 2983.31   2
   3  -7  -1 92624.8 2982.32   1
  -4  -3   1 98132.3 2958.98   2
  -4   7   1 92797.0 3023.58   1
   4  -7  -2 159148. 4126.88   1
   7  -4   2 150504. 3991.78   1
   3  -7  -2 162360. 4146.44   2
   3  -7  -2 158497. 4084.19   1
  -4   7   2 151640. 4020.21   1
  -3   7   2 152497. 4034.79   1
  -3  -4   2 166121. 3766.73   1
  -4  -3   2 169174. 3822.50   1
  -3  -4   2 157031. 3908.61   2
   4   3  -2 147885. 3721.70   1
   3   4  -2 171979. 3868.39   1
  -4  -3   2 157319. 3837.23   2
   4  -7  -2 157722. 4080.86   2
  -7   4  -2 148267. 3989.02   1
   7  -3   2 153724. 4007.12   1
  -7   3  -2 149990. 3979.97   1
   4  -7  -3 229093. 5234.98   2
   7  -4   3 235957. 5259.80   1
  -3  -4   3 243777. 5067.01   2
   4  -7  -3 233462. 5324.59   1
  -4   7   3 237640. 5284.42   1
   3  -7  -3 233401. 5267.92   2
  -3   7   3 238157. 5298.46   1
  -3  -4   3 258220. 4887.53   1
  -4  -3   3 253985. 4851.38   1
   3   4  -3 249740. 4844.70   1
   7  -3   3 237470. 5245.65   1
  -7   4  -3 230146. 5274.12   1
  -7   3  -3 255017. 5423.90   1
  -4  -3   3 249918. 5034.24   2
   3  -7  -3 232978. 5276.05   1
   4   3  -3 249103. 4881.63   1
   4   3  -4 11157.4 841.962   1
   4  -7  -4 9527.73 931.451   1
   7  -3   4 10467.8 989.348   1
  -3   7   4 10784.2 997.030   1
   7  -4   4 8688.93 868.739   1
  -3  -4   4 9037.94 745.487   1
  -4  -3   4 9468.87 760.557   1
  -7   4  -4 8421.64 873.273   1
  -7   3  -4 10347.8 1000.75   1
   3   4  -4 10619.9 797.013   1
  -3  -4   4 9828.52 862.263   2
   4  -7  -4 9718.44 924.034   2
  -4   7   4 9477.72 949.358   1
   3  -7  -4 10251.4 963.734   1
   3  -7  -4 11212.7 1046.18   2
  -4  -3   4 10518.9 873.394   2
   3  -7  -5 476229. 8473.53   2
   4  -7  -5 484949. 8653.62   1
   4  -7  -7 176467. 4603.83   1
  -4   7   7 173706. 4558.56   1
  -3   7   7 185118. 4697.60   1
   7  -3   7 176794. 4557.95   1
  -3  -4   7 180452. 4172.06   2
   7  -4   7 175111. 4499.70   1
  -7   3  -7 179421. 4673.93   1
   4  -7  -7 181341. 4551.34   2
  -7   4  -7 169647. 4604.50   1
   3  -7  -7 179958. 4595.82   2
   3  -7  -7 176241. 4652.91   1
   7  -4   8 248109. 5677.96   1
  -4   7   8 263587. 5895.71   1
   4  -7  -8 263913. 5936.18   1
   3  -7  -8 249646. 5830.67   1
  -3   7   8 246986. 5770.88   1
  -7   3  -8 248790. 5776.57   1
   7  -3   8 257171. 5752.91   1
  -7   4  -8 250115. 5800.32   1
   3  -7  -8 253024. 5756.22   2
   4  -7  -8 257310. 5737.07   2
   3  -7  -9 1982.45 462.653   2
   7  -3   9 1332.94 404.726   1
   4  -7  -9 2302.35 507.727   1
  -7   3  -9 1504.21 477.568   1
   7  -4   9 2121.10 468.087   1
  -4   7   9 1862.78 519.002   1
   3  -7  -9 1158.99 365.885   1
   4  -7  -9 1732.71 483.640   2
  -7   4  -9 2135.04 488.919   1
  -3   7   9 575.527 327.835   1
   7  -3  10 276691. 6265.10   1
  -4   7  10 283285. 6393.18   1
  -3   7  10 287452. 6415.53   1
   4  -7 -10 276587. 6237.04   2
   7  -4  10 296498. 6414.79   1
   4  -7 -10 278493. 6448.06   1
   3  -7 -10 296715. 6594.45   1
  -7   3 -10 286795. 6497.43   1
  -7   4 -10 281737. 6432.24   1
   3  -7 -10 292914. 6437.08   2
   3  -7 -11 21039.9 1600.36   1
   4  -7 -11 27177.5 1791.91   1
   7  -3  11 22395.8 1597.38   1
  -3   7  11 21802.8 1606.27   1
   4  -7 -11 22516.4 1576.75   2
  -4   7  11 22361.2 1622.18   1
  -7   3 -11 21977.5 1642.26   1
   7  -4  11 24363.7 1655.48   1
  -7   4 -11 23717.8 1687.19   1
   3  -7 -11 23952.1 1672.57   2
   3  -7 -12 9855.08 1146.76   1
   4  -7 -12 11548.0 1212.15   1
  -3   7  12 11376.5 1164.47   1
  -4   7  12 14235.4 1268.04   1
   7  -4  12 15777.1 1369.49   1
  -7   3 -12 11474.0 1213.80   1
  -7   4 -12 13527.9 1295.26   1
   3  -7 -12 10586.2 1158.57   2
   7  -3  12 11107.2 1168.69   1
   3  -7 -13 131658. 4355.31   1
   7  -4  13 131614. 4280.64   1
  -4   7  13 129098. 4252.04   1
  -3   7  13 128817. 4265.99   1
  -7   4 -13 135614. 4396.76   1
   7  -3  13 139333. 4363.61   1
   4  -7 -13 124590. 4191.05   1
  -7   3 -13 127917. 4262.25   1
   7  -3  14 45712.5 2486.73   1
   4  -7 -14 45868.0 2525.43   1
   3  -7 -14 42147.3 2432.13   1
  -4   7  14 41658.0 2339.54   1
  -7   3 -14 40393.4 2392.11   1
  -7   4 -14 44715.3 2478.74   1
   7  -4  14 42291.6 2410.16   1
  -3   7  14 42377.9 2396.19   1
   3  -7 -15 86282.4 3577.38   1
   4  -7 -15 87232.2 3591.60   1
   7  -3  15 87585.0 3604.56   1
  -4   7  15 82660.9 3472.87   1
  -7   3 -15 86245.3 3598.90   1
   7  -4  15 74195.6 3298.44   1
  -7   4 -15 96178.7 3779.20   1
  -3   7  15 82534.0 3418.01   1
   3  -7 -16 2114.89 553.723   1
   4  -7 -16 1395.60 503.846   1
  -4   7  16 2199.70 590.442   1
  -3   7  16 2027.68 551.349   1
   7  -3  16 1939.54 604.002   1
  -7   3 -16 1404.89 502.118   1
   4  -7 -17 46290.1 2658.02   1
   3  -7 -17 43940.7 2611.07   1
  -3   7  17 41199.3 2482.32   1
   5   2  18 720.051 415.076   1
  -5  -2 -18 323.775 272.514   2
  -2  -5 -18 189.183 408.889   1
  -5  -2 -18 252.940 355.700   1
   2   5  18 206.611 344.164   1
   5   2  17 6497.19 989.539   1
  -2  -5 -17 5555.66 983.714   2
  -2  -5 -17 6331.08 1002.35   1
  -5  -2 -17 5697.25 964.314   1
  -5  -2 -17 6617.03 1001.40   2
   2   5  17 5572.56 926.938   1
  -2  -5 -16 331962. 7693.34   1
   5   2  16 308329. 7513.55   1
  -5  -2 -16 310332. 7503.39   1
   2   5  16 317825. 7506.57   1
  -2  -5 -16 301095. 7475.39   2
  -5  -2 -16 323873. 7533.35   2
  -5  -2 -15 2334.37 586.890   2
  -2  -5 -15 2293.55 504.411   2
   5   2  15 2799.34 683.202   1
  -2  -5 -15 2615.13 698.254   1
  -5  -2 -15 2461.21 556.046   1
   2   5  15 3180.41 707.193   1
  -5  -2 -14 4118.43 734.331   2
  -2  -5 -14 4022.36 743.869   1
   5   2  14 4031.68 763.864   1
  -2  -5 -14 3325.60 725.038   2
  -5  -2 -14 3842.63 732.452   1
   2   5  14 4612.59 827.880   1
   2   5  13 1087.96 430.036   1
  -5  -2 -13 332.036 221.254   2
   5   2  13 506.318 319.631   1
  -2  -5 -13-80.9280 298.229   1
  -5  -2 -13 606.069 342.484   1
  -2  -5 -13 491.851 362.554   2
  -2  -5 -12 154207. 4701.67   1
   7  -5 -12 154487. 4580.55   1
  -5  -2 -12 158337. 4766.47   1
  -2  -5 -12 165213. 4828.50   2
   2   5  12 164143. 4828.56   1
   5   2  12 143128. 4546.20   1
  -5  -2 -12 168023. 4806.15   2
  -7   5  11 1063.70 414.194   1
   2   5  11 893.394 370.129   1
  -5  -2 -11 1394.15 448.090   2
   2  -7  11 1331.18 445.848   2
  -2  -5 -11 1237.22 518.067   2
   7  -5 -11 1022.89 416.459   1
   5   2  11 993.007 440.720   1
  -2  -5 -11 1359.21 430.973   1
  -5  -2 -11 1274.60 444.284   1
  -7   5  10 21736.7 1533.63   1
   2  -7  10 22626.6 1583.61   2
  -2  -5 -10 20403.6 1585.80   2
   7  -5 -10 23139.7 1564.01   1
  -2  -5 -10 22494.1 1599.35   1
  -5  -2 -10 20939.0 1546.22   1
   5   2  10 18205.2 1509.78   1
   2   5  10 21013.3 1548.37   1
  -5  -2 -10 21567.8 1581.72   2
  -7   5   9 7329.68 853.560   1
  -2  -5  -9 6489.91 860.678   2
  -5  -2  -9 6960.04 903.321   2
   2  -7   9 7010.63 871.558   2
   5  -7   9 7950.35 854.247   1
   7  -5  -9 8580.10 921.694   1
  -2  -5  -9 6414.81 892.995   1
   5   2   9 5110.40 750.131   1
   2   5   9 6305.31 870.153   1
  -5  -2  -9 6731.10 882.331   1
  -5   7  -9 7468.74 876.149   1
   7  -5  -7 2052.39 490.500   1
  -5   7  -7 1239.69 350.862   1
  -5  -2  -7 1913.07 453.957   2
   2   5   7 1636.15 461.663   1
  -7   2   7 2183.85 450.419   1
  -2  -5  -7 2296.18 548.403   2
  -7   5   7 3336.46 560.323   1
  -2  -5  -7 1716.83 431.988   1
   5   2   7 1580.24 442.705   1
   5  -7   7 1684.98 391.574   1
   7  -2  -7 2402.28 462.416   1
   5  -7   7 1993.79 485.325   2
   2  -7   7 2493.37 469.924   2
  -5  -2  -7 2352.93 542.731   1
  -5  -2  -6 10985.3 1042.07   2
   2   5   6 13159.7 1146.58   1
   7  -5  -6 12480.7 1087.82   1
  -2   7  -6 13966.5 997.083   1
   5   2   6 10541.3 1034.81   1
   5  -7   6 14657.9 1216.82   2
  -2  -5  -6 11782.7 1108.44   1
   2  -7   6 15601.2 1240.94   2
  -5  -2  -6 12161.7 1099.98   1
  -7   2   6 11666.2 965.174   1
   5  -7   6 12351.9 1043.60   1
   7  -2  -6 12433.6 1011.94   1
   2  -7   6 11922.6 937.211   1
  -5   7  -6 13810.6 1099.18   1
  -2  -5  -6 13210.3 1189.36   2
  -7   5   6 12186.4 1076.17   1
  -5  -2  -5 26993.6 1615.69   2
   5  -7   5 25820.2 1514.92   1
  -7   5   5 23608.9 1494.75   1
   5   2   5 25808.3 1596.91   1
  -5   7  -5 25731.9 1534.00   1
  -2  -5  -5 26146.5 1594.66   1
  -5  -2  -5 26588.0 1629.69   1
  -7   2   5 28122.9 1522.45   1
   2   5   5 27068.8 1646.68   1
   5  -7   5 23573.4 1572.58   2
   2  -7   5 26731.8 1594.60   2
   7  -5  -5 20941.1 1425.71   1
  -2   7  -5 27569.2 1435.83   1
  -2  -5  -5 26704.5 1655.75   2
   7  -2  -5 26941.5 1486.16   1
  -7   2   3 1975.14 417.244   1
   7  -2  -3 1788.87 367.908   1
  -2   7  -3 1693.68 405.529   1
   2  -7   3 1713.72 409.732   2
   5  -7   3 1950.66 461.683   2
   2   5   3 1707.41 402.445   1
   5  -7   3 2686.12 524.998   1
   7  -5  -3 2282.58 484.042   1
   2  -7   3 2044.24 402.450   1
  -5   7  -3 2721.06 515.651   1
  -2  -5  -3 1013.42 324.191   1
  -5  -2  -3 2350.24 438.721   2
   5   2   3 2048.16 451.847   1
  -5  -2  -3 1959.67 461.300   1
  -7   5   3 2271.69 497.656   1
  -2  -5  -3 1986.70 469.042   2
  -5   7  -2 1511.21 372.219   1
  -2  -5  -2 1900.86 477.361   2
  -5  -2  -2 1387.55 330.314   2
   7  -2  -2 992.862 342.059   1
   2  -7   2 1211.74 360.505   1
   2   5   2 1276.49 354.443   1
  -2   7  -2 995.147 312.315   1
  -2  -5  -2 1221.09 386.927   1
   5   2   2 1187.26 393.827   1
  -5  -2  -2 948.608 312.591   1
   2  -7   2 500.296 240.393   2
   5  -7   2 795.661 413.189   2
   7  -5  -2 1219.79 366.156   1
   5  -7   2 545.998 212.828   1
  -7   5   2 887.705 301.948   1
  -7   2   2 1071.89 340.624   1
  -2  -5  -1 377.499 260.088   2
   2   5   1-25.1431 183.380   1
  -7   5   1 416.706 250.597   1
   2  -7   1 366.267 212.755   1
  -2  -5  -1 174.137 219.413   1
  -2   7  -1 190.868 240.029   1
   5   2   1 490.465 276.326   1
   5  -7   1 260.950 187.692   1
  -5  -2  -1 515.658 338.356   1
   2  -7   1 441.819 233.886   2
  -7   2   1 512.922 284.771   1
   5  -7   1 440.336 204.517   2
  -5  -2  -1 314.486 273.193   2
   7  -2  -1 361.442 224.110   1
  -5   7  -1 525.464 280.276   1
   7  -5  -1 668.299 251.702   1
   2   5  -1 1971.69 391.377   1
  -5  -2   1 1551.41 406.210   2
  -7   5  -1 1310.22 380.972   1
   5  -7  -1 1820.84 459.054   1
   2  -7  -1 1508.09 411.140   1
  -5   7   1 1995.15 462.332   1
  -2  -5   1 1132.78 334.782   1
  -2  -5   1 1248.27 353.791   2
  -2   7   1 1610.51 456.808   1
   7  -5   1 1381.80 432.326   1
   5   2  -1 1383.67 328.998   1
  -5  -2   1 2962.34 510.685   1
   2  -7  -1 1418.73 389.774   2
   7  -2   1 1672.81 406.377   1
   5  -7  -1 1986.01 472.366   2
  -7   2  -1 2520.21 486.573   1
   2   5  -2 829.960 253.214   1
   5  -7  -2 1378.86 395.951   1
   2  -7  -2 1078.56 389.360   1
  -2  -5   2 1522.79 405.842   2
  -7   5  -2 1464.44 396.144   1
  -2  -5   2 1132.25 347.891   1
   7  -5   2 1357.04 329.813   1
   2  -7  -2 921.429 365.113   2
  -2   7   2 1218.72 337.679   1
   5   2  -2 1131.57 371.984   1
  -5  -2   2 1226.64 362.158   1
   7  -2   2 1242.62 380.665   1
   5  -7  -2 1235.65 394.948   2
  -5  -2   2 1056.70 335.262   2
  -7   2  -2 1255.95 375.991   1
  -5   7   2 1655.62 442.945   1
   7  -5   3 6104.09 726.766   1
   5   2  -3 5670.29 642.342   1
  -2  -5   3 5690.48 633.824   1
  -2   7   3 5628.26 745.373   1
   2  -7  -3 5375.74 720.045   1
  -5   7   3 6729.40 741.760   1
   2  -7  -3 6473.85 772.424   2
  -5  -2   3 5394.64 642.293   1
   2   5  -3 5997.64 660.397   1
   7  -2   3 6233.99 730.026   1
  -7   2  -3 5884.74 762.770   1
  -7   5  -3 6838.72 809.088   1
  -2  -5   3 6128.68 762.615   2
   5  -7  -3 7650.02 822.492   1
   5  -7  -3 6184.25 735.491   2
  -5  -2   3 5539.23 628.415   2
   2   5  -4 528317. 8104.66   1
   5  -7  -4 524146. 8791.65   2
   2  -7  -4 519570. 8936.86   2
   7  -5   5 9944.45 940.222   1
   5  -7  -5 8368.34 880.909   2
  -5   7   5 9214.73 928.926   1
   5  -7  -5 9593.67 983.613   1
   2  -7  -5 11809.4 1060.95   1
   5   2  -5 11388.6 857.699   1
  -2   7   5 10244.1 991.570   1
  -2  -5   5 10412.0 968.844   2
   7  -2   5 12000.1 1067.90   1
  -5  -2   5 9206.16 799.976   2
  -7   5  -5 8869.80 936.780   1
  -7   2  -5 12107.2 1079.48   1
   2  -7  -5 9710.19 968.461   2
  -7   5  -6 1119.22 345.674   1
   7  -5   6 1923.01 463.135   1
   5  -7  -6 1365.01 395.963   1
   7  -2   6 2788.61 567.527   1
   2  -7  -6 1579.47 476.132   2
   2  -7  -6 1739.07 406.117   1
  -5   7   6 2059.99 513.856   1
  -2   7   6 2258.93 490.491   1
  -2  -5   6 1877.66 434.294   2
  -7   2  -6 2141.26 487.614   1
   5  -7  -6 1466.26 385.222   2
  -2   7   7 21935.3 1492.26   1
   5  -7  -7 19203.6 1355.96   2
  -2  -5   7 21576.9 1380.78   2
   5  -7  -7 18108.2 1412.33   1
  -5   7   7 19587.5 1394.58   1
   2  -7  -7 21299.1 1505.92   1
   7  -5   7 22479.9 1443.39   1
   7  -2   7 21459.9 1471.85   1
  -7   2  -7 22741.4 1549.63   1
  -7   5  -7 20341.0 1402.12   1
   2  -7  -7 19975.2 1428.69   2
   2  -7  -9 5306.17 799.279   2
  -5   7   9 6490.73 839.953   1
   5  -7  -9 5523.06 785.608   1
  -7   5  -9 6110.72 868.129   1
   2  -7  -9 4437.96 721.924   1
  -7   2  -9 5338.75 796.636   1
   7  -2   9 4560.83 690.286   1
   7  -5   9 5206.72 738.463   1
   5  -7  -9 6573.88 809.079   2
  -2   7   9 4541.06 739.759   1
  -5   7  10 9396.68 1033.61   1
   7  -2  10 9135.04 997.652   1
   2  -7 -10 9522.31 1082.58   1
   7  -5  10 10500.6 1064.88   1
  -2   7  10 10857.9 1126.37   1
   2  -7 -10 9466.44 1061.36   2
  -7   2 -10 10489.9 1117.17   1
  -7   5 -10 10185.1 1058.51   1
   5  -7 -10 9078.27 1044.32   1
  -2   7  11 1240.34 450.309   1
  -7   2 -11 857.626 298.358   1
  -7   5 -11 1862.22 541.940   1
   5  -7 -11 1234.21 352.551   1
   7  -2  11 1528.23 405.650   1
   7  -5  11 1999.08 461.634   1
   2  -7 -11 1724.46 477.072   1
  -5   7  11 1871.56 500.694   1
   2  -7 -11 1178.58 466.013   2
   7  -2  12 170790. 4972.41   1
   5  -7 -12 177987. 5100.00   1
  -5   7  12 176210. 4982.24   1
   2  -7 -12 193257. 5247.15   1
  -2   7  12 183075. 5102.52   1
   7  -5  12 195724. 5197.60   1
   2  -7 -12 189042. 5185.43   2
  -7   5 -12 188848. 5201.73   1
  -7   2 -12 173496. 5103.05   1
   5  -7 -13 972.959 463.228   1
   7  -5  13 710.795 344.311   1
   7  -2  13 972.304 441.106   1
   2  -7 -13 934.410 441.987   1
  -7   5 -13 885.136 415.878   1
  -5   7  13 701.219 366.513   1
   2  -7 -13 375.349 283.456   2
  -2   7  13 498.438 289.584   1
  -7   2 -13 482.014 225.975   1
   5  -7 -14 685.248 411.464   1
   2  -7 -14 848.543 423.906   1
  -5   7  14 810.431 367.579   1
   7  -2  14-30.6627 224.036   1
  -2   7  14 24.8002 293.998   1
  -7   2 -14 667.181 367.867   1
  -7   5 -14 700.437 425.422   1
   5  -7 -15 2287.62 592.533   1
   2  -7 -15 2798.57 665.109   1
  -5   7  15 3359.82 716.531   1
   7  -2  15 2335.86 628.032   1
  -2   7  15 2518.88 584.879   1
  -7   2 -15 2996.43 691.123   1
   5  -7 -16 264620. 6873.45   1
  -2   7  16 279838. 6855.42   1
  -7   2 -16 252480. 6667.26   1
   2  -7 -16 258018. 6707.34   1
   7  -2  16 257391. 6763.66   1
   2  -7 -17 1396.65 484.386   1
  -7   2 -17 1565.14 536.532   1
  -2   7  17 1453.91 536.318   1
   2  -7 -18 3318.81 800.348   1
  -6  -1 -17 105025. 4053.28   2
  -1  -6 -17 110850. 4215.89   1
   6   1  17 95780.1 4004.27   1
  -6  -1 -17 100293. 4064.97   1
   1   6  17 112031. 4168.31   1
  -1  -6 -16 1364.50 484.409   2
  -1  -6 -16 1039.25 461.813   1
  -6  -1 -16 967.745 438.572   2
  -6  -1 -16 1076.02 461.080   1
   1   6  16 1507.94 483.439   1
   6   1  16 1500.20 534.824   1
  -6  -1 -15 87858.5 3565.41   2
  -1  -6 -15 77980.5 3378.52   1
  -6  -1 -15 80294.1 3439.12   1
   1   6  15 76167.2 3337.89   1
   6   1  15 80653.7 3471.09   1
  -1  -6 -15 74099.6 3398.66   2
  -1  -6 -14 119464. 4196.27   1
  -6  -1 -14 129200. 4299.28   2
  -6  -1 -14 113540. 4160.52   1
   1   6  14 121354. 4191.40   1
   6   1  14 120981. 4189.48   1
  -1  -6 -14 114435. 4221.78   2
  -1  -6 -13 22447.0 1740.74   1
   7  -6 -13 25669.8 1818.11   1
  -6  -1 -13 22609.3 1760.28   1
   1   6  13 26341.2 1811.71   1
  -1  -6 -13 21621.7 1740.64   2
  -6  -1 -13 25623.4 1829.04   2
   6   1  13 22150.6 1770.63   1
  -7   6  12 24569.8 1731.20   1
  -6  -1 -12 24251.7 1763.44   2
  -1  -6 -12 21454.6 1682.29   1
  -6  -1 -12 25243.7 1818.17   1
   1   6  12 26860.8 1798.81   1
   6   1  12 22177.1 1674.85   1
  -1  -6 -12 22818.5 1764.51   2
   7  -6 -12 25110.3 1735.17   1
  -6  -1 -11 18619.3 1538.42   2
  -1  -6 -11 20064.6 1563.40   1
  -6  -1 -11 17235.2 1484.50   1
   1   6  11 19045.8 1553.96   1
   7  -6 -11 18908.6 1515.35   1
  -1  -6 -11 17865.2 1530.41   2
  -7   6  11 21110.8 1548.22   1
   1  -7  11 18130.8 1504.14   2
   6   1  11 18559.9 1507.97   1
   6  -7  10 192561. 4901.38   1
  -1  -6 -10 189986. 5138.49   2
  -1  -6 -10 181351. 5068.43   1
  -7   6  10 181631. 4923.52   1
  -6  -1 -10 192299. 5145.24   1
   1   6  10 183426. 5056.97   1
   7  -6 -10 183618. 5014.72   1
  -6  -1 -10 186360. 5149.69   2
   1  -7  10 178582. 4982.56   2
  -6   7 -10 197256. 5010.89   1
   6   1  10 181155. 4993.63   1
  -7   6   9 79448.0 3013.75   1
  -6  -1  -9 72769.5 2974.62   2
   7  -6  -9 71133.2 2886.72   1
  -1  -6  -9 67873.0 2899.57   2
  -6  -1  -9 62997.7 2835.46   1
  -6   7  -9 74615.8 2888.32   1
  -1  -6  -9 64254.1 2837.58   1
   1   6   9 66915.9 2863.35   1
   1  -7   9 73899.2 2923.61   2
   6   1   9 65058.6 2776.08   1
   6  -7   9 73575.5 2801.75   1
  -7   6   8 148489. 4197.27   1
  -6  -1  -8 136460. 4164.29   2
   6  -7   8 141486. 3987.50   1
  -1  -6  -8 136412. 4165.75   1
   1   6   8 139281. 4185.60   1
  -6   7  -8 139092. 4066.03   1
   1  -7   8 151145. 4253.17   2
   7  -6  -8 140865. 4165.39   1
   6   1   8 139707. 4187.75   1
  -6  -1  -8 143345. 4272.18   1
  -1  -6  -8 144013. 4269.42   2
   1  -7   7 147249. 4103.18   2
  -7   6   7 142550. 4043.30   1
  -6  -1  -7 137213. 4040.70   2
   6   1   7 136994. 4096.17   1
   6  -7   7 149095. 4030.95   1
  -1  -6  -7 136732. 4080.39   1
  -6  -1  -7 121838. 3929.30   1
   1   6   7 134480. 4065.23   1
   7  -6  -7 148326. 4127.91   1
   7  -1  -7 112241. 3364.45   1
  -6   7  -7 140706. 3981.64   1
  -1  -6  -7 134339. 4056.98   2
  -1  -6  -6 627516. 10441.6   1
   1  -7   6 590451. 10112.5   2
  -7   6   5 181186. 4544.49   1
   6   1   5 178476. 4585.36   1
  -1   7  -5 184539. 4128.90   1
   1  -7   5 173318. 4035.70   1
   1  -7   5 171680. 4487.12   2
   6  -7   5 165483. 4340.31   1
  -6  -1  -5 172158. 4550.46   1
   1   6   5 178968. 4644.28   1
   7  -1  -5 180654. 4290.77   1
  -7   1   5 180815. 4260.15   1
  -1  -6  -5 166180. 4455.28   1
   7  -6  -5 171801. 4206.32   2
   6  -7   5 170646. 4566.09   2
  -6  -1  -5 163389. 4411.68   2
   7  -6  -5 179905. 4570.28   1
  -1  -6  -5 160079. 4448.93   2
  -6   7  -5 166114. 4403.40   1
   6   1   4 10294.4 1017.17   1
   1  -7   4 9399.33 854.059   1
  -1   7  -4 8576.10 829.999   1
  -6  -1  -4 9744.93 963.759   2
   7  -6  -4 9938.02 992.154   1
  -1  -6  -4 8391.05 935.664   1
   7  -6  -4 10713.3 994.368   2
  -1  -6  -4 10691.9 1036.18   2
  -6  -1  -4 9561.49 977.898   1
   1   6   4 8845.13 901.610   1
   7  -1  -4 7904.22 827.573   1
   6  -7   4 8941.52 908.788   1
  -7   1   4 10265.2 944.140   1
   6  -7   4 9783.98 1027.53   2
   1  -7   4 8617.46 898.514   2
  -7   6   4 11719.8 1024.11   1
  -6   7  -4 9577.31 960.752   1
   7  -6  -3 368393. 7158.77   1
   1  -7   3 398953. 6916.81   1
   7  -6  -3 368831. 6993.03   2
   6  -7   3 357456. 7275.77   2
   6  -7   3 372968. 7080.11   1
  -1  -6  -3 363282. 7119.31   1
  -6  -1  -3 384273. 7231.94   2
  -6  -1  -3 362636. 7101.90   1
  -6   7  -3 369120. 7145.23   1
   1   6   3 372867. 7211.19   1
  -1   7  -3 374683. 6801.35   1
   6   1   3 353800. 7075.45   1
   1  -7   3 386728. 7257.86   2
  -1  -6  -3 382940. 7292.63   2
  -7   6   3 380433. 7224.61   1
  -6  -1  -2 181303. 4460.78   2
  -1  -6  -2 170347. 4377.80   1
  -7   1   2 176317. 4046.08   2
   6  -7   2 181211. 4444.36   1
  -1   7  -2 171497. 4202.05   1
   6   1   2 160662. 4319.98   1
  -1  -6  -2 182041. 4564.64   2
   1   6   2 170737. 4421.52   1
  -6  -1  -2 173798. 4403.69   1
   7  -1  -2 170060. 4263.73   1
  -7   1   2 188046. 4415.28   1
   7  -6  -2 183303. 4448.35   2
   1  -7   2 162855. 4370.82   2
  -6   7  -2 179252. 4490.51   1
   1  -7   2 185159. 4283.52   1
   6  -7   2 184391. 4638.17   2
   7  -6  -2 179046. 4493.09   1
  -7   6   2 183875. 4533.39   1
  -6   7  -1 357658. 6973.78   1
   6  -7   1 360387. 7084.35   2
  -1  -6  -1 354700. 6827.39   1
  -1   7  -1 363145. 6844.09   1
  -6  -1  -1 353364. 6707.49   2
   6  -7   1 358729. 6944.39   1
   1   6   1 362563. 6911.52   1
  -6  -1  -1 360060. 6850.76   1
   7  -1  -1 331225. 6680.79   1
  -1  -6  -1 359128. 6986.23   2
   1  -7   1 366422. 7048.79   2
   7  -6  -1 358925. 6918.15   1
  -6  -1   0 39197.7 1834.14   2
   1  -7   0 36021.5 1887.84   2
   6  -7   0 40477.9 1971.01   2
  -6   7   0 35395.2 1861.41   1
  -1   7   0 36304.9 1815.97   1
   6  -7   0 34690.4 1824.09   1
   7  -1   0 40034.0 1890.44   1
  -6  -1   0 38827.5 1856.74   1
  -1  -6   0 33500.1 1783.97   2
   6   1   0 38424.9 1871.16   1
  -7   1   0 38795.0 1896.90   1
   7  -6   0 35015.5 1824.50   1
  -1  -6   0 41069.9 1883.99   1
  -7   6   0 35761.6 1844.70   1
   1   6   0 37635.6 1849.01   1
   1  -7   0 37255.2 1839.27   1
   6   1  -1 10968.8 954.818   1
  -6  -1   1 11054.9 974.708   2
   1  -7  -1 11233.7 973.265   1
  -1  -6   1 11014.7 961.902   1
  -1   7   1 9934.28 974.991   1
   6  -7  -1 9173.47 944.781   2
   6  -7  -1 10530.8 996.379   1
   1   6  -1 10914.7 961.105   1
   7  -1   1 10391.3 958.128   1
  -6  -1   1 12255.0 1014.74   1
  -6   7   1 10206.5 965.479   1
   7  -6   1 8670.68 908.157   1
  -7   1  -1 11156.6 969.868   1
   1  -7  -1 9594.03 968.609   2
  -1  -6   1 10832.6 976.133   2
  -7   6  -1 9426.00 946.338   1
   6  -7  -2 585125. 9690.37   2
   1  -7  -2 567022. 9674.22   2
  -7   6  -3 685.148 342.076   1
  -1  -6   3 1265.53 395.607   2
   6  -7  -3 983.170 344.737   1
   7  -1   3 1499.64 382.948   1
  -6   7   3 1164.31 348.870   1
   1  -7  -3 910.724 373.171   2
  -1  -6   3 959.873 296.795   1
   1  -7  -3 1128.87 411.197   1
   6   1  -3 1727.57 382.727   1
  -6  -1   3 974.845 305.297   2
   7  -6   3 1557.66 413.170   1
   1   6  -3 1583.26 349.930   1
  -1   7   3 1551.21 440.612   1
  -6  -1   3 1461.43 389.130   1
   6  -7  -3 683.308 258.038   2
  -7   1  -3 968.160 307.295   1
   6   1  -4 195653. 4316.37   1
   6  -7  -4 170201. 4315.29   2
   7  -1   4 189965. 4656.46   1
  -1  -6   4 171023. 3948.66   1
   1  -7  -4 173448. 4511.60   1
   7  -6   4 161102. 4284.84   1
  -1   7   4 167639. 4437.72   1
  -6  -1   4 185090. 4186.55   1
  -7   1  -4 172648. 4479.29   1
   1  -7  -4 164133. 4418.08   2
  -1  -6   4 167968. 4334.25   2
   6  -7  -4 170105. 4497.43   1
  -6   7   4 161057. 4351.27   1
  -7   6  -4 174475. 4485.23   1
   1   6  -4 173211. 3960.91   1
  -6  -1   4 169896. 3914.57   2
  -6   7   5 205750. 4948.69   1
   6  -7  -5 195034. 4913.83   1
   7  -6   5 194627. 4786.11   1
   1  -7  -5 198278. 4961.89   1
  -7   6  -5 205989. 4959.88   1
   7  -1   5 195336. 4870.22   1
   1  -7  -5 199757. 4942.41   2
  -1   7   5 194913. 4919.06   1
  -6  -1   5 185877. 4267.03   1
  -7   1  -5 194214. 4883.80   1
   6  -7  -5 208682. 4793.37   2
   6   1  -5 193620. 4382.05   1
  -1  -6   5 202474. 4795.37   2
   7  -6   6 384872. 7338.26   1
   6  -7  -6 389404. 7538.11   1
   1  -7  -6 382632. 7530.41   1
   7  -1   6 363618. 7317.46   1
  -1  -6   6 365612. 7221.39   2
  -7   6  -6 382148. 7454.28   1
  -7   1  -6 379327. 7496.52   1
  -1   7   6 377462. 7455.17   1
  -6   7   6 367158. 7314.88   1
   1  -7  -6 367642. 7405.90   2
  -6   7   7 341308. 7017.99   1
   6  -7  -7 364819. 6865.55   2
   6  -7  -7 320323. 7017.70   1
   7  -1   7 352626. 7163.76   1
   1  -7  -7 358217. 7303.65   1
   1  -7  -7 347444. 7149.44   2
  -1   7   7 339822. 7125.57   1
  -7   1  -7 350272. 7216.13   1
  -7   6  -7 351737. 7114.87   1
  -1  -6   7 342636. 6855.65   2
   7  -6   7 345882. 6940.07   1
   1  -7  -8 749.484 307.375   2
   7  -6   8 909.147 316.908   1
   6  -7  -8 1308.94 441.823   1
   6  -7  -8 1343.25 414.606   2
  -7   6  -8 1272.68 425.604   1
   7  -1   8 979.127 344.883   1
  -6   7   8 1181.00 406.787   1
   1  -7  -8 758.336 424.004   1
  -1   7   8 1012.33 401.115   1
  -1  -6   8 465.118 292.698   2
  -7   1  -8 1220.00 475.394   1
  -1  -6   9 142676. 4101.51   2
  -6   7   9 131624. 4119.25   1
   7  -1   9 148943. 4393.25   1
   1  -7  -9 146139. 4357.86   2
   6  -7  -9 136500. 4231.28   1
   1  -7  -9 147953. 4389.42   1
  -1   7   9 156084. 4410.31   1
  -7   1  -9 148822. 4387.77   1
   7  -6   9 151122. 4262.25   1
  -7   6  -9 144751. 4249.21   1
  -6   7  10 247555. 5892.14   1
   7  -1  10 232356. 5797.96   1
   6  -7 -10 233079. 5832.60   1
   1  -7 -10 230944. 5863.50   1
  -1   7  10 247408. 5944.08   1
  -7   1 -10 227130. 5803.27   1
   7  -6  10 255072. 5855.64   1
  -7   6 -10 245402. 5909.20   1
   1  -7 -10 233624. 5835.16   2
  -6   7  11 79510.7 3171.86   1
   1  -7 -11 69897.8 3034.84   1
  -1   7  11 69846.9 3001.11   1
   7  -1  11 77364.3 3117.07   1
  -7   1 -11 73888.7 3113.17   1
   7  -6  11 80766.4 3124.88   1
  -7   6 -11 80089.8 3194.29   1
   6  -7 -11 74631.2 3120.12   1
   1  -7 -11 77907.5 3176.87   2
  -6   7  12 21288.8 1586.62   1
   6  -7 -12 17095.6 1490.54   1
   1  -7 -12 18374.4 1508.92   1
   7  -1  12 18780.2 1548.13   1
  -1   7  12 16771.4 1469.11   1
   7  -6  12 19003.8 1504.37   1
  -7   1 -12 17882.8 1527.33   1
  -7   6 -12 19863.6 1599.85   1
   1  -7 -12 19941.9 1553.54   2
   7  -1  13 49836.6 2616.59   1
  -6   7  13 52976.0 2699.58   1
   6  -7 -13 50543.7 2650.52   1
   1  -7 -13 52148.9 2661.48   1
  -1   7  13 52475.3 2614.55   1
   1  -7 -13 52375.8 2727.93   2
  -7   1 -13 52953.3 2688.61   1
  -7   6 -13 54532.0 2682.00   1
   7  -1  14 110287. 4020.71   1
   6  -7 -14 110576. 4038.72   1
   1  -7 -14 103789. 3931.29   1
  -1   7  14 96218.6 3711.58   1
  -7   1 -14 109350. 4009.65   1
   1  -7 -14 105959. 3988.99   2
  -6   7  14 101512. 3875.81   1
  -7   1 -15 21752.0 1729.82   2
   6  -7 -15 21599.8 1787.34   1
   1  -7 -15 24033.5 1846.96   1
  -1   7  15 21148.0 1685.08   1
  -7   1 -15 21832.8 1776.13   1
   7  -1  15 19849.4 1687.32   1
  -7   1 -16 44062.2 2556.90   2
   7  -1  16 41143.6 2500.71   1
  -1   7  16 49530.5 2631.48   1
  -7   1 -16 41649.2 2537.75   1
   1  -7 -16 48099.5 2695.57   1
  -7   1 -17 8033.04 1101.73   2
   1  -7 -17 10722.3 1310.57   1
  -1   7  17 9189.54 1179.49   1
  -7   1 -17 8818.85 1190.47   1
   7  -1  17 8630.81 1198.68   1
   0  -7   0 2265.93 506.670   2
  -7   0   0 2889.54 508.038   2
  -7   7   0 2825.47 486.357   1
  -7   0   0 2937.50 558.997   1
   0  -7   0 2785.89 518.783   1
   7  -7   0 2897.29 582.710   2
   7   0   0 3577.59 615.021   1
   7  -7   0 3173.32 568.578   1
   0   7   0 2655.90 508.855   1
   0  -7  -1 958.192 380.824   2
   7   0   1 1049.49 368.132   1
  -7   0  -1 477.874 237.222   2
  -7   7   1 1318.62 422.633   1
   7  -7   1 735.893 300.574   1
   7  -7  -1 862.023 400.352   2
   0  -7   1 1792.32 386.848   1
   0   7   1 1463.25 398.304   1
   0  -7  -1 1111.10 366.938   1
  -7   0   1 1247.89 358.551   1
   7   0  -1 913.950 306.244   1
   0   7  -1 1656.95 440.142   1
  -7   7  -1 1065.00 345.397   1
   7  -7   1 872.922 350.374   2
  -7   0  -1 980.905 407.597   1
   7  -7  -1 1346.06 479.293   1
  -7   0   1 550.868 277.220   2
   0  -7   1 1665.27 479.879   2
  -7   7   2 274188. 5990.56   1
  -7   0   2 261227. 5414.57   2
  -7   0  -2 274707. 5875.88   2
   7  -7   2 270232. 6021.07   2
   7  -7  -2 268027. 5887.26   2
   0  -7   2 283787. 5719.13   1
   0  -7  -2 274147. 5965.23   1
   7  -7  -2 267145. 5883.16   1
  -7   7  -2 267877. 5916.58   1
   0   7  -2 284147. 5740.71   1
   7   0  -2 277530. 5816.99   1
   0   7   2 259507. 5869.65   1
   0  -7   2 270929. 5941.44   2
  -7   0  -2 279914. 5998.91   1
  -7   0   2 258542. 5604.29   1
   7  -7   2 254447. 5760.94   1
   0  -7  -2 269394. 5920.27   2
   7   0   2 277170. 5970.65   1
  -7   0   3 336294. 6426.25   2
  -7   0  -3 369233. 7122.17   2
   0  -7   3 361307. 6668.95   1
   0   7  -3 366804. 6733.73   1
   7  -7   3 348545. 6966.44   1
   7   0  -3 333466. 6692.58   1
   7  -7  -3 349224. 7047.84   1
  -7   0  -3 319216. 6827.67   1
  -7   0   3 374188. 6893.96   1
  -7   7   3 366776. 7134.56   1
   0  -7  -3 344261. 7019.71   1
   7  -7  -3 386779. 7188.02   2
   0   7   3 354857. 7086.08   1
   7   0   3 343091. 6992.38   1
   0  -7   3 359813. 7061.97   2
   0  -7  -3 347711. 7076.42   2
  -7   7  -3 346674. 7035.71   1
  -7   0  -4 155655. 4284.83   2
   7   0   4 151268. 4246.35   1
   0  -7  -4 149192. 4248.07   2
   0   7  -4 159074. 3940.19   1
   0  -7  -4 150741. 4250.44   1
   7   0  -4 145290. 3922.00   1
   7  -7   4 156123. 4238.36   1
   0   7   4 151425. 4286.00   1
  -7   0  -4 147362. 4218.42   1
  -7   7   4 153593. 4250.51   1
  -7   0   4 136624. 3773.38   1
   7  -7  -4 154937. 4252.41   1
   7  -7  -4 153239. 4145.21   2
   0  -7   4 156596. 4250.02   2
  -7   7  -4 155774. 4280.50   1
   0  -7   4 148704. 3814.87   1
   0  -7   5 230380. 5497.61   2
   7   0   5 248727. 5728.18   1
   7  -7  -5 266134. 5649.64   2
   0  -7  -5 239354. 5679.92   1
   7  -7   5 233708. 5480.71   1
   7   0  -5 236925. 5248.21   1
   0   7   5 240735. 5700.84   1
  -7   0  -5 240093. 5666.58   2
  -7   0  -5 253051. 5786.80   1
  -7   0   5 241397. 5244.62   1
  -7   7  -5 242382. 5635.92   1
   7  -7  -5 259952. 5866.13   1
   0  -7  -5 244428. 5733.07   2
  -7   7   5 255456. 5743.72   1
  -7   7   6 321472. 6985.06   1
  -7   7  -6 365146. 7304.91   1
  -7   0  -6 375136. 7479.00   2
   7  -7   6 335896. 6982.14   1
   0  -7  -6 361380. 7335.49   1
   7  -7  -6 350964. 6918.91   2
   7  -7  -6 363335. 7303.00   1
  -7   0  -6 366431. 7393.52   1
   0   7   6 363728. 7339.02   1
   7   0   6 360582. 7307.08   1
   0  -7   6 351521. 7130.53   2
   0  -7  -6 360587. 7391.85   2
   7  -7  -7 69721.1 2902.27   1
  -7   7   7 72179.6 2879.06   1
   7   0   7 70528.3 2897.50   1
  -7   0  -7 72915.1 2928.82   2
   7  -7   7 70617.8 2774.82   1
   0  -7  -7 71524.9 2905.69   1
   0   7   7 67989.3 2864.15   1
  -7   0  -7 70354.0 2881.86   1
   0  -7   7 74446.5 2875.34   2
   0  -7  -7 67607.8 2869.05   2
  -7   7  -7 71984.0 2866.27   1
  -7   7   8 28125.0 1784.53   1
   7   0   8 25299.0 1706.59   1
   7  -7   8 28421.0 1740.05   1
  -7   7  -8 28321.2 1770.94   1
   0  -7  -8 24335.7 1706.65   1
   7  -7  -8 27473.5 1785.17   1
   0   7   8 24766.7 1708.28   1
  -7   0  -8 24273.1 1687.43   1
   0  -7   8 26753.7 1754.48   2
  -7   0  -8 30163.9 1851.36   2
   0  -7  -8 27373.3 1766.15   2
  -7   7   9 126800. 4030.27   1
   0  -7   9 122591. 3905.58   2
  -7   0  -9 106673. 3758.99   2
   0  -7  -9 114308. 3910.13   1
   7  -7  -9 119154. 3911.49   1
   0   7   9 112351. 3870.90   1
  -7   0  -9 122852. 4002.08   1
  -7   7  -9 119929. 3867.35   1
   7  -7   9 121722. 3828.69   1
   0  -7  -9 108647. 3797.60   2
   7   0   9 115412. 3892.44   1
  -7   7  10 193155. 5122.14   1
  -7   7 -10 175229. 4958.09   1
   0  -7 -10 183458. 5116.21   1
   7  -7 -10 175198. 4975.98   1
  -7   0 -10 187759. 5228.05   2
   0   7  10 181996. 5076.84   1
  -7   0 -10 187101. 5220.99   1
   7   0  10 181746. 5043.90   1
   7  -7  10 185572. 4962.55   1
   0  -7  10 193181. 5169.65   2
   0  -7 -10 176270. 5068.40   2
   7   0  11 37561.7 2207.12   1
  -7   7  11 35246.3 2098.51   1
  -7   0 -11 38136.7 2248.25   2
  -7   7 -11 41211.2 2291.97   1
   0  -7 -11 38882.8 2243.67   1
   0   7  11 40190.1 2287.31   1
   0  -7 -11 36709.1 2209.50   2
  -7   0 -11 40579.6 2320.57   1
   7  -7  11 39490.9 2195.86   1
  -7   0 -12 8163.80 1075.70   2
  -7   7  12 10897.4 1174.84   1
   7   0  12 8068.63 1056.15   1
   0  -7 -12 9400.58 1129.39   2
   0   7  12 9015.53 1107.52   1
  -7   0 -12 7975.99 1031.47   1
   0  -7 -12 9043.47 1081.42   1
  -7   7  13 16934.2 1491.52   1
  -7   0 -13 16355.8 1474.24   2
   0  -7 -13 18105.0 1579.19   1
   0   7  13 15740.2 1437.26   1
   0  -7 -13 16673.9 1535.57   2
  -7   0 -13 15768.3 1495.77   1
   7   0  13 16202.7 1444.90   1
  -7   0 -14 126131. 4380.15   2
   0  -7 -14 142030. 4647.63   1
   7  -7 -14 128190. 4473.43   1
   0   7  14 150382. 4708.55   1
  -7   0 -14 136822. 4612.26   1
   0  -7 -14 132132. 4581.62   2
   7   0  14 134414. 4502.89   1
  -7   0 -15 48642.6 2614.69   2
   0  -7 -15 52982.7 2785.30   1
   0   7  15 51747.3 2705.77   1
  -7   0 -15 46627.9 2660.33   1
   7   0  15 48026.2 2656.95   1
   0  -7 -15 40894.1 2531.92   2
  -7   0 -16 13522.3 1408.80   2
   0  -7 -16 14683.5 1481.77   1
   0   7  16 16771.4 1534.07   1
  -7   0 -16 15693.2 1495.65   1
   7   0  16 16655.0 1591.32   1
  -7   0 -17 36274.8 2414.59   1
   7   0  17 39015.7 2493.47   1
  -4  -4 -17 427.536 282.646   2
  -4  -4 -16 278414. 7134.46   2
  -4  -4 -16 293373. 7197.61   1
   4   4  16 289077. 7110.94   1
  -4  -4 -15 64.5055 339.838   2
   4   4  15 198.556 400.582   1
  -4  -4 -15 340.266 344.811   1
  -4  -4 -14 126.979 329.079   2
  -4  -4 -14 338.773 238.426   1
  -4  -4 -13-198.416 349.523   1
   4   4  13 345.676 292.686   1
  -4  -4 -13 481.893 392.644   2
  -4  -4 -12 348165. 7796.34   1
   4   4  12 363711. 7885.38   1
  -4  -4 -12 358751. 7891.67   2
   4   4  11 108.113 304.872   1
  -4  -4 -11-165.291 283.026   2
  -4  -4 -11 234.922 358.955   1
  -4  -4 -10 7098.59 966.065   1
  -4  -4 -10 6643.41 951.762   2
   4   4  10 7909.24 1014.56   1
   4  -8  10 5880.69 875.836   2
  -4  -4  -9 306.687 205.220   2
  -8   4   9 40.0726 196.835   1
   8  -4  -9 299.878 257.022   1
  -4  -4  -9 393.810 332.678   1
   4  -8   9 73.9718 296.999   2
   4   4   9 397.463 363.468   1
  -4  -4  -8 346504. 7459.38   2
  -4  -4  -8 352102. 7431.35   1
   8  -4  -8 378831. 7312.97   1
   4  -8   8 330405. 7275.48   2
   4   4   8 343196. 7331.86   1
  -8   4   8 368562. 7253.76   1
   4   4   7 18.1977 226.219   1
  -4  -4  -7 364.127 290.088   2
  -8   4   7-282.158 252.936   1
  -4   8  -7 157.405 223.143   1
  -4  -4  -7 83.5413 301.423   1
   8  -4  -7 38.7558 253.535   1
   4  -8   7-97.3684 249.140   2
   4  -8   7 72.2877 154.589   1
   4  -8   6 1139.08 390.427   2
  -8   4   6 1527.23 469.344   1
  -4  -4  -6 1144.78 405.148   2
  -4   8  -6 2210.05 490.411   1
   4   4   6 1197.79 452.867   1
   8  -4  -6 2516.80 498.289   1
  -4  -4  -6 1158.23 340.756   1
   4  -8   6 1948.20 414.813   1
  -8   4   5-182.493 257.650   1
  -4   8  -5 151.724 189.568   1
   4   4   5-252.199 231.309   1
   8  -4  -5 7.45157 236.947   1
  -4  -4  -5 85.6721 201.186   1
   4  -8   5-137.946 287.420   2
   4  -8   5-47.4441 162.666   1
  -4  -4  -5-63.9509 255.765   2
  -4  -4  -4 522097. 9306.01   2
   8  -4  -4 496078. 8974.23   1
   4  -8   4 538948. 9348.36   2
  -4  -4  -4 538986. 9282.49   1
   4   4   4 511198. 9182.07   1
  -8   4   3 575.680 324.807   1
  -4  -4  -3 14.0152 204.432   2
   4  -8   3-132.493 319.333   2
   4  -8   3-26.2854 162.356   1
   4   4   3 432.056 297.640   1
  -4   8  -3 107.479 178.955   1
   8  -4  -3 212.742 290.413   1
  -4  -4  -3 455.585 305.963   1
  -4   8  -2 32691.9 1774.24   1
   8  -4  -2 32514.5 1795.43   1
  -4  -4  -2 36024.2 1847.80   1
   4  -8   2 34670.4 1783.94   1
   4  -8   2 31992.6 1845.93   2
   4   4   2 32135.3 1787.78   1
  -8   4   2 39184.5 1936.71   1
  -4  -4  -2 38423.3 1961.05   2
   8  -4  -1 183.182 230.836   1
  -8   4   1 134.801 232.565   1
  -4  -4  -1 239.643 235.248   2
   4  -8   1 7.16154 232.663   2
   4   4   1 16.6738 258.836   1
   4  -8   1 355.769 289.251   1
  -4   8  -1-405.578 332.381   1
  -4  -4  -1-87.3578 251.697   1
  -8   4  -1-126.669 233.710   1
  -4  -4   1 373.787 259.435   2
   4   4  -1 14.7392 217.218   1
   4  -8  -1 179.383 255.020   1
  -4   8   1 642.611 360.657   1
   8  -4   1 560.823 291.289   1
  -4  -4   1 264.057 203.602   1
   4  -8  -1 446.330 316.994   2
   4  -8  -2 144532. 4079.62   1
  -4   8   2 144936. 4054.15   1
  -4  -4   2 154254. 3834.98   1
   4   4  -2 138455. 3765.53   1
   4  -8  -2 143104. 4075.06   2
  -8   4  -2 140426. 3972.10   1
   8  -4   2 134897. 3904.30   1
  -4  -4   2 139095. 3856.00   2
   8  -4   3 300.323 292.819   1
   4   4  -3-212.068 248.971   1
   4  -8  -3 39.6968 270.292   1
   4  -8  -3 645.895 304.666   2
  -4   8   3 188.675 257.255   1
  -4  -4   3-81.3798 142.588   1
  -4  -4   3 80.5360 188.121   2
  -8   4  -3-20.7295 200.240   1
   4  -8  -4 419052. 8054.87   1
  -4   8   4 414773. 8013.19   1
   4  -8  -4 430202. 8068.91   2
  -8   4  -4 418017. 7957.91   1
  -4  -4   4 445809. 7789.16   2
  -4  -4   5 100.480 182.438   2
   4  -8  -5-116.918 211.849   1
  -4   8   5 34.1111 227.033   1
  -8   4  -5 0.46456 236.275   1
   8  -4   5-272.668 239.689   1
   4  -8  -5 102.992 209.346   2
   4  -8  -6 27218.3 1716.58   2
   4  -8  -6 27922.3 1775.85   1
  -4   8   6 28426.9 1766.44   1
   8  -4   6 29940.0 1762.80   1
  -8   4  -6 30499.7 1824.63   1
  -4   8   7 634.679 332.878   1
   4  -8  -7 11.5768 210.444   1
   8  -4   7 87.3488 283.314   1
  -8   4  -7 23.1639 203.291   1
   4  -8  -7-86.9002 231.752   2
   4  -8  -8 508033. 9457.69   1
  -4   8   8 503943. 9356.30   1
   4  -8  -8 514139. 9388.79   2
   8  -4   8 492317. 9209.99   1
  -8   4  -8 532052. 9532.48   1
   4  -8  -9-117.619 338.414   1
  -8   4  -9 140.896 282.498   1
   8  -4   9 118.148 190.382   1
  -4   8   9 319.398 243.888   1
   4  -8  -9-161.549 300.785   2
   8  -4  10 1843.16 584.305   1
   4  -8 -10 2281.81 553.854   1
  -4   8  10 3087.62 661.796   1
  -8   4 -10 2383.03 582.238   1
   4  -8 -10 2736.31 575.609   2
  -8   4 -11 370.567 284.280   1
   4  -8 -11 459.472 269.142   1
  -4   8  11-83.8130 268.885   1
   8  -4  11-21.9267 271.971   1
   4  -8 -11 208.484 312.959   2
   4  -8 -12 298415. 6929.53   1
  -4   8  12 275638. 6658.09   1
   8  -4  12 284044. 6765.52   1
  -8   4 -12 286566. 6887.98   1
   4  -8 -13-421.033 233.125   1
  -4   8  13 105.239 293.237   1
  -8   4 -13 537.218 346.424   1
   8  -4  13 341.350 295.835   1
   8  -4  14 14021.7 1425.53   1
   4  -8 -14 14105.8 1441.06   1
  -8   4 -14 13087.6 1374.91   1
  -4   8  14 14711.3 1417.36   1
  -8   4 -15 157.951 284.480   1
   4  -8 -15-802.080 468.974   1
  -4   8  15 178.411 396.105   1
   8  -4  15 480.550 472.364   1
   4  -8 -16 277131. 7092.18   1
  -8   4 -16 265114. 7031.46   1
   4  -8 -17-256.939 278.534   1
  -4   8  17 1265.33 588.163   1
  -3  -5 -17 18511.4 1729.18   2
  -3  -5 -16 9410.09 1242.12   2
  -3  -5 -16 11698.9 1325.20   1
  -5  -3 -16 10435.6 1226.12   1
   3   5  16 11402.8 1269.77   1
   5   3  16 10333.8 1232.72   1
  -5  -3 -16 12994.7 1343.79   2
  -3  -5 -15 166599. 5281.01   2
   5   3  15 182774. 5380.18   1
  -5  -3 -15 181263. 5368.59   2
  -3  -5 -15 175358. 5283.28   1
  -5  -3 -15 168689. 5255.30   1
   3   5  15 171118. 5202.00   1
  -5  -3 -14 102595. 3902.99   2
   5   3  14 104529. 3936.59   1
  -3  -5 -14 99912.0 3899.71   1
  -5  -3 -14 106116. 4010.38   1
   3   5  14 111730. 4005.85   1
  -3  -5 -14 106163. 3982.44   2
  -5  -3 -13 54582.4 2728.60   2
  -3  -5 -13 54487.5 2780.28   2
   5   3  13 52436.0 2710.72   1
  -3  -5 -13 51978.1 2670.32   1
  -5  -3 -13 51871.2 2672.45   1
   3   5  13 61517.0 2844.38   1
   3   5  12 3464.32 712.044   1
   5   3  12 3320.96 698.125   1
  -3  -5 -12 2891.35 597.293   1
  -5  -3 -12 3150.33 685.608   1
  -5  -3 -12 3816.07 687.345   2
  -3  -5 -12 3609.89 705.707   2
   3   5  11 1039.56 384.611   1
  -5  -3 -11 919.360 405.894   2
  -3  -5 -11 1182.76 453.505   1
  -5  -3 -11 652.115 371.622   1
  -3  -5 -11 1208.07 460.322   2
   3  -8  11 1354.55 439.612   2
   5   3  11 1147.00 468.657   1
  -3  -5 -10 279031. 6585.41   2
  -5  -3 -10 286863. 6645.76   2
   3  -8  10 268794. 6512.51   2
   8  -5 -10 259236. 6199.34   1
  -3  -5 -10 268459. 6469.11   1
  -5  -3 -10 275936. 6496.85   1
   3   5  10 268256. 6414.08   1
  -8   5  10 290778. 6487.86   1
   5   3  10 278656. 6510.49   1
  -3  -5  -9 48330.7 2489.14   2
  -5  -3  -9 49095.8 2479.35   2
  -8   5   9 49870.7 2370.77   1
   3  -8   9 49403.6 2455.73   2
  -3  -5  -9 45684.6 2384.75   1
  -5  -3  -9 45431.6 2406.44   1
   3   5   9 47805.2 2458.50   1
   8  -5  -9 51331.4 2457.43   1
   5  -8   9 47993.5 2466.56   2
   5   3   9 43595.5 2376.64   1
  -5  -3  -8 96188.5 3483.42   2
   8  -3  -8 101846. 3330.88   1
  -8   5   8 96639.3 3334.64   1
   5   3   8 93776.7 3454.49   1
  -5   8  -8 98428.6 3350.72   1
   5  -8   8 99986.2 3290.09   1
  -3  -5  -8 99771.5 3583.10   1
  -5  -3  -8 101061. 3594.44   1
   5  -8   8 88442.9 3421.23   2
   8  -5  -8 95411.9 3366.66   1
   3   5   8 97346.4 3463.76   1
   3  -8   8 97476.2 3472.42   2
  -8   3   8 106347. 3376.62   1
  -3  -5  -8 96994.7 3529.65   2
   5   3   7 189378. 5130.11   1
  -5  -3  -7 199148. 5240.26   2
   8  -3  -7 195057. 4848.83   1
   3  -8   7 198302. 5119.66   2
  -3  -5  -7 193174. 5134.20   1
  -5  -3  -7 201511. 5223.62   1
   5  -8   7 210049. 4969.68   1
   3   5   7 205391. 5253.78   1
   5  -8   7 194296. 5208.42   2
   8  -5  -7 205420. 5106.87   1
  -8   3   7 201131. 4928.38   1
  -5   8  -7 206947. 5048.93   1
  -8   5   7 198239. 4992.55   1
  -3  -5  -7 189700. 5117.41   2
   8  -3  -6 182815. 4577.34   1
   5  -8   6 184703. 4882.12   2
   5  -8   6 190174. 4664.13   1
   3  -8   6 179791. 4399.94   1
  -3  -5  -6 161956. 4649.50   1
  -5  -3  -6 173010. 4739.21   1
   5   3   6 171124. 4731.39   1
  -5  -3  -6 174670. 4718.33   2
   3  -8   6 161981. 4602.51   2
   8  -5  -6 179488. 4669.71   1
   3   5   6 178338. 4769.51   1
  -8   3   6 161904. 4334.15   1
  -8   5   6 182813. 4669.08   1
  -5   8  -6 184930. 4653.08   1
  -3  -5  -6 181830. 4892.27   2
  -3   8  -6 181920. 4436.92   1
   8  -3  -5 286519. 5887.73   1
  -8   5   5 246893. 5674.69   1
  -3  -5  -5 259311. 5910.65   1
  -5  -3  -5 244188. 5789.16   1
   5  -8   5 270953. 5773.02   1
   8  -5  -5 243812. 5632.83   1
   3   5   5 249218. 5848.16   1
   5  -8   5 259754. 5985.13   2
  -5   8  -5 254208. 5673.92   1
  -8   3   5 297914. 5950.02   1
  -5  -3  -5 252034. 5831.16   2
   3  -8   5 249778. 5474.90   1
   5   3   5 259530. 5938.25   1
  -3   8  -5 249715. 5492.42   1
   3  -8   5 246256. 5786.21   2
  -3  -5  -5 238739. 5780.55   2
  -5   8  -4 12524.8 1109.58   1
   8  -3  -4 11519.9 1044.13   1
  -5  -3  -4 13323.8 1203.86   2
  -3   8  -4 12568.4 1078.23   1
   3  -8   4 14199.7 1150.11   1
   5   3   4 14139.8 1196.18   1
   3  -8   4 12874.9 1181.34   2
  -3  -5  -4 13527.3 1203.54   2
  -3  -5  -4 12424.3 1110.01   1
  -5  -3  -4 14196.1 1212.33   1
   8  -5  -4 12034.5 1109.17   1
   3   5   4 12135.6 1145.87   1
  -8   3   4 15099.8 1185.81   1
   5  -8   4 11617.1 1126.12   2
   5  -8   4 12657.7 1077.55   1
  -8   5   4 10678.3 1046.33   1
  -5  -3  -3 79352.3 2910.83   2
   8  -3  -3 76209.8 2807.11   1
  -3   8  -3 79473.8 2810.56   1
   3  -8   3 82541.6 2851.47   1
  -3  -5  -3 78264.0 2904.36   1
  -5  -3  -3 76612.0 2897.86   1
   8  -5  -3 76191.3 2853.44   1
   5  -8   3 80142.4 2967.23   2
   5  -8   3 77219.4 2810.39   1
  -5   8  -3 75185.7 2789.17   1
   3   5   3 74433.6 2860.03   1
  -8   3   3 74357.9 2763.49   1
  -8   5   3 72454.1 2779.01   1
   3  -8   3 82850.9 2992.83   2
   5   3   3 81022.8 2926.59   1
  -3  -5  -3 81419.5 3012.06   2
   3  -8   2 619568. 10220.1   1
  -5   8  -1 16635.2 1264.43   1
   3  -8   1 18750.5 1346.59   1
   5  -8   1 15316.4 1243.11   1
   8  -5  -1 16283.4 1261.50   1
  -3  -5  -1 17819.7 1315.92   1
   5  -8   1 15968.4 1277.94   2
   8  -3  -1 17177.2 1285.21   1
  -5  -3  -1 16161.7 1271.95   1
   3  -8   1 18623.4 1391.30   2
  -8   3   1 16816.1 1234.56   1
  -5  -3  -1 19348.7 1374.34   2
   3   5   1 17036.9 1288.74   1
  -8   5   1 16728.5 1291.77   1
   5   3   1 16416.6 1276.56   1
  -3  -5  -1 15731.5 1256.83   2
  -3   8  -1 17130.9 1287.91   1
  -8   5   0 6677.76 792.392   1
   3  -8   0 7246.09 853.998   1
  -3   8   0 6571.78 800.735   1
  -3  -5   0 6396.39 764.637   1
  -5   8   0 6506.18 785.212   1
  -8   3   0 6996.23 844.364   1
   8  -5   0 5616.17 768.568   1
  -5  -3   0 8086.11 838.841   1
   3  -8   0 7492.05 852.741   2
   3   5   0 7044.98 820.667   1
   5  -8   0 6092.40 831.528   2
   8  -3   0 6312.53 781.033   1
  -3  -5   0 7535.63 881.696   2
   5   3   0 7013.83 829.097   1
   5  -8   0 6020.21 782.802   1
  -5  -3   0 7410.67 883.735   2
   5  -8  -1 241122. 5538.29   2
  -5   8   1 233984. 5473.35   1
   8  -5   1 241117. 5468.70   1
   3  -8  -1 240873. 5474.42   1
  -3   8   1 237787. 5493.21   1
  -3  -5   1 255302. 5361.85   1
   3  -8  -1 244122. 5575.41   2
  -5  -3   1 241856. 5315.86   1
   3   5  -1 251396. 5391.51   1
  -8   3  -1 254501. 5578.57   1
   8  -3   1 243238. 5494.04   1
   5  -8  -1 242355. 5535.25   1
  -8   5  -1 235841. 5436.06   1
  -3  -5   1 231852. 5348.85   2
   5   3  -1 241837. 5325.29   1
  -5  -3   1 240062. 5394.00   2
   8  -5   2 196012. 4880.16   1
  -5   8   2 197275. 4947.14   1
   5  -8  -2 201749. 5017.05   1
   3  -8  -2 193094. 4889.29   1
  -3   8   2 196482. 4918.37   1
  -3  -5   2 197270. 4796.06   2
  -3  -5   2 211647. 4675.77   1
  -5  -3   2 213636. 4781.19   1
   3  -8  -2 189783. 4871.36   2
   3   5  -2 208758. 4719.55   1
  -8   3  -2 198191. 4909.21   1
   8  -3   2 208441. 5002.36   1
   5  -8  -2 197524. 4940.34   2
  -8   5  -2 214427. 5077.07   1
   5   3  -2 208143. 4757.27   1
  -5  -3   2 194683. 4701.07   2
   8  -5   3 210614. 5104.10   1
   5   3  -3 226244. 4927.12   1
  -5   8   3 206497. 5137.37   1
   5  -8  -3 223938. 5332.78   1
   3  -8  -3 215877. 5216.74   1
  -3   8   3 214805. 5213.35   1
  -3  -5   3 222229. 4779.86   1
  -5  -3   3 234999. 4951.35   1
   3   5  -3 225153. 4850.45   1
  -5  -3   3 205395. 4881.31   2
   8  -3   3 210067. 5127.67   1
  -8   3  -3 219458. 5248.52   1
  -8   5  -3 217063. 5217.29   1
   3  -8  -3 217606. 5260.55   2
  -3  -5   3 228017. 5114.55   2
   5  -8  -3 206193. 5121.53   2
  -8   5  -4 72256.9 2811.67   1
  -5   8   4 73429.5 2847.64   1
   5  -8  -4 72481.5 2873.37   1
   8  -5   4 73743.6 2816.76   1
   3  -8  -4 70931.2 2838.39   1
  -3   8   4 72749.4 2850.75   1
   8  -3   4 80435.9 2881.26   1
  -8   3  -4 67628.2 2739.27   1
   5   3  -4 85859.4 2715.87   1
   5  -8  -4 73340.3 2811.28   2
  -3  -5   4 79531.7 2818.74   2
  -5  -3   4 78205.0 2712.02   2
   3  -8  -4 72261.9 2828.28   2
   5  -8  -5 2794.16 565.878   2
   8  -5   5 3387.73 587.349   1
   5  -8  -5 3022.47 592.614   1
   3  -8  -5 2988.83 604.203   1
  -5   8   5 3697.16 626.036   1
   8  -3   5 3924.28 653.317   1
  -3   8   5 4247.69 694.643   1
  -8   5  -5 3121.79 571.101   1
   3  -8  -5 2531.25 548.416   2
  -8   3  -5 3716.54 644.540   1
  -3  -5   5 2669.26 537.798   2
  -3  -5   6 436265. 7919.15   2
   5  -8  -6 418119. 8209.86   1
  -5   8   6 428002. 8155.05   1
   3  -8  -6 418532. 8230.36   1
   5  -8  -6 433944. 8148.97   2
  -3   8   6 428021. 8258.88   1
   3  -8  -6 427324. 8224.24   2
   8  -3   6 407638. 7987.46   1
  -8   3  -6 411055. 8134.09   1
   8  -5   6 420613. 7981.22   1
  -8   5  -6 423917. 8117.94   1
  -5   8   7 113160. 3669.37   1
   3  -8  -7 108421. 3685.85   1
  -3   8   7 111833. 3663.87   1
   8  -3   7 106551. 3540.78   1
   5  -8  -7 107813. 3580.80   2
  -8   3  -7 106793. 3605.44   1
  -8   5  -7 109110. 3647.24   1
   8  -5   7 116403. 3660.69   1
   5  -8  -7 109381. 3696.46   1
   3  -8  -7 102665. 3587.72   2
   5  -8  -8 39031.2 2189.32   1
  -5   8   8 43133.9 2206.35   1
   3  -8  -8 46097.3 2336.19   1
  -3   8   8 48563.3 2368.54   1
   8  -3   8 47439.6 2293.49   1
  -8   3  -8 43469.4 2272.32   1
   3  -8  -8 45518.2 2288.43   2
   8  -5   8 40220.8 2148.82   1
  -8   5  -8 42109.7 2245.53   1
   5  -8  -8 42004.3 2201.11   2
   5  -8  -9 306858. 6947.73   1
  -5   8   9 315735. 6928.08   1
   3  -8  -9 305112. 6948.32   1
  -3   8   9 318904. 6970.98   1
   8  -3   9 315190. 6869.82   1
   8  -5   9 313509. 6824.33   1
  -8   3  -9 309051. 6927.52   1
  -8   5  -9 316324. 6964.18   1
   5  -8  -9 326030. 6922.22   2
   3  -8  -9 321983. 7029.05   2
   5  -8 -10 161534. 4828.51   1
  -5   8  10 183957. 5006.20   1
   3  -8 -10 168783. 4904.12   1
   8  -3  10 163704. 4802.90   1
  -3   8  10 167839. 4863.54   1
   8  -5  10 184104. 4985.27   1
  -8   3 -10 174846. 4990.88   1
  -8   5 -10 178657. 5047.85   1
   3  -8 -10 176634. 4982.43   2
  -5   8  11 22341.6 1677.19   1
   3  -8 -11 26478.1 1870.61   1
   8  -3  11 24806.2 1766.05   1
   5  -8 -11 25986.8 1799.32   1
  -3   8  11 26319.7 1769.47   1
   8  -5  11 21916.9 1625.95   1
  -8   3 -11 24536.5 1796.53   1
  -8   5 -11 23486.5 1748.31   1
   3  -8 -11 26573.9 1844.27   2
   3  -8 -12 2613.36 625.925   2
  -8   5 -12 2184.42 598.744   1
   8  -5  12 1556.59 452.812   1
   5  -8 -12 1929.45 575.069   1
   3  -8 -12 1815.99 524.238   1
  -5   8  12 2316.79 489.851   1
  -3   8  12 2471.87 583.449   1
  -8   3 -12 2073.91 523.254   1
   8  -3  12 1835.32 462.408   1
  -8   3 -13 3457.74 719.177   1
   8  -5  13 3054.03 667.081   1
   5  -8 -13 3591.63 677.317   1
   3  -8 -13 4598.12 829.673   1
  -5   8  13 3726.39 701.126   1
  -3   8  13 3523.66 722.186   1
  -8   5 -13 3938.83 774.981   1
   8  -3  13 3522.86 712.169   1
   3  -8 -14 182692. 5295.87   1
   5  -8 -14 150583. 4935.44   1
  -5   8  14 147640. 4733.40   1
   8  -5  14 159475. 5036.34   1
   8  -3  14 166112. 5045.46   1
  -3   8  14 151885. 4848.49   1
  -8   3 -14 163663. 5057.98   1
  -8   5 -14 166567. 5194.73   1
   8  -3  15 89157.3 3709.59   1
  -5   8  15 86378.4 3637.69   1
   3  -8 -15 89844.0 3717.79   1
  -3   8  15 102448. 3868.28   1
  -8   3 -15 94865.3 3817.43   1
   5  -8 -15 87910.6 3751.97   1
   8  -3  16 70660.2 3375.79   1
   5  -8 -16 70384.6 3353.08   1
  -5   8  16 65159.4 3163.45   1
   3  -8 -16 75207.8 3441.50   1
  -3   8  16 75433.6 3379.41   1
  -8   3 -16 76003.4 3497.15   1
   3  -8 -17 67629.4 3343.14   1
  -3   8  17 73004.4 3401.73   1
  -2  -6 -17 77306.6 3628.64   2
  -2  -6 -16 3496.28 811.354   2
  -6  -2 -16 3600.56 727.169   2
   6   2  16 3359.67 710.009   1
  -2  -6 -16 3242.58 737.346   1
  -6  -2 -16 4341.97 847.609   1
   2   6  16 3478.06 735.172   1
  -6  -2 -15 72864.9 3284.70   2
  -6  -2 -15 69275.9 3255.87   1
  -2  -6 -15 78354.7 3410.80   1
   2   6  15 68769.3 3175.40   1
  -2  -6 -15 65775.6 3203.44   2
   6   2  15 71346.4 3274.83   1
  -6  -2 -14 60333.5 2912.70   2
  -2  -6 -14 55333.8 2816.39   1
  -6  -2 -14 60133.5 2951.57   1
   2   6  14 63003.2 2940.19   1
  -2  -6 -14 58311.6 2962.37   2
   6   2  14 58918.0 2925.43   1
  -6  -2 -13 60689.1 2814.67   2
  -2  -6 -13 57944.6 2844.37   1
  -6  -2 -13 56545.4 2838.17   1
   2   6  13 55635.6 2782.77   1
  -2  -6 -13 58335.6 2859.62   2
   6   2  13 57655.7 2841.17   1
  -6  -2 -12 20609.9 1663.67   2
   8  -6 -12 19375.5 1597.62   1
  -2  -6 -12 21628.4 1710.22   1
  -6  -2 -12 21067.2 1663.11   1
   2   6  12 20903.1 1698.98   1
   2  -8  12 19281.0 1643.54   2
   6   2  12 22639.8 1693.46   1
  -2  -6 -12 22487.1 1731.74   2
   6   2  11 13690.9 1303.69   1
  -6  -2 -11 12802.9 1308.39   2
   8  -6 -11 14556.9 1355.99   1
   2  -8  11 14308.2 1377.44   2
  -2  -6 -11 14441.9 1361.50   1
  -6  -2 -11 12904.3 1302.99   1
   2   6  11 14252.2 1291.95   1
  -2  -6 -11 13740.3 1330.57   2
  -8   6  11 13765.7 1366.68   1
  -6  -2 -10 190618. 5236.42   2
   8  -6 -10 199871. 5301.72   1
  -2  -6 -10 191918. 5263.16   1
   2  -8  10 195424. 5349.97   2
  -6  -2 -10 180899. 5192.68   1
   6   2  10 192375. 5295.71   1
   2   6  10 187256. 5198.57   1
  -8   6  10 195361. 5212.07   1
  -2  -6 -10 192417. 5322.69   2
   2   6   9 5157.14 789.471   1
  -6   8  -9 5400.12 733.927   1
  -2  -6  -9 5702.49 874.313   2
  -6  -2  -9 6430.89 892.692   2
  -8   6   9 4759.87 769.665   1
   6   2   9 4696.98 714.783   1
  -2  -6  -9 5008.77 740.749   1
  -6  -2  -9 5491.66 871.125   1
   6  -8   9 5183.11 798.366   1
   8  -6  -9 6240.85 864.349   1
   2  -8   9 4975.20 841.570   2
   8  -6  -8 172582. 4788.59   1
   6  -8   8 185895. 4778.60   1
  -6  -2  -8 171735. 4851.28   2
  -2  -6  -8 177023. 4962.58   1
  -6  -2  -8 181245. 4982.01   1
   2   6   8 182327. 4975.30   1
   2  -8   8 180060. 4906.16   2
  -2  -6  -8 171110. 4886.90   2
  -6   8  -8 185321. 4855.91   1
   6   2   8 164946. 4777.93   1
  -8   6   8 178655. 4864.50   1
  -6  -2  -7 93349.5 3413.93   2
   8  -6  -7 97986.3 3422.32   1
   8  -2  -7 103815. 3286.35   1
   2  -8   7 90481.6 3320.73   2
  -2  -6  -7 91273.6 3354.92   1
   6  -8   7 97563.8 3309.71   1
  -6  -2  -7 88595.5 3345.25   1
   2   6   7 89768.4 3333.88   1
   6  -8   7 94661.9 3442.11   2
  -6   8  -7 99125.8 3394.82   1
  -2  -6  -7 91963.8 3397.81   2
  -8   6   7 101235. 3459.59   1
   6   2   7 85117.7 3265.11   1
  -6  -2  -6 602243. 10233.5   2
  -2  -6  -6 533375. 9933.29   1
  -6  -2  -6 600034. 10209.7   1
   8  -6  -6 540108. 9815.84   1
   2   6   6 569378. 10048.0   1
   2  -8   6 571822. 10061.0   2
  -2  -6  -6 575329. 10141.9   2
  -8   6   6 533365. 9739.52   1
   6  -8   6 599674. 10310.3   2
  -2   8  -5 278048. 5867.33   1
  -6  -2  -5 290023. 6375.75   2
  -2  -6  -5 280581. 6244.47   1
  -6  -2  -5 263215. 6183.58   1
   2   6   5 279386. 6259.48   1
   6  -8   5 302102. 6268.55   1
  -8   2   5 286487. 6037.88   1
   6  -8   5 278609. 6395.05   2
   8  -6  -5 294817. 6340.99   1
   8  -2  -5 293360. 6111.21   1
   2  -8   5 281551. 6266.79   2
   6   2   5 272373. 6259.11   1
  -6   8  -5 293749. 6308.21   1
  -2  -6  -5 288044. 6339.33   2
  -8   6   5 301586. 6367.97   1
   2   6   4 3951.81 644.305   1
  -2  -6  -4 4098.92 685.529   2
  -6  -2  -4 4892.97 715.108   2
  -6   8  -4 3821.99 624.678   1
   8  -6  -4 3068.82 582.041   1
   2  -8   4 4634.20 661.641   1
   6  -8   4 3016.06 604.508   1
  -2   8  -4 4261.73 640.653   1
  -2  -6  -4 3251.86 610.825   1
   8  -2  -4 3328.75 532.264   1
   6   2   4 3930.58 644.722   1
  -6  -2  -4 4488.24 737.257   1
  -8   6   4 3253.71 544.230   1
   2  -8   4 3762.76 627.115   2
  -8   2   4 3673.41 605.177   1
   6  -8   4 3419.09 658.584   2
  -2  -6  -3 353331. 7059.40   2
  -2   8  -3 337380. 6611.64   1
   6  -8   3 323141. 6694.88   1
  -2  -6  -3 325804. 6746.43   1
  -6  -2  -3 326704. 6828.55   1
   2   6   3 329141. 6819.13   1
   6   2   3 304275. 6670.48   1
   8  -2  -3 322865. 6628.53   1
   8  -6  -3 328321. 6796.15   1
   2  -8   3 316130. 6774.95   2
   2  -8   3 364053. 6812.21   1
  -6  -2  -3 332754. 6822.20   2
   6  -8   3 328555. 6925.50   2
  -8   2   3 335765. 6656.46   1
  -8   6   3 323316. 6743.13   1
  -6   8  -3 334427. 6838.90   1
  -6   8  -2 69589.2 2750.16   1
  -6  -2  -2 70728.0 2754.76   2
   2  -8   2 75648.8 2746.74   1
  -2   8  -2 71711.1 2691.70   1
   6  -8   2 67184.9 2700.79   1
  -2  -6  -2 72398.4 2759.42   1
  -6  -2  -2 67622.4 2708.46   1
  -8   6   2 69139.3 2738.45   1
   2   6   2 72009.6 2783.38   1
  -2  -6  -2 74862.4 2848.74   2
   8  -6  -2 66518.2 2685.96   1
   8  -2  -2 62601.8 2565.54   1
  -8   2   2 70553.2 2730.66   1
   6   2   2 67118.8 2710.28   1
   2  -8   2 76992.8 2884.78   2
   6  -8   2 70672.7 2857.65   2
  -6  -2  -1 150595. 4140.05   2
  -2  -6  -1 150759. 4190.05   2
   6   2   1 148674. 4181.77   1
   6  -8   1 143868. 4197.97   2
   2  -8   1 157360. 4164.81   1
  -2   8  -1 147900. 4091.74   1
  -6   8  -1 149478. 4199.67   1
  -2  -6  -1 155773. 4167.93   1
  -6  -2  -1 151980. 4166.35   1
   6  -8   1 141671. 4065.74   1
   8  -6  -1 150573. 4194.66   1
   2   6   1 150022. 4130.56   1
   8  -2  -1 147484. 4076.09   1
  -8   2   1 161218. 4271.91   1
   2  -8   1 144052. 4186.17   2
  -8   6   1 153892. 4252.13   1
   2  -8   0 10108.7 1034.56   2
   6   2   0 9057.05 948.497   1
   2  -8   0 10690.3 1018.19   1
  -8   6   0 10685.0 1030.15   1
  -2   8   0 9259.23 953.712   1
  -2  -6   0 9778.89 959.957   1
   8  -6   0 10304.4 995.450   1
  -2  -6   0 9734.96 977.273   2
  -6  -2   0 10772.8 1008.10   1
   2   6   0 9972.91 992.466   1
   8  -2   0 9166.55 944.365   1
  -8   2   0 9651.76 998.742   1
   6  -8   0 10893.5 1056.38   2
   6  -8   0 9871.32 1017.24   1
  -6  -2   0 9424.76 949.414   2
  -6   8   0 9523.40 977.633   1
  -6  -2   1 493.420 188.338   2
  -8   6  -1 1272.50 406.052   1
   2   6  -1 891.885 343.567   1
  -6   8   1 865.286 322.026   1
   2  -8  -1 850.843 389.867   1
  -2  -6   1 842.356 294.388   1
   8  -6   1 718.716 319.131   1
  -2   8   1 496.756 275.867   1
   8  -2   1 732.580 354.052   1
   6   2  -1 678.384 269.535   1
  -8   2  -1 638.929 307.973   1
  -6  -2   1 930.768 416.511   1
   6  -8  -1 870.465 371.838   2
   6  -8  -1 962.522 352.864   1
   2  -8  -1 1900.65 460.708   2
   6   2  -2 358787. 6864.69   1
  -6   8   2 348953. 7097.88   1
   2  -8  -2 362014. 7150.09   1
  -2   8   2 350180. 7087.15   1
   8  -6   2 349288. 7028.20   1
  -2  -6   2 339060. 6706.05   1
   6  -8  -2 363351. 7189.14   1
   2   6  -2 355265. 6796.72   1
  -6  -2   2 377028. 6970.38   1
   8  -2   2 351822. 7044.88   1
  -8   2  -2 342740. 7053.93   1
  -8   6  -2 350655. 7113.05   1
   2  -8  -2 346628. 7125.25   2
  -2  -6   2 336635. 6898.36   2
   6  -8  -2 352936. 7128.14   2
  -6  -2   2 365734. 6893.75   2
  -2  -6   3 1039.25 391.631   2
   6  -8  -3 615.082 311.529   2
  -8   6  -3 978.254 379.207   1
  -6  -2   3 987.438 325.596   2
   2   6  -3 668.996 292.992   1
   6  -8  -3 572.515 280.103   1
   8  -6   3 422.441 250.167   1
  -6   8   3 403.538 325.074   1
   2  -8  -3 550.826 226.769   1
  -2  -6   3 601.921 247.006   1
   8  -2   3 544.195 264.533   1
  -2   8   3 216.875 260.744   1
   6   2  -3 964.932 321.254   1
  -6  -2   3 594.524 254.965   1
  -8   2  -3 766.274 293.754   1
   2  -8  -3 889.199 364.830   2
   6   2  -4 346763. 6623.89   1
  -6   8   4 366779. 7215.31   1
   8  -6   4 345717. 6983.60   1
   6  -8  -4 343789. 7107.09   1
   2  -8  -4 332453. 6996.48   1
  -2   8   4 333055. 7039.70   1
   8  -2   4 362789. 7144.99   1
  -8   6  -4 349854. 7115.08   1
  -8   2  -4 351569. 7127.90   1
   6  -8  -4 347942. 7028.78   2
  -2  -6   4 368002. 7129.39   2
   2  -8  -4 334206. 7070.75   2
   8  -6   5 162747. 4377.65   1
  -6   8   5 153953. 4396.65   1
   6  -8  -5 148937. 4341.48   1
   2  -8  -5 158612. 4471.03   1
  -2   8   5 157157. 4447.08   1
   8  -2   5 142795. 4233.77   1
  -2  -6   5 156508. 4301.88   2
  -8   2  -5 159040. 4437.69   1
   6  -8  -5 161488. 4405.41   2
  -8   6  -5 158081. 4420.01   1
   2  -8  -5 151838. 4397.38   2
   6  -8  -6 494916. 8987.10   2
   2  -8  -6 487295. 9148.99   2
  -6   8   6 489966. 9094.16   1
   6  -8  -6 486807. 9207.83   1
   2  -8  -6 515502. 9269.79   1
   8  -2   6 453042. 8831.23   1
   8  -6   6 488848. 8954.71   1
  -2   8   6 520083. 9284.59   1
  -2  -6   6 498435. 8958.56   2
  -6   8   7 247920. 5905.05   1
  -8   6  -7 239874. 5756.44   1
   2  -8  -7 244367. 5874.40   1
  -2  -6   7 244362. 5704.90   2
  -2   8   7 232497. 5744.38   1
   8  -2   7 233714. 5710.43   1
   2  -8  -7 234340. 5765.61   2
  -8   2  -7 244816. 5853.73   1
   6  -8  -7 238854. 5849.45   1
   6  -8  -7 250484. 5754.64   2
   8  -6   7 239088. 5648.44   1
   8  -6   8 9024.86 1015.55   1
  -6   8   8 9164.25 1047.28   1
   6  -8  -8 9040.85 1084.54   1
   2  -8  -8 9687.84 1089.40   1
   8  -2   8 9955.22 1046.94   1
  -2   8   8 9919.91 1103.54   1
  -8   6  -8 9419.68 1048.05   1
   2  -8  -8 9512.65 1075.69   2
  -8   2  -8 9067.72 1062.54   1
   6  -8  -8 8721.84 996.620   2
   6  -8  -9 142776. 4455.90   1
   2  -8  -9 147365. 4490.88   1
  -2   8   9 135530. 4298.70   1
  -8   2  -9 148783. 4496.71   1
  -6   8   9 135520. 4302.57   1
   8  -6   9 145977. 4339.32   1
  -8   6  -9 142038. 4425.76   1
   8  -2   9 142556. 4376.45   1
   2  -8  -9 142724. 4394.06   2
  -6   8  10 77945.0 3163.61   1
   6  -8 -10 73469.4 3130.70   1
   8  -2  10 79042.4 3166.83   1
   2  -8 -10 77775.7 3218.37   1
  -2   8  10 73468.2 3095.89   1
  -8   2 -10 75371.9 3163.73   1
   8  -6  10 74735.3 3059.22   1
  -8   6 -10 73732.4 3124.33   1
   2  -8 -10 74265.5 3115.42   2
  -6   8  11 105387. 3852.90   1
   8  -2  11 107074. 3804.50   1
   6  -8 -11 100497. 3769.27   1
   2  -8 -11 100003. 3771.23   1
  -2   8  11 108722. 3816.97   1
   8  -6  11 107331. 3800.58   1
  -8   2 -11 107700. 3826.56   1
  -8   6 -11 109966. 3880.75   1
   2  -8 -11 104598. 3821.47   2
   8  -2  12 10868.2 1180.06   1
  -6   8  12 9591.70 1137.32   1
   6  -8 -12 12044.3 1288.58   1
   2  -8 -12 10996.6 1184.55   1
  -2   8  12 10094.4 1163.69   1
   2  -8 -12 11091.9 1189.12   2
   8  -6  12 11567.5 1198.98   1
  -8   2 -12 11438.5 1256.57   1
  -8   6 -12 12334.0 1272.49   1
  -6   8  13 30012.2 1973.68   1
   6  -8 -13 27644.1 1943.04   1
   2  -8 -13 27543.5 1970.54   1
  -2   8  13 29006.9 1978.98   1
   8  -6  13 27662.2 1961.29   1
   8  -2  13 28142.4 1970.58   1
  -8   2 -13 29426.3 1994.57   1
  -8   6 -13 30061.8 2069.83   1
   2  -8 -13 28472.8 1994.32   2
   8  -2  14 127435. 4470.58   1
  -6   8  14 131910. 4537.87   1
   6  -8 -14 130937. 4555.81   1
   2  -8 -14 134755. 4545.25   1
  -2   8  14 142108. 4525.51   1
  -8   2 -14 131897. 4527.24   1
   6  -8 -15 1599.82 532.492   1
   2  -8 -15 2091.30 627.448   1
  -6   8  15 1284.04 482.824   1
   8  -2  15 1511.10 529.466   1
  -2   8  15 1824.71 597.150   1
  -8   2 -15 1085.45 439.000   1
   8  -2  16 62768.8 3142.40   1
   2  -8 -16 65911.4 3209.59   1
  -2   8  16 72137.2 3252.55   1
  -8   2 -16 60382.9 3061.30   1
  -8   2 -17 15013.8 1560.36   1
  -1  -7 -16 197190. 6007.26   2
  -1  -7 -15 3033.49 698.605   2
  -7  -1 -15 4088.20 788.258   2
   7   1  15 5062.66 878.526   1
  -1  -7 -15 4924.70 886.523   1
  -7  -1 -15 3014.10 714.820   1
   1   7  15 4240.63 786.911   1
  -1  -7 -14 7843.42 1091.43   2
  -7  -1 -14 8092.49 1090.69   2
  -1  -7 -14 9019.63 1105.16   1
   7   1  14 8379.15 1016.98   1
  -7  -1 -14 8127.20 1114.86   1
   1   7  14 7706.90 1019.75   1
  -1  -7 -13 438.568 350.583   2
  -7  -1 -13 839.725 435.914   2
   7   1  13 384.021 285.374   1
  -1  -7 -13-14.1838 240.409   1
   8  -7 -13 667.668 280.519   1
  -7  -1 -13 189.787 250.808   1
   1   7  13 389.542 334.592   1
  -8   7  12 143624. 4637.77   1
  -7  -1 -12 167585. 4977.83   2
  -1  -7 -12 148354. 4805.22   2
  -1  -7 -12 153930. 4829.29   1
  -7  -1 -12 159987. 4921.36   1
   1   7  12 162112. 4877.34   1
   8  -7 -12 149628. 4756.63   1
   7   1  12 150952. 4695.88   1
  -1  -7 -11-124.254 226.219   2
  -7  -1 -11-76.4518 264.638   2
  -8   7  11 321.208 305.017   1
  -1  -7 -11 140.798 233.766   1
   7   1  11-63.4026 318.812   1
   1  -8  11 200.580 246.413   2
  -7  -1 -11 153.780 258.602   1
   8  -7 -11 120.602 204.485   1
   1   7  11 113.799 390.118   1
  -7  -1 -10 12796.8 1295.21   2
   7  -8  10 11166.1 1166.29   1
  -8   7  10 11787.9 1184.97   1
  -1  -7 -10 11406.9 1201.17   1
   1  -8  10 12514.5 1282.29   2
   8  -7 -10 12382.0 1252.18   1
  -7  -1 -10 12543.3 1258.78   1
   1   7  10 11431.7 1221.62   1
  -7   8 -10 11747.8 1236.25   1
  -1  -7 -10 11451.9 1252.17   2
   7   1  10 12023.0 1260.72   1
  -7   8  -9 4365.15 748.845   1
  -1  -7  -9 4421.22 746.823   2
  -7  -1  -9 5230.15 813.970   2
  -8   7   9 4405.34 751.647   1
  -1  -7  -9 4383.55 723.232   1
   7  -8   9 5097.72 758.317   1
   7   1   9 5138.07 834.370   1
   8  -7  -9 5192.88 784.772   1
  -7  -1  -9 4237.49 769.472   1
   1  -8   9 5311.02 846.993   2
   1   7   9 5454.17 816.999   1
  -8   7   8 474188. 9132.86   1
   7   1   8 507628. 9345.53   1
  -7  -1  -8 491329. 9314.41   2
   7  -8   8 500290. 9086.58   1
  -1  -7  -8 477958. 9225.81   1
   8  -7  -8 452943. 8997.98   1
   1   7   8 466699. 9094.95   1
  -7  -1  -8 431727. 8961.09   1
  -7   8  -8 511462. 9292.28   1
   1  -8   8 479697. 9159.28   2
  -1  -7  -8 460998. 9123.03   2
  -8   7   7 8526.73 984.500   1
  -1  -7  -7 6413.95 901.528   2
  -7  -1  -7 6398.41 896.581   2
   7  -8   7 6945.70 878.734   1
   8  -7  -7 8379.49 1006.31   1
   1  -8   7 7556.22 945.401   2
   1   7   7 5469.59 823.220   1
  -1  -7  -7 6506.55 886.802   1
  -7  -1  -7 6878.84 955.053   1
   7   1   7 6521.48 853.611   1
  -7   8  -7 7038.82 921.235   1
  -8   7   6 55691.2 2546.80   1
  -1  -7  -6 51995.1 2512.61   2
  -7  -1  -6 55312.3 2585.89   2
   7   1   6 56302.2 2564.08   1
   1  -8   6 54119.1 2512.13   2
  -7   8  -6 58941.0 2623.11   1
   8  -7  -6 59169.1 2692.31   1
  -1  -7  -6 56909.0 2629.26   1
   7  -8   6 57542.8 2545.53   1
   1   7   6 54061.4 2580.67   1
  -7  -1  -6 59338.7 2654.85   1
   1  -8   5 3414.11 658.344   2
  -1  -7  -5 3186.84 661.718   2
  -7  -1  -5 1794.61 426.565   2
  -7   8  -5 3008.97 642.628   1
   8  -7  -5 2535.89 556.895   1
  -8   7   5 3028.48 576.509   1
  -1  -7  -5 2406.15 602.231   1
   7  -8   5 3362.64 637.136   1
   8  -1  -5 2558.95 486.699   1
  -7  -1  -5 2727.42 586.905   1
   7   1   5 2836.82 592.998   1
  -8   1   5 2965.15 572.618   1
   1   7   5 2165.37 535.130   1
   7   1   4 719946. 11887.4   1
   7  -8   4 732042. 12156.8   2
  -1  -7  -4 723596. 12017.9   1
   7  -8   4 708787. 11655.4   1
  -8   7   4 718379. 11854.2   1
  -7   8  -3 11140.2 1103.63   1
  -7  -1  -3 13875.8 1169.10   2
   7   1   3 14469.6 1223.34   1
   1  -8   3 14183.3 1141.81   1
  -1  -7  -3 13862.1 1205.28   1
  -1   8  -3 13264.1 1147.84   1
   1   7   3 13718.5 1216.42   1
   8  -1  -3 13046.7 1145.35   1
  -7  -1  -3 13260.6 1167.95   1
  -8   1   3 13541.0 1186.80   1
   1  -8   3 13865.3 1238.45   2
   7  -8   3 12581.0 1177.53   2
   8  -7  -3 9576.38 1015.22   1
  -1  -7  -3 13070.0 1213.20   2
   7  -8   3 11250.3 1076.21   1
  -8   7   3 11749.7 1155.98   1
  -7  -1  -2 399960. 7568.29   2
   7   1   2 362159. 7409.14   1
   1  -8   2 394315. 7388.84   1
  -1   8  -2 379318. 7305.27   1
  -1  -7  -2 390507. 7522.17   1
  -1  -7  -2 387894. 7589.38   2
   1   7   2 381715. 7520.89   1
   8  -1  -2 353641. 7260.84   1
  -7  -1  -2 362262. 7356.03   1
  -8   1   2 342885. 7147.16   1
   7  -8   2 378591. 7652.67   2
   1  -8   2 376215. 7483.08   2
   8  -7  -2 367013. 7445.11   1
   7  -8   2 391341. 7519.67   1
  -8   7   2 369252. 7475.23   1
  -7   8  -2 374636. 7517.02   1
  -1  -7  -1 1265.52 387.139   2
   1  -8   1 2190.27 540.328   2
  -7  -1  -1 1706.81 462.002   2
  -7   8  -1 1121.98 375.327   1
  -8   1   1 1952.61 404.921   2
   8  -7  -1 2027.29 490.105   1
  -8   7   1 1328.51 411.735   1
   1  -8   1 1926.32 476.399   1
   8  -1  -1 2079.78 480.438   1
  -1  -7  -1 2542.18 529.875   1
  -1   8  -1 2101.78 500.773   1
   7  -8   1 1224.03 420.763   1
  -7  -1  -1 1475.65 424.567   1
   7  -8   1 1341.02 406.763   2
   1   7   1 2051.54 477.807   1
  -8   1   1 1930.68 480.496   1
   7   1   1 2031.88 456.284   1
  -7   8   0 174681. 4655.31   1
  -1  -7   0 185644. 4658.39   1
  -7  -1   0 191189. 4696.52   2
  -8   1   0 170180. 4444.38   2
   7   1   0 162497. 4497.25   1
   1  -8   0 176319. 4618.09   1
   7  -8   0 169494. 4593.64   1
  -1   8   0 168026. 4535.07   1
   7  -8   0 170809. 4685.58   2
   1   7   0 171212. 4563.31   1
   8  -1   0 184095. 4706.03   1
  -7  -1   0 177194. 4602.70   1
  -8   1   0 183193. 4679.11   1
   8  -7   0 170321. 4573.95   1
   1  -8   0 173060. 4690.61   2
  -1  -7   0 173694. 4654.42   2
  -8   7   0 160326. 4513.24   1
  -1  -7   1 1259.30 403.420   2
  -7  -1   1 1576.53 360.191   2
  -8   7  -1 1925.12 429.851   1
  -7   8   1 1730.06 469.608   1
   8  -1   1 1692.48 480.967   1
   1  -8  -1 1388.01 435.221   1
   7  -8  -1 1830.05 444.514   1
  -1  -7   1 1758.55 417.435   1
  -8   1  -1 1706.46 459.383   2
  -1   8   1 1779.90 474.640   1
  -7  -1   1 1301.92 403.895   1
   1   7  -1 1107.04 361.188   1
   7  -8  -1 1678.03 515.551   2
  -8   1  -1 1065.48 406.017   1
   8  -7   1 2458.27 515.790   1
   7   1  -1 1483.02 426.679   1
   1  -8  -1 1952.04 495.051   2
  -7   8   2 260913. 6012.79   1
   7  -8  -2 272428. 6100.90   2
   7   1  -2 249626. 5763.98   1
   1  -8  -2 264686. 6059.33   2
   1  -8  -2 269523. 6079.59   1
  -1  -7   2 278126. 5839.66   1
   8  -1   2 271958. 6053.28   1
  -1   8   2 268937. 6060.76   1
   1   7  -2 273055. 5795.92   1
   8  -7   2 271285. 6013.77   1
   7  -8  -2 273283. 6099.70   1
  -7  -1   2 296226. 6072.24   1
  -8   1  -2 270283. 6083.93   1
  -7  -1   2 249716. 5628.89   2
  -1  -7   2 278691. 6147.78   2
  -8   7  -2 273738. 6128.70   1
   7  -8  -3 2305.11 508.595   1
  -8   7  -3 2539.46 513.258   1
   8  -1   3 2503.47 550.348   1
  -7   8   3 2340.06 477.513   1
   1  -8  -3 2271.87 427.280   1
   8  -7   3 1920.01 473.757   1
   1   7  -3 2250.44 499.126   1
  -1   8   3 2345.64 517.726   1
  -7  -1   3 2132.50 415.495   1
   1  -8  -3 2231.40 515.544   2
  -8   1  -3 1996.93 497.746   1
   7  -8  -3 2151.22 550.646   2
   7   1  -3 2424.76 513.825   1
  -1  -7   3 2953.98 612.418   2
  -1  -7   5 8862.67 990.613   2
   7  -8  -5 10919.1 1070.85   2
   7  -8  -5 10064.5 1058.91   1
   8  -7   5 10168.1 1037.13   1
   1  -8  -5 8910.40 1060.47   1
   8  -1   5 8546.18 1000.64   1
  -7   8   5 11415.8 1143.90   1
  -1   8   5 8773.84 1010.84   1
  -8   1  -5 8198.77 996.176   1
  -8   7  -5 10648.4 1119.13   1
   1  -8  -5 8882.18 1004.11   2
   8  -7   6 7231.44 903.367   1
  -8   7  -6 7208.09 919.146   1
  -7   8   6 6795.02 896.743   1
   7  -8  -6 8080.61 937.695   2
   8  -1   6 9179.43 1013.76   1
   1  -8  -6 8438.27 989.009   1
  -1   8   6 7927.70 950.593   1
  -8   1  -6 7765.81 948.888   1
   1  -8  -6 8795.01 1013.37   2
   7  -8  -6 6694.00 875.391   1
  -1  -7   6 9299.63 1108.48   2
   1  -8  -7 356.178 382.495   2
  -8   7  -7 800.757 438.939   1
  -7   8   7 410.622 303.581   1
   1  -8  -7 396.820 260.596   1
   8  -7   7 595.348 373.325   1
  -1   8   7 446.061 313.173   1
  -8   1  -7 177.336 264.410   1
  -1  -7   7 329.690 197.073   2
   8  -1   7 422.291 284.640   1
   7  -8  -8 328199. 7274.74   1
   8  -1   8 348938. 7422.37   1
   8  -7   8 352062. 7280.41   1
   1  -8  -8 341519. 7395.02   1
  -1   8   8 339898. 7313.42   1
   1  -8  -8 330779. 7300.88   2
  -8   1  -8 336173. 7353.31   1
  -1  -7   8 341206. 7219.03   2
  -8   7  -8 334986. 7245.25   1
  -7   8   8 340743. 7328.46   1
  -7   8   9 9170.38 1040.12   1
   7  -8  -9 8711.74 1065.98   1
   8  -1   9 10579.7 1143.24   1
   1  -8  -9 8679.00 1061.00   1
  -1   8   9 8177.26 1002.20   1
  -8   1  -9 11205.8 1133.49   1
  -8   7  -9 8328.41 1027.87   1
   8  -7   9 8250.17 999.754   1
   1  -8  -9 8491.60 1018.06   2
  -7   8  10 33824.5 2092.81   1
   8  -1  10 34497.7 2098.23   1
   7  -8 -10 32752.3 2070.57   1
   1  -8 -10 32090.8 2040.37   1
  -1   8  10 34646.1 2055.17   1
  -8   1 -10 33885.3 2055.32   1
   8  -7  10 35994.3 2142.37   1
  -8   7 -10 36496.6 2147.79   1
   1  -8 -10 31317.8 2024.63   2
   1  -8 -11-44.4714 260.312   2
   8  -1  11 290.549 339.223   1
   7  -8 -11 160.941 319.016   1
  -7   8  11-266.733 384.792   1
   1  -8 -11 407.593 399.273   1
   8  -7  11 165.068 191.910   1
  -8   1 -11-12.1824 286.009   1
  -1   8  11-41.8024 274.391   1
  -8   7 -11 424.999 273.969   1
   8  -1  12 234619. 6074.87   1
  -7   8  12 236310. 6082.39   1
   7  -8 -12 243129. 6237.08   1
   1  -8 -12 239880. 6166.35   1
  -1   8  12 234794. 6038.65   1
  -8   1 -12 222009. 6000.50   1
   8  -7  12 233155. 6085.12   1
  -8   7 -12 237626. 6247.96   1
   1  -8 -12 220387. 6053.85   2
   1  -8 -13 497.938 433.204   2
  -8   1 -13 221.635 314.496   2
   7  -8 -13 600.169 373.120   1
  -7   8  13-214.862 299.703   1
   1  -8 -13-57.2123 297.352   1
   8  -1  13-212.521 273.696   1
  -8   1 -13 401.488 272.494   1
  -1   8  13 31.3366 326.079   1
  -7   8  14 8672.55 1109.59   1
  -8   1 -14 11936.0 1258.21   2
   7  -8 -14 8812.33 1141.47   1
   1  -8 -14 10618.9 1230.88   1
  -1   8  14 11563.2 1198.16   1
  -8   1 -14 12704.2 1306.46   1
   1  -8 -14 11999.0 1350.17   2
   8  -1  14 12463.9 1331.32   1
  -8   1 -15 858.250 461.237   2
   1  -8 -15 427.547 270.235   1
   8  -1  15 205.733 267.478   1
  -8   1 -15 753.019 362.773   1
  -1   8  15 914.378 429.050   1
   8  -1  16 158236. 5184.37   1
  -8   1 -16 166854. 5359.08   1
  -8   0   0 14582.6 1277.97   2
   8  -8   0 14099.3 1292.33   2
   0  -8   0 15513.9 1301.86   1
   8   0   0 14298.3 1285.13   1
   0   8   0 14233.3 1266.95   1
   0  -8   0 15274.3 1339.09   2
  -8   0   0 15371.8 1314.82   1
   8  -8   0 14904.9 1269.58   1
  -8   8   0 15365.5 1309.55   1
   8  -8  -1 140598. 4144.47   1
  -8   0   1 137872. 3990.52   2
  -8   0  -1 147065. 4224.41   2
   0  -8   1 145724. 4157.17   1
   0  -8  -1 148098. 4292.53   1
   8   0   1 132505. 4132.10   1
   8   0  -1 140783. 4145.79   1
   0   8  -1 143348. 4133.89   1
   0   8   1 135806. 4090.16   1
  -8   0  -1 142416. 4238.00   1
  -8   0   1 128717. 3995.87   1
   8  -8  -1 131318. 4201.61   2
   8  -8   1 136488. 4092.65   1
   0  -8  -1 138374. 4203.43   2
  -8   8  -1 132059. 4062.02   1
   0  -8   1 142045. 4245.95   2
  -8   8   1 143623. 4240.75   1
  -8   0  -2 243611. 5779.43   2
   8  -8  -2 241368. 5783.26   1
   0  -8   2 244611. 5667.20   1
   8   0   2 247480. 5791.38   1
   0  -8  -2 244982. 5836.53   1
   8   0  -2 216502. 5454.49   1
   0   8  -2 247363. 5651.97   1
   0   8   2 238915. 5728.14   1
  -8   0  -2 246637. 5861.15   1
  -8   0   2 232401. 5652.07   1
   8  -8   2 248717. 5764.83   1
   8  -8  -2 242920. 5827.03   2
   0  -8   2 226891. 5664.23   2
   0  -8  -2 242694. 5806.46   2
  -8   8  -2 233589. 5699.89   1
  -8   8   2 258655. 5979.87   1
  -8   0  -3 50271.1 2394.59   2
   8  -8  -3 48772.9 2391.16   1
   8   0   3 47170.5 2361.07   1
   0  -8  -3 50533.8 2403.13   1
   0   8  -3 48298.7 2238.94   1
   8   0  -3 48074.5 2318.20   1
  -8   8  -3 50012.6 2415.49   1
   0   8   3 50277.9 2413.61   1
   8  -8   3 49598.8 2368.51   1
  -8   0  -3 45616.9 2343.43   1
  -8   0   3 55508.9 2456.63   1
   8  -8  -3 55248.2 2508.74   2
  -8   8   3 50224.7 2403.80   1
   0  -8   3 47695.1 2370.21   2
   0  -8  -3 51360.1 2468.79   2
  -8   8   4 22181.8 1612.40   1
  -8   0  -4 26569.4 1719.61   2
   8  -8  -4 24900.7 1668.02   2
   8   0   4 24286.9 1701.24   1
   0  -8  -4 21981.2 1620.92   1
   8  -8  -4 24953.8 1658.25   1
   8   0  -4 27625.4 1705.20   1
   8  -8   4 21793.9 1555.88   1
   0   8   4 23569.1 1662.83   1
  -8   0  -4 21038.6 1582.02   1
  -8   0   4 23001.6 1575.93   1
   0  -8  -4 22840.9 1631.07   2
  -8   8  -4 22591.5 1607.27   1
   0  -8   4 26227.5 1707.88   2
  -8   8   5 121100. 3892.84   1
   8  -8  -5 108915. 3785.51   2
  -8   0  -5 122519. 4016.07   2
   0  -8   5 118169. 3890.62   2
   8   0   5 127294. 4032.48   1
   0  -8  -5 122345. 3976.03   1
   8  -8   5 121101. 3887.47   1
   8  -8  -5 122745. 3986.31   1
   0   8   5 120475. 3960.00   1
  -8   0  -5 122154. 3969.58   1
   0  -8  -5 123424. 3950.08   2
  -8   8  -5 123263. 3952.71   1
  -8   8   6 342961. 7226.63   1
   8   0   6 316974. 7039.59   1
   8  -8   6 320481. 6939.81   1
   0  -8  -6 315414. 7106.46   1
   0   8   6 314710. 7022.06   1
  -8   0  -6 319971. 7114.43   2
   8  -8  -6 319905. 7017.94   1
  -8   0  -6 306422. 6952.91   1
   0  -8   6 321692. 7029.10   2
  -8   8  -6 328535. 7116.23   1
   0  -8  -6 308270. 6985.28   2
  -8   8   7 82762.9 3260.89   1
   8  -8   7 78924.8 3111.77   1
   8   0   7 79477.6 3205.00   1
   0  -8  -7 84431.6 3281.53   1
   0   8   7 79608.0 3196.75   1
  -8   8  -7 80939.6 3207.65   1
  -8   0  -7 71250.5 3057.00   1
   8  -8  -7 77309.6 3136.51   1
   0  -8   7 82338.7 3255.88   2
  -8   0  -7 81474.8 3239.46   2
   0  -8  -7 80941.8 3231.07   2
   8  -8   8 36739.7 2120.41   1
  -8   8   8 34545.4 2078.00   1
  -8   0  -8 35395.6 2099.82   2
   8   0   8 34628.5 2053.31   1
   0  -8  -8 34935.3 2136.50   1
   0   8   8 38276.9 2172.77   1
  -8   0  -8 36716.0 2123.93   1
   0  -8   8 36061.8 2130.84   2
  -8   8  -8 36817.3 2130.36   1
   0  -8  -8 35048.9 2118.53   2
   8  -8  -8 35137.5 2121.05   1
  -8   8   9 15501.7 1393.99   1
   8   0   9 16708.8 1400.57   1
  -8   0  -9 16306.7 1464.11   2
   0  -8  -9 16480.0 1465.05   1
   0   8   9 15760.8 1375.06   1
   8  -8   9 14957.1 1325.25   1
  -8   0  -9 16880.5 1467.34   1
  -8   8  -9 14698.0 1337.51   1
   8  -8  -9 15990.3 1420.71   1
   0  -8   9 15430.3 1399.18   2
   0  -8  -9 15615.9 1430.86   2
  -8   8  10 133554. 4347.57   1
   8   0  10 118848. 4082.74   1
  -8   0 -10 125174. 4203.75   2
   0  -8 -10 123917. 4216.52   1
  -8   8 -10 124180. 4227.38   1
   8  -8 -10 127875. 4277.05   1
   0   8  10 113583. 4009.89   1
  -8   0 -10 119679. 4186.17   1
   8  -8  10 130410. 4267.38   1
   0  -8 -10 110232. 4040.70   2
   8   0  11 89040.9 3522.89   1
  -8   0 -11 84682.3 3515.82   2
   0  -8 -11 90369.7 3595.52   1
  -8   8 -11 89200.5 3596.25   1
   0   8  11 89088.9 3502.74   1
  -8   0 -11 90403.5 3607.33   1
   0  -8 -11 83973.3 3503.58   2
   8  -8 -11 79815.1 3427.12   1
  -8   8  11 83725.9 3457.50   1
  -8   8  12 8194.85 1100.08   1
  -8   0 -12 12892.9 1320.91   2
   0  -8 -12 13699.1 1327.97   1
   0   8  12 13873.3 1368.78   1
  -8   0 -12 12111.3 1301.01   1
   8  -8 -12 9408.39 1153.48   1
   0  -8 -12 10247.0 1239.49   2
   8   0  12 11338.0 1234.53   1
  -8   0 -13 101794. 3812.60   2
   0  -8 -13 92742.6 3736.75   1
   0   8  13 98171.7 3733.07   1
  -8   8  13 78139.8 3495.14   1
  -8   0 -13 93442.9 3770.42   1
   0  -8 -13 83966.2 3611.79   2
   8  -8 -13 80123.5 3597.76   1
   8   0  13 97226.7 3740.45   1
  -8   0 -14 108747. 4007.29   2
   0  -8 -14 110140. 4090.12   1
   0   8  14 115042. 4114.83   1
  -8   0 -14 112031. 4220.64   1
   0  -8 -14 100921. 4092.77   2
   8   0  14 110276. 4032.07   1
   0  -8 -15 17186.4 1673.93   2
  -4  -5 -15 27609.9 1996.19   2
  -5  -4 -15 29771.4 2057.59   2
  -4  -5 -15 27541.8 2033.14   1
  -5  -4 -15 28440.3 2094.32   1
   4   5  15 26511.2 1940.83   1
   5   4  15 27926.2 2008.45   1
  -4  -5 -14 238951. 6397.42   2
  -5  -4 -14 245042. 6478.53   2
  -4  -5 -14 248627. 6458.18   1
  -5  -4 -14 245372. 6416.51   1
   5   4  14 233581. 6275.18   1
  -4  -5 -13 158261. 4976.44   2
  -5  -4 -13 168291. 5072.36   2
  -4  -5 -13 162878. 5039.80   1
  -5  -4 -13 146532. 4865.63   1
   4   5  13 163434. 5007.29   1
   5   4  13 163738. 5000.88   1
  -4  -5 -12 42135.8 2443.29   1
  -5  -4 -12 41929.1 2457.06   1
   4   5  12 46065.7 2468.27   1
  -4  -5 -12 40925.1 2391.73   2
  -5  -4 -12 43396.8 2445.03   2
   5   4  12 46349.7 2479.83   1
  -4  -5 -11 128326. 4334.05   2
  -5  -4 -11 138042. 4465.24   2
  -4  -5 -11 125554. 4334.02   1
  -5  -4 -11 124244. 4297.20   1
   4   5  11 134405. 4361.00   1
   5   4  11 136775. 4391.75   1
   4  -9  11 125502. 4398.94   2
  -4  -5 -10 235404. 6096.02   2
  -5  -4 -10 232927. 6021.18   2
   5   4  10 230830. 5965.02   1
  -4  -5 -10 243691. 6118.89   1
  -5  -4 -10 235934. 6062.61   1
   5  -9  10 213431. 5853.18   2
   4   5  10 242380. 6066.72   1
   4  -9  10 227094. 6037.27   2
  -4  -5  -9 23920.4 1746.01   2
  -5  -4  -9 23953.8 1742.54   2
  -4  -5  -9 24848.6 1779.53   1
  -5  -4  -9 22732.0 1739.83   1
   9  -5  -9 24045.6 1698.10   1
  -9   5   9 24121.4 1687.33   1
   4   5   9 23291.2 1740.84   1
   5  -9   9 25204.2 1795.20   2
   4  -9   9 22140.6 1715.55   2
   5   4   9 21089.1 1631.87   1
  -9   4   8 3789.14 649.521   1
  -4  -5  -8 3635.97 740.184   2
   9  -4  -8 4249.84 700.738   1
  -5  -4  -8 4814.05 796.284   2
   5  -9   8 5787.77 905.136   2
  -9   5   8 3792.85 707.904   1
   4   5   8 3948.47 769.506   1
   5   4   8 3883.36 702.271   1
  -4  -5  -8 5179.72 818.678   1
  -5  -4  -8 4265.51 756.632   1
   9  -5  -8 6526.50 892.465   1
   4  -9   8 4627.65 772.933   2
  -9   4   7 6185.35 813.748   1
  -4  -5  -7 6428.67 896.048   2
  -5  -4  -7 6800.61 932.354   2
   9  -4  -7 8111.23 931.263   1
   4   5   7 6694.90 894.441   1
   9  -5  -7 8289.65 926.616   1
  -4  -5  -7 6564.55 941.957   1
   5  -9   7 5683.98 834.689   2
  -5  -4  -7 6245.07 906.639   1
  -9   5   7 7543.43 945.422   1
   5   4   7 7350.04 942.913   1
   4  -9   7 6349.52 887.389   2
  -5   9  -7 6923.95 862.181   1
  -5  -4  -6 82519.2 3225.46   2
  -4   9  -6 81409.3 3049.96   1
   9  -4  -6 80229.9 3048.62   1
   9  -5  -6 83842.1 3153.85   1
  -9   4   6 86393.7 3183.25   1
  -4  -5  -6 78415.3 3135.46   1
  -5  -4  -6 76297.1 3115.13   1
   4   5   6 80354.8 3178.42   1
   5  -9   6 78750.6 3210.19   2
   4  -9   6 72727.6 3062.43   2
   5  -9   6 79944.9 3047.83   1
   5   4   6 80086.0 3141.70   1
  -5   9  -6 82365.4 3105.47   1
  -4  -5  -6 87539.0 3297.09   2
  -5  -4  -5 19640.5 1538.29   2
  -4   9  -5 20255.7 1464.93   1
  -5   9  -5 19926.2 1478.36   1
   9  -4  -5 21980.1 1491.31   1
   5  -9   5 20858.8 1539.53   1
   4  -9   5 16487.7 1443.23   2
   9  -5  -5 17189.0 1365.66   1
  -4  -5  -5 20656.1 1528.65   1
  -5  -4  -5 18473.4 1479.97   1
   4  -9   5 19954.2 1476.32   1
   4   5   5 18727.0 1508.14   1
   5  -9   5 17127.9 1463.12   2
  -9   4   5 20410.4 1491.45   1
   5   4   5 19174.3 1506.12   1
  -9   5   5 18674.8 1476.72   1
  -4  -5  -5 16115.1 1430.47   2
  -5  -4  -4 41602.2 2235.71   2
  -5   9  -4 38588.7 2077.33   1
   9  -4  -4 39996.0 2109.89   1
  -4   9  -4 42021.9 2140.59   1
   9  -5  -4 44208.0 2206.80   1
   4   5   4 42837.3 2270.06   1
   5  -9   4 43042.5 2205.11   1
  -4  -5  -4 41180.4 2200.21   1
  -9   5   4 47727.3 2300.64   1
  -5  -4  -4 42314.6 2175.89   1
   4  -9   4 41950.3 2197.96   2
  -9   4   4 45798.6 2230.90   1
   5   4   4 42927.2 2222.86   1
   5  -9   4 41500.2 2232.15   2
   4  -9   4 42884.8 2175.28   1
  -4  -5  -4 39279.7 2165.94   2
   9  -4  -3 148915. 4288.15   1
  -5   9  -3 154050. 4372.10   1
  -4   9  -3 157048. 4352.94   1
   5  -9   3 152802. 4359.16   1
   5   4   3 151974. 4432.47   1
   9  -5  -3 151147. 4354.73   1
   5  -9   3 157851. 4496.88   2
  -4  -5  -3 146467. 4353.55   1
  -5  -4  -3 151598. 4411.89   1
  -9   5   3 164173. 4504.33   1
   4   5   3 151821. 4445.63   1
   4  -9   3 154625. 4436.60   2
  -9   4   3 164135. 4495.19   1
  -4  -5  -3 148036. 4411.89   2
  -5  -4  -3 161156. 4551.93   2
   5  -9   2 328433. 6984.41   1
  -5   9  -2 338680. 7079.77   1
  -4   9  -2 345017. 7081.02   1
   4  -9   2 351589. 7128.16   1
   9  -5  -2 337070. 7036.41   1
   4  -9   2 351934. 7241.51   2
  -4  -5  -2 337771. 7066.36   1
  -9   5   2 328998. 7001.42   1
  -5  -4  -2 336160. 7072.13   1
   5   4   2 334972. 7101.57   1
   4   5   2 350356. 7187.79   1
   5  -9   2 325302. 7081.01   2
  -9   4   2 332714. 6986.48   1
  -4  -5  -2 355729. 7249.67   2
   9  -4  -2 367781. 7191.53   1
  -5  -4  -2 341575. 7136.04   2
  -9   4   1 276915. 6031.02   1
  -5   9  -1 269782. 6093.04   1
   9  -5  -1 250395. 5844.65   1
  -4   9  -1 259550. 5993.09   1
   4  -9   1 253477. 5910.60   1
   4  -9   1 255592. 5978.44   2
   5   4   1 267192. 6024.84   1
  -4  -5  -1 271938. 6084.60   1
  -5  -4  -1 278607. 6081.73   1
   4   5   1 254625. 5942.72   1
   5  -9   1 258488. 6034.81   2
  -9   5   1 270290. 6038.94   1
   9  -4  -1 239555. 5751.86   1
  -4  -5  -1 259816. 6030.22   2
  -5  -4  -1 270227. 6113.75   2
   9  -5   0 24971.8 1648.16   1
  -5   9   0 28181.2 1751.17   1
   5  -9   0 29258.9 1786.63   1
  -4   9   0 24901.1 1669.86   1
  -9   4   0 23697.6 1590.14   1
   5   4   0 28366.4 1708.11   1
  -4  -5   0 27902.8 1742.98   1
  -5  -4   0 29195.0 1739.87   1
   9  -4   0 25064.2 1651.77   1
   4   5   0 29660.6 1776.27   1
  -5  -4   0 30146.7 1831.94   2
   4  -9   0 28585.5 1783.91   2
  -9   5   0 31374.8 1804.34   1
  -4  -5   0 26949.9 1713.08   2
   4  -9   0 25033.2 1684.39   1
   5  -9   0 30658.2 1837.75   2
  -5   9   1 89359.9 3286.82   1
   5  -9  -1 91853.2 3303.97   1
  -5  -4   1 95331.5 3321.10   2
   4  -9  -1 90721.1 3322.47   1
  -4   9   1 92663.4 3324.80   1
   4  -9  -1 91530.6 3299.86   2
  -4  -5   1 94937.8 3234.58   1
  -5  -4   1 99017.9 3270.71   1
   4   5  -1 93105.8 3222.98   1
  -9   4  -1 95876.2 3319.16   1
  -4  -5   1 93804.2 3288.32   2
  -9   5  -1 96130.6 3310.36   1
   5   4  -1 92014.0 3214.47   1
   9  -4   1 86108.9 3142.68   1
   9  -5   1 89941.1 3193.94   1
   5  -9  -1 92374.3 3298.29   2
   5  -9  -2 621142. 10703.5   1
   4  -9  -2 616781. 10668.2   1
  -4  -5   2 638152. 10368.1   1
  -5  -4   2 622094. 10333.5   1
   5  -9  -2 611497. 10593.8   2
   4  -9  -2 608328. 10680.9   2
  -5  -4   2 628831. 10536.7   2
  -5   9   3 74366.0 2965.90   1
   5  -9  -3 71402.8 2937.23   1
   4  -9  -3 68047.5 2879.78   1
   9  -5   3 71714.7 2859.89   1
  -4   9   3 65781.5 2785.76   1
   5  -9  -3 67958.9 2878.87   2
   4  -9  -3 65892.5 2817.01   2
  -9   4  -3 77831.2 2997.67   1
   9  -4   3 70663.7 2847.80   1
  -9   5  -3 71751.5 2889.53   1
  -4  -5   3 74943.2 2858.99   2
  -5  -4   3 75783.1 2870.02   2
   5  -9  -4 28531.1 1800.47   1
  -5   9   4 26891.9 1773.91   1
   4  -9  -4 25149.6 1730.29   1
  -4   9   4 28572.1 1766.54   1
  -4  -5   4 27638.4 1733.85   2
   5  -9  -4 28377.6 1824.08   2
   9  -4   4 28229.5 1754.40   1
  -9   4  -4 29137.6 1812.07   1
  -9   5  -4 29028.6 1754.47   1
   9  -5   4 32183.8 1812.31   1
   4  -9  -4 27565.7 1786.72   2
  -5  -4   4 25927.2 1632.66   2
   5  -9  -5 67592.4 2911.73   1
  -5   9   5 67974.7 2864.80   1
   4  -9  -5 64630.8 2831.50   1
  -4   9   5 65236.1 2827.98   1
  -9   5  -5 72194.0 2917.13   1
   5  -9  -5 70538.4 2903.51   2
   9  -4   5 70219.3 2836.75   1
  -9   4  -5 66596.1 2821.19   1
   4  -9  -5 66030.5 2851.84   2
  -4  -5   5 64914.8 2715.57   2
   9  -5   5 70896.0 2875.21   1
   5  -9  -6 38211.2 2214.20   1
  -5   9   6 38369.3 2161.95   1
   4  -9  -6 39554.1 2214.06   1
  -9   5  -6 42394.4 2212.80   1
  -4   9   6 40622.3 2212.02   1
   9  -4   6 44141.7 2283.00   1
  -9   4  -6 43163.8 2279.36   1
   9  -5   6 43088.1 2217.61   1
   5  -9  -6 40497.9 2218.59   2
   4  -9  -6 39566.2 2198.37   2
   5  -9  -7 3485.43 678.348   1
   4  -9  -7 2687.25 622.715   1
   9  -4   7 4222.52 691.934   1
  -5   9   7 3534.53 629.910   1
  -4   9   7 2757.67 605.882   1
   9  -5   7 3299.42 612.064   1
  -9   4  -7 4432.53 723.845   1
  -9   5  -7 3821.36 666.787   1
   5  -9  -7 3126.10 601.751   2
   4  -9  -7 4347.26 772.396   2
   5  -9  -8 7565.28 991.158   1
   4  -9  -8 6373.96 908.127   1
   9  -4   8 7226.54 927.581   1
  -5   9   8 6883.00 917.390   1
  -4   9   8 5701.94 860.462   1
   9  -5   8 6974.48 910.553   1
  -9   4  -8 8182.10 999.568   1
   5  -9  -8 6939.61 963.576   2
  -9   5  -8 6009.42 876.924   1
   4  -9  -8 6096.73 854.373   2
   5  -9  -9 33662.2 2087.75   1
   4  -9  -9 28830.5 1933.26   1
  -5   9   9 32475.7 2019.39   1
  -4   9   9 32406.5 2017.48   1
   9  -4   9 29558.5 1911.75   1
   9  -5   9 33491.8 2002.77   1
  -9   4  -9 28034.3 1862.71   1
  -9   5  -9 33761.4 2059.97   1
   4  -9  -9 29977.2 1974.91   2
   5  -9  -9 34538.2 2095.63   2
   5  -9 -10 224921. 5880.76   1
   4  -9 -10 227176. 5917.31   1
  -5   9  10 207787. 5646.92   1
  -4   9  10 233434. 5897.23   1
   9  -4  10 231074. 5891.83   1
   9  -5  10 225519. 5829.91   1
  -9   4 -10 217340. 5824.36   1
  -9   5 -10 223632. 5885.85   1
   5  -9 -10 224049. 5946.94   2
   4  -9 -10 233859. 6042.83   2
   5  -9 -11 201323. 5550.59   1
   4  -9 -11 192875. 5384.40   1
  -5   9  11 188315. 5307.09   1
  -4   9  11 205043. 5471.96   1
   9  -4  11 191325. 5396.92   1
   9  -5  11 195068. 5395.90   1
  -9   4 -11 185069. 5335.51   1
  -9   5 -11 181566. 5328.24   1
   4  -9 -11 186832. 5474.53   2
   5  -9 -12 60930.2 2926.50   1
   4  -9 -12 54635.5 2780.46   1
  -5   9  12 55585.7 2770.61   1
   9  -4  12 54854.2 2739.92   1
  -4   9  12 53546.2 2739.80   1
   9  -5  12 57455.1 2777.68   1
  -9   4 -12 56965.6 2834.77   1
  -9   5 -12 59843.7 2927.86   1
   5  -9 -13 105465. 4022.25   1
   4  -9 -13 101202. 3926.67   1
   9  -4  13 108688. 4029.42   1
  -5   9  13 106820. 3947.56   1
  -4   9  13 101858. 3862.78   1
   9  -5  13 97819.0 3831.74   1
  -9   4 -13 107770. 4061.56   1
  -9   5 -13 103782. 3997.46   1
   9  -4  14 245247. 6524.19   1
   5  -9 -14 264401. 6743.29   1
   4  -9 -14 245672. 6486.12   1
  -5   9  14 249576. 6497.29   1
   9  -5  14 221080. 6328.81   1
  -4   9  14 264499. 6594.81   1
  -9   4 -14 267400. 6783.43   1
  -9   5 -14 242720. 6551.26   1
   9  -4  15 23369.6 1878.91   1
   9  -5  15 26581.5 2030.70   1
   5  -9 -15 23907.7 1875.98   1
  -5   9  15 26779.8 1955.22   1
   4  -9 -15 24634.5 1917.93   1
  -4   9  15 27467.4 1990.56   1
  -9   4 -15 23158.3 1889.64   1
  -9   5 -15 23780.6 1918.60   1
  -3  -6 -15 5291.75 900.639   2
  -6  -3 -14 35777.7 2242.10   2
  -3  -6 -14 33930.4 2199.58   1
  -6  -3 -14 32179.7 2134.57   1
   3   6  14 37127.1 2288.35   1
   6   3  14 33334.2 2197.55   1
  -3  -6 -14 32466.6 2194.99   2
   3   6  13 4287.62 787.422   1
  -3  -6 -13 4339.49 827.827   2
  -6  -3 -13 4469.86 807.241   2
   6   3  13 4685.82 852.968   1
  -3  -6 -13 2948.36 644.502   1
  -6  -3 -13 4413.09 792.116   1
  -6  -3 -12 323307. 7467.41   2
  -3  -6 -12 329724. 7487.41   1
  -6  -3 -12 324806. 7480.91   1
   3   6  12 340446. 7466.33   1
   6   3  12 324838. 7380.23   1
  -3  -6 -12 309684. 7412.16   2
  -3  -6 -11 4829.75 818.125   2
  -6  -3 -11 3219.60 650.276   2
   6   3  11 4357.89 794.184   1
  -3  -6 -11 5099.75 845.876   1
   3  -9  11 4425.28 842.926   2
  -6  -3 -11 4170.42 799.790   1
   3   6  11 4728.25 836.387   1
  -6  -3 -10 35708.5 2175.91   2
  -3  -6 -10 37241.4 2256.55   1
  -6  -3 -10 42897.8 2355.64   1
   3   6  10 34903.5 2183.76   1
   9  -6 -10 39609.3 2253.59   1
   3  -9  10 34983.3 2218.44   2
   6   3  10 38819.0 2205.14   1
  -3  -6 -10 38120.6 2277.67   2
  -9   6  10 36301.5 2197.72   1
   9  -6  -9-102.064 276.550   1
   3   6   9 406.199 368.825   1
  -3  -6  -9 635.377 356.931   2
  -6  -3  -9 614.065 485.823   2
  -9   6   9 814.876 365.481   1
   6   3   9 337.355 301.955   1
  -3  -6  -9 502.376 199.142   1
  -6  -3  -9 363.707 272.401   1
   3  -9   9 711.989 422.643   2
  -6  -3  -8 392830. 8144.22   2
  -3  -6  -8 370066. 7957.96   1
  -6  -3  -8 382809. 8123.82   1
   3   6   8 380083. 7990.27   1
   9  -6  -8 396580. 8031.69   1
   6  -9   8 361054. 7918.10   2
   3  -9   8 384969. 8059.47   2
   6   3   8 379760. 8002.54   1
  -6   9  -8 391079. 7984.86   1
  -9   6   8 390890. 8021.39   1
  -3  -6  -8 373779. 8110.97   2
  -6  -3  -7 44445.4 2339.80   2
   9  -3  -7 49452.1 2354.58   1
  -3  -6  -7 37447.9 2173.38   1
  -6  -3  -7 39864.7 2276.44   1
   6  -9   7 38957.8 2125.23   1
   3   6   7 42104.0 2304.63   1
   9  -6  -7 43711.9 2313.14   1
   6  -9   7 38268.0 2249.23   2
   6   3   7 43964.0 2338.33   1
   3  -9   7 40686.7 2297.89   2
  -6   9  -7 40510.9 2197.38   1
  -9   6   7 38835.8 2209.13   1
  -3  -6  -7 40617.0 2290.50   2
   3   6   6 2027.24 513.102   1
  -3  -6  -6 2471.47 573.089   2
  -6  -3  -6 2375.34 554.019   2
  -9   6   6 1959.33 487.180   1
  -6   9  -6 2301.43 533.457   1
   9  -3  -6 2356.57 556.445   1
   6   3   6 2452.82 528.347   1
  -3  -6  -6 1942.77 526.441   1
  -6  -3  -6 2048.26 519.665   1
   3  -9   6 2966.79 610.673   2
   6  -9   6 2331.37 622.844   2
   9  -6  -6 2701.48 576.211   1
   6  -9   6 1958.49 446.973   1
  -9   3   6 2294.55 522.441   1
  -3  -6  -5 1447.78 445.621   2
   3   6   5 1510.09 414.041   1
  -6  -3  -5 1424.55 459.804   2
   9  -3  -5 1611.67 462.481   1
  -9   6   5 1579.53 451.057   1
  -6   9  -5 1955.41 487.094   1
   6  -9   5 1439.28 384.680   1
  -3   9  -5 1591.76 401.231   1
   6   3   5 1689.63 545.810   1
  -3  -6  -5 1533.05 471.476   1
  -6  -3  -5 2013.29 530.273   1
   9  -6  -5 1718.19 476.795   1
   6  -9   5 1483.90 399.826   2
   3  -9   5 1608.73 455.390   2
  -9   3   5 1616.90 454.826   1
  -6  -3  -4 361391. 7469.11   2
   6  -9   4 365415. 7343.75   1
  -3   9  -4 367826. 7249.69   1
   3  -9   4 350591. 7159.13   1
  -3  -6  -4 332586. 7301.08   2
  -3  -6  -4 332900. 7215.55   1
  -6  -3  -4 321404. 7248.75   1
   9  -6  -4 324262. 7080.99   1
   3   6   4 344432. 7322.54   1
   6  -9   4 351329. 7463.77   2
  -9   3   4 375956. 7371.79   1
   3  -9   4 339518. 7241.03   2
   9  -3  -4 364242. 7296.97   1
  -9   6   4 342307. 7222.98   1
   6   3   4 360324. 7445.41   1
  -6   9  -4 353088. 7334.94   1
  -6   9  -3 29348.3 1812.51   1
  -6  -3  -3 25851.1 1727.92   2
  -3   9  -3 26352.8 1693.35   1
   3  -9   3 26546.5 1717.38   1
   6  -9   3 28993.4 1766.66   1
  -3  -6  -3 28282.1 1794.32   1
  -9   3   3 27388.5 1746.99   1
   9  -6  -3 29622.6 1823.60   1
  -6  -3  -3 27759.8 1819.16   1
   3   6   3 26514.4 1733.48   1
   6  -9   3 26839.4 1804.42   2
   9  -3  -3 25304.4 1673.54   1
   3  -9   3 23914.7 1679.90   2
  -9   6   3 30209.6 1789.39   1
   6   3   3 27598.9 1747.70   1
  -3  -6  -3 23570.0 1674.95   2
  -6  -3  -2 22041.0 1560.65   2
  -6   9  -2 19905.5 1498.86   1
  -3   9  -2 20348.6 1484.80   1
   3  -9   2 19814.0 1488.17   1
  -3  -6  -2 20908.2 1513.83   1
   9  -6  -2 19352.8 1489.47   1
   6  -9   2 19579.6 1482.97   1
  -6  -3  -2 21208.5 1513.31   1
   6  -9   2 19035.5 1461.95   2
  -9   3   2 20179.4 1462.90   1
   3   6   2 19437.5 1491.83   1
   9  -3  -2 19510.5 1417.91   1
   3  -9   2 19769.9 1516.90   2
  -3  -6  -2 18570.1 1453.54   2
  -9   6   2 21093.0 1515.96   1
   6   3   2 20156.2 1504.73   1
   3   6   1 3698.00 683.940   1
  -3  -6  -1 3009.18 575.060   2
   6  -9   1 2957.25 562.504   1
  -9   6   1 3542.95 641.874   1
  -6  -3  -1 3934.58 706.376   2
   3  -9   1 4473.45 697.945   1
  -6   9  -1 3720.75 672.446   1
  -3   9  -1 4684.50 725.581   1
   6   3   1 3347.60 642.982   1
   9  -6  -1 3559.66 585.743   1
  -3  -6  -1 3758.34 677.578   1
  -6  -3  -1 4164.68 734.499   1
   6  -9   1 3539.29 674.668   2
   3  -9   1 3757.33 666.131   2
   9  -3  -1 4203.13 723.022   1
  -9   3   1 4131.63 694.642   1
   3  -9   0 610353. 10563.8   1
  -9   3   0 559528. 10256.4   1
  -3  -6   0 661258. 10592.8   1
   6  -9   0 599941. 10568.7   2
   3  -9   0 608752. 10568.0   2
  -3  -6   0 604734. 10532.8   2
   6  -9   0 604707. 10537.4   1
  -6  -3   0 623722. 10600.8   2
   3   6  -1 5.50997 225.762   1
  -3  -6   1 525.483 344.782   2
  -9   6  -1-47.2799 287.977   1
  -6  -3   1 218.633 249.229   2
   9  -6   1 118.500 255.512   1
   9  -3   1 489.631 337.213   1
   3  -9  -1 164.327 269.523   1
  -6   9   1 458.087 347.155   1
   6  -9  -1 153.511 309.062   1
   6   3  -1 320.713 178.295   1
  -3  -6   1 222.897 225.899   1
  -3   9   1-48.2681 215.977   1
  -6  -3   1 205.972 215.008   1
   6  -9  -1-0.50642 197.749   2
  -9   3  -1 35.9573 227.773   1
   3  -9  -1 154.630 222.699   2
  -3  -6   2 5433.97 755.481   2
  -9   6  -2 5518.42 768.707   1
   6  -9  -2 5186.93 822.561   1
   3  -9  -2 4928.21 775.020   1
  -6   9   2 5936.93 800.788   1
   6   3  -2 4833.68 703.969   1
   3   6  -2 5894.68 796.434   1
  -3   9   2 5643.36 815.992   1
  -6  -3   2 5132.01 733.574   1
   9  -3   2 5871.17 807.884   1
  -9   3  -2 5977.43 860.842   1
   6  -9  -2 5116.67 742.429   2
   9  -6   2 5801.26 758.983   1
   3  -9  -2 6176.44 856.807   2
  -6  -3   2 9032.14 968.418   2
  -3  -6   3 612.955 332.838   2
  -9   6  -3 950.856 389.186   1
  -6  -3   3 808.014 266.819   2
   6  -9  -3 907.811 356.339   1
   3  -9  -3 1216.12 378.232   1
  -6   9   3 760.812 334.298   1
  -3   9   3 937.434 347.299   1
   9  -3   3 933.248 316.320   1
   9  -6   3 362.113 211.703   1
   6  -9  -3 1026.42 362.233   2
   3  -9  -3 1646.21 440.155   2
  -9   3  -3 1063.48 470.658   1
  -6   9   4 497829. 9161.31   1
   6  -9  -4 496532. 9280.99   1
   3  -9  -4 472421. 9072.18   1
  -3   9   4 473668. 9093.32   1
  -9   3  -4 463068. 8981.01   1
   6  -9  -4 498128. 9194.88   2
  -9   6  -4 459058. 8965.89   1
   3  -9  -4 503846. 9277.27   2
  -3  -6   4 532378. 9291.92   2
  -6   9   5 26707.6 1787.27   1
   6  -9  -5 27174.8 1818.95   1
   3  -9  -5 27242.6 1813.83   1
  -3  -6   5 28790.4 1804.34   2
  -3   9   5 30970.7 1891.81   1
   9  -3   5 28691.8 1803.73   1
  -9   3  -5 29150.4 1869.29   1
  -9   6  -5 27762.8 1772.78   1
   6  -9  -5 28319.7 1835.51   2
   3  -9  -5 29147.4 1860.59   2
   9  -6   5 28547.9 1755.23   1
   9  -6   6 5291.42 762.623   1
  -9   3  -6 5524.78 845.986   1
   6  -9  -6 4703.20 761.724   1
   3  -9  -6 4089.67 729.443   1
   9  -3   6 5516.31 809.811   1
  -6   9   6 5034.81 821.798   1
   6  -9  -6 4527.22 760.941   2
  -3   9   6 5230.31 783.964   1
  -3  -6   6 4705.15 717.312   2
   3  -9  -6 4495.69 753.053   2
  -9   6  -6 4455.82 730.237   1
  -9   6  -7 3638.01 711.955   1
   9  -3   7 4099.13 707.184   1
   6  -9  -7 4166.67 745.280   1
   3  -9  -7 3664.60 659.596   1
  -6   9   7 3651.72 631.759   1
  -3   9   7 4059.01 704.573   1
   6  -9  -7 4374.89 726.970   2
  -9   3  -7 2960.75 630.042   1
   9  -6   7 3912.48 713.571   1
   3  -9  -7 3084.64 638.866   2
  -6   9   8 340414. 7374.02   1
   6  -9  -8 328662. 7413.73   1
   3  -9  -8 337828. 7438.81   1
  -3   9   8 318542. 7213.34   1
   9  -3   8 342770. 7315.02   1
  -9   3  -8 340789. 7410.16   1
   9  -6   8 321778. 7190.69   1
  -9   6  -8 342268. 7444.47   1
   3  -9  -8 345560. 7525.02   2
   6  -9  -8 329356. 7329.38   2
  -6   9   9 12758.7 1279.51   1
   6  -9  -9 11928.7 1259.33   1
   3  -9  -9 12099.3 1263.13   1
  -3   9   9 11826.0 1256.54   1
   9  -3   9 13098.1 1270.14   1
   3  -9  -9 12271.9 1274.57   2
   9  -6   9 14320.4 1334.87   1
  -9   3  -9 11337.7 1192.12   1
  -9   6  -9 13456.1 1309.96   1
  -6   9  10 53501.8 2627.52   1
   6  -9 -10 47068.1 2557.79   1
   3  -9 -10 50998.7 2580.25   1
   9  -3  10 50770.6 2595.75   1
  -3   9  10 53586.5 2615.21   1
   9  -6  10 49866.8 2574.70   1
  -9   3 -10 50219.1 2626.04   1
  -9   6 -10 52502.6 2662.14   1
   3  -9 -10 51803.8 2648.20   2
   6  -9 -11 1044.69 460.231   1
   3  -9 -11 1281.56 441.307   1
   9  -6  11 881.591 367.561   1
  -6   9  11 883.069 415.160   1
  -3   9  11 2581.00 613.373   1
  -9   3 -11 1764.70 478.495   1
  -9   6 -11 946.228 348.578   1
   9  -3  11 1483.72 435.314   1
   3  -9 -11 1328.07 503.237   2
  -6   9  12 225771. 6160.88   1
   6  -9 -12 262911. 6576.36   1
   9  -3  12 261536. 6493.33   1
   3  -9 -12 257273. 6470.18   1
  -3   9  12 256057. 6401.24   1
   9  -6  12 246905. 6342.85   1
  -9   3 -12 243690. 6373.27   1
  -9   6 -12 243674. 6382.46   1
   3  -9 -12 238660. 6498.24   2
   9  -6  13 60.6099 332.419   1
   6  -9 -13 655.508 333.803   1
   3  -9 -13 431.184 443.937   1
  -6   9  13 94.0145 321.451   1
  -3   9  13 936.840 397.220   1
  -9   3 -13 856.372 473.365   1
   9  -3  13 367.137 335.454   1
  -9   6 -13 554.231 289.578   1
   9  -3  14 35916.3 2246.89   1
  -6   9  14 34633.1 2260.91   1
   6  -9 -14 34566.9 2218.28   1
   3  -9 -14 37312.8 2310.37   1
  -3   9  14 37506.7 2297.02   1
  -9   3 -14 34919.2 2286.17   1
  -9   6 -14 33605.0 2316.58   1
   6  -9 -15 1274.69 497.866   1
   3  -9 -15 934.880 432.989   1
  -6   9  15 1957.40 601.049   1
   9  -3  15 1292.78 374.287   1
  -9   3 -15 1593.14 486.046   1
  -7  -2 -14 59515.7 2938.34   2
  -2  -7 -14 57773.6 2948.52   1
  -7  -2 -14 56600.5 2877.14   1
   2   7  14 54919.5 2805.43   1
   7   2  14 57016.2 2850.06   1
  -2  -7 -14 58337.6 2987.30   2
  -7  -2 -13 40930.8 2419.02   2
  -2  -7 -13 42527.3 2453.26   1
  -7  -2 -13 37912.5 2373.09   1
   2   7  13 40076.9 2372.73   1
   7   2  13 40787.2 2410.29   1
  -2  -7 -13 41110.0 2471.85   2
  -7  -2 -12 10262.0 1153.82   2
  -2  -7 -12 8870.22 1131.04   2
  -2  -7 -12 11228.7 1222.39   1
  -7  -2 -12 10986.4 1279.81   1
   2   7  12 9754.19 1142.35   1
   7   2  12 10333.7 1194.69   1
   9  -7 -11 64341.4 3009.92   1
  -7  -2 -11 67169.5 3034.57   2
  -2  -7 -11 69205.7 3066.66   1
  -7  -2 -11 66172.8 3032.96   1
   2   7  11 61980.2 2897.55   1
  -9   7  11 60935.0 2927.32   1
   2  -9  11 58996.0 2980.69   2
   7   2  11 61958.8 2922.82   1
  -2  -7 -11 65980.6 3082.44   2
   9  -7 -10 226104. 5877.20   1
  -7  -2 -10 220306. 5766.12   2
  -2  -7 -10 212513. 5769.27   2
  -2  -7 -10 201393. 5629.35   1
   2  -9  10 200749. 5695.78   2
  -7  -2 -10 201080. 5657.71   1
   2   7  10 216017. 5762.93   1
   7   2  10 216669. 5693.13   1
  -9   7  10 187511. 5465.20   1
  -7  -2  -9 22813.3 1698.39   2
  -2  -7  -9 22647.9 1682.04   1
  -7  -2  -9 23137.5 1752.35   1
   2   7   9 21956.8 1694.23   1
   2  -9   9 24027.8 1760.94   2
  -7   9  -9 21023.4 1649.98   1
   7   2   9 21577.6 1635.74   1
  -2  -7  -9 21503.4 1678.20   2
  -9   7   9 22733.4 1714.88   1
   9  -7  -9 21447.3 1675.92   1
  -7  -2  -8 83967.0 3394.81   2
  -7   9  -8 89201.9 3474.01   1
   7  -9   8 89752.9 3409.84   1
  -2  -7  -8 90042.0 3457.18   1
  -7  -2  -8 86347.3 3431.37   1
   2   7   8 88887.0 3476.66   1
  -9   7   8 82731.0 3340.23   1
   2  -9   8 90525.9 3513.05   2
  -2  -7  -8 90188.4 3475.65   2
   7   2   8 94103.5 3478.30   1
   9  -7  -8 97228.7 3610.48   1
  -7  -2  -7 23128.9 1667.35   2
  -7   9  -7 25775.7 1754.67   1
   7  -9   7 23464.1 1698.27   1
  -2  -7  -7 20746.0 1639.43   1
  -7  -2  -7 21927.3 1689.34   1
   2   7   7 20421.5 1622.73   1
   2  -9   7 22420.4 1694.28   2
   9  -7  -7 20338.9 1606.73   1
  -2  -7  -7 22111.8 1669.35   2
  -9   7   7 22669.6 1637.34   1
   7   2   7 20768.1 1619.63   1
  -7  -2  -6 313793. 7151.49   2
  -2  -7  -6 315824. 7140.63   1
   7  -9   6 354884. 7317.82   1
  -7  -2  -6 329886. 7271.78   1
   2   7   6 327863. 7259.14   1
   9  -2  -6 343722. 7107.87   1
   2  -9   6 320572. 7165.89   2
   7  -9   6 327220. 7300.75   2
   9  -7  -6 295954. 6947.57   1
  -7   9  -6 340231. 7307.81   1
  -2  -7  -6 341206. 7360.87   2
  -9   7   6 330067. 7160.56   1
   7   2   6 332742. 7265.47   1
   7   2   5 212175. 5528.00   1
  -7  -2  -5 223697. 5669.41   2
  -2  -7  -5 214421. 5551.65   1
   7  -9   5 219077. 5706.19   2
  -7  -2  -5 211099. 5540.26   1
   2   7   5 220225. 5599.44   1
   7  -9   5 209705. 5404.04   1
  -9   2   5 215493. 5430.14   1
   9  -7  -5 208587. 5434.24   1
   2  -9   5 222564. 5626.81   2
  -7   9  -5 211664. 5493.06   1
  -2  -7  -5 215234. 5576.83   2
  -9   7   5 204623. 5348.00   1
   7   2   4 8287.92 998.993   1
  -7  -2  -4 11025.6 1145.98   2
  -2  -7  -4 7397.62 956.991   2
   7  -9   4 6934.26 931.503   1
  -9   7   4 6874.88 885.086   1
  -2  -7  -4 8009.96 973.868   1
  -7  -2  -4 8916.36 1040.31   1
   2   7   4 8185.01 997.080   1
   9  -2  -4 8175.02 940.523   1
  -9   2   4 9228.38 999.847   1
   2  -9   4 8347.07 1006.46   2
   7  -9   4 5437.43 852.183   2
   9  -7  -4 6599.86 895.642   1
  -7   9  -4 6887.68 906.520   1
   7   2   3 262695. 6375.74   1
  -7  -2  -3 308189. 6681.63   2
   2  -9   3 273160. 6321.95   1
  -2   9  -3 303139. 6494.04   1
  -2  -7  -3 287648. 6564.52   1
  -7  -2  -3 311918. 6753.58   1
   2   7   3 293474. 6668.64   1
   9  -2  -3 288766. 6489.68   1
   9  -7  -3 300243. 6612.06   1
  -9   2   3 317115. 6724.71   1
   2  -9   3 299684. 6673.96   2
   7  -9   3 281994. 6604.00   2
  -9   7   3 291196. 6529.10   1
  -2  -7  -3 287482. 6614.84   2
   7  -9   3 277638. 6367.96   1
  -7   9  -3 283674. 6540.75   1
   7   2   2 106662. 3604.19   1
  -7  -2  -2 98168.1 3498.44   2
   7  -9   2 98933.1 3468.34   1
   2  -9   2 102845. 3538.99   1
  -2   9  -2 105323. 3490.55   1
  -2  -7  -2 98110.2 3519.66   1
  -7  -2  -2 112735. 3712.16   1
   2   7   2 98274.0 3516.14   1
   9  -7  -2 101225. 3489.45   1
   9  -2  -2 92459.2 3356.20   1
  -9   2   2 90528.9 3343.78   1
   7  -9   2 100104. 3641.39   2
   2  -9   2 100488. 3535.92   2
  -9   7   2 104144. 3574.15   1
  -2  -7  -2 91468.5 3418.95   2
  -7   9  -2 101447. 3566.79   1
  -7   9  -1 14940.7 1338.59   1
  -7  -2  -1 15733.9 1370.90   2
   7   2   1 16723.5 1390.98   1
   2  -9   1 16304.9 1341.67   1
  -2   9  -1 16836.4 1360.98   1
   7  -9   1 15427.7 1303.09   1
   7  -9   1 14769.2 1333.25   2
  -2  -7  -1 17385.9 1360.89   1
   9  -7  -1 15968.4 1316.19   1
   2   7   1 18124.9 1435.38   1
  -7  -2  -1 19111.2 1480.31   1
   9  -2  -1 19381.2 1447.16   1
  -9   2   1 17482.0 1398.56   1
   2  -9   1 15251.9 1306.88   2
  -9   7   1 16044.3 1349.95   1
  -2  -7  -1 17584.6 1442.24   2
  -2  -7   0 1967.46 489.898   2
  -7  -2   0 1503.89 433.795   2
  -9   7   0 1407.01 400.712   1
  -7   9   0 1487.02 429.437   1
   2  -9   0 1669.98 449.892   1
   7  -9   0 1350.36 446.425   1
  -2  -7   0 1347.58 430.071   1
   9  -2   0 1500.80 459.843   1
  -2   9   0 1354.78 423.931   1
   7   2   0 1417.55 467.097   1
   9  -7   0 1716.31 448.100   1
  -7  -2   0 1503.78 445.021   1
   7  -9   0 1765.56 516.191   2
  -9   2   0 1031.09 343.588   1
   2   7   0 1592.81 469.900   1
   2  -9   0 1154.94 438.151   2
  -2  -7   1 771.656 357.461   2
  -9   7  -1 1460.26 479.706   1
  -7  -2   1 1168.82 376.068   2
   7  -9  -1 155.606 284.686   2
  -7   9   1 1126.28 387.578   1
   2  -9  -1 805.056 401.795   1
   9  -2   1 517.876 286.579   1
  -2  -7   1 917.326 274.318   1
   9  -7   1 616.798 373.363   1
  -2   9   1 672.956 342.881   1
   7   2  -1 970.989 401.893   1
  -7  -2   1 357.489 256.860   1
   2   7  -1 347.347 192.046   1
  -9   2  -1 1076.49 387.851   1
   7  -9  -1 485.964 287.817   1
   2  -9  -1 537.597 331.017   2
   7   2  -2 331094. 7050.62   1
  -7   9   2 334500. 7168.78   1
   7  -9  -2 329029. 7188.28   2
   2  -9  -2 343817. 7221.95   1
   9  -7   2 344384. 7174.66   1
  -9   7  -2 341715. 7212.26   1
  -2   9   2 346999. 7257.95   1
   2   7  -2 338482. 6976.08   1
   9  -2   2 325942. 7048.99   1
  -7  -2   2 357796. 7205.30   1
  -9   2  -2 370508. 7440.04   1
   7  -9  -2 338904. 7237.63   1
   2  -9  -2 324399. 7117.38   2
  -2  -7   2 323061. 7080.04   2
  -7  -2   2 330828. 6975.67   2
   7   2  -3 100246. 3427.27   1
  -7   9   3 104472. 3646.98   1
   9  -7   3 104092. 3537.14   1
   2  -9  -3 102912. 3639.81   1
  -2   9   3 107021. 3667.13   1
   9  -2   3 103538. 3603.26   1
  -9   2  -3 92809.3 3402.58   1
   7  -9  -3 106638. 3723.27   2
  -9   7  -3 95766.5 3494.71   1
   2  -9  -3 106299. 3705.11   2
  -2  -7   3 107555. 3664.83   2
   7  -9  -3 104761. 3632.07   1
  -7   9   4 200314. 5348.61   1
   9  -7   4 211940. 5390.04   1
   2  -9  -4 215724. 5546.33   1
   7  -9  -4 211960. 5476.28   1
   2  -9  -4 225365. 5623.57   2
  -2   9   4 216598. 5516.97   1
   9  -2   4 218288. 5492.32   1
  -2  -7   4 239746. 5708.84   2
  -9   2  -4 211883. 5439.29   1
   7  -9  -4 220917. 5597.81   2
  -9   7  -4 209158. 5441.80   1
   9  -7   5 170500. 4744.78   1
  -7   9   5 164293. 4756.47   1
   2  -9  -5 158766. 4747.16   1
  -2   9   5 168778. 4826.91   1
   9  -2   5 168763. 4789.08   1
  -9   2  -5 170810. 4851.04   1
   7  -9  -5 175342. 4914.78   2
  -9   7  -5 173912. 4865.72   1
  -2  -7   5 172010. 4819.44   2
   2  -9  -5 173928. 4925.85   2
  -7   9   6 364078. 7728.44   1
   7  -9  -6 364872. 7798.52   1
   2  -9  -6 362725. 7794.57   1
  -2   9   6 367467. 7745.62   1
   9  -2   6 381816. 7834.87   1
  -9   2  -6 362868. 7752.34   1
   2  -9  -6 370880. 7820.84   2
   7  -9  -6 391382. 7972.90   2
  -9   7  -6 353276. 7620.21   1
  -2  -7   6 382603. 7830.58   2
   9  -7   6 374634. 7670.01   1
  -7   9   7 83397.3 3304.80   1
   7  -9  -7 85028.0 3381.40   1
   2  -9  -7 91784.9 3500.46   1
   9  -2   7 89328.8 3394.56   1
  -2   9   7 87911.8 3382.15   1
  -9   7  -7 82667.1 3252.25   1
  -9   2  -7 84269.0 3358.62   1
  -2  -7   7 92047.6 3477.90   2
   9  -7   7 85835.1 3266.87   1
   2  -9  -7 88952.1 3449.71   2
   7  -9  -7 87096.6 3361.38   2
   2  -9  -8 4431.91 779.371   2
   9  -2   8 4979.43 826.540   1
   7  -9  -8 5336.45 819.210   1
  -7   9   8 5764.58 858.928   1
   2  -9  -8 4577.98 744.535   1
  -2   9   8 5218.29 776.435   1
   9  -7   8 7523.78 944.598   1
  -9   2  -8 5159.14 844.872   1
  -9   7  -8 6756.94 895.319   1
  -7   9   9 78621.7 3279.67   1
   7  -9  -9 83495.1 3364.69   1
   9  -2   9 86736.4 3416.56   1
   2  -9  -9 86564.2 3411.36   1
  -2   9   9 89292.4 3417.37   1
  -9   2  -9 82159.2 3380.24   1
   9  -7   9 84865.1 3380.67   1
  -9   7  -9 77992.2 3288.38   1
   2  -9  -9 83334.1 3399.69   2
  -7   9  10 61928.1 2901.26   1
   7  -9 -10 60958.1 2891.75   1
   9  -2  10 62485.3 2881.45   1
   2  -9 -10 59368.3 2860.31   1
  -2   9  10 60802.4 2863.05   1
  -9   2 -10 56427.2 2785.65   1
   9  -7  10 59086.2 2817.91   1
  -9   7 -10 64040.2 2957.19   1
   2  -9 -10 54875.3 2786.56   2
  -7   9  11 66893.3 3075.52   1
   9  -2  11 81668.2 3346.39   1
   7  -9 -11 66312.8 3060.46   1
   2  -9 -11 79129.2 3334.55   1
  -2   9  11 76345.2 3212.34   1
  -9   2 -11 81284.4 3374.83   1
   9  -7  11 74509.6 3208.48   1
  -9   7 -11 71572.2 3240.68   1
   2  -9 -11 71661.7 3214.91   2
   9  -2  12 17871.5 1530.99   1
  -7   9  12 13560.6 1373.87   1
   7  -9 -12 14984.6 1438.34   1
   2  -9 -12 17398.4 1497.98   1
  -2   9  12 15887.5 1474.94   1
   9  -7  12 16439.2 1485.05   1
  -9   2 -12 17543.5 1570.80   1
  -9   7 -12 17236.8 1543.29   1
   2  -9 -12 15621.3 1555.01   2
   9  -2  13 21599.1 1738.94   1
  -7   9  13 17828.8 1599.20   1
   7  -9 -13 18021.4 1586.24   1
   2  -9 -13 21863.5 1786.31   1
  -2   9  13 22431.1 1755.58   1
  -9   2 -13 19958.3 1707.27   1
  -9   7 -13 17886.5 1593.24   1
   2  -9 -13 16722.8 1616.92   2
   9  -2  14 148279. 4882.16   1
   7  -9 -14 146461. 4946.95   1
   2  -9 -14 160849. 5012.51   1
  -2   9  14 156007. 4939.24   1
  -9   2 -14 156493. 5047.69   1
   7  -9 -15 3090.76 657.915   1
  -1  -8 -14 123202. 4533.49   2
  -8  -1 -13 11233.1 1265.25   2
  -1  -8 -13 11234.6 1267.41   1
   1   8  13 12909.7 1351.61   1
  -8  -1 -13 12618.0 1353.54   1
   8   1  13 12145.2 1324.46   1
  -1  -8 -13 11623.4 1348.47   2
   9  -8 -12 2213.38 573.932   1
  -1  -8 -12 2270.88 617.251   2
  -8  -1 -12 2264.32 586.690   2
  -9   8  12 2604.11 611.548   1
  -1  -8 -12 2629.08 680.783   1
   8   1  12 2840.70 653.287   1
  -8  -1 -12 2137.87 572.886   1
   1   8  12 2357.23 593.433   1
  -9   8  11 68820.2 3158.55   1
  -8  -1 -11 75770.7 3262.81   2
   9  -8 -11 67620.7 3178.36   1
  -1  -8 -11 74797.3 3283.32   1
   1   8  11 73840.2 3180.73   1
  -8  -1 -11 70871.7 3217.17   1
  -1  -8 -11 73502.0 3285.07   2
   8   1  11 77032.4 3241.40   1
  -9   8  10 132255. 4527.27   1
  -8  -1 -10 167389. 4940.44   2
   9  -8 -10 153236. 4828.33   1
  -1  -8 -10 150938. 4782.83   1
   1   8  10 142726. 4592.85   1
  -8  -1 -10 156831. 4821.40   1
  -8   9 -10 144546. 4702.30   1
   1  -9  10 137086. 4676.63   2
  -1  -8 -10 149526. 4759.76   2
   8   1  10 165564. 4864.81   1
  -8  -1  -9 122567. 4116.28   2
   9  -8  -9 120136. 4126.59   1
  -1  -8  -9 112948. 3988.96   1
   1  -9   9 106530. 3977.24   2
   1   8   9 109685. 3920.81   1
  -8  -1  -9 105718. 3920.13   1
  -8   9  -9 109245. 4000.53   1
  -1  -8  -9 111550. 4013.82   2
   8  -9   9 101336. 3805.20   1
   8   1   9 114532. 4001.97   1
  -9   8   9 102303. 3832.70   1
   8   1   8 110604. 3925.01   1
  -8  -1  -8 109253. 3916.09   2
   8  -9   8 117381. 4023.76   1
   9  -8  -8 116004. 4016.95   1
  -1  -8  -8 110164. 3982.09   1
   1   8   8 113551. 3971.63   1
  -8  -1  -8 111850. 4032.43   1
   1  -9   8 109657. 4002.44   2
  -8   9  -8 115836. 4053.22   1
  -1  -8  -8 115341. 4035.79   2
  -9   8   8 101317. 3796.23   1
   8   1   7 13754.5 1325.90   1
  -8  -1  -7 13747.6 1344.01   2
   9  -8  -7 14079.7 1357.72   1
   8  -9   7 14629.1 1308.41   1
  -1  -8  -7 13359.6 1288.25   1
   1   8   7 13086.2 1296.22   1
  -8  -1  -7 15224.8 1432.07   1
   1  -9   7 14124.3 1353.39   2
  -8   9  -7 14154.8 1349.61   1
  -1  -8  -7 14293.8 1338.21   2
  -9   8   7 13726.1 1302.36   1
   8   1   6 172819. 4987.86   1
  -8  -1  -6 182559. 5164.32   2
   9  -8  -6 177974. 5021.76   1
   8  -9   6 183677. 5078.94   1
  -1  -8  -6 174599. 5014.74   1
   1   8   6 176253. 5031.40   1
  -8  -1  -6 169694. 4999.81   1
   1  -9   6 184478. 5172.09   2
  -8   9  -6 183112. 5121.29   1
  -1  -8  -6 180755. 5095.08   2
  -9   8   6 179911. 5041.20   1
   9  -8  -5 44466.0 2346.29   1
  -8  -1  -5 36242.2 2145.12   2
   8   1   5 36718.0 2162.24   1
  -1  -8  -5 40015.1 2283.93   1
   8  -9   5 42264.3 2272.57   1
   1   8   5 38458.9 2216.21   1
  -8  -1  -5 40532.2 2271.35   1
   1  -9   5 41593.2 2295.87   2
  -8   9  -5 42337.7 2306.56   1
  -1  -8  -5 36621.1 2177.99   2
  -9   8   5 46157.0 2357.78   1
  -1  -8  -4 114.938 270.586   2
  -8  -1  -4 182.592 280.810   2
  -8   9  -4 313.208 324.636   1
  -9   8   4 766.408 394.535   1
   9  -1  -4-83.7750 217.804   1
   9  -8  -4 207.333 244.555   1
  -1  -8  -4 98.1023 280.144   1
  -8  -1  -4 525.968 359.125   1
   8   1   4 901.356 424.406   1
   1  -9   4-117.266 267.497   2
   8  -9   4-76.0920 273.833   1
   1   8   4-44.0326 247.274   1
  -9   1   4-89.9140 214.197   1
  -8  -1  -3 145982. 4400.50   2
   8   1   3 131762. 4210.84   1
  -1  -8  -3 141883. 4392.21   1
   9  -1  -3 136357. 4262.82   1
   1   8   3 125995. 4180.64   1
  -8  -1  -3 151248. 4470.47   1
  -9   1   3 143622. 4311.24   1
   8  -9   3 138504. 4273.73   1
   8  -9   3 137435. 4398.59   2
   1  -9   3 134193. 4253.31   2
   9  -8  -3 137833. 4307.91   1
  -1  -8  -3 138248. 4294.59   2
  -8   9  -3 141013. 4316.52   1
  -9   8   3 137390. 4270.39   1
   8  -9   2 189273. 5152.27   1
  -8  -1  -2 201105. 5344.90   2
   8   1   2 200011. 5316.77   1
   1  -9   2 210362. 5323.35   1
  -1   9  -2 212264. 5285.77   1
  -1  -8  -2 216577. 5528.65   1
   9  -1  -2 203030. 5288.34   1
   1   8   2 209159. 5379.35   1
  -8  -1  -2 201627. 5324.43   1
   8  -9   2 200697. 5434.49   2
  -9   1   2 222446. 5471.38   1
   9  -8  -2 191520. 5123.88   1
   1  -9   2 188634. 5242.95   2
  -1  -8  -2 203969. 5378.34   2
  -9   8   2 175060. 4983.14   1
  -8   9  -2 190557. 5206.01   1
  -8  -1  -1 111246. 3745.95   2
   8   1   1 98767.8 3529.34   1
   1  -9   1 98660.6 3538.88   1
   1  -9   1 99256.7 3594.01   2
  -1  -8  -1 107870. 3729.61   1
  -1   9  -1 102669. 3564.01   1
   9  -1  -1 97792.2 3524.96   1
   8  -9   1 98564.8 3667.76   2
   1   8   1 104363. 3612.24   1
  -8  -1  -1 114637. 3815.98   1
  -9   1   1 101861. 3595.72   1
   9  -8  -1 95660.5 3480.06   1
  -1  -8  -1 100046. 3570.49   2
   8  -9   1 104505. 3583.60   1
  -9   8   1 103452. 3629.51   1
  -8   9  -1 99193.1 3545.97   1
  -8  -1   0 19155.9 1476.18   2
   8  -9   0 20457.6 1530.28   1
  -9   1   0 18160.5 1446.31   2
   8   1   0 20434.9 1577.98   1
   1  -9   0 21465.9 1611.51   1
  -1  -8   0 23009.0 1637.33   1
  -1   9   0 20189.6 1563.26   1
   9  -1   0 21364.1 1590.81   1
   1   8   0 20212.6 1520.59   1
  -8  -1   0 21914.5 1606.02   1
   9  -8   0 20237.1 1531.86   1
  -9   1   0 21539.0 1591.31   1
   8  -9   0 20653.8 1598.99   2
   1  -9   0 15966.3 1418.74   2
  -1  -8   0 20007.7 1566.18   2
  -9   8   0 19651.3 1537.25   1
  -8   9   0 22512.4 1630.31   1
  -9   1  -1 76167.7 3048.14   2
   8  -9  -1 79942.4 3233.30   2
   8   1  -1 78907.2 3095.43   1
   8  -9  -1 73967.3 3035.38   1
   1  -9  -1 78986.0 3145.70   1
  -1  -8   1 74493.2 3026.76   1
  -1   9   1 79136.5 3112.41   1
   9  -1   1 74966.0 3075.77   1
   1   8  -1 74426.0 2991.84   1
   9  -8   1 76220.8 3011.38   1
  -8  -1   1 80910.5 3149.72   1
  -9   1  -1 87654.9 3277.69   1
   1  -9  -1 78637.1 3159.61   2
  -1  -8   1 73726.4 3051.72   2
  -9   8  -1 77859.9 3097.80   1
  -8   9   1 77509.3 3123.48   1
  -8   9   2 312839. 6937.32   1
  -9   1  -2 360164. 7303.92   2
   8   1  -2 341461. 7195.73   1
   1  -9  -2 324562. 7101.43   1
   8  -9  -2 319316. 6994.78   1
  -1   9   2 292377. 6819.37   1
   9  -1   2 310533. 6914.79   1
   9  -8   2 302797. 6821.87   1
  -8  -1   2 324188. 6989.72   1
  -9   1  -2 292303. 6867.07   1
   8  -9  -2 310544. 7054.78   2
  -1  -8   2 312218. 7022.11   2
   1  -9  -2 314149. 7005.30   2
  -9   8  -2 307807. 6959.58   1
  -8   9   3 46895.9 2415.86   1
  -9   1  -3 48634.5 2450.50   2
   8   1  -3 46473.1 2379.12   1
   1  -9  -3 49218.2 2454.67   1
   9  -8   3 47190.9 2407.87   1
   9  -1   3 47867.8 2407.54   1
  -1   9   3 47054.4 2426.24   1
   8  -9  -3 44533.3 2355.62   1
  -9   1  -3 55561.7 2617.06   1
   8  -9  -3 48695.3 2485.96   2
  -1  -8   3 48860.1 2458.75   2
  -9   8  -3 52223.7 2476.54   1
   1  -9  -3 44315.4 2338.79   2
  -8   9   4 89374.9 3415.48   1
  -9   1  -4 97646.7 3549.92   2
   9  -8   4 88068.4 3343.73   1
   1  -9  -4 88063.3 3476.96   1
   9  -1   4 97574.1 3552.34   1
  -1   9   4 90623.4 3461.57   1
   8  -9  -4 90376.2 3425.52   1
  -9   1  -4 100250. 3626.17   1
   8  -9  -4 96635.6 3603.19   2
  -1  -8   4 92266.0 3448.74   2
  -9   8  -4 90680.7 3447.59   1
   1  -9  -4 89351.3 3405.12   2
  -8   9   5 56655.8 2642.18   1
  -9   1  -5 57539.3 2749.03   2
  -9   8  -5 58447.9 2686.64   1
   9  -8   5 58473.0 2661.70   1
   9  -1   5 52843.3 2634.76   1
   1  -9  -5 54601.3 2695.62   1
  -1   9   5 59566.0 2765.23   1
  -9   1  -5 64847.0 2842.94   1
   8  -9  -5 60795.1 2743.84   1
   8  -9  -5 57993.2 2755.16   2
  -1  -8   5 58868.9 2730.79   2
   1  -9  -5 56635.8 2698.65   2
  -8   9   6 125355. 4150.63   1
   9  -8   6 122434. 4015.64   1
  -9   1  -6 130508. 4258.53   2
   9  -1   6 126898. 4163.15   1
   1  -9  -6 129671. 4257.14   1
  -1   9   6 126534. 4149.27   1
  -9   1  -6 126318. 4163.77   1
   8  -9  -6 117357. 4013.32   1
  -9   8  -6 119560. 4070.29   1
  -1  -8   6 130452. 4282.73   2
   1  -9  -6 130233. 4235.91   2
  -8   9   7 109096. 3923.66   1
  -9   1  -7 110552. 3921.27   2
   9  -1   7 119087. 4019.68   1
   1  -9  -7 113653. 3985.88   1
  -1   9   7 110362. 3893.70   1
  -9   1  -7 117967. 4041.80   1
  -9   8  -7 111264. 3956.44   1
  -1  -8   7 119295. 4065.13   2
   8  -9  -7 123314. 4077.22   1
   1  -9  -7 113095. 3928.49   2
   9  -8   7 114669. 3918.06   1
  -9   8  -8 3415.82 703.898   1
   1  -9  -8 3340.36 737.909   2
  -9   1  -8 3272.28 653.629   2
   9  -8   8 3324.81 657.602   1
  -8   9   8 4560.94 774.061   1
   9  -1   8 2842.34 561.509   1
   1  -9  -8 2933.26 659.640   1
  -1   9   8 2455.95 554.729   1
  -9   1  -8 3620.32 683.029   1
   8  -9  -8 4061.25 721.572   1
  -1  -8   8 3640.07 619.022   2
   8  -9  -9 39569.2 2313.86   1
  -8   9   9 40334.9 2342.29   1
  -9   1  -9 36959.0 2248.61   2
   9  -1   9 39570.1 2312.78   1
   1  -9  -9 42524.5 2403.33   1
  -1   9   9 41306.2 2317.22   1
  -9   1  -9 40913.6 2356.42   1
  -9   8  -9 39229.9 2306.28   1
   9  -8   9 39791.6 2283.90   1
   1  -9  -9 39254.9 2314.16   2
  -8   9  10 183196. 5271.97   1
   8  -9 -10 166731. 5128.28   1
   9  -1  10 182413. 5201.15   1
  -9   1 -10 182208. 5331.87   2
   1  -9 -10 189087. 5363.45   1
  -1   9  10 186368. 5193.95   1
  -9   1 -10 183979. 5254.29   1
   9  -8  10 170273. 5170.54   1
  -9   8 -10 171427. 5209.85   1
   1  -9 -10 180964. 5273.94   2
  -8   9  11 10914.5 1249.40   1
   9  -1  11 13511.9 1327.07   1
  -9   1 -11 12801.6 1267.53   2
   8  -9 -11 14181.9 1414.45   1
   1  -9 -11 13178.5 1317.37   1
  -1   9  11 14140.1 1310.27   1
  -9   1 -11 13589.8 1373.89   1
   9  -8  11 11400.4 1246.17   1
  -9   8 -11 12157.3 1339.48   1
   1  -9 -11 12227.2 1329.45   2
   1  -9 -12 6484.68 930.096   2
  -9   1 -12 6356.28 915.094   2
   8  -9 -12 7420.66 1053.14   1
  -8   9  12 6300.21 941.332   1
   1  -9 -12 8354.92 1032.77   1
   9  -1  12 7097.28 971.135   1
  -9   1 -12 5996.90 962.471   1
  -1   9  12 6852.79 972.585   1
  -9   8 -12 6750.92 993.808   1
   9  -1  13 87099.3 3574.98   1
  -8   9  13 68577.3 3305.23   1
   8  -9 -13 88649.1 3727.54   1
  -9   1 -13 93902.1 3641.88   2
   1  -9 -13 88444.3 3645.03   1
  -1   9  13 84181.5 3465.76   1
  -9   1 -13 88246.3 3670.77   1
   1  -9 -13 74994.9 3430.97   2
   8  -9 -14 91465.3 3866.09   1
  -8   9  14 88078.7 3838.05   1
   1  -9 -14 93535.8 3921.39   2
  -9   0  -1 195.239 288.002   2
  -9   9  -1 880.626 356.387   1
   9  -9  -1 440.189 232.316   1
  -9   9   1 720.957 344.090   1
   0  -9   1 293.457 263.062   1
   0  -9  -1 42.5338 271.296   1
   0   9  -1 145.599 268.407   1
   0   9   1 626.342 332.614   1
  -9   0  -1 390.407 294.200   1
  -9   0   1 76.3826 275.264   1
   9   0   1 377.971 260.208   1
   9  -9   1 798.377 321.196   1
   0  -9   1 512.665 362.137   2
   9   0  -1 677.353 337.469   1
   0  -9  -1 463.188 379.968   2
   9   0  -2 2077.90 554.368   1
  -9   0  -2 1765.19 445.501   2
  -9   9  -2 1537.65 404.169   1
   9  -9   2 1445.94 437.073   1
  -9   9   2 954.831 385.789   1
   9  -9  -2 1499.11 501.677   1
   0  -9  -2 1521.12 490.177   1
   0   9   2 1342.64 495.314   1
  -9   0  -2 1927.77 552.840   1
  -9   0   2 1506.42 470.440   1
   9   0   2 2270.27 546.386   1
   0  -9   2 2787.81 579.684   2
   0  -9  -2 974.828 358.370   2
   0  -9  -3 814.566 360.878   2
   9   0  -3 1294.37 412.982   1
  -9   9  -3 984.468 352.652   1
  -9   0  -3 1573.51 495.901   2
  -9   9   3 1025.37 392.694   1
   0  -9  -3 1470.32 485.564   1
   9  -9  -3 664.993 357.462   1
   9  -9   3 709.345 319.827   1
  -9   0  -3 918.584 461.767   1
   9  -9  -3 1219.11 446.655   2
   0   9   3 940.081 398.707   1
   9   0   3 1484.12 503.309   1
   0  -9   3 1947.92 545.714   2
  -9   0  -4 60236.9 2856.43   2
   9  -9  -4 54526.8 2592.26   1
   9   0   4 50981.4 2584.85   1
   0  -9  -4 54124.8 2682.71   1
   9  -9   4 56026.1 2643.45   1
   0   9   4 51392.3 2601.53   1
  -9   0  -4 52401.0 2641.86   1
   9  -9  -4 49148.8 2628.11   2
   0  -9   4 54949.0 2691.45   2
  -9   9  -4 54982.0 2647.57   1
   0  -9  -4 53046.7 2634.50   2
  -9   9   4 49258.0 2522.19   1
   0  -9  -5 170.567 332.613   2
  -9   9  -5 681.065 352.954   1
  -9   0  -5 909.992 394.093   2
  -9   9   5 117.190 306.210   1
   9  -9   5 60.5782 244.700   1
   0  -9  -5 565.205 323.930   1
  -9   0  -5 435.485 380.550   1
   0   9   5 473.017 222.343   1
   9   0   5 368.059 172.269   1
   9  -9  -5 346.705 419.994   1
   0  -9   5 305.640 229.083   2
   0  -9  -6 1089.99 376.179   2
   0   9   6 1468.55 526.901   1
  -9   9  -6 2099.01 554.780   1
   9  -9   6 2722.74 664.454   1
  -9   0  -6 2677.40 575.632   2
  -9   9   6 2854.36 637.207   1
   0  -9  -6 2488.90 567.159   1
  -9   0  -6 1897.11 519.156   1
   9   0   6 2156.01 568.374   1
   0  -9   6 1807.92 504.533   2
   9  -9  -6 2975.61 665.635   1
   0  -9  -7 545.458 263.405   2
  -9   9  -7 1491.42 476.946   1
   9  -9  -7 1011.90 433.402   1
  -9   0  -7 713.244 340.372   2
  -9   9   7 803.613 336.487   1
   0  -9  -7 921.859 419.960   1
   9  -9   7 542.251 272.043   1
  -9   0  -7 580.874 292.531   1
   9   0   7 927.711 406.335   1
   0  -9   7 941.928 378.284   2
   0   9   7 968.670 425.642   1
  -9   9   8 235617. 6144.55   1
   9   0   8 253529. 6218.62   1
  -9   0  -8 247643. 6282.70   2
   0  -9  -8 230882. 6129.30   1
   9  -9  -8 256762. 6341.30   1
   0   9   8 238798. 6119.91   1
  -9   0  -8 230251. 6091.91   1
   0  -9   8 225167. 6158.85   2
  -9   9  -8 236731. 6170.03   1
   0  -9  -8 239993. 6170.68   2
   9  -9   8 234539. 6064.18   1
  -9   9  -9 745.530 333.499   1
   0  -9  -9 629.194 332.003   2
  -9   0  -9 967.339 369.193   2
   9  -9   9 100.185 199.188   1
  -9   9   9 66.3831 256.878   1
   9  -9  -9 235.381 282.749   1
   0  -9  -9 1021.95 439.278   1
   9   0   9 919.639 398.274   1
  -9   0  -9 677.261 395.842   1
   0   9   9 635.522 366.586   1
   9  -9  10 2662.66 659.778   1
   0  -9 -10 2799.53 650.751   2
  -9   0 -10 3932.17 801.270   2
  -9   9  10 2290.71 638.065   1
   0  -9 -10 2564.15 637.118   1
   9  -9 -10 1886.63 594.473   1
   9   0  10 3095.74 599.083   1
  -9   0 -10 3056.44 661.487   1
   0   9  10 2552.38 601.529   1
  -9   9 -10 2580.74 648.225   1
   0  -9 -11 525.656 315.710   2
  -9   0 -11 695.553 444.106   2
  -9   9  11-350.527 396.082   1
   0  -9 -11 291.706 239.599   1
   9   0  11 449.135 332.187   1
   9  -9 -11-41.4365 265.814   1
  -9   0 -11-182.420 405.220   1
   0   9  11 290.000 362.982   1
  -9   9  12 297055. 7504.46   1
  -9   0 -12 359963. 7890.25   2
   0  -9 -12 326460. 7626.93   1
   0   9  12 329947. 7534.21   1
   9  -9 -12 307092. 7625.91   1
  -9   0 -12 330858. 7674.63   1
   0  -9 -12 338702. 7844.74   2
   9   0  12 338226. 7633.06   1
   0  -9 -13 755.973 405.908   2
   9  -9 -13 803.304 420.603   1
  -5  -5 -13 366.747 364.738   2
  -5  -5 -12 730908. 12939.5   1
   5   5  12 701294. 12563.4   1
  -5  -5 -11 389.456 257.544   2
   5   5  11 216.157 282.430   1
  -5  -5 -11 85.4586 231.930   1
  -5  -5 -10 27897.7 2005.68   2
  -5  -5 -10 29364.0 2047.52   1
   5   5  10 30175.1 2010.41   1
   5 -10  10 27947.3 2029.73   2
  -5  -5  -9 144.597 316.175   2
   5   5   9 169.047 399.385   1
  -5  -5  -9 674.018 414.119   1
   5 -10   9 438.251 393.032   2
  10  -5  -8 92553.0 3519.57   1
  -5  -5  -8 90186.7 3559.28   1
   5   5   8 79946.5 3395.01   1
   5 -10   8 86132.5 3470.96   2
  -5  -5  -8 83722.0 3440.65   2
 -10   5   7 237.401 319.041   1
  -5  -5  -7-152.176 240.564   2
   5   5   7-87.7449 212.587   1
  -5  -5  -7 547.331 397.163   1
   5 -10   7 334.925 314.649   2
  10  -5  -7 108.249 235.896   1
  10  -5  -6 22881.8 1629.89   1
  -5  -5  -6 19613.7 1548.58   1
   5   5   6 21068.6 1632.69   1
   5 -10   6 21554.1 1596.92   2
 -10   5   6 18152.8 1526.91   1
  -5  -5  -6 19179.2 1601.81   2
 -10   5   5-55.8757 209.711   1
  -5  -5  -5-373.911 321.959   2
   5   5   5 67.7371 281.086   1
  -5  10  -5-213.981 346.084   1
  -5  -5  -5 92.2855 295.397   1
  10  -5  -5-482.695 386.426   1
   5 -10   5-136.856 227.986   2
   5 -10   5-186.254 324.038   1
  -5  10  -4 235533. 5783.49   1
  10  -5  -4 215471. 5535.20   1
  -5  -5  -4 215224. 5710.78   1
   5 -10   4 233015. 5762.26   1
   5   5   4 213905. 5703.61   1
   5 -10   4 222464. 5724.89   2
 -10   5   4 238330. 5841.72   1
  -5  -5  -4 207366. 5640.60   2
 -10   5   3-316.134 338.160   1
  -5  -5  -3-37.4931 302.807   2
   5 -10   3 330.282 233.874   1
   5   5   3 126.269 231.861   1
  -5  10  -3 331.519 303.927   1
  -5  -5  -3-251.546 340.323   1
  10  -5  -3 224.448 268.710   1
   5 -10   3-117.600 318.675   2
  -5  10  -2 45514.2 2323.03   1
   5 -10   2 44314.6 2325.41   1
  -5  -5  -2 41463.2 2251.80   1
   5   5   2 41181.0 2284.64   1
   5 -10   2 38480.0 2214.61   2
 -10   5   2 40021.7 2196.41   1
  -5  -5  -2 41464.7 2300.43   2
  10  -5  -2 40141.2 2179.93   1
 -10   5   1-117.164 258.256   1
  -5  -5  -1 346.586 239.855   2
   5   5   1 355.865 313.295   1
   5 -10   1 369.522 352.386   1
  -5  10  -1-236.589 338.485   1
  10  -5  -1 602.427 389.466   1
  -5  -5  -1-11.2118 204.169   1
   5 -10   1 296.713 207.857   2
  -5  -5   1 457.531 355.931   2
  10  -5   1 321.104 301.153   1
   5   5  -1 364.380 301.414   1
   5 -10  -1-19.7025 225.775   1
  -5  10   1-136.256 309.069   1
  -5  -5   1 215.283 206.517   1
   5 -10  -1 357.339 278.564   2
 -10   5  -1 205.973 266.588   1
  -5  10   2 22610.2 1663.44   1
   5 -10  -2 20367.3 1592.11   1
 -10   5  -2 21198.9 1604.62   1
   5 -10  -2 21144.7 1649.20   2
  10  -5   2 22494.2 1611.39   1
  -5  -5   2 21989.9 1659.06   2
  -5  -5   3 179.949 268.439   2
   5 -10  -3 149.700 279.096   1
  -5  10   3 82.9075 279.462   1
   5 -10  -3-187.337 269.637   2
  10  -5   3-4.20382 182.641   1
 -10   5  -3 267.536 238.350   1
  -5  10   4 258262. 6186.46   1
   5 -10  -4 242427. 6058.75   1
  10  -5   4 243198. 6006.71   1
 -10   5  -4 252850. 6147.06   1
   5 -10  -4 248338. 6156.65   2
   5 -10  -5-217.253 268.869   1
  -5  10   5-1.64921 301.520   1
  10  -5   5-291.458 220.669   1
   5 -10  -5 73.0697 285.883   2
 -10   5  -5 240.900 270.905   1
   5 -10  -6 46039.4 2445.76   1
  -5  10   6 42197.5 2294.93   1
  10  -5   6 47057.9 2352.72   1
 -10   5  -6 43323.8 2344.18   1
   5 -10  -6 42936.7 2410.91   2
   5 -10  -7-70.9915 264.036   1
  -5  10   7 98.6034 233.071   1
  10  -5   7 532.824 386.389   1
 -10   5  -7 557.847 404.159   1
   5 -10  -7 449.494 341.085   2
   5 -10  -8 55719.9 2720.24   1
  -5  10   8 55824.2 2684.49   1
  10  -5   8 57691.1 2704.84   1
 -10   5  -8 53828.6 2703.07   1
   5 -10  -8 52884.6 2749.00   2
   5 -10  -9 400.934 438.660   1
  10  -5   9 293.204 276.082   1
  -5  10   9 80.6713 275.227   1
 -10   5  -9 184.116 323.463   1
   5 -10  -9-218.456 285.630   2
   5 -10 -10 19090.6 1606.52   1
  -5  10  10 17973.3 1539.93   1
  10  -5  10 18117.4 1541.71   1
 -10   5 -10 18447.6 1572.56   1
   5 -10 -10 18667.1 1651.06   2
  10  -5  11-13.3875 241.166   1
   5 -10 -11 414.223 328.509   1
  -5  10  11-56.1218 263.869   1
 -10   5 -11 326.019 328.728   1
   5 -10 -12 948858. 15524.1   1
  10  -5  12 907758. 15377.3   1
 -10   5 -12 932196. 15552.9   1
  10  -5  13 190.639 229.822   1
   5 -10 -13 189.716 205.617   1
  -5  10  13 287.759 290.815   1
 -10   5 -13 223.754 226.913   1
 -10   5 -14 5931.84 935.767   1
  10  -5  14 5914.69 983.558   1
  -4  -6 -13 8339.12 1134.14   2
  -6  -4 -12 21309.8 1771.78   2
  -4  -6 -12 24616.6 1861.18   1
  -6  -4 -12 20927.9 1742.46   1
   4   6  12 24346.7 1807.99   1
   6   4  12 21964.2 1754.84   1
  -4  -6 -12 23753.8 1867.82   2
  -6  -4 -11 156051. 4940.69   2
  -4  -6 -11 160381. 4939.72   1
  -6  -4 -11 166855. 5136.31   1
   4   6  11 164928. 4935.78   1
   6   4  11 164938. 4991.20   1
  -4  -6 -11 154245. 4962.97   2
  -6  -4 -10 166089. 5021.48   2
  -4  -6 -10 166526. 5058.88   1
  -6  -4 -10 156559. 4915.51   1
   4   6  10 158808. 4889.47   1
   4 -10  10 151435. 4936.00   2
   6   4  10 175769. 5057.29   1
  -4  -6 -10 164340. 5032.67   2
  -6  -4  -9 135827. 4474.97   2
  -4  -6  -9 118736. 4172.57   1
  10  -6  -9 115229. 4131.21   1
  -6  -4  -9 121261. 4226.59   1
   4   6   9 120876. 4174.43   1
   6 -10   9 121284. 4281.61   2
   4 -10   9 118278. 4174.68   2
   6   4   9 126242. 4238.70   1
 -10   6   9 120968. 4267.17   1
  -4  -6  -9 128369. 4355.47   2
  -6  -4  -8 21188.3 1723.86   2
  10  -6  -8 20120.6 1600.06   1
  -4  -6  -8 17819.4 1545.60   1
  -6  -4  -8 19398.8 1606.52   1
   4   6   8 21564.1 1684.27   1
   6 -10   8 17178.0 1576.20   2
   4 -10   8 20214.4 1670.35   2
   6   4   8 21433.7 1637.30   1
 -10   6   8 20362.8 1623.72   1
  -4  -6  -8 19354.6 1641.21   2
  -4  -6  -7 5701.05 872.820   2
   4   6   7 5623.76 833.904   1
 -10   6   7 5673.26 899.581   1
  -6  -4  -7 5510.19 860.583   2
   6   4   7 5556.14 865.228   1
  10  -4  -7 5968.12 879.322   1
   6 -10   7 4546.01 808.129   2
  -4  -6  -7 6165.11 922.939   1
  10  -6  -7 4970.11 777.920   1
  -6  -4  -7 4985.73 828.231   1
   4 -10   7 5863.91 921.507   2
  -6  -4  -6 96395.9 3655.54   2
  10  -6  -6 97073.5 3579.97   1
  -4  -6  -6 91343.8 3575.82   1
  -6  -4  -6 92699.7 3554.18   1
   6 -10   6 99429.7 3626.06   1
   4   6   6 92125.4 3579.96   1
   6 -10   6 94691.8 3618.25   2
   4 -10   6 95909.5 3620.40   2
 -10   4   6 98523.2 3612.63   1
   6   4   6 94048.0 3608.96   1
 -10   6   6 92472.9 3526.73   1
  10  -4  -6 108168. 3730.90   1
  -6  10  -6 105888. 3755.99   1
  -4  -6  -6 96301.0 3617.90   2
  -6  -4  -5 20712.2 1661.95   2
  10  -6  -5 25794.0 1737.24   1
  -4  -6  -5 23559.5 1733.73   1
  -6  -4  -5 22452.4 1709.57   1
   4   6   5 24439.0 1781.13   1
   6 -10   5 22441.1 1682.40   2
 -10   4   5 28094.6 1852.47   1
   4 -10   5 23899.3 1761.49   2
   6   4   5 22440.3 1736.65   1
 -10   6   5 22494.5 1658.71   1
  10  -4  -5 24838.7 1693.97   1
  -4  -6  -5 23160.4 1774.21   2
  -6  10  -5 26210.9 1755.69   1
   6 -10   5 25923.8 1790.90   1
  -4  -6  -4 3047.30 609.485   2
 -10   6   4 3304.94 610.043   1
   4   6   4 3034.09 646.690   1
  -6  -4  -4 3044.58 689.791   2
  10  -4  -4 2889.79 595.635   1
  -6  10  -4 2741.90 632.465   1
   6   4   4 3444.77 699.365   1
  -4  10  -4 3293.76 604.515   1
  10  -6  -4 3110.32 621.665   1
  -4  -6  -4 3546.12 693.029   1
  -6  -4  -4 2282.89 599.490   1
   6 -10   4 2568.44 589.745   1
   4 -10   4 3073.51 593.965   1
   6 -10   4 1932.35 531.777   2
   4 -10   4 2654.52 569.806   2
 -10   4   4 3196.92 617.344   1
  -6  10  -3 51899.0 2530.59   1
  -4  10  -3 56030.9 2607.93   1
  10  -6  -3 51619.7 2503.18   1
   6 -10   3 52802.0 2564.66   1
  -4  -6  -3 52478.6 2602.99   1
  -6  -4  -3 52640.8 2598.82   1
   4   6   3 52267.2 2570.93   1
 -10   4   3 47336.8 2414.57   1
   6 -10   3 51254.7 2528.20   2
   4 -10   3 53719.5 2563.82   2
   6   4   3 52092.9 2587.21   1
  10  -4  -3 48825.7 2434.70   1
 -10   6   3 47295.7 2427.57   1
  -4  -6  -3 49345.7 2526.39   2
  -6  -4  -3 54380.6 2656.25   2
  -6  10  -2 308484. 6963.81   1
  -4  10  -2 318075. 6979.04   1
   4 -10   2 323563. 7098.97   1
  10  -6  -2 314221. 6915.63   1
  -4  -6  -2 319065. 7086.69   1
  -6  -4  -2 329020. 7141.88   1
   6 -10   2 313745. 6973.99   1
   4   6   2 312951. 6999.47   1
 -10   4   2 306439. 6870.66   1
   6 -10   2 306768. 7054.88   2
   4 -10   2 304018. 6962.25   2
  10  -4  -2 313058. 6902.21   1
   6   4   2 318723. 7057.85   1
 -10   6   2 314044. 6998.65   1
  -4  -6  -2 300522. 6928.43   2
  -6  -4  -2 313816. 7186.57   2
  -6  10  -1 65237.8 2875.37   1
  10  -6  -1 62278.9 2759.58   1
  -4  10  -1 64701.9 2835.44   1
   4 -10   1 63593.7 2845.34   1
 -10   4   1 64201.0 2793.97   1
  -4  -6  -1 66981.9 2845.56   1
  -6  -4  -1 61518.7 2828.92   1
   4   6   1 64754.0 2838.36   1
   6 -10   1 61334.0 2849.00   2
  10  -4  -1 64113.5 2800.77   1
   4 -10   1 65038.8 2844.16   2
 -10   6   1 61329.2 2755.79   1
   6   4   1 64803.1 2858.87   1
   6 -10   1 60628.4 2763.48   1
  -4  -6  -1 63591.1 2851.64   2
  -6  -4  -1 66829.6 2922.04   2
  10  -6   0 67939.5 2815.31   1
  -6  10   0 63473.6 2816.24   1
   6 -10   0 63195.1 2828.32   2
  -4  10   0 66749.4 2894.90   1
   4 -10   0 65254.6 2901.58   1
   6 -10   0 65135.0 2870.54   1
  -4  -6   0 64501.0 2844.79   1
  -6  -4   0 65986.5 2875.19   1
   6   4   0 69211.4 2919.50   1
   4   6   0 62828.2 2801.57   1
 -10   4   0 72346.5 2986.56   1
  10  -4   0 65386.0 2815.99   1
 -10   6   0 66325.0 2866.04   1
  -4  -6   0 65132.4 2881.71   2
   4 -10   0 67563.8 2897.10   2
  -6  -4   0 68205.5 2921.38   2
  10  -6   1 128297. 4120.95   1
  -6  10   1 133809. 4283.79   1
  -4  10   1 139551. 4322.44   1
   4 -10  -1 140348. 4348.17   1
  -6  -4   1 134389. 4210.10   1
   4   6  -1 129918. 4176.70   1
  10  -4   1 148650. 4391.81   1
 -10   4  -1 135414. 4215.95   1
   6 -10  -1 138272. 4328.37   2
 -10   6  -1 127428. 4117.63   1
   4 -10  -1 139450. 4293.41   2
   6   4  -1 138169. 4262.28   1
  -4  -6   1 147456. 4426.89   2
  -6  -4   1 138189. 4311.83   2
  -6  10   2 335134. 7262.60   1
   6 -10  -2 348854. 7371.08   1
   4 -10  -2 342983. 7355.70   1
  -4  10   2 343078. 7329.46   1
  10  -4   2 325105. 7097.53   1
 -10   4  -2 319821. 7164.67   1
   6 -10  -2 337668. 7384.97   2
 -10   6  -2 342280. 7280.08   1
   4 -10  -2 337281. 7326.28   2
  -4  -6   2 327708. 7183.24   2
  -6  -4   2 321583. 7192.71   2
  10  -6   2 298681. 6935.75   1
  -6  10   3 64308.0 2875.81   1
   6 -10  -3 67341.2 2926.26   1
   4 -10  -3 65270.7 2921.32   1
  -4  10   3 66746.6 2884.41   1
  10  -4   3 68799.9 2876.05   1
 -10   4  -3 65235.6 2895.54   1
 -10   6  -3 67681.8 2840.81   1
   6 -10  -3 66516.8 2947.30   2
   4 -10  -3 66423.1 2944.90   2
  -4  -6   3 73205.3 3048.32   2
  10  -6   3 65503.6 2758.79   1
  -6  10   4 9605.62 1105.98   1
   6 -10  -4 11210.3 1138.53   1
   4 -10  -4 12114.1 1230.41   1
  -4  10   4 11170.1 1183.57   1
   6 -10  -4 9290.37 1086.71   2
  10  -4   4 12487.8 1180.99   1
 -10   4  -4 13157.1 1242.93   1
 -10   6  -4 10870.1 1152.87   1
   4 -10  -4 10348.7 1168.76   2
  10  -6   4 10084.9 1067.61   1
  -4  -6   4 10144.9 1156.33   2
 -10   6  -5 43476.6 2334.13   1
  -6  10   5 41179.6 2276.88   1
   6 -10  -5 41531.9 2326.34   1
   4 -10  -5 41194.2 2313.94   1
  -4  10   5 44931.7 2381.18   1
  10  -4   5 44319.6 2294.46   1
 -10   4  -5 48224.2 2443.43   1
  10  -6   5 44363.4 2344.17   1
   6 -10  -5 39606.9 2295.18   2
   4 -10  -5 42031.5 2338.66   2
  -6  10   6 57264.3 2692.61   1
   6 -10  -6 58727.2 2778.51   1
   4 -10  -6 52463.9 2648.51   1
  -4  10   6 53544.8 2634.06   1
  10  -4   6 57625.0 2623.69   1
  10  -6   6 56663.4 2667.90   1
 -10   4  -6 61155.0 2751.95   1
 -10   6  -6 60695.2 2762.91   1
   6 -10  -6 59031.0 2822.07   2
   4 -10  -6 54380.1 2699.18   2
  -6  10   7 74295.5 3133.68   1
   6 -10  -7 73319.7 3181.14   1
   4 -10  -7 75600.8 3183.72   1
  -4  10   7 75201.8 3143.33   1
  10  -4   7 70874.9 3046.83   1
 -10   4  -7 75156.3 3169.15   1
  10  -6   7 74498.4 3101.34   1
 -10   6  -7 80046.2 3276.68   1
   6 -10  -7 73077.8 3220.31   2
   4 -10  -7 76095.0 3240.66   2
  10  -4   8 1123.14 386.345   1
   6 -10  -8 778.568 350.829   1
   4 -10  -8 1262.97 480.659   1
  -6  10   8 1797.14 510.071   1
  -4  10   8 1975.31 526.227   1
  10  -6   8 1050.53 463.638   1
 -10   4  -8 1775.54 549.233   1
   6 -10  -8 1570.87 504.764   2
 -10   6  -8 657.622 440.286   1
   4 -10  -8 1181.49 382.710   2
  -6  10   9 9843.52 1115.11   1
   6 -10  -9 10516.2 1195.16   1
   4 -10  -9 10689.2 1176.53   1
  -4  10   9 9293.87 1104.96   1
  10  -4   9 12620.4 1259.01   1
  10  -6   9 9174.02 1112.41   1
 -10   4  -9 11310.1 1219.00   1
 -10   6  -9 9914.69 1158.52   1
   4 -10  -9 9934.37 1182.22   2
  -6  10  10 310967. 7198.34   1
   6 -10 -10 330562. 7456.20   1
   4 -10 -10 307511. 7257.43   1
  -4  10  10 305614. 7165.58   1
  10  -4  10 332373. 7360.51   1
  10  -6  10 312793. 7286.93   1
 -10   4 -10 310366. 7319.50   1
 -10   6 -10 314528. 7322.06   1
   4 -10 -10 295449. 7315.15   2
  -6  10  11 21146.2 1706.97   1
   6 -10 -11 19618.1 1635.61   1
   4 -10 -11 21400.6 1734.99   1
  -4  10  11 19853.2 1632.27   1
  10  -4  11 20372.6 1662.69   1
  10  -6  11 17415.4 1559.58   1
 -10   4 -11 20413.8 1704.70   1
 -10   6 -11 16651.1 1501.20   1
   4 -10 -11 19412.2 1661.09   2
  -6  10  12 59816.1 2930.14   1
   6 -10 -12 60277.9 2989.36   1
   4 -10 -12 56639.6 2875.56   1
  10  -4  12 66678.6 3035.61   1
  -4  10  12 62220.4 2954.36   1
  10  -6  12 55194.0 2796.66   1
 -10   4 -12 59585.6 2942.63   1
 -10   6 -12 54623.6 2869.76   1
  -6  10  13 157173. 4945.52   1
   6 -10 -13 139507. 4785.21   1
  10  -4  13 153703. 4977.93   1
   4 -10 -13 153770. 4956.82   1
  -4  10  13 164018. 4996.46   1
  10  -6  13 144333. 4866.85   1
 -10   4 -13 159312. 5073.48   1
 -10   6 -13 140732. 4842.67   1
 -10   6 -14 80965.0 3666.43   1
  -3  -7 -12 3529.64 747.156   2
  -7  -3 -12 2780.63 676.995   2
   7   3  12 3128.87 649.795   1
  -3  -7 -12 2958.85 619.429   1
  -7  -3 -12 2531.55 670.155   1
   3 -10  12 2400.65 666.921   2
   3   7  12 2956.77 657.782   1
  -7  -3 -11 8300.99 1075.50   2
  -3  -7 -11 6381.03 972.309   2
  -3  -7 -11 9094.69 1136.77   1
  -7  -3 -11 7497.81 1063.14   1
   7   3  11 7949.56 1049.90   1
   3 -10  11 7544.08 1074.17   2
   3   7  11 8644.69 1031.65   1
  -7  -3 -10 242639. 6228.11   2
  -3  -7 -10 242590. 6320.07   1
  -7  -3 -10 226125. 6132.48   1
   3   7  10 248395. 6263.58   1
  10  -7 -10 236555. 6210.61   1
   3 -10  10 200332. 5963.14   2
   7   3  10 234598. 6179.77   1
 -10   7  10 223914. 6173.11   1
  -3  -7 -10 257513. 6417.76   2
  -7  -3  -9 50005.2 2638.47   2
   7   3   9 47816.9 2541.29   1
  -3  -7  -9 50702.3 2646.57   1
  -7  -3  -9 48887.8 2629.02   1
   3   7   9 42983.0 2454.79   1
  10  -7  -9 45882.9 2521.75   1
   3 -10   9 45742.8 2566.24   2
 -10   7   9 44310.8 2526.05   1
  -3  -7  -9 49515.0 2634.50   2
  -7  -3  -8 16196.5 1462.07   2
   3 -10   8 11601.1 1289.21   2
  -3  -7  -8 13396.3 1374.50   1
  -7  -3  -8 12624.1 1293.35   1
  10  -7  -8 15003.1 1407.79   1
   3   7   8 13932.9 1374.72   1
   7   3   8 12699.0 1302.46   1
 -10   7   8 13677.8 1348.05   1
  -3  -7  -8 13492.9 1396.41   2
  -7  -3  -7 250610. 6293.26   2
  -3  -7  -7 225020. 6044.43   1
   7 -10   7 239662. 6119.76   1
  -7  -3  -7 247097. 6222.93   1
  10  -7  -7 249801. 6163.72   1
   3   7   7 227615. 6011.63   1
   7 -10   7 236386. 6179.89   2
   3 -10   7 228245. 6047.44   2
   7   3   7 234541. 6074.71   1
  -7  10  -7 247744. 6245.07   1
 -10   7   7 244068. 6115.45   1
  -3  -7  -7 234826. 6079.80   2
  -7  -3  -6 173882. 5082.62   2
  -3  -7  -6 155257. 4818.54   1
  -7  -3  -6 148418. 4744.67   1
  10  -7  -6 164298. 4837.73   1
   7 -10   6 157018. 4773.53   1
   3   7   6 159412. 4834.32   1
  10  -3  -6 159377. 4754.89   1
   7 -10   6 163275. 4867.36   2
   3 -10   6 158171. 4813.67   2
   7   3   6 170500. 4978.13   1
 -10   7   6 149518. 4664.28   1
  -7  10  -6 164684. 4894.43   1
  -3  -7  -6 163779. 4887.54   2
  -7  -3  -5 73280.5 3202.59   2
  -3  -7  -5 71032.3 3086.50   1
  10  -7  -5 73567.5 3092.81   1
  -7  -3  -5 75127.5 3201.20   1
   3   7   5 75646.2 3187.65   1
   7 -10   5 75108.1 3117.63   1
  10  -3  -5 77793.0 3178.62   1
 -10   3   5 71746.2 3102.16   1
   7 -10   5 67740.5 3068.28   2
   3 -10   5 69529.7 3028.13   2
 -10   7   5 73853.3 3101.91   1
   7   3   5 73427.4 3160.42   1
  -7  10  -5 78344.5 3213.73   1
  -3  -7  -5 71537.0 3082.00   2
  -7  -3  -4 34633.9 2164.93   2
  -3  -7  -4 33840.1 2107.07   1
  10  -7  -4 37592.1 2110.00   1
  -7  -3  -4 35781.2 2182.61   1
   3   7   4 32333.3 2031.22   1
  10  -3  -4 34639.9 2082.04   1
 -10   3   4 35299.0 2097.50   1
   3 -10   4 30452.6 1961.15   2
   7 -10   4 34188.3 2047.81   1
   7 -10   4 34808.2 2107.47   2
 -10   7   4 33567.4 2025.27   1
   7   3   4 32991.4 2064.70   1
  -3  -7  -4 31328.2 2035.68   2
  -7  10  -4 32671.9 2019.97   1
  -3  -7  -3 986.046 428.542   2
  -7  -3  -3 407.141 342.721   2
 -10   7   3 1309.07 456.600   1
  -7  10  -3 943.981 346.209   1
   3 -10   3 1026.39 398.819   1
  -3  10  -3 1545.92 508.167   1
   7   3   3 900.917 458.976   1
  -3  -7  -3 226.207 223.614   1
   7 -10   3 517.594 265.297   1
  10  -7  -3 627.200 231.809   1
  -7  -3  -3 413.519 358.047   1
  10  -3  -3 546.851 303.035   1
   7 -10   3 1446.59 492.406   2
   3 -10   3 1215.41 461.531   2
 -10   3   3 752.603 385.683   1
   3   7   3 583.939 421.974   1
  -7  10  -2 210756. 5600.63   1
  -7  -3  -2 215789. 5656.47   2
  -3  10  -2 221522. 5629.63   1
   3 -10   2 221026. 5657.60   1
   7 -10   2 197749. 5433.36   1
  10  -7  -2 210062. 5467.78   1
  -3  -7  -2 212201. 5571.16   1
  -7  -3  -2 212258. 5640.23   1
   3   7   2 223367. 5703.41   1
  10  -3  -2 222008. 5624.47   1
 -10   3   2 223554. 5648.40   1
   7 -10   2 202709. 5574.82   2
   3 -10   2 212284. 5597.84   2
 -10   7   2 202467. 5386.86   1
  -3  -7  -2 207905. 5548.36   2
   7   3   2 210352. 5588.02   1
  -7  -3  -1 20773.6 1675.07   2
  -7  10  -1 23361.7 1691.17   1
  -3  10  -1 20778.4 1596.08   1
   3 -10   1 21645.4 1643.77   1
  10  -7  -1 22406.8 1640.17   1
  -3  -7  -1 20760.1 1638.84   1
   7 -10   1 20939.5 1628.37   1
  -7  -3  -1 23198.8 1689.90   1
   3   7   1 21563.6 1633.68   1
  10  -3  -1 17139.9 1433.59   1
 -10   3   1 18255.4 1503.00   1
   7 -10   1 22128.0 1650.10   2
   3 -10   1 21145.3 1617.81   2
 -10   7   1 20560.5 1583.11   1
  -3  -7  -1 19763.6 1601.06   2
   7   3   1 20836.1 1626.60   1
  -7  10   0 36217.3 2087.38   1
   3 -10   0 33809.2 2086.24   1
  -3  10   0 35343.3 2082.98   1
  10  -7   0 35529.5 2029.18   1
  -3  -7   0 36394.6 2136.10   1
  -7  -3   0 33600.3 2097.23   1
   3   7   0 34444.1 2096.52   1
   7 -10   0 37961.6 2143.77   1
  10  -3   0 37906.7 2108.31   1
 -10   3   0 37656.0 2121.25   1
   7 -10   0 32933.8 2090.87   2
   3 -10   0 32747.6 2034.34   2
 -10   7   0 36614.0 2116.02   1
  -3  -7   0 33823.5 2056.16   2
   7   3   0 37217.4 2140.74   1
  -7  -3   0 35912.0 2138.04   2
  -7  10   1 98686.9 3606.51   1
  10  -7   1 100524. 3509.94   1
   3 -10  -1 98676.8 3635.30   1
  -3  10   1 90573.3 3461.59   1
   7 -10  -1 99184.8 3627.30   2
  -7  -3   1 93493.4 3531.29   1
  10  -3   1 101500. 3600.73   1
 -10   3  -1 97017.8 3592.33   1
 -10   7  -1 95947.6 3498.74   1
   7 -10  -1 92432.6 3494.77   1
   3 -10  -1 95006.2 3563.69   2
  -3  -7   1 94467.4 3565.18   2
   7   3  -1 98697.7 3573.19   1
  -7  -3   1 102131. 3686.31   2
  -7  10   2 164131. 4769.45   1
  10  -7   2 167624. 4695.36   1
   3 -10  -2 167706. 4858.37   1
  -3  10   2 167201. 4829.03   1
 -10   7  -2 165271. 4738.46   1
  10  -3   2 156691. 4671.66   1
 -10   3  -2 167413. 4859.31   1
   7 -10  -2 164212. 4855.64   2
   3 -10  -2 164585. 4800.50   2
  -3  -7   2 164388. 4814.63   2
   7 -10  -2 157358. 4753.96   1
  10  -7   3 106489. 3717.41   1
  -7  10   3 113978. 3852.74   1
   3 -10  -3 107990. 3874.84   1
   7 -10  -3 114221. 3894.52   1
  -3  10   3 110448. 3840.38   1
  10  -3   3 112537. 3819.91   1
 -10   3  -3 111426. 3870.01   1
   7 -10  -3 107453. 3872.34   2
 -10   7  -3 112037. 3855.92   1
   3 -10  -3 106819. 3788.05   2
  -3  -7   3 113487. 3925.08   2
 -10   7  -4 655.868 370.471   1
   7 -10  -4 635.471 320.690   1
   3 -10  -4 519.775 413.243   1
  -7  10   4 788.537 400.688   1
  10  -3   4 336.066 284.669   1
  10  -7   4 595.724 352.314   1
  -3  10   4-261.749 237.530   1
 -10   3  -4 173.589 323.248   1
   7 -10  -4 756.188 335.435   2
   3 -10  -4 136.379 238.982   2
  -3  -7   4 492.329 342.205   2
  -7  10   5 66744.7 2922.04   1
   7 -10  -5 68083.6 2997.66   1
   3 -10  -5 66092.1 2969.81   1
  -3  10   5 62647.1 2885.09   1
  10  -3   5 67047.8 2906.55   1
 -10   3  -5 67052.4 2967.44   1
   7 -10  -5 67605.5 3066.30   2
 -10   7  -5 70296.2 2990.01   1
   3 -10  -5 65775.4 2951.99   2
  -3  -7   5 70081.9 3062.57   2
  10  -7   5 72022.1 2968.61   1
  -7  10   6 302661. 6834.70   1
   7 -10  -6 277979. 6768.93   1
   3 -10  -6 308379. 7063.85   1
  -3  10   6 298386. 6874.60   1
  10  -3   6 306413. 6947.45   1
 -10   3  -6 300244. 6935.20   1
 -10   7  -6 295392. 6843.73   1
   7 -10  -6 299163. 7047.09   2
  10  -7   6 287455. 6709.37   1
   3 -10  -6 294869. 6953.88   2
  -7  10   7 58909.9 2777.15   1
   7 -10  -7 58518.3 2783.75   1
   3 -10  -7 57597.7 2770.06   1
  -3  10   7 58046.4 2779.77   1
  10  -3   7 60864.6 2802.29   1
 -10   3  -7 59527.8 2834.75   1
 -10   7  -7 52899.6 2671.01   1
  10  -7   7 63093.0 2824.06   1
   7 -10  -7 59358.7 2898.00   2
   3 -10  -7 55401.3 2786.56   2
  -7  10   8 65571.9 2952.06   1
   7 -10  -8 59352.7 2862.10   1
   3 -10  -8 61200.4 2963.84   1
  -3  10   8 62744.5 2899.80   1
  10  -3   8 64155.1 2899.42   1
 -10   3  -8 66930.5 3007.10   1
  10  -7   8 66132.3 2931.11   1
 -10   7  -8 63069.3 2948.73   1
   3 -10  -8 59178.6 2933.38   2
  -7  10   9 102781. 3805.73   1
   7 -10  -9 93848.8 3696.40   1
   3 -10  -9 101208. 3779.30   1
  10  -3   9 103147. 3760.25   1
  -3  10   9 104507. 3770.60   1
 -10   3  -9 101904. 3813.19   1
  10  -7   9 92457.6 3616.03   1
 -10   7  -9 98695.7 3806.12   1
   3 -10  -9 93692.4 3772.28   2
  -7  10  10 82266.6 3424.45   1
   7 -10 -10 81444.5 3442.78   1
   3 -10 -10 80246.6 3440.10   1
  10  -3  10 82894.5 3414.94   1
  -3  10  10 75216.6 3255.82   1
  10  -7  10 77481.5 3343.13   1
 -10   3 -10 88515.9 3530.26   1
 -10   7 -10 84837.9 3510.68   1
   3 -10 -10 81460.8 3527.89   2
  -7  10  11 26441.4 1924.51   1
   7 -10 -11 28389.3 1994.51   1
  10  -3  11 30586.5 1999.22   1
   3 -10 -11 31456.2 2102.20   1
  -3  10  11 22945.9 1787.54   1
  10  -7  11 26172.4 1911.40   1
 -10   3 -11 27250.9 1965.46   1
 -10   7 -11 27826.5 1966.15   1
   3 -10 -11 22860.7 1878.17   2
  -7  10  12 7948.74 1083.56   1
  10  -3  12 10020.8 1223.01   1
   7 -10 -12 9294.74 1153.77   1
  -3  10  12 9607.61 1083.82   1
   3 -10 -12 8341.03 1100.99   1
  10  -7  12 7312.78 1021.55   1
 -10   3 -12 9554.19 1188.45   1
 -10   7 -12 8791.06 1120.87   1
   3 -10 -12 9318.23 1154.39   2
  10  -7  13 1090.66 441.114   1
   7 -10 -13 741.723 402.730   1
  -7  10  13 617.955 334.196   1
 -10   7 -13 784.353 416.518   1
  -2  -8 -11 983.333 512.496   2
  -8  -2 -11 1738.57 547.591   2
  10  -8 -11 866.410 351.541   1
 -10   8  11 1226.38 482.020   1
   8   2  11 1488.07 506.832   1
  -2  -8 -11 800.012 245.910   1
  -8  -2 -11 1894.66 564.491   1
   2   8  11 1058.52 445.422   1
  -2  -8 -10 3825.27 785.281   2
  -8  -2 -10 3644.33 715.588   2
  10  -8 -10 4111.74 773.209   1
 -10   8  10 3103.00 676.309   1
   8   2  10 3938.25 752.174   1
  -2  -8 -10 3773.13 715.848   1
  -8  -2 -10 4620.23 834.812   1
   2 -10  10 3872.51 817.476   2
   2   8  10 3995.25 740.106   1
  -8  -2  -9 9693.56 1194.54   2
  -2  -8  -9 8728.47 1129.01   1
  -8  -2  -9 9156.61 1164.39   1
   2   8   9 9780.43 1166.89   1
   8   2   9 10313.6 1169.70   1
   2 -10   9 7850.06 1091.56   2
  10  -8  -9 11103.1 1214.94   1
  -2  -8  -9 10775.8 1238.89   2
 -10   8   9 8806.41 1103.63   1
  -8  -2  -8 285951. 7030.01   2
   8 -10   8 265511. 6828.77   1
  -2  -8  -8 305117. 7189.71   1
  -8  -2  -8 296336. 7167.34   1
   2   8   8 312077. 7144.69   1
   2 -10   8 294899. 7125.51   2
  10  -8  -8 306973. 7141.15   1
  -8  10  -8 292218. 7137.79   1
  -2  -8  -8 304923. 7129.48   2
 -10   8   8 298445. 7052.54   1
   8   2   8 318045. 7193.96   1
  -2  -8  -7 4405.69 831.250   2
  10  -8  -7 4967.47 844.587   1
  -8  10  -7 6134.33 918.904   1
  -8  -2  -7 5749.79 906.014   2
 -10   8   7 6077.53 886.854   1
   8 -10   7 5433.63 884.315   1
  -2  -8  -7 5399.46 895.880   1
   8   2   7 5689.25 902.563   1
  -8  -2  -7 5598.84 913.652   1
   2 -10   7 5173.64 853.525   2
   2   8   7 5140.38 838.748   1
  10  -8  -6 90.9165 256.940   1
  -2  -8  -6-484.205 255.844   2
  -8  10  -6-260.793 352.497   1
  -8  -2  -6 213.203 254.945   2
 -10   8   6 315.129 339.843   1
  -2  -8  -6-62.7974 220.916   1
   8   2   6 95.8209 243.863   1
   8 -10   6 215.273 343.906   1
  -8  -2  -6 403.716 382.664   1
   2 -10   6-221.955 307.658   2
   2   8   6 157.164 272.962   1
  -8  -2  -5 22275.9 1682.97   2
  -2  -8  -5 17900.5 1576.67   1
  -8  -2  -5 19415.8 1564.57   1
   2   8   5 21235.1 1677.91   1
   8 -10   5 20918.5 1596.44   1
  10  -8  -5 18253.4 1523.88   1
   2 -10   5 22683.2 1680.69   2
  -8  10  -5 19348.8 1615.69   1
  -2  -8  -5 19770.8 1652.38   2
 -10   8   5 21182.9 1673.09   1
   8   2   5 20461.9 1644.34   1
  -8  -2  -4 321285. 7342.57   2
  -2  -8  -4 300612. 7104.88   1
   2   8   4 312509. 7168.69   1
  -8  -2  -4 296702. 7017.68   1
  10  -2  -4 323473. 7211.72   1
  10  -8  -4 323499. 7136.25   1
   8 -10   4 298745. 6945.73   1
 -10   2   4 299221. 7014.06   1
   8 -10   4 315901. 7242.13   2
   2 -10   4 311815. 7150.39   2
  -2  -8  -4 320309. 7227.57   2
 -10   8   4 307337. 7050.89   1
  -8  10  -4 310062. 7153.14   1
   8   2   4 305162. 7060.66   1
  -2  -8  -3 1288.00 404.341   2
   8 -10   3 1325.25 442.213   1
  -8  -2  -3 2798.57 675.586   2
 -10   8   3 1969.85 498.750   1
  -8  10  -3 1762.89 550.026   1
  10  -2  -3 1410.87 438.996   1
  -2  -8  -3 2234.83 608.977   1
   8   2   3 1498.46 479.795   1
  -8  -2  -3 1356.01 472.666   1
   8 -10   3 893.899 400.042   2
  10  -8  -3 1343.00 447.858   1
 -10   2   3 1623.79 488.693   1
   2   8   3 2307.79 561.259   1
   2 -10   3 1435.84 486.808   2
   8   2   2 19338.4 1588.63   1
  -8  -2  -2 20006.8 1687.10   2
   2 -10   2 19914.8 1565.59   1
  -2  10  -2 19885.2 1574.08   1
   8 -10   2 19915.6 1641.19   2
  -2  -8  -2 17444.3 1565.39   1
   2   8   2 23489.6 1722.07   1
  10  -2  -2 22652.4 1634.26   1
  10  -8  -2 23052.4 1674.15   1
  -8  -2  -2 19130.7 1583.83   1
 -10   2   2 19243.4 1589.90   1
   2 -10   2 20246.0 1586.11   2
   8 -10   2 20462.2 1596.32   1
 -10   8   2 20361.5 1603.65   1
  -2  -8  -2 17486.3 1512.15   2
  -8  10  -2 20292.7 1573.78   1
  -2  -8  -1 3827.23 709.613   2
  -8  -2  -1 3707.38 693.633   2
 -10   8   1 4385.55 765.243   1
  -8  10  -1 4863.75 806.234   1
   2 -10   1 4319.38 713.807   1
  10  -2  -1 3909.10 744.549   1
  -2  -8  -1 3327.39 731.291   1
  -2  10  -1 4564.76 742.864   1
   8 -10   1 3551.25 679.375   1
   8   2   1 4804.86 775.097   1
  10  -8  -1 4778.28 779.271   1
  -8  -2  -1 4057.14 747.458   1
   8 -10   1 5483.36 868.807   2
   2   8   1 3516.94 694.527   1
 -10   2   1 4684.95 752.730   1
   2 -10   1 3719.92 661.114   2
  -8  -2   0 322689. 7251.17   2
   8   2   0 339361. 7402.81   1
   8 -10   0 314626. 7034.25   1
   2 -10   0 312498. 7143.15   1
  -2  10   0 313164. 7078.58   1
  -2  -8   0 308884. 7092.41   1
  10  -8   0 293571. 6864.49   1
   2   8   0 322926. 7142.82   1
  10  -2   0 308361. 7059.29   1
  -8  -2   0 321086. 7245.99   1
 -10   2   0 318924. 7149.80   1
   8 -10   0 312967. 7263.07   2
   2 -10   0 322192. 7206.47   2
 -10   8   0 305009. 7002.78   1
  -2  -8   0 305684. 7082.35   2
  -8  10   0 311853. 7103.45   1
  -2  -8   1 34.4341 257.684   2
   8 -10  -1 341.439 217.320   1
   8 -10  -1 110.167 341.327   2
 -10   8  -1 309.791 268.863   1
 -10   2  -1 378.945 360.806   2
  -8  10   1 365.004 345.641   1
  10  -2   1 636.291 417.235   1
   2 -10  -1-598.598 428.441   1
  10  -8   1 1629.38 546.101   1
  -2  10   1-734.713 418.593   1
   8   2  -1 379.199 362.403   1
  -8  -2   1-58.0890 294.831   1
 -10   2  -1 369.894 345.392   1
   2 -10  -1 57.6760 246.768   2
  -8  10   2 32746.2 2043.32   1
 -10   2  -2 31648.6 2057.43   2
  10  -8   2 33350.2 2011.16   1
   2 -10  -2 32192.6 2054.61   1
  -2  10   2 35057.7 2105.84   1
   8 -10  -2 33887.7 2041.50   1
  10  -2   2 32762.3 2030.65   1
 -10   2  -2 30121.0 1951.45   1
   8 -10  -2 33402.8 2119.32   2
   2 -10  -2 31522.7 2025.47   2
 -10   8  -2 33017.1 2039.19   1
  -2  -8   2 34888.1 2162.91   2
 -10   8  -3 7985.56 975.076   1
  10  -8   3 7448.12 942.412   1
 -10   2  -3 7066.75 983.609   2
  10  -2   3 6395.24 906.558   1
  -8  10   3 8267.51 970.021   1
   2 -10  -3 5793.56 895.101   1
  -2  10   3 6396.30 916.966   1
   8 -10  -3 8390.27 1045.64   2
   8 -10  -3 7681.14 941.920   1
 -10   2  -3 5035.46 833.928   1
  -2  -8   3 6917.90 998.877   2
   2 -10  -3 6306.08 931.459   2
  -8  10   4 437035. 8612.93   1
  10  -8   4 408712. 8348.09   1
   2 -10  -4 394813. 8498.31   1
  -2  10   4 399603. 8467.31   1
  10  -2   4 426832. 8572.17   1
 -10   2  -4 438349. 8744.49   1
   8 -10  -4 419262. 8492.45   1
   8 -10  -4 432208. 8854.01   2
 -10   8  -4 419790. 8567.99   1
  -2  -8   4 426180. 8714.52   2
   2 -10  -4 422417. 8641.24   2
 -10   8  -5 188.554 305.177   1
  10  -2   5 193.272 237.721   1
   8 -10  -5 415.205 229.477   1
  -8  10   5-180.100 287.304   1
   2 -10  -5 379.202 341.880   1
  10  -8   5 41.4618 264.845   1
  -2  10   5 33.2025 252.645   1
 -10   2  -5 449.614 327.977   1
   8 -10  -5 249.374 298.266   2
  -2  -8   5-469.684 354.602   2
   2 -10  -5 205.213 268.518   2
 -10   8  -6 2534.81 582.203   1
  10  -2   6 3616.29 677.396   1
  -8  10   6 2613.10 600.983   1
  10  -8   6 3029.52 622.875   1
   2 -10  -6 2075.72 535.684   1
   8 -10  -6 3498.50 719.042   1
  -2  10   6 3004.22 655.032   1
 -10   2  -6 2862.29 679.189   1
  -2  -8   6 2153.26 575.565   2
   2 -10  -6 2940.81 681.325   2
   8 -10  -7 15349.3 1421.28   1
  -8  10   7 13761.7 1358.01   1
   2 -10  -7 15079.1 1442.68   1
  10  -2   7 17135.9 1448.02   1
  -2  10   7 15657.3 1415.82   1
 -10   2  -7 15216.2 1406.76   1
 -10   8  -7 15594.9 1382.75   1
  10  -8   7 15303.6 1392.68   1
   2 -10  -7 15618.8 1451.65   2
  -8  10   8 288627. 6745.72   1
   8 -10  -8 267376. 6589.28   1
  10  -2   8 252832. 6418.98   1
   2 -10  -8 269741. 6692.73   1
  -2  10   8 265701. 6551.53   1
 -10   2  -8 264441. 6600.74   1
 -10   8  -8 264544. 6542.35   1
  10  -8   8 257003. 6444.21   1
   2 -10  -8 257707. 6548.99   2
   8 -10  -9 990.686 503.491   1
  -8  10   9-292.732 382.838   1
   2 -10  -9 73.3094 258.295   1
  -2  10   9-153.542 438.838   1
 -10   2  -9-48.4270 257.436   1
  10  -8   9 139.228 267.010   1
  10  -2   9 596.234 429.680   1
 -10   8  -9 75.8201 292.020   1
   2 -10  -9 357.773 288.332   2
  -8  10  10-4.31397 371.096   1
   2 -10 -10 109.596 307.154   1
   8 -10 -10 554.274 318.514   1
  -2  10  10-83.7590 252.626   1
  10  -8  10 715.653 355.616   1
 -10   2 -10 1172.28 419.098   1
  10  -2  10 717.457 434.217   1
 -10   8 -10 678.085 380.382   1
   2 -10 -10 473.318 356.437   2
   2 -10 -11 113.476 361.259   2
  -8  10  11 537.563 376.984   1
   2 -10 -11-146.408 360.415   1
  10  -8  11 853.445 332.187   1
  -2  10  11 423.612 237.738   1
   8 -10 -11 637.046 427.293   1
 -10   2 -11 670.745 390.813   1
  10  -2  11 823.504 496.261   1
 -10   8 -11 882.898 387.318   1
  -8  10  12 150069. 4972.61   1
  10  -8  12 155979. 5115.94   1
 -10   8 -12 146596. 5041.77   1
   2 -10 -12 146970. 5032.98   2
   2 -10 -13 2425.63 702.084   2
 -10   9  11 3711.22 750.687   1
  10  -9 -11 4210.02 750.241   1
  10  -9 -10 217232. 6126.64   1
  -9  -1 -10 268210. 6586.39   2
  -1  -9 -10 261170. 6584.40   1
   1   9  10 251944. 6385.10   1
  -9  -1 -10 259883. 6609.03   1
  -1  -9 -10 248603. 6495.82   2
   9   1  10 238791. 6238.84   1
 -10   9  10 229339. 6281.60   1
  -9  -1  -9 38182.0 2278.05   2
  -1  -9  -9 36743.0 2285.78   1
   1   9   9 33922.5 2158.73   1
  -9  -1  -9 31190.1 2147.11   1
   1 -10   9 31914.8 2199.65   2
  -9  10  -9 29710.1 2103.71   1
  -1  -9  -9 31853.9 2162.78   2
   9 -10   9 23136.7 1879.80   1
 -10   9   9 29146.6 2032.64   1
   9   1   9 34919.6 2184.39   1
  10  -9  -9 29160.5 2030.23   1
  -1  -9  -8 1879.60 541.368   2
  -9  10  -8 1756.25 535.319   1
  -9  -1  -8 2107.02 589.635   2
 -10   9   8 1566.65 455.278   1
  -1  -9  -8 1551.16 562.079   1
  10  -9  -8 1729.15 546.244   1
   9   1   8 2083.68 572.735   1
   9 -10   8 1878.77 533.055   1
  -9  -1  -8 1260.90 411.459   1
   1   9   8 2421.27 605.978   1
   1 -10   8 1999.64 574.784   2
   9   1   7 108740. 3947.83   1
  -9  -1  -7 106157. 3975.31   2
   9 -10   7 97804.3 3778.39   1
  -1  -9  -7 103395. 3933.40   1
   1   9   7 103307. 3870.59   1
  -9  -1  -7 103805. 3968.01   1
   1 -10   7 95246.1 3791.11   2
  -9  10  -7 92527.6 3739.95   1
  -1  -9  -7 99424.4 3797.86   2
  10  -9  -7 107275. 3900.25   1
 -10   9   7 115560. 4029.47   1
   9   1   6 19989.4 1615.20   1
  -9  -1  -6 19352.8 1624.73   2
   9 -10   6 18484.7 1576.34   1
  -1  -9  -6 18697.7 1603.77   1
   1   9   6 18649.2 1606.83   1
  -9  -1  -6 20003.6 1671.83   1
   1 -10   6 18040.0 1584.10   2
  10  -9  -6 19933.0 1610.64   1
  -9  10  -6 19392.6 1628.19   1
  -1  -9  -6 19896.7 1660.25   2
 -10   9   6 23454.8 1729.87   1
   9   1   5 10047.4 1165.40   1
  -9  -1  -5 11206.2 1261.71   2
  -1  -9  -5 11964.6 1283.15   1
   9 -10   5 10666.3 1176.36   1
   1   9   5 11434.7 1226.99   1
  -9  -1  -5 12505.8 1293.00   1
  10  -9  -5 10903.6 1218.25   1
   1 -10   5 11620.6 1237.70   2
  -9  10  -5 12344.5 1267.66   1
  -1  -9  -5 11734.6 1215.22   2
 -10   9   5 12958.8 1255.95   1
  10  -9  -4 40952.3 2260.35   1
  -9  -1  -4 43580.0 2469.38   2
   9   1   4 40760.3 2361.56   1
  -1  -9  -4 40223.8 2378.53   1
   1   9   4 42448.6 2433.55   1
   9 -10   4 41891.0 2351.51   1
  -9  -1  -4 42512.2 2431.90   1
   1 -10   4 38982.6 2295.84   2
  -1  -9  -4 46087.8 2515.18   2
  -9  10  -4 40812.6 2352.94   1
 -10   9   4 45992.4 2454.72   1
  -9  -1  -3 33563.7 2144.27   2
   9   1   3 33306.2 2049.64   1
  -1  -9  -3 30731.4 2064.42   1
  10  -1  -3 33231.9 2100.45   1
   1   9   3 30544.6 2044.68   1
  -9  -1  -3 26271.2 1881.40   1
   9 -10   3 31699.6 1987.22   1
  10  -9  -3 30150.8 1959.20   1
   1 -10   3 34704.4 2150.07   2
  -1  -9  -3 33171.4 2040.84   2
  -9  10  -3 32647.8 2028.85   1
 -10   9   3 28774.1 1947.41   1
  -9  -1  -2 285148. 6896.25   2
   9   1   2 282794. 6851.04   1
  -1  -9  -2 265553. 6791.27   1
  10  -1  -2 316777. 7142.92   1
   1   9   2 287815. 6908.11   1
  -9  -1  -2 292403. 6954.42   1
 -10   1   2 317484. 7202.63   1
  10  -9  -2 297083. 6820.72   1
   9 -10   2 291246. 6785.01   1
   1 -10   2 304764. 7023.63   2
  -1  -9  -2 302503. 7016.04   2
 -10   9   2 287218. 6778.80   1
  -9  10  -2 287382. 6835.30   1
  -9  -1  -1 128617. 4345.47   2
   9   1   1 139158. 4423.49   1
  -1  10  -1 131800. 4332.07   1
  -1  -9  -1 125988. 4353.28   1
  10  -1  -1 130073. 4343.37   1
   1   9   1 134684. 4371.10   1
  -9  -1  -1 133017. 4406.32   1
  10  -9  -1 127660. 4168.35   1
 -10   1   1 123289. 4237.12   1
   9 -10   1 128304. 4405.94   2
   9 -10   1 126800. 4214.88   1
   1 -10   1 132153. 4343.14   2
  -1  -9  -1 129386. 4300.86   2
 -10   9   1 125867. 4164.37   1
  -9  10  -1 130760. 4234.12   1
   9   1   0 37076.0 2227.01   1
   1 -10   0 38357.8 2310.72   1
  -1  10   0 37810.4 2257.87   1
  10  -1   0 40703.5 2323.12   1
   1   9   0 39300.0 2277.20   1
  10  -9   0 35866.2 2136.16   1
  -9  -1   0 36110.0 2212.93   1
 -10   1   0 37079.2 2214.46   1
   9 -10   0 32020.3 2177.45   2
   9 -10   0 36333.0 2164.68   1
   1 -10   0 33351.2 2106.58   2
  -1  -9   0 37751.7 2234.64   2
 -10   9   0 36144.4 2153.98   1
  -9  10   0 35107.7 2095.91   1
   9   1  -1 87761.8 3471.32   1
   1 -10  -1 85572.1 3520.10   1
  10  -1   1 87066.1 3467.64   1
  -1  10   1 88793.3 3503.94   1
  10  -9   1 83015.5 3319.15   1
  -9  -1   1 85587.9 3498.21   1
 -10   1  -1 87200.0 3523.01   1
   9 -10  -1 91148.8 3610.42   2
   1 -10  -1 88154.3 3490.27   2
  -1  -9   1 89883.9 3532.44   2
 -10   9  -1 90503.6 3491.37   1
  -9  10   1 88729.3 3463.90   1
   9 -10  -1 87744.2 3410.59   1
 -10   1  -2 274601. 6750.85   2
   9 -10  -2 269160. 6467.13   1
   1 -10  -2 266231. 6659.81   1
  10  -1   2 274229. 6607.22   1
  -1  10   2 273448. 6645.66   1
  10  -9   2 287833. 6637.50   1
 -10   1  -2 251125. 6449.82   1
   9 -10  -2 281106. 6896.19   2
  -1  -9   2 274678. 6654.02   2
   1 -10  -2 268511. 6587.55   2
 -10   9  -2 280089. 6613.20   1
  -9  10   2 275773. 6553.58   1
 -10   1  -3 63536.7 2982.48   2
   9 -10  -3 64772.8 2945.49   1
   1 -10  -3 62987.8 2997.29   1
  10  -1   3 71600.8 3091.48   1
  10  -9   3 69087.9 2980.27   1
  -1  10   3 68243.5 3071.70   1
 -10   1  -3 64962.3 3002.89   1
   9 -10  -3 68663.0 3204.10   2
  -1  -9   3 64715.9 2983.53   2
 -10   9  -3 62925.5 2895.77   1
   1 -10  -3 69245.0 3041.25   2
  -9  10   3 67084.1 2988.54   1
 -10   9  -4 318.367 342.478   1
 -10   1  -4 783.022 415.326   2
  10  -9   4 717.608 333.210   1
  -9  10   4 78.8365 223.340   1
   1 -10  -4 327.457 261.568   1
  -1  10   4 932.259 448.747   1
 -10   1  -4 937.778 362.721   1
   9 -10  -4 557.237 388.022   1
  10  -1   4 992.594 382.011   1
  -1  -9   4 608.597 403.911   2
   9 -10  -4 608.423 328.505   2
   1 -10  -4 1251.99 421.971   2
  -9  10   5 18537.0 1543.42   1
 -10   1  -5 16744.0 1533.28   2
  10  -9   5 17046.2 1482.30   1
  10  -1   5 16476.7 1471.79   1
   1 -10  -5 16599.7 1510.84   1
   9 -10  -5 17450.3 1519.20   1
  -1  10   5 16762.1 1517.55   1
 -10   1  -5 18267.0 1520.87   1
  -1  -9   5 16290.1 1503.93   2
 -10   9  -5 16881.2 1484.42   1
   1 -10  -5 16710.3 1519.90   2
  -9  10   6 52545.5 2664.41   1
  10  -9   6 46792.9 2492.02   1
 -10   1  -6 44634.7 2479.28   2
  10  -1   6 48452.7 2548.66   1
   1 -10  -6 42449.6 2453.72   1
  -1  10   6 46640.4 2502.63   1
   9 -10  -6 49269.1 2563.36   1
 -10   1  -6 47955.8 2579.93   1
 -10   9  -6 49945.1 2594.43   1
  -1  -9   6 46762.6 2589.36   2
   1 -10  -6 48551.2 2546.59   2
   1 -10  -7 8248.33 1081.90   2
  -9  10   7 8647.80 1084.59   1
 -10   1  -7 7808.40 1025.27   2
  10  -1   7 8832.53 1054.96   1
   1 -10  -7 9019.53 1134.68   1
  10  -9   7 8629.56 1040.84   1
   9 -10  -7 8968.09 1118.19   1
 -10   1  -7 8606.66 1116.15   1
  -1  10   7 8472.66 1046.13   1
 -10   9  -7 9701.94 1157.71   1
  -1  -9   7 7721.40 1004.40   2
  -9  10   8 47535.4 2558.41   1
 -10   1  -8 51295.2 2680.07   2
  10  -1   8 55996.4 2734.68   1
   1 -10  -8 48986.7 2653.94   1
  -1  10   8 48659.1 2558.22   1
   9 -10  -8 50430.8 2640.49   1
 -10   1  -8 48874.7 2633.49   1
 -10   9  -8 50026.4 2646.10   1
  10  -9   8 40981.8 2410.03   1
   1 -10  -8 54161.1 2733.04   2
  -9  10   9 118105. 4186.49   1
 -10   1  -9 112353. 4103.21   2
  10  -1   9 119230. 4060.03   1
   1 -10  -9 117687. 4192.36   1
  -1  10   9 113525. 4076.66   1
 -10   1  -9 129353. 4337.97   1
   9 -10  -9 108977. 4043.18   1
 -10   9  -9 107167. 4065.49   1
  10  -9   9 103540. 3991.53   1
   1 -10  -9 115161. 4177.91   2
  -9  10  10 133272. 4512.28   1
  10  -1  10 135879. 4410.48   1
 -10   1 -10 128142. 4384.08   2
   1 -10 -10 132033. 4496.90   1
  -1  10  10 120726. 4249.38   1
 -10   1 -10 136181. 4514.60   1
   9 -10 -10 139336. 4603.41   1
  10  -9  10 118831. 4332.79   1
 -10   9 -10 122583. 4430.29   1
   1 -10 -10 131604. 4573.86   2
  -9  10  11 73539.4 3391.08   1
   9 -10 -11 80406.1 3478.82   1
 -10   9 -11 78576.0 3528.32   1
   1 -10 -11 85114.6 3615.81   2
  10   0   0 41017.1 2408.47   1
 -10   0   0 36761.0 2303.29   1
  10 -10   0 51188.1 2523.71   1
   0 -10   0 43319.0 2423.37   2
 -10  10   0 46084.3 2446.07   1
  10   0   1 125511. 4332.52   1
  10   0  -1 134248. 4488.59   1
   0 -10  -1 114031. 4285.78   1
   0  10   1 116650. 4214.96   1
  10 -10   1 136151. 4317.66   1
 -10   0  -1 110960. 4160.90   1
 -10   0   1 113575. 4212.63   1
  10 -10  -1 130017. 4256.41   1
   0 -10   1 128736. 4320.32   2
   0 -10  -1 133590. 4396.22   2
 -10  10  -1 136955. 4396.70   1
 -10  10   1 131052. 4275.02   1
  10   0   2 323148. 7388.81   1
   0 -10  -2 292589. 7262.07   1
   0  10   2 304119. 7268.15   1
  10 -10  -2 320424. 7160.97   1
  10 -10   2 321014. 7154.41   1
 -10   0  -2 278884. 7029.56   1
   0 -10   2 309671. 7263.79   2
   0 -10  -2 308574. 7203.49   2
 -10  10  -2 315407. 7196.34   1
 -10  10   2 334763. 7258.67   1
 -10   0  -3 34218.8 2214.92   2
  10   0   3 38396.6 2254.74   1
   0 -10  -3 33310.4 2185.84   1
  10 -10   3 44497.7 2405.95   1
   0  10   3 34300.0 2205.26   1
 -10   0  -3 36441.7 2270.61   1
  10 -10  -3 41966.8 2312.72   1
   0 -10   3 38879.1 2318.25   2
   0 -10  -3 40318.4 2350.42   2
 -10  10  -3 42375.5 2323.41   1
 -10  10   3 42234.4 2293.98   1
 -10  10  -4 7535.16 979.648   1
  10   0   4 8369.93 1076.26   1
 -10   0  -4 5491.32 884.134   2
  10 -10   4 7374.16 1002.12   1
   0 -10  -4 6480.45 991.836   1
   0  10   4 7256.92 992.638   1
 -10   0  -4 6140.95 933.909   1
  10 -10  -4 8099.93 1029.19   1
   0 -10   4 5507.83 909.748   2
 -10  10   4 8459.80 1082.11   1
   0 -10  -4 7019.69 1000.22   2
 -10   0  -5 13670.0 1434.59   2
  10   0   5 17460.2 1531.52   1
  10 -10   5 14276.9 1396.97   1
   0 -10  -5 12760.9 1356.32   1
   0  10   5 14052.9 1416.67   1
 -10   0  -5 14973.2 1475.69   1
   0 -10   5 14369.1 1412.70   2
 -10  10  -5 14435.2 1401.74   1
   0 -10  -5 15860.1 1507.96   2
 -10  10   5 16247.5 1478.70   1
  10 -10  -5 15832.1 1458.08   1
  10 -10  -6 11809.7 1284.91   1
 -10   0  -6 10821.4 1258.01   2
  10   0   6 11193.2 1248.80   1
  10 -10   6 10836.3 1216.57   1
   0 -10  -6 12065.2 1326.56   1
   0  10   6 11697.1 1267.14   1
 -10   0  -6 11948.6 1310.56   1
   0 -10   6 10644.7 1247.12   2
 -10  10  -6 10528.5 1222.85   1
   0 -10  -6 11690.3 1276.78   2
 -10  10   6 10847.8 1227.97   1
  10 -10   7 27208.8 1953.13   1
  10   0   7 29145.5 2012.00   1
 -10   0  -7 27744.5 2029.02   2
  10 -10  -7 33876.4 2137.98   1
   0 -10  -7 31149.8 2116.71   1
   0  10   7 32072.0 2094.44   1
 -10   0  -7 31458.6 2142.26   1
   0 -10   7 25077.9 1920.98   2
 -10  10  -7 29391.8 2027.52   1
   0 -10  -7 31753.6 2139.14   2
 -10  10   7 31119.8 2078.44   1
   0 -10  -8 4558.15 881.796   2
 -10  10  -8 4485.28 786.647   1
 -10   0  -8 3835.03 763.035   2
 -10  10   8 5379.33 896.453   1
   0 -10  -8 4019.86 815.219   1
  10 -10   8 4781.55 825.045   1
  10   0   8 4318.08 779.723   1
  10 -10  -8 5263.79 875.298   1
 -10   0  -8 4986.62 850.736   1
   0  10   8 4120.81 744.607   1
 -10   0  -9 51659.7 2726.35   2
  10 -10  -9 50551.0 2676.17   1
   0  10   9 48438.9 2567.01   1
 -10  10  -9 42439.0 2521.39   1
  10 -10   9 42292.5 2531.06   1
   0 -10  -9 46789.2 2634.23   2
 -10  10   9 44299.0 2568.88   1
   5 -11  11 21242.4 1831.15   2
  -5  -6 -10 171789. 5251.26   1
  -6  -5 -10 195306. 5587.30   1
   5   6  10 191233. 5418.11   1
   6   5  10 189776. 5412.33   1
   5 -11  10 155704. 5155.75   2
  -5  -6 -10 172271. 5252.34   2
  -6  -5 -10 172980. 5277.71   2
  -5  -6  -9 58426.7 2905.83   1
  -6  -5  -9 55417.5 2876.56   1
   5   6   9 57548.6 2842.98   1
   6   5   9 55430.1 2805.16   1
   6 -11   9 54832.9 2898.12   2
   5 -11   9 54833.6 2824.93   2
  -5  -6  -9 58541.0 2894.03   2
  -6  -5  -9 56655.8 2913.41   2
  -5  -6  -8 1656.35 588.436   2
  -6  -5  -8 386.347 247.909   2
   5   6   8 810.401 344.576   1
   6   5   8 956.058 405.120   1
  -5  -6  -8 1183.32 473.630   1
  -6  -5  -8 1209.10 373.529   1
   6 -11   8 1400.73 457.955   2
   5 -11   8 1369.56 506.451   2
  11  -6  -8 1230.88 459.629   1
  11  -6  -7 33816.4 2117.29   1
  -5  -6  -7 35145.6 2201.34   1
  -6  -5  -7 33430.6 2179.44   1
   5   6   7 32615.6 2137.09   1
   6   5   7 32484.9 2093.09   1
   6 -11   7 32752.8 2129.75   2
   5 -11   7 34095.6 2139.89   2
 -11   6   7 31848.3 2128.58   1
  11  -5  -7 33708.0 2163.68   1
  -5  -6  -7 32977.0 2173.89   2
  -6  -5  -7 32290.5 2163.11   2
  11  -6  -6 71698.7 3123.58   1
   6   5   6 65999.3 3107.07   1
  -5  -6  -6 64506.0 3089.82   1
  -6  -5  -6 66530.4 3099.82   1
   5   6   6 65992.2 3102.07   1
   6 -11   6 70647.4 3158.77   2
   5 -11   6 73876.3 3197.46   2
 -11   5   6 74772.8 3234.90   1
 -11   6   6 60240.4 2900.48   1
  11  -5  -6 59727.1 2909.14   1
  -5  -6  -6 69637.1 3183.74   2
  -6  -5  -6 70282.6 3216.04   2
  11  -6  -5 36708.5 2195.02   1
  -5  -6  -5 33143.1 2130.52   1
  -6  -5  -5 34346.3 2207.32   1
   5   6   5 35764.6 2250.16   1
   6   5   5 33118.0 2171.84   1
   6 -11   5 36129.8 2216.84   2
   5 -11   5 36067.7 2209.56   2
 -11   5   5 36088.2 2140.32   1
 -11   6   5 31642.2 2092.18   1
  11  -5  -5 38104.6 2226.21   1
  -5  -6  -5 34269.4 2219.99   2
  -6  11  -5 37760.1 2246.73   1
  -6  -5  -5 34665.6 2225.98   2
  -6  11  -4 28004.0 1961.97   1
  -5  11  -4 23238.2 1793.39   1
  11  -6  -4 25949.6 1825.25   1
   6 -11   4 27220.0 1904.86   1
  -5  -6  -4 19785.4 1694.57   1
  -6  -5  -4 23095.0 1818.01   1
   5   6   4 23668.3 1839.51   1
   6   5   4 25586.1 1822.00   1
   6 -11   4 25374.9 1844.14   2
   5 -11   4 21673.2 1697.06   2
 -11   5   4 22547.2 1724.81   1
 -11   6   4 28453.1 1910.95   1
  11  -5  -4 22165.0 1707.21   1
  -5  -6  -4 22490.1 1807.29   2
  -6  -5  -4 25192.4 1891.31   2
  -6  11  -3 120176. 4192.44   1
  11  -6  -3 113753. 3961.58   1
  -5  11  -3 119637. 4118.71   1
   6 -11   3 118579. 4155.97   1
  -5  -6  -3 116749. 4176.94   1
  -6  -5  -3 112367. 4106.55   1
   5   6   3 118072. 4132.02   1
   6   5   3 124968. 4221.86   1
 -11   5   3 109717. 3892.16   1
   6 -11   3 122900. 4159.79   2
   5 -11   3 118505. 4112.97   2
   5 -11   3 116230. 4146.87   1
 -11   6   3 113239. 3994.56   1
  11  -5  -3 121803. 4100.92   1
  -5  -6  -3 122809. 4230.03   2
  -6  -5  -3 119754. 4221.54   2
  -6  11  -2 276706. 6771.33   1
  -5  11  -2 281409. 6760.27   1
   5 -11   2 280312. 6795.38   1
  -5  -6  -2 279084. 6855.24   1
  -6  -5  -2 280021. 6832.27   1
   6 -11   2 278153. 6706.54   1
   5   6   2 287588. 6900.79   1
   6   5   2 281857. 6873.93   1
 -11   5   2 290588. 6763.65   1
   6 -11   2 277497. 6687.85   2
   5 -11   2 286013. 6724.25   2
 -11   6   2 291058. 6736.98   1
  11  -5  -2 281998. 6641.81   1
  -5  -6  -2 287861. 6897.76   2
  -6  -5  -2 260607. 6665.88   2
  11  -6  -2 297091. 6770.50   1
  -6  11  -1 43263.8 2393.08   1
  -5  11  -1 41399.5 2365.78   1
  -5  -6  -1 40403.6 2372.14   1
  -6  -5  -1 45296.3 2503.14   1
   5   6   1 43864.6 2376.53   1
   6   5   1 43097.4 2387.55   1
 -11   5   1 46319.4 2402.66   1
   6 -11   1 42423.9 2394.24   2
   5 -11   1 41670.6 2344.21   2
 -11   6   1 48308.4 2487.02   1
  11  -5  -1 46815.6 2420.57   1
   6 -11   1 42828.2 2421.02   1
  -5  -6  -1 46936.5 2535.52   2
  11  -6  -1 44363.6 2362.54   1
  -6  -5  -1 43828.4 2489.13   2
  -6  11   0 16437.5 1434.57   1
 -11   5   0 16283.4 1447.63   1
  -5  11   0 16477.0 1456.03   1
   5 -11   0 15526.7 1438.10   1
   6 -11   0 19543.1 1566.74   1
   6   5   0 16242.0 1503.93   1
  11  -5   0 16642.5 1441.36   1
   6 -11   0 15629.5 1460.72   2
 -11   6   0 16925.8 1469.85   1
   5 -11   0 16300.7 1494.47   2
  11  -6   0 16616.6 1418.11   1
  -5  -6   0 17009.6 1509.69   2
  -6  -5   0 18290.2 1583.06   2
  -5  -6   1 4178.93 780.146   2
  -6  -5   1 3369.91 729.433   2
  11  -6   1 3803.28 664.201   1
   5 -11  -1 3124.36 653.086   1
  -6  11   1 3883.01 726.396   1
  -5  11   1 3004.44 645.105   1
  11  -5   1 3716.72 711.458   1
   6 -11  -1 4364.84 736.590   2
   5 -11  -1 3992.91 735.232   2
 -11   5  -1 3850.48 692.343   1
 -11   6  -1 3171.84 639.933   1
  -6  11   2 217738. 5806.38   1
  -5  11   2 225012. 5914.31   1
   6 -11  -2 225952. 5902.13   1
   5 -11  -2 229491. 5965.75   1
  11  -5   2 242716. 5987.81   1
 -11   5  -2 227165. 5937.42   1
 -11   6  -2 233358. 5930.79   1
   6 -11  -2 226670. 5972.72   2
   5 -11  -2 228420. 5956.88   2
  11  -6   2 248013. 5970.72   1
  -5  -6   2 231248. 6062.82   2
  -6  11   3 62033.6 2875.96   1
   6 -11  -3 62895.6 2930.70   1
  -5  11   3 58153.7 2808.60   1
   5 -11  -3 59223.4 2864.28   1
  11  -5   3 62991.2 2808.14   1
 -11   5  -3 61808.3 2846.20   1
 -11   6  -3 65104.7 2925.70   1
  11  -6   3 58714.3 2766.58   1
   6 -11  -3 63385.3 2942.32   2
   5 -11  -3 59687.6 2866.77   2
  -6  11   4 15734.7 1378.49   1
   6 -11  -4 13372.1 1376.44   1
  -5  11   4 13589.0 1286.99   1
   5 -11  -4 13924.3 1381.37   1
  11  -5   4 13953.8 1272.91   1
 -11   5  -4 11654.2 1248.74   1
 -11   6  -4 14200.5 1333.91   1
  11  -6   4 12787.6 1264.88   1
   6 -11  -4 13669.9 1393.61   2
   5 -11  -4 13436.9 1375.76   2
  -6  11   5 74080.9 3162.77   1
   6 -11  -5 75999.2 3228.76   1
  -5  11   5 71658.4 3140.29   1
   5 -11  -5 71990.3 3166.73   1
  11  -5   5 81057.1 3231.29   1
  11  -6   5 74466.6 3091.33   1
 -11   5  -5 74716.5 3178.66   1
 -11   6  -5 71710.3 3119.44   1
   6 -11  -5 67285.6 3132.01   2
   5 -11  -5 64505.3 3087.33   2
  -6  11   6 71267.8 3117.00   1
   6 -11  -6 64537.8 3047.56   1
   5 -11  -6 74538.2 3202.76   1
  -5  11   6 72793.0 3152.96   1
  11  -5   6 79050.1 3213.86   1
  11  -6   6 77274.3 3131.08   1
 -11   5  -6 78184.7 3260.49   1
 -11   6  -6 65515.6 3039.25   1
   6 -11  -6 69154.5 3182.06   2
   5 -11  -6 68538.1 3144.58   2
  -6  11   7 25434.0 1806.30   1
   6 -11  -7 25007.7 1829.38   1
   5 -11  -7 22155.5 1709.87   1
  -5  11   7 24187.2 1750.24   1
  11  -5   7 25459.9 1775.91   1
  11  -6   7 26242.7 1826.13   1
 -11   5  -7 22554.6 1707.92   1
 -11   6  -7 24762.3 1799.27   1
   6 -11  -7 20525.5 1732.76   2
   5 -11  -7 21751.9 1772.95   2
  -6  11   8 15766.6 1467.12   1
   6 -11  -8 16700.5 1510.83   1
   5 -11  -8 16674.5 1539.20   1
  -5  11   8 15115.1 1370.81   1
  11  -5   8 16486.0 1469.22   1
  11  -6   8 15459.8 1420.34   1
 -11   5  -8 16877.9 1488.08   1
 -11   6  -8 16511.9 1506.13   1
   6 -11  -8 14401.1 1486.29   2
   5 -11  -8 13927.2 1419.44   2
  -6  11   9 58579.2 2835.96   1
   6 -11  -9 54937.6 2794.40   1
   5 -11  -9 55273.4 2774.06   1
  -5  11   9 54335.0 2694.04   1
  11  -5   9 61935.9 2895.75   1
  11  -6   9 56917.0 2824.52   1
 -11   5  -9 61028.9 2874.15   1
 -11   6  -9 56107.4 2793.54   1
   5 -11  -9 51120.4 2824.53   2
  -6  11  10 216312. 5831.02   1
   6 -11 -10 208343. 5783.70   1
   5 -11 -10 206836. 5792.82   1
  -5  11  10 205680. 5704.32   1
  11  -5  10 223412. 5910.35   1
  11  -6  10 212782. 5851.85   1
 -11   5 -10 218462. 5934.06   1
 -11   6 -10 220516. 5962.97   1
  11  -6  11 62729.5 3046.53   1
 -11   6 -11 65065.8 3107.91   1
   4 -11  11 1126.33 518.522   2
  -7  -4 -10 11146.7 1293.35   2
  -4  -7 -10 13325.2 1382.46   1
  -7  -4 -10 11700.7 1339.70   1
   4   7  10 12532.2 1294.51   1
   4 -11  10 10773.4 1297.10   2
   7   4  10 12342.5 1305.30   1
  -4  -7 -10 13669.2 1381.06   2
  -7  -4  -9 14095.5 1425.16   2
  11  -7  -9 14053.2 1392.74   1
  -4  -7  -9 15350.9 1439.99   1
  -7  -4  -9 13271.5 1392.28   1
   4   7   9 14070.5 1389.56   1
   4 -11   9 13949.1 1448.51   2
   7   4   9 14260.1 1392.18   1
  -4  -7  -9 15591.3 1478.24   2
  -7  -4  -8 453553. 9257.37   2
  -4  -7  -8 427427. 9073.69   1
  -7  -4  -8 454173. 9286.91   1
   4   7   8 438833. 9026.09   1
   7 -11   8 446814. 9124.88   2
   4 -11   8 433521. 9135.75   2
   7   4   8 448252. 9108.25   1
 -11   7   8 426182. 9056.67   1
  -4  -7  -8 447953. 9083.09   2
   4   7   7 300.682 320.558   1
  -4  -7  -7-81.6932 303.557   2
 -11   7   7 494.386 358.896   1
  -7  -4  -7 154.849 368.704   2
   7   4   7-36.2220 262.640   1
  11  -7  -7 227.221 283.427   1
  -4  -7  -7 549.697 486.209   1
  -7  -4  -7 423.735 240.518   1
   7 -11   7 632.582 405.196   2
   4 -11   7-181.502 320.877   2
   4   7   6 3035.51 689.237   1
  -4  -7  -6 2464.55 653.513   2
 -11   7   6 2955.12 625.800   1
  -7  -4  -6 2652.21 594.845   2
  -7  11  -6 2466.59 639.670   1
   7   4   6 3481.08 754.087   1
  11  -7  -6 2386.24 617.644   1
  -4  -7  -6 2928.06 672.779   1
  -7  -4  -6 3267.44 660.247   1
   7 -11   6 2590.45 585.427   2
   4 -11   6 3128.75 682.932   2
  -7  -4  -5 36742.1 2288.68   2
  11  -7  -5 37379.4 2229.70   1
  -4  -7  -5 30948.4 2100.28   1
  -7  -4  -5 32256.9 2134.45   1
   4   7   5 32967.4 2137.16   1
 -11   4   5 28622.1 2018.82   1
  11  -4  -5 34553.7 2168.99   1
   7 -11   5 33671.8 2144.08   2
   7 -11   5 35669.5 2195.21   1
   4 -11   5 31767.5 2092.45   2
   7   4   5 33031.6 2136.13   1
 -11   7   5 38776.0 2269.01   1
  -4  -7  -5 35675.8 2179.86   2
  -7  11  -5 34464.4 2177.46   1
  11  -7  -4 209295. 5571.63   1
  -4  -7  -4 183447. 5427.01   1
  -7  -4  -4 196469. 5563.66   1
   4   7   4 198209. 5565.77   1
  11  -4  -4 204462. 5558.82   1
 -11   4   4 195091. 5512.16   1
   7 -11   4 201729. 5539.63   2
   4 -11   4 206678. 5570.19   2
   7   4   4 200648. 5579.22   1
 -11   7   4 170973. 5149.90   1
  -4  -7  -4 201174. 5588.27   2
   7 -11   4 193764. 5498.91   1
  -7  11  -4 192513. 5490.89   1
  -7  -4  -4 199042. 5631.40   2
   4   7   3 1607.47 502.383   1
  -4  -7  -3 1696.10 492.892   2
 -11   7   3 2173.49 654.403   1
  -7  -4  -3 1960.02 581.975   2
  11  -7  -3 1437.46 432.972   1
  -7  11  -3 1453.98 521.841   1
   7   4   3 1165.49 350.424   1
  -4  11  -3 1590.51 468.409   1
  -4  -7  -3 1606.49 527.416   1
  -7  -4  -3 1332.56 406.802   1
   7 -11   3 1065.94 478.638   1
  11  -4  -3 1437.72 416.971   1
   7 -11   3 1332.96 473.097   2
   4 -11   3 2284.72 588.153   2
 -11   4   3 1703.51 552.623   1
  -7  11  -2 34733.4 2181.28   1
  -4  11  -2 35324.6 2139.17   1
  11  -7  -2 33595.6 2028.78   1
   4 -11   2 32316.7 2089.90   1
   7 -11   2 31062.9 2080.93   1
  -4  -7  -2 34589.1 2171.41   1
  -7  -4  -2 33293.1 2139.11   1
   4   7   2 35765.3 2225.03   1
  11  -4  -2 35860.1 2149.08   1
 -11   4   2 34687.7 2157.22   1
   7 -11   2 33660.4 2150.67   2
   4 -11   2 31927.4 2070.47   2
   7   4   2 36490.8 2206.04   1
 -11   7   2 36210.0 2167.25   1
  -4  -7  -2 36700.5 2260.73   2
  -7  -4  -2 32683.3 2188.65   2
  -4  -7  -1 6113.12 961.212   2
 -11   7   1 5409.58 846.477   1
  -7  -4  -1 5121.09 948.143   2
  -4  11  -1 7142.93 990.939   1
   4 -11   1 6848.44 1003.86   1
  -7  11  -1 6106.12 932.867   1
   7   4   1 5513.23 914.157   1
  -4  -7  -1 5491.47 876.337   1
   7 -11   1 6251.27 915.395   1
  -7  -4  -1 6218.80 951.895   1
  11  -4  -1 7504.98 970.300   1
  11  -7  -1 6120.85 886.537   1
   7 -11   1 5511.53 869.509   2
   4 -11   1 5118.63 812.207   2
 -11   4   1 6869.55 952.534   1
   4   7   1 6707.39 924.191   1
  11  -7   0 414694. 8394.82   1
  -7  11   0 412032. 8613.72   1
  -4  11   0 434558. 8738.51   1
   4 -11   0 427512. 8843.12   1
   7 -11   0 426308. 8671.72   1
  11  -4   0 422086. 8533.15   1
   7 -11   0 414686. 8707.15   2
   4 -11   0 418916. 8593.28   2
 -11   7   0 401482. 8462.04   1
   7   4   0 421248. 8737.99   1
  -4  -7   0 410215. 8637.60   2
  -7  -4   0 411984. 8850.16   2
  -4  -7   1 900.137 369.678   2
 -11   7  -1 1810.94 515.737   1
   4 -11  -1 1231.41 478.322   1
  -7  11   1 2125.60 587.817   1
   7 -11  -1 2878.30 611.424   1
  -4  11   1 800.685 460.871   1
  11  -7   1 2365.53 567.957   1
  11  -4   1 997.965 404.968   1
   7 -11  -1 1807.57 534.333   2
 -11   4  -1 1637.95 509.822   1
   4 -11  -1 673.477 377.714   2
   7 -11  -2 40814.9 2330.66   1
  -7  11   2 39873.5 2273.03   1
   4 -11  -2 35244.3 2196.36   1
  -4  11   2 39877.7 2284.52   1
  11  -4   2 38471.2 2223.64   1
 -11   4  -2 45258.7 2441.69   1
   7 -11  -2 37711.3 2285.50   2
 -11   7  -2 40250.9 2271.66   1
   4 -11  -2 38915.2 2287.73   2
  -4  -7   2 36566.4 2264.02   2
  11  -7   2 40274.1 2247.90   1
  -7  11   3 6507.97 922.007   1
  -4  11   3 6411.55 944.009   1
  11  -7   3 6915.53 914.225   1
   4 -11  -3 8024.99 1039.81   1
   7 -11  -3 5535.16 857.004   1
  11  -4   3 6703.56 938.771   1
 -11   4  -3 7895.73 1030.90   1
 -11   7  -3 7509.12 975.848   1
   7 -11  -3 6617.67 950.166   2
  -4  -7   3 6870.26 1007.23   2
   4 -11  -3 6903.70 956.741   2
  -7  11   4 215124. 5636.74   1
   4 -11  -4 203046. 5666.43   1
  -4  11   4 200629. 5538.35   1
  11  -4   4 203897. 5491.74   1
 -11   4  -4 216565. 5718.18   1
 -11   7  -4 209263. 5551.60   1
   7 -11  -4 194672. 5611.86   2
   4 -11  -4 203538. 5658.77   2
  11  -7   4 213974. 5553.07   1
   7 -11  -5-171.757 355.573   1
   4 -11  -5 23.4705 342.756   1
  11  -4   5-42.1505 297.453   1
  -7  11   5 153.648 224.367   1
  -4  11   5-578.996 436.797   1
 -11   4  -5-234.640 275.828   1
   7 -11  -5 244.300 251.684   2
   4 -11  -5 452.382 466.644   2
  11  -7   5-80.2902 224.481   1
 -11   7  -5-4.00256 216.365   1
   7 -11  -6 4825.67 773.734   1
  11  -4   6 4104.35 730.262   1
   4 -11  -6 4494.75 747.004   1
  -7  11   6 4872.13 794.896   1
  -4  11   6 3905.18 765.016   1
 -11   4  -6 4562.95 788.857   1
  11  -7   6 4030.97 686.303   1
   7 -11  -6 4434.14 799.318   2
   4 -11  -6 4713.04 764.414   2
 -11   7  -6 3674.99 704.220   1
  -7  11   7 21368.1 1675.99   1
   7 -11  -7 19740.5 1634.09   1
   4 -11  -7 20861.8 1676.36   1
  -4  11   7 20943.2 1679.17   1
  11  -4   7 20883.3 1626.31   1
 -11   4  -7 21578.4 1706.77   1
  11  -7   7 26304.5 1792.26   1
 -11   7  -7 20792.8 1701.03   1
   7 -11  -7 18679.2 1731.58   2
   4 -11  -7 19605.0 1670.34   2
  -7  11   8 471700. 9333.38   1
   7 -11  -8 460488. 9343.33   1
   4 -11  -8 485137. 9579.79   1
  -4  11   8 454009. 9206.38   1
  11  -4   8 475596. 9318.80   1
  11  -7   8 469746. 9376.07   1
 -11   4  -8 473607. 9403.68   1
 -11   7  -8 462153. 9402.76   1
   4 -11  -8 438455. 9394.01   2
  11  -4   9 42.9531 317.034   1
   7 -11  -9 247.961 246.512   1
   4 -11  -9 115.193 253.770   1
  -7  11   9 643.971 499.888   1
  11  -7   9 283.363 291.878   1
  -4  11   9 702.733 436.871   1
 -11   4  -9 328.581 222.673   1
 -11   7  -9-264.258 337.195   1
   4 -11  -9-73.9727 240.498   2
  -7  11  10 32134.1 2125.70   1
   7 -11 -10 33073.4 2178.53   1
   4 -11 -10 34021.7 2194.96   1
  -4  11  10 31528.1 2069.05   1
  11  -4  10 36395.0 2203.07   1
  11  -7  10 33455.9 2169.46   1
 -11   4 -10 34216.2 2184.92   1
 -11   7 -10 34793.0 2261.80   1
   4 -11 -10 29411.8 2130.41   2
  11  -7  11 4738.25 787.931   1
 -11   7 -11 4472.92 790.145   1
   4 -11 -11 3535.47 777.683   2
  11  -8 -10 46746.5 2660.43   1
   3 -11  10 41877.5 2608.03   2
  -8  -3  -9 119886. 4304.91   2
  -3  -8  -9 121705. 4322.00   1
  -8  -3  -9 111604. 4173.71   1
  11  -8  -9 112044. 4150.81   1
   3   8   9 118641. 4211.44   1
   3 -11   9 105806. 4160.61   2
   8   3   9 112703. 4120.79   1
 -11   8   9 98054.4 3972.72   1
  -3  -8  -9 115992. 4178.07   2
  -3  -8  -8 844.034 444.825   2
  -8  -3  -8 506.031 472.323   2
 -11   8   8 655.780 422.549   1
   8   3   8 662.072 315.440   1
  -3  -8  -8 1012.25 444.981   1
  -8  -3  -8 428.972 300.904   1
  11  -8  -8 368.294 294.253   1
   3 -11   8 424.310 319.806   2
   3   8   8 665.966 376.329   1
  -8  -3  -7 114925. 4190.53   2
  -3  -8  -7 120403. 4324.90   1
  11  -8  -7 113499. 4083.03   1
  -8  -3  -7 124782. 4336.09   1
   3   8   7 121561. 4278.23   1
   3 -11   7 115706. 4218.15   2
   8   3   7 118021. 4226.04   1
  -8  11  -7 105203. 4080.53   1
 -11   8   7 109119. 4074.30   1
  -3  -8  -7 113185. 4160.81   2
  -8  -3  -6 288256. 7062.93   2
  -3  -8  -6 256080. 6706.37   1
  11  -8  -6 270324. 6705.85   1
   8 -11   6 256866. 6659.48   1
  -8  -3  -6 279080. 6892.46   1
   3   8   6 281525. 6906.69   1
   8 -11   6 279462. 6852.39   2
   3 -11   6 259052. 6644.22   2
   8   3   6 281717. 6882.51   1
 -11   8   6 259793. 6609.38   1
  -8  11  -6 269711. 6805.94   1
  -3  -8  -6 289108. 6979.60   2
  -8  -3  -5 32458.8 2209.08   2
  -3  -8  -5 30735.8 2116.93   1
  11  -8  -5 34813.3 2114.09   1
  -8  -3  -5 34029.5 2208.78   1
   3   8   5 34455.8 2203.78   1
   8 -11   5 34479.4 2165.89   1
   8 -11   5 36481.0 2262.64   2
   3 -11   5 34896.8 2212.23   2
   8   3   5 36921.0 2236.37   1
 -11   8   5 36448.2 2179.64   1
  -8  11  -5 34150.7 2207.98   1
  -3  -8  -5 37093.7 2260.80   2
  -8  -3  -4 139860. 4619.61   2
  -3  -8  -4 125094. 4468.20   1
  11  -8  -4 135543. 4454.76   1
  -8  -3  -4 134480. 4548.43   1
   3   8   4 139575. 4603.53   1
  11  -3  -4 142300. 4607.77   1
 -11   3   4 135528. 4614.08   1
   8 -11   4 137742. 4523.56   1
   8 -11   4 143019. 4652.81   2
   3 -11   4 141303. 4546.55   2
 -11   8   4 151521. 4648.73   1
   8   3   4 141870. 4643.68   1
  -3  -8  -4 145202. 4656.37   2
  -8  11  -4 139974. 4535.27   1
  -8  -3  -3 7875.00 1069.35   2
  -8  11  -3 8063.84 1004.49   1
  11  -8  -3 8117.90 1027.64   1
  -3  -8  -3 8133.97 1105.58   1
   8   3   3 8133.93 1016.02   1
  11  -3  -3 8070.36 1016.90   1
  -8  -3  -3 7116.79 997.389   1
 -11   3   3 7295.43 1003.36   1
   8 -11   3 8774.51 1104.08   2
   3 -11   3 7642.78 1016.69   2
   8 -11   3 6855.20 965.800   1
 -11   8   3 9903.26 1166.56   1
  -3  -8  -3 10123.6 1138.11   2
   3   8   3 6649.65 983.485   1
  -8  -3  -2 120191. 4465.73   2
  -3  11  -2 139063. 4524.65   1
  11  -8  -2 147387. 4532.54   1
  -3  -8  -2 127238. 4481.61   1
  -8  -3  -2 137539. 4601.91   1
   3   8   2 129573. 4453.89   1
  11  -3  -2 143288. 4545.67   1
 -11   3   2 144912. 4623.64   1
   8 -11   2 140957. 4589.37   2
   3 -11   2 137437. 4439.32   2
 -11   8   2 151502. 4612.32   1
   8   3   2 138197. 4552.79   1
  -3  -8  -2 126787. 4338.13   2
  -8  11  -2 139716. 4563.88   1
   8 -11   2 128200. 4346.95   1
  -3  -8  -1 3871.82 750.515   2
 -11   8   1 5108.17 784.905   1
  -8  -3  -1 3714.45 779.476   2
  -8  11  -1 4066.31 777.799   1
   3 -11   1 4190.78 817.612   1
  11  -8  -1 3161.80 647.476   1
  11  -3  -1 4864.60 805.246   1
   8   3   1 4500.74 789.285   1
  -3  11  -1 3785.37 735.807   1
  -8  -3  -1 4418.67 824.125   1
   8 -11   1 3715.32 741.934   1
   8 -11   1 3981.55 782.424   2
   3   8   1 4677.65 783.152   1
 -11   3   1 4874.28 795.558   1
   3 -11   1 4392.82 768.777   2
  -3  -8   0 5247.61 819.953   2
 -11   8   0 4525.85 791.822   1
  11  -8   0 4396.55 761.541   1
  -8  11   0 5225.35 820.255   1
   3 -11   0 5543.80 889.176   1
  11  -3   0 4795.12 825.145   1
   8   3   0 4501.65 795.111   1
  -3  11   0 3979.09 733.193   1
   8 -11   0 3761.10 734.788   2
 -11   3   0 3998.27 745.746   1
   3 -11   0 6695.79 923.513   2
   8 -11   0 4009.26 754.520   1
  -8  11   1 28218.5 1930.57   1
  11  -8   1 29936.5 1927.15   1
   3 -11  -1 25742.6 1907.34   1
  -3  11   1 26712.9 1924.29   1
   8 -11  -1 27623.0 1918.01   1
  11  -3   1 29612.4 1922.51   1
 -11   3  -1 26631.7 1823.57   1
   8 -11  -1 26082.2 1932.90   2
   3 -11  -1 29291.3 1965.12   2
 -11   8  -1 27570.1 1888.49   1
  -3  -8   1 27535.6 1948.47   2
  -8  11   2 103524. 3796.85   1
  11  -8   2 106794. 3740.64   1
   3 -11  -2 95168.0 3724.97   1
  -3  11   2 98222.5 3753.68   1
  11  -3   2 101083. 3716.39   1
   8 -11  -2 105829. 3837.62   1
 -11   3  -2 96269.2 3706.96   1
   8 -11  -2 100038. 3884.35   2
 -11   8  -2 105811. 3783.89   1
   3 -11  -2 102208. 3810.00   2
  -3  -8   2 97110.0 3773.18   2
  11  -8   3 127408. 4162.75   1
  -8  11   3 118994. 4133.17   1
   3 -11  -3 115145. 4181.14   1
  -3  11   3 127692. 4272.53   1
  11  -3   3 122507. 4179.70   1
 -11   3  -3 139560. 4444.74   1
   8 -11  -3 122392. 4171.92   1
   8 -11  -3 113695. 4181.48   2
 -11   8  -3 133962. 4306.69   1
   3 -11  -3 126763. 4261.71   2
  -3  -8   3 113551. 4146.22   2
 -11   8  -4 4815.27 774.923   1
   8 -11  -4 4618.03 792.904   1
  11  -3   4 3572.52 676.012   1
  -8  11   4 4584.27 769.223   1
   3 -11  -4 2748.85 617.770   1
  11  -8   4 4368.58 761.409   1
  -3  11   4 4441.39 756.068   1
 -11   3  -4 3438.06 637.453   1
   8 -11  -4 3352.25 715.134   2
   3 -11  -4 3539.09 714.889   2
  -3  -8   4 3111.28 672.397   2
  -8  11   5 148200. 4668.38   1
   3 -11  -5 148197. 4802.96   1
  -3  11   5 151875. 4755.54   1
  11  -3   5 158922. 4813.21   1
 -11   3  -5 160984. 4905.13   1
   8 -11  -5 136385. 4724.33   2
 -11   8  -5 154010. 4742.02   1
   3 -11  -5 155901. 4855.81   2
  11  -8   5 157389. 4715.48   1
   8 -11  -5 156869. 4799.28   1
   8 -11  -6 229640. 5968.88   1
  -8  11   6 220912. 5833.44   1
   3 -11  -6 218094. 5951.82   1
  -3  11   6 214824. 5837.07   1
  11  -3   6 224609. 5842.95   1
 -11   3  -6 217751. 5887.22   1
 -11   8  -6 230796. 5926.90   1
   8 -11  -6 216393. 6122.74   2
  11  -8   6 210403. 5699.95   1
   3 -11  -6 225635. 6010.92   2
  -8  11   7 71158.2 3146.67   1
   8 -11  -7 66246.7 3034.90   1
   3 -11  -7 71408.0 3216.44   1
  -3  11   7 67334.8 3030.16   1
  11  -3   7 69555.0 3056.05   1
 -11   3  -7 69648.3 3123.87   1
 -11   8  -7 71483.9 3162.21   1
  11  -8   7 65266.7 3024.87   1
   3 -11  -7 66194.6 3085.80   2
  -8  11   8 104896. 3873.01   1
   3 -11  -8 107496. 4018.65   1
  11  -3   8 104635. 3842.74   1
  -3  11   8 101716. 3829.10   1
   8 -11  -8 105296. 3927.08   1
 -11   3  -8 117268. 4154.24   1
  11  -8   8 106380. 3944.69   1
 -11   8  -8 109017. 4033.92   1
   3 -11  -8 102648. 3981.06   2
  -8  11   9 12575.9 1307.68   1
   3 -11  -9 12269.1 1313.67   1
  11  -3   9 13091.7 1316.61   1
  -3  11   9 13260.3 1343.45   1
   8 -11  -9 12087.6 1276.55   1
 -11   3  -9 11445.8 1279.56   1
  11  -8   9 13063.3 1321.98   1
 -11   8  -9 13380.1 1362.85   1
   3 -11  -9 11695.7 1300.47   2
  11  -8  10 149298. 4848.51   1
 -11   8 -10 145697. 4871.72   1
   3 -11 -10 140470. 4838.42   2
   3 -11 -11 1224.18 500.226   2
  11  -9 -10 37915.2 2378.31   1
  11  -9  -9 19487.7 1684.37   1
   2 -11   9 21587.1 1849.87   2
 -11   9   9 22724.1 1814.61   1
  -2  -9  -8 2567.54 595.347   2
  -9  -2  -8 1836.65 592.652   2
 -11   9   8 3222.38 715.500   1
  -2  -9  -8 3570.11 739.744   1
   9   2   8 2760.34 694.672   1
  -9  -2  -8 1426.04 531.551   1
   2   9   8 2626.31 616.445   1
   2 -11   8 2224.44 580.047   2
  11  -9  -8 2930.31 651.924   1
  -9  -2  -7 14720.6 1457.77   2
   9 -11   7 15936.1 1511.63   1
  -2  -9  -7 15152.4 1483.02   1
   2   9   7 14919.1 1463.78   1
  -9  -2  -7 15274.0 1540.23   1
  11  -9  -7 15299.8 1477.80   1
   2 -11   7 14157.1 1428.79   2
  -9  11  -7 16598.1 1567.04   1
  -2  -9  -7 16762.8 1541.90   2
 -11   9   7 14612.7 1446.21   1
   9   2   7 15569.5 1481.87   1
  -9  -2  -6 208403. 5893.58   2
   9 -11   6 182647. 5546.10   1
  -2  -9  -6 202456. 5808.05   1
   2   9   6 215891. 5885.83   1
  -9  -2  -6 207079. 5894.22   1
  11  -9  -6 218262. 5829.39   1
   2 -11   6 197802. 5773.07   2
  -9  11  -6 184203. 5588.50   1
  -2  -9  -6 216128. 5838.65   2
 -11   9   6 220402. 5953.30   1
   9   2   6 224827. 5964.11   1
  -9  -2  -5 148029. 4952.84   2
  -2  -9  -5 141762. 4840.22   1
   9 -11   5 148962. 4850.47   1
   2   9   5 152743. 4925.42   1
  -9  -2  -5 156347. 4984.51   1
  11  -9  -5 179556. 5093.65   1
   2 -11   5 162521. 5038.27   2
  -9  11  -5 159716. 4994.71   1
  -2  -9  -5 170095. 5046.67   2
 -11   9   5 160165. 4945.57   1
   9   2   5 161082. 4987.60   1
  -9  -2  -4 63415.7 3084.00   2
  -2  -9  -4 56189.2 2934.09   1
   2   9   4 60893.5 3000.55   1
  -9  -2  -4 57371.6 2953.27   1
  11  -9  -4 71275.9 3100.83   1
   9 -11   4 71143.3 3131.28   1
   2 -11   4 70157.5 3146.08   2
  -2  -9  -4 65430.6 3041.35   2
 -11   9   4 62977.6 2984.12   1
  -9  11  -4 66693.6 3124.77   1
   9   2   4 65837.8 3074.54   1
  -9  -2  -3 31384.7 2173.88   2
  -2  -9  -3 32515.7 2200.44   1
  11  -2  -3 34177.8 2196.35   1
   2   9   3 33811.1 2217.67   1
  11  -9  -3 32788.8 2071.84   1
  -9  -2  -3 30292.9 2111.47   1
   9 -11   3 33607.5 2131.12   1
   2 -11   3 34448.4 2174.09   2
  -2  -9  -3 33628.6 2167.60   2
 -11   9   3 36160.1 2219.63   1
  -9  11  -3 31139.7 2083.04   1
   9   2   3 37947.7 2282.35   1
  -9  -2  -2 199528. 5885.92   2
  -2  -9  -2 188986. 5711.67   1
  11  -9  -2 209521. 5602.27   1
  11  -2  -2 200783. 5714.82   1
   2   9   2 196563. 5681.81   1
  -9  -2  -2 187083. 5608.06   1
 -11   2   2 206752. 5832.25   1
   9 -11   2 212501. 5710.49   1
   9 -11   2 195770. 5766.72   2
   2 -11   2 218289. 5820.87   2
 -11   9   2 223301. 5831.40   1
  -2  -9  -2 221597. 5874.02   2
  -9  11  -2 210048. 5695.22   1
   9   2   2 207613. 5765.16   1
  -2  -9  -1-68.9753 335.488   2
 -11   9   1 605.742 395.362   1
   9 -11   1 365.667 218.471   1
  -9  11  -1 18.2133 315.155   1
  11  -2  -1 174.914 252.280   1
  11  -9  -1 58.7458 293.262   1
   9   2   1 910.505 413.662   1
  -9  -2  -1 924.930 364.773   1
   9 -11   1-91.0806 307.247   2
 -11   2   1-10.0667 277.104   1
   2 -11   1 526.163 270.037   2
 -11   9   0 6574.41 879.054   1
  11  -2   0 5495.02 869.914   1
   2 -11   0 4785.02 858.980   1
   9 -11   0 5252.21 835.076   1
  11  -9   0 7143.97 917.402   1
  -2  11   0 4721.86 831.858   1
   9   2   0 5395.48 871.318   1
   9 -11   0 4568.57 843.911   2
 -11   2   0 6388.87 956.950   1
   2 -11   0 5633.40 869.633   2
  -9  11   0 6304.16 922.388   1
  -2  -9   0 5591.35 900.528   2
   9 -11  -1 69098.7 3026.51   1
   2 -11  -1 59472.3 2954.32   1
  11  -9   1 67740.4 2925.05   1
  -2  11   1 63501.4 3047.02   1
  11  -2   1 72086.0 3157.06   1
 -11   2  -1 59918.0 2952.53   1
   9 -11  -1 62656.8 3054.42   2
   2 -11  -1 64327.4 2981.80   2
 -11   9  -1 73070.8 3097.35   1
  -2  -9   1 57005.2 2912.15   2
  -9  11   1 68729.6 3058.92   1
   9 -11  -2 73972.1 3204.62   1
  11  -9   2 72807.2 3097.37   1
   2 -11  -2 66390.0 3147.92   1
  -2  11   2 72473.7 3200.27   1
  11  -2   2 76110.9 3278.56   1
 -11   2  -2 70711.0 3217.16   1
   9 -11  -2 67196.8 3214.84   2
 -11   9  -2 74851.2 3189.64   1
   2 -11  -2 77919.4 3260.86   2
  -2  -9   2 74316.8 3350.63   2
  -9  11   2 71785.9 3112.14   1
  -9  11   3 132100. 4341.58   1
  11  -9   3 128954. 4212.59   1
   2 -11  -3 112318. 4185.86   1
   9 -11  -3 130169. 4306.58   1
  -2  11   3 115872. 4181.36   1
  11  -2   3 128482. 4337.16   1
 -11   2  -3 127709. 4357.51   1
   9 -11  -3 117109. 4348.30   2
 -11   9  -3 130196. 4251.89   1
   2 -11  -3 122944. 4264.50   2
  -2  -9   3 114176. 4205.91   2
  -9  11   4 13646.8 1272.12   1
  11  -9   4 12362.1 1262.26   1
 -11   2  -4 10176.4 1192.83   2
   2 -11  -4 9970.82 1229.60   1
  11  -2   4 11859.6 1227.34   1
  -2  11   4 11597.4 1276.45   1
   9 -11  -4 13776.7 1315.44   1
 -11   2  -4 12995.6 1371.57   1
   9 -11  -4 11955.6 1377.22   2
 -11   9  -4 14526.5 1337.45   1
  -2  -9   4 10854.1 1253.19   2
   2 -11  -4 12141.5 1290.15   2
  -9  11   5 86585.0 3476.95   1
 -11   2  -5 70415.7 3319.09   2
   2 -11  -5 85000.8 3567.77   1
  11  -2   5 92436.0 3597.31   1
  -2  11   5 81230.2 3468.62   1
   9 -11  -5 89799.5 3523.47   1
 -11   2  -5 90130.9 3638.41   1
 -11   9  -5 91210.8 3552.92   1
  -2  -9   5 75699.2 3444.88   2
   2 -11  -5 86872.0 3566.24   2
  11  -9   5 90625.9 3527.13   1
  -9  11   6 190584. 5362.47   1
  11  -2   6 199144. 5557.73   1
   2 -11  -6 188116. 5547.30   1
  -2  11   6 196749. 5516.85   1
   9 -11  -6 198948. 5431.13   1
 -11   2  -6 207564. 5707.23   1
 -11   9  -6 183689. 5368.91   1
   2 -11  -6 195887. 5504.21   2
  11  -9   6 184248. 5327.94   1
  -9  11   7 28517.7 1949.74   1
 -11   2  -7 22503.2 1862.87   2
  11  -2   7 28576.4 1934.14   1
   2 -11  -7 26704.5 1969.73   1
  -2  11   7 25408.1 1870.86   1
   9 -11  -7 27600.6 1964.25   1
 -11   2  -7 27439.6 1952.05   1
 -11   9  -7 31261.7 2052.22   1
  11  -9   7 28405.7 1925.86   1
   2 -11  -7 27617.1 1966.58   2
  -9  11   8 7889.97 1043.15   1
 -11   2  -8 6544.59 1037.31   2
   2 -11  -8 8307.48 1075.85   1
 -11   2  -8 8780.56 1102.43   1
   9 -11  -8 8766.50 1107.34   1
  -2  11   8 8427.26 1053.43   1
 -11   9  -8 7145.52 1005.52   1
  11  -2   8 8101.03 1024.69   1
  11  -9   8 8016.46 1047.97   1
   2 -11  -8 8590.47 1123.44   2
  11  -9   9 1465.87 474.515   1
 -11   9  -9 1752.12 496.128   1
 -10  11  -8 95834.0 3958.90   1
 -10  11  -7 5561.86 935.644   1
 -10  -1  -7 5302.82 949.390   2
  -1 -10  -7 4355.98 819.854   1
   1  10   7 4792.11 811.039   1
  10 -11   7 5738.71 950.175   1
   1 -11   7 3785.08 745.730   2
  11 -10  -6 6613.78 960.998   1
 -10  11  -6 6923.85 995.518   1
  10 -11   6 5667.25 905.967   1
 -10  -1  -6 5026.97 908.639   2
  -1 -10  -6 6124.46 993.038   1
  10   1   6 6301.44 968.375   1
 -10  -1  -6 5549.84 924.836   1
   1  10   6 6679.10 1000.67   1
   1 -11   6 5288.87 896.626   2
 -11  10   6 6456.57 984.306   1
  -1 -10  -5 5404.78 895.680   2
 -10  11  -5 5431.21 836.049   1
 -10  -1  -5 5071.48 894.808   2
 -11  10   5 5577.68 906.746   1
  -1 -10  -5 5794.15 933.013   1
  10 -11   5 4417.76 772.725   1
  10   1   5 5662.40 902.010   1
 -10  -1  -5 5794.17 950.604   1
   1  10   5 5721.21 871.707   1
   1 -11   5 5124.20 849.426   2
  11 -10  -5 4450.09 796.114   1
  10   1   4 233487. 6262.15   1
 -10  -1  -4 213966. 6231.36   2
  -1 -10  -4 195804. 5996.10   1
  10 -11   4 232240. 6151.62   1
   1  10   4 232782. 6253.77   1
 -10  -1  -4 226021. 6248.81   1
  11 -10  -4 250592. 6246.31   1
   1 -11   4 219887. 6075.08   2
 -10  11  -4 248325. 6377.56   1
  -1 -10  -4 242463. 6266.94   2
 -11  10   4 257128. 6366.37   1
 -10  -1  -3-770.023 380.992   2
 -10  11  -3 386.830 285.880   1
 -11  10   3 559.844 286.619   1
  -1 -10  -3 188.453 229.951   1
  10   1   3 574.336 397.354   1
  10 -11   3 1413.80 531.658   1
 -10  -1  -3 216.714 296.341   1
   1  10   3 545.160 331.881   1
  11 -10  -3 1338.89 515.444   1
   1 -11   3-26.0093 263.574   2
  -1 -10  -3 40.2434 282.611   2
 -11  10   2 2290.72 565.723   1
 -10  11  -2 2460.26 650.213   1
  10   1   2 1244.76 376.952   1
 -10  -1  -2 1377.37 526.368   1
   1  10   2 1288.33 508.368   1
  11 -10  -2 1377.14 504.753   1
  10 -11   2 1600.51 589.778   1
   1 -11   2 1819.41 503.545   2
  -1 -10  -2 2025.75 561.610   2
 -11  10   1 3053.53 624.140   1
 -10  11  -1 2695.31 617.281   1
  10   1   1 1717.60 458.840   1
  11 -10  -1 2614.40 578.826   1
 -10  -1  -1 1748.53 535.261   1
 -11   1   1 1638.46 553.036   1
  10 -11   1 2645.65 569.311   1
   1 -11   1 2467.76 639.168   2
  11  -1  -1 2639.25 625.624   1
  -1 -10  -1 2953.68 617.668   2
  10   1   0 357237. 8190.91   1
  11  -1   0 357144. 8129.35   1
  11 -10   0 380880. 8010.96   1
  10 -11   0 385471. 8110.28   1
   1 -11   0 371822. 8097.60   2
  -1 -10   0 368388. 8143.40   2
 -11  10   0 387801. 8058.09   1
 -10  11   0 381874. 8071.43   1
 -11  10  -1 2459.03 552.666   1
  10 -11  -1 3848.68 784.684   1
 -10  11   1 2563.43 600.670   1
  11 -10   1 2619.43 623.644   1
  -1  11   1 3529.61 712.170   1
 -11   1  -1 3447.96 726.390   1
  11  -1   1 3316.89 676.464   1
   1 -11  -1 3913.00 779.372   2
  -1 -10   1 3512.34 722.074   2
 -11  10  -2 634.633 371.738   1
 -10  11   2-11.0933 284.404   1
  10 -11  -2 220.787 240.019   1
   1 -11  -2 1017.75 514.066   1
  11 -10   2 615.458 397.679   1
  -1  11   2 461.471 382.584   1
 -11   1  -2-109.831 291.301   1
  11  -1   2 499.497 326.127   1
  -1 -10   2 310.173 261.609   2
   1 -11  -2 693.498 413.265   2
 -11  10  -3 8347.29 1001.10   1
  11 -10   3 7527.62 988.940   1
   1 -11  -3 5353.74 890.660   1
  -1  11   3 5586.93 900.934   1
 -11   1  -3 6589.27 927.905   1
  11  -1   3 7633.26 993.972   1
  10 -11  -3 8403.49 1076.01   1
  -1 -10   3 5702.65 935.947   2
 -10  11   3 8799.24 1078.37   1
   1 -11  -3 7100.85 970.174   2
  10 -11  -4 154578. 4753.12   1
 -11   1  -4 125834. 4620.63   2
  11 -10   4 149838. 4700.00   1
  11  -1   4 157686. 4931.00   1
   1 -11  -4 137288. 4752.71   1
  -1  11   4 144190. 4773.70   1
 -11   1  -4 165609. 5073.99   1
  -1 -10   4 127548. 4644.82   2
 -11  10  -4 154942. 4827.76   1
   1 -11  -4 159706. 4922.45   2
 -10  11   4 163604. 4877.73   1
  11 -10   5 8930.69 1110.14   1
  10 -11  -5 10232.1 1162.28   1
 -11   1  -5 6411.70 980.654   2
  11  -1   5 9234.23 1152.81   1
   1 -11  -5 9434.77 1164.14   1
 -11   1  -5 9877.39 1238.44   1
  -1  11   5 8325.59 1060.14   1
 -11  10  -5 9948.89 1169.04   1
   1 -11  -5 8279.54 1089.83   2
  -1 -10   5 7751.47 1088.16   2
 -10  11   5 9647.94 1124.60   1
 -11  10  -6 1417.93 487.626   1
 -11   1  -6 929.909 391.011   2
 -10  11   6 1618.14 535.811   1
   1 -11  -6 853.134 298.026   1
  11 -10   6 1564.47 467.712   1
  -1  11   6 1223.78 406.883   1
  10 -11  -6 1050.44 441.802   1
 -11   1  -6 694.474 334.575   1
  11  -1   6 979.584 427.366   1
  -1 -10   6 889.846 443.462   2
   1 -11  -6 239.151 247.274   2
 -11  10  -7 8325.58 1038.98   1
 -11   1  -7 8430.79 1111.95   2
  11 -10   7 8387.50 1111.36   1
  11   0   0 23940.4 1902.75   1
   0 -11   0 26238.8 1920.04   2
  11   0   1 10905.3 1265.17   1
 -11   0  -1 12347.6 1406.81   1
   0 -11   1 14073.8 1417.73   2
   0 -11  -1 13337.1 1363.29   2
 -11  11  -1 12915.0 1355.97   1
  11   0   2 104187. 4002.44   1
   0  11   2 98704.5 4014.00   1
  11   0   3 67399.7 3157.82   1
   0 -11  -3 61645.7 3196.49   1
   0  11   3 61537.5 3101.50   1
 -11   0  -3 60655.5 3128.52   1
   0 -11   3 68419.5 3216.41   2
  11   0   4 28277.5 2002.80   1
   0 -11  -4 23842.0 1953.29   1
   0  11   4 25835.6 1927.71   1
 -11   0  -4 27539.7 2086.50   1
   0 -11   4 25455.6 1918.04   2
   0 -11  -5 74531.2 3509.95   1
   0  11   5 78376.9 3459.31   1
   0 -11   5 71417.2 3361.12   2
  -6  -6  -7 78.2783 354.364   2
   6   6   7-164.282 302.189   1
  -6  -6  -7 238.431 308.803   1
   6 -12   7 219.846 370.298   2
  -6  -6  -6 29056.8 2084.08   1
   6   6   6 29126.4 2084.32   1
   6 -12   6 34577.5 2169.92   2
 -12   6   6 32050.2 2128.09   1
  12  -6  -6 27673.6 2017.38   1
  -6  -6  -6 29585.9 2125.07   2
 -12   6   5 94.7391 253.538   1
  -6  -6  -5 286.296 271.767   2
   6   6   5-529.867 448.583   1
  12  -6  -5-270.909 243.257   1
  -6  -6  -5-67.2583 274.229   1
   6 -12   5 137.833 273.201   2
   6   6   4 405980. 8861.13   1
   6 -12   4 431795. 8814.95   2
 -12   6   4 399587. 8619.93   1
  12  -6  -4 409657. 8631.37   1
  -6  -6  -4 435541. 9027.74   2
  -6  -6  -3 479.061 383.024   2
   6   6   3 186.282 256.668   1
  12  -6  -3-79.9375 233.597   1
   6 -12   3 71.1728 229.910   1
  -6  12  -3-165.528 278.718   1
  -6  -6  -3 109.502 253.186   1
   6 -12   3-207.042 287.244   2
 -12   6   3 245.550 315.673   1
  -6  -6  -2 3973.57 785.565   2
  12  -6  -2 3588.56 669.409   1
   6   6   2 4386.30 790.399   1
  -6  12  -2 3510.84 721.303   1
   6 -12   2 4023.19 795.178   2
   6 -12   2 3273.41 701.590   1
 -12   6   2 3493.72 748.377   1
  12  -6  -1 314.920 252.754   1
  -6  -6  -1-386.237 268.774   2
  -6  12  -1-594.551 380.267   1
   6 -12   1 177.165 300.545   1
   6 -12   1 249.216 300.027   2
 -12   6   1 36.9116 272.178   1
  -6  12   0 161257. 4995.50   1
   6 -12   0 149039. 4884.60   1
 -12   6   0 161398. 4937.18   1
   6 -12   0 163269. 5008.34   2
  -6  -6   0 148268. 4982.01   2
   6 -12  -1 6.31202 245.891   1
  -6  12   1 37.0034 237.990   1
   6 -12  -1-635.172 428.900   2
  12  -6   1 287.258 228.933   1
 -12   6  -1-289.848 334.550   1
   6 -12  -2-14.6222 360.104   1
  -6  12   2 175.112 266.318   1
  12  -6   2-266.918 272.540   1
   6 -12  -2 436.209 335.154   2
 -12   6  -2 660.298 333.759   1
   6 -12  -3-242.833 439.167   1
  -6  12   3 305.339 316.853   1
  12  -6   3 41.6657 213.486   1
   6 -12  -3 39.8977 228.141   2
 -12   6  -3 481.324 391.576   1
  -6  12   4 270815. 6740.02   1
   6 -12  -4 271597. 6876.40   1
  12  -6   4 282757. 6671.68   1
 -12   6  -4 289137. 6863.94   1
   6 -12  -4 268767. 6839.44   2
   6 -12  -5-72.8171 202.720   1
  -6  12   5 609.417 338.695   1
  12  -6   5 118.394 309.290   1
   6 -12  -5 474.032 325.166   2
 -12   6  -5 11.3793 219.989   1
  -6  12   6 19852.4 1649.16   1
   6 -12  -6 19093.2 1663.40   1
  12  -6   6 22174.5 1664.23   1
 -12   6  -6 21422.0 1674.32   1
   6 -12  -6 16536.7 1524.71   2
   6 -12  -7 253.996 195.721   2
   6 -12  -8 287129. 7332.27   2
  12  -7  -7 90355.5 3760.17   1
  -5  -7  -7 97671.5 3950.50   1
  -7  -5  -7 107953. 4149.63   1
   5   7   7 104283. 4000.69   1
   7   5   7 107450. 4062.62   1
   5 -12   7 108365. 4082.39   2
 -12   7   7 98006.1 3963.14   1
  -7  -5  -7 113270. 4206.22   2
  12  -7  -6 183306. 5443.23   1
  -5  -7  -6 179319. 5545.67   1
  -7  -5  -6 193426. 5749.73   1
   5   7   6 192402. 5597.15   1
   7   5   6 198457. 5765.74   1
   7 -12   6 212041. 5828.93   2
   5 -12   6 195632. 5649.88   2
 -12   7   6 169402. 5354.27   1
  -5  -7  -6 182628. 5504.64   2
  -7  -5  -6 196381. 5766.98   2
  12  -7  -5 121924. 4212.32   1
  -5  -7  -5 103877. 4103.78   1
  -7  -5  -5 100186. 4057.01   1
   5   7   5 119983. 4315.55   1
 -12   5   5 111129. 4199.91   1
   7   5   5 120314. 4325.06   1
   7 -12   5 116504. 4191.68   2
  12  -5  -5 107668. 4142.77   1
   5 -12   5 123438. 4286.89   2
 -12   7   5 107279. 4067.78   1
  -5  -7  -5 119946. 4295.24   2
  -7  -5  -5 120071. 4401.00   2
   5   7   4 4381.49 831.634   1
 -12   7   4 4973.38 845.713   1
  -5  -7  -4 4206.25 805.562   2
  -7  -5  -4 4415.11 814.108   2
   7   5   4 4381.05 833.089   1
  -7  12  -4 4287.55 777.368   1
   7 -12   4 4779.99 842.260   1
  -5  -7  -4 3761.87 771.376   1
  -7  -5  -4 2998.75 686.640   1
  12  -7  -4 4458.72 799.680   1
   7 -12   4 4574.84 829.227   2
   5 -12   4 6766.42 986.746   2
  12  -5  -4 5516.64 884.226   1
 -12   5   4 3390.55 733.559   1
 -12   7   3 738.574 317.088   1
   5   7   3 383.360 297.590   1
  -5  -7  -3 858.550 459.439   2
  -7  -5  -3 1046.46 518.924   2
   7   5   3 858.822 435.826   1
  -7  12  -3 968.283 431.200   1
  12  -7  -3 611.568 294.740   1
  -5  -7  -3 1483.90 504.796   1
  -7  -5  -3 526.773 333.596   1
   7 -12   3 414.346 297.539   1
   7 -12   3 499.448 349.659   2
  12  -5  -3 274.423 214.832   1
   5 -12   3 145.512 323.315   2
 -12   5   3 649.563 412.358   1
  -7  12  -2 137171. 4638.95   1
   5 -12   2 128998. 4572.80   1
  -5  12  -2 128610. 4565.01   1
   7 -12   2 134165. 4601.58   1
   5   7   2 133168. 4621.94   1
  12  -5  -2 138463. 4547.12   1
 -12   5   2 148944. 4788.27   1
   7   5   2 138507. 4719.24   1
   7 -12   2 153150. 4798.75   2
   5 -12   2 146282. 4635.61   2
 -12   7   2 153088. 4810.56   1
  -5  -7  -2 138744. 4702.12   2
  -7  -5  -2 127755. 4612.32   2
  12  -7  -2 152195. 4686.19   1
  -7  12  -1 25782.7 1910.27   1
  -5  12  -1 26096.6 1940.67   1
   7 -12   1 25057.4 1901.70   1
  12  -5  -1 29665.6 1980.05   1
 -12   5   1 29274.3 2014.62   1
   7 -12   1 28628.2 1997.90   2
   5 -12   1 27787.5 1938.45   2
 -12   7   1 29215.0 1943.04   1
  -5  -7  -1 23520.5 1840.35   2
  12  -7  -1 25066.4 1819.61   1
  -7  -5  -1 26341.8 2014.70   2
  -7  12   0 24159.9 1807.28   1
  -5  12   0 23102.3 1768.03   1
   5 -12   0 23118.2 1856.31   1
  12  -5   0 22366.1 1716.91   1
   7 -12   0 23212.6 1764.74   1
 -12   5   0 28482.3 1962.83   1
   7 -12   0 23500.0 1840.37   2
 -12   7   0 26126.6 1863.03   1
   5 -12   0 27267.0 1906.16   2
  12  -7   0 23931.2 1767.20   1
  -5  -7   0 20971.8 1815.83   2
  -7  12   1 108811. 3957.86   1
  -5  12   1 97034.4 3797.65   1
   5 -12  -1 91563.6 3742.45   1
  12  -5   1 114384. 3970.22   1
 -12   5  -1 109411. 4037.34   1
 -12   7  -1 110811. 3944.78   1
   7 -12  -1 100138. 3924.98   2
   5 -12  -1 104943. 3928.10   2
   7 -12  -1 103829. 3902.21   1
  12  -7   1 109290. 3821.13   1
  -5  -7   1 92482.4 3840.14   2
   7 -12  -2 55495.4 2845.63   1
  -7  12   2 57469.7 2841.61   1
  -5  12   2 54002.4 2816.54   1
   5 -12  -2 52586.3 2801.22   1
  12  -5   2 61586.1 2849.33   1
 -12   5  -2 58003.6 2858.99   1
 -12   7  -2 67696.9 3018.96   1
   7 -12  -2 57995.4 2914.71   2
   5 -12  -2 58266.6 2877.46   2
  12  -7   2 63615.8 2886.80   1
  -7  12   3 8782.55 1114.26   1
  -5  12   3 9197.71 1129.72   1
   5 -12  -3 9091.83 1148.58   1
   7 -12  -3 8517.05 1087.74   1
  12  -5   3 9741.34 1147.25   1
 -12   5  -3 10054.9 1134.87   1
 -12   7  -3 10488.7 1186.94   1
  12  -7   3 10590.7 1143.63   1
   7 -12  -3 9417.76 1167.89   2
   5 -12  -3 9323.77 1160.98   2
   5 -12  -4 6761.31 1078.28   1
  -7  12   4 7486.08 1024.63   1
  -5  12   4 8101.78 1037.99   1
  12  -5   4 7946.29 990.641   1
 -12   5  -4 7774.45 1024.06   1
  12  -7   4 8459.70 1046.18   1
   7 -12  -4 6575.46 1010.25   2
   5 -12  -4 6424.32 983.257   2
 -12   7  -4 6167.12 924.883   1
  -7  12   5 12911.4 1296.70   1
   7 -12  -5 12664.1 1318.35   1
  -5  12   5 12038.9 1281.44   1
   5 -12  -5 12542.3 1332.40   1
  12  -5   5 14005.1 1309.57   1
 -12   5  -5 13173.8 1356.13   1
  12  -7   5 13349.1 1327.19   1
 -12   7  -5 12759.3 1300.23   1
   7 -12  -5 9104.98 1171.88   2
   5 -12  -5 12960.6 1372.14   2
  -7  12   6 339407. 7583.08   1
   7 -12  -6 342758. 7721.31   1
  -5  12   6 316721. 7481.20   1
   5 -12  -6 332913. 7695.18   1
  12  -5   6 339266. 7492.11   1
  12  -7   6 333371. 7501.91   1
 -12   5  -6 349718. 7714.36   1
 -12   7  -6 356326. 7788.92   1
   5 -12  -6 326460. 7750.26   2
   7 -12  -7 51494.5 2899.76   2
   5 -12  -7 61844.1 3048.24   2
   5 -12  -8 18434.0 1649.73   2
  12  -8  -8 5115.32 923.667   1
  12  -8  -7 58897.6 2932.14   1
  -4  -8  -7 53780.0 2945.49   1
   4   8   7 58018.2 2922.13   1
 -12   8   7 54839.6 2872.15   1
  12  -8  -6 236036. 6266.79   1
  -4  -8  -6 215990. 6257.99   1
  -8  -4  -6 230857. 6329.50   1
   4   8   6 229266. 6289.59   1
   4 -12   6 226784. 6178.91   2
   8   4   6 233971. 6292.16   1
 -12   8   6 241127. 6380.83   1
  -8  -4  -6 229897. 6348.06   2
  -4  -8  -5 7650.14 1079.89   2
  -8  -4  -5 7825.26 1091.36   2
  12  -8  -5 8118.66 1043.31   1
  -4  -8  -5 6893.46 999.673   1
   4   8   5 9057.20 1178.77   1
  -8  -4  -5 6780.74 1023.74   1
   4 -12   5 9108.75 1160.87   2
   8   4   5 9419.95 1187.05   1
   8 -12   5 8271.20 1067.10   2
 -12   8   5 8128.33 1079.29   1
  -8  12  -5 8126.14 1089.96   1
   8 -12   5 7157.31 1059.07   1
  12  -8  -4 85207.8 3406.99   1
  -4  -8  -4 64760.7 3233.48   1
  -8  -4  -4 67606.3 3281.58   1
   4   8   4 69764.9 3321.04   1
  12  -4  -4 70676.9 3281.59   1
   8 -12   4 84489.2 3477.59   2
   8 -12   4 70570.5 3288.70   1
   4 -12   4 76163.6 3358.30   2
   8   4   4 79519.3 3423.25   1
 -12   8   4 80335.4 3402.81   1
  -4  -8  -4 82039.6 3523.61   2
  -8  12  -4 70412.9 3283.13   1
  -8  -4  -4 74960.8 3487.61   2
  12  -8  -3 49019.5 2539.54   1
  -4  -8  -3 45171.3 2655.14   1
  -8  -4  -3 42143.0 2549.58   1
   4   8   3 44998.0 2629.02   1
  12  -4  -3 46428.3 2592.03   1
 -12   4   3 42949.8 2530.72   1
   8 -12   3 48098.6 2622.25   2
   4 -12   3 52205.9 2647.86   2
   8   4   3 42346.6 2526.29   1
 -12   8   3 51985.6 2706.22   1
   8 -12   3 44604.8 2575.17   1
  -4  -8  -3 52784.9 2762.84   2
  -8  12  -3 47741.4 2627.36   1
  -8  -4  -3 41335.9 2580.08   2
   8 -12   2 120747. 4243.46   1
  12  -8  -2 126043. 4204.39   1
  -8  -4  -2 100892. 4107.28   1
  12  -4  -2 116240. 4194.30   1
 -12   4   2 106539. 4094.48   1
   8 -12   2 125256. 4329.48   2
   4 -12   2 121099. 4201.72   2
   8   4   2 111464. 4264.28   1
 -12   8   2 128157. 4321.72   1
  -4  -8  -2 115617. 4269.40   2
  -8  -4  -2 106781. 4224.07   2
  -8  12  -2 118764. 4180.82   1
  12  -8  -1 33188.7 2089.76   1
  -4  12  -1 24701.5 1921.94   1
   8 -12   1 28894.6 2002.58   1
  12  -4  -1 25256.5 1870.64   1
 -12   4   1 28678.9 2037.62   1
   8 -12   1 29751.0 2066.75   2
   4 -12   1 30361.2 1996.05   2
 -12   8   1 34620.6 2101.90   1
  -4  -8  -1 26909.9 2020.46   2
  -8  12  -1 30153.2 2054.30   1
  -4  -8   0 211.667 348.134   2
 -12   8   0 534.714 404.235   1
   8 -12   0 299.914 336.834   1
  -8  12   0 9.31715 303.575   1
   4 -12   0 164.224 231.369   1
  -4  12   0-323.698 310.195   1
  12  -4   0 384.689 285.535   1
  12  -8   0-268.384 336.150   1
   8 -12   0 856.300 505.201   2
 -12   4   0 508.417 327.507   1
   4 -12   0 456.575 414.983   2
  -4  -8   1 5527.83 899.914   2
 -12   8  -1 7729.18 1007.71   1
  -8  12   1 7208.35 1033.32   1
   4 -12  -1 5879.72 923.030   1
   8 -12  -1 7726.03 1037.87   1
  12  -8   1 6193.71 883.773   1
  12  -4   1 6242.07 912.644   1
  -4  12   1 6018.90 959.617   1
   8 -12  -1 7577.49 1065.36   2
 -12   4  -1 6410.16 926.939   1
   4 -12  -1 6967.15 987.649   2
  -8  12   2 109469. 4006.25   1
  -4  12   2 107397. 4031.65   1
   4 -12  -2 101219. 4010.56   1
  12  -4   2 112359. 3995.08   1
   8 -12  -2 118521. 4134.15   1
 -12   4  -2 115251. 4091.61   1
   8 -12  -2 101262. 3995.44   2
 -12   8  -2 113983. 4001.20   1
   4 -12  -2 117375. 4110.42   2
  -4  -8   2 101613. 4043.61   2
  12  -8   2 112052. 3915.12   1
  -8  12   3 63896.4 2997.67   1
   4 -12  -3 56499.8 2930.36   1
  -4  12   3 57483.6 2893.39   1
  12  -4   3 63435.5 2937.88   1
   8 -12  -3 64418.2 3027.84   1
   8 -12  -3 59019.4 3006.02   2
 -12   8  -3 63405.1 2895.89   1
   4 -12  -3 62708.1 3019.44   2
  12  -8   3 63037.7 2854.36   1
  12  -8   4 2166.48 476.878   1
  12  -4   4 1192.43 421.487   1
   4 -12  -4 1806.16 585.982   1
  -8  12   4 2065.82 573.474   1
   8 -12  -4 1846.36 518.605   1
  -4  12   4 845.251 380.185   1
 -12   4  -4 1286.31 441.870   1
   8 -12  -4 2086.13 601.711   2
   4 -12  -4 1843.01 583.441   2
 -12   8  -4 2385.97 624.076   1
  -8  12   5 107681. 3978.02   1
   4 -12  -5 111821. 4145.28   1
  -4  12   5 109075. 3990.05   1
  12  -4   5 112866. 4002.33   1
 -12   4  -5 103841. 3987.50   1
 -12   8  -5 113102. 4054.93   1
   8 -12  -5 95491.5 3999.83   2
  12  -8   5 117470. 4051.89   1
   4 -12  -5 107502. 4063.05   2
   8 -12  -5 119620. 4169.80   1
   4 -12  -6 140235. 4654.51   1
  -4  12   6 136293. 4535.80   1
   4 -12  -6 143021. 4756.50   2
   4 -12  -7 61484.2 3092.96   2
  -9  -3  -6 12792.2 1408.54   2
  -3  -9  -6 13195.9 1450.48   1
   3   9   6 11543.6 1333.74   1
  -9  12  -6 13420.9 1453.82   1
 -12   9   5 1649.51 571.432   1
  -9  -3  -5 2380.58 668.245   2
  -9  12  -5 1248.30 461.754   1
   9   3   5 1789.84 560.307   1
  -3  -9  -5 2204.57 638.224   1
  12  -9  -5 1554.96 432.249   1
  -9  -3  -5 1905.38 643.599   1
   9 -12   5 1426.89 501.579   1
   3   9   5 2341.30 653.328   1
  -9  -3  -4 332361. 8200.89   2
  12  -9  -4 387494. 8116.50   1
  -3  -9  -4 307790. 7917.52   1
  -9  -3  -4 323461. 8081.01   1
   3   9   4 346170. 8153.64   1
   9 -12   4 322582. 7839.21   1
   9 -12   4 375784. 8248.27   2
   3 -12   4 374603. 8149.71   2
 -12   9   4 380125. 8236.33   1
   9   3   4 354263. 8125.87   1
  -3  -9  -4 398812. 8407.97   2
  -9  12  -4 348918. 8059.72   1
  -3  -9  -3 9573.69 1111.43   2
  -9  -3  -3 7485.34 1077.58   2
  12  -9  -3 11375.1 1237.41   1
  12  -3  -3 6686.51 1013.93   1
  -9  -3  -3 7216.49 1084.16   1
   9 -12   3 9443.40 1123.73   1
   9 -12   3 9274.56 1182.15   2
   3   9   3 7762.14 1065.53   1
 -12   9   3 9271.72 1145.69   1
   9   3   3 8425.49 1136.87   1
   3 -12   3 8482.55 1071.86   2
  -9  12  -3 8597.10 1095.84   1
  -3  -9  -2 592.379 409.378   2
 -12   9   2 622.494 306.884   1
   9 -12   2 306.654 305.527   1
  -9  12  -2 707.750 378.990   1
  12  -9  -2 776.133 416.853   1
  12  -3  -2 950.554 405.461   1
   9   3   2 355.100 216.343   1
   9 -12   2 703.074 454.401   2
 -12   3   2 534.055 241.462   1
   3 -12   2 681.352 340.328   2
  -3  -9  -1 993.363 449.158   2
 -12   9   1 1222.25 452.737   1
  12  -9  -1 1320.39 472.117   1
  -9  12  -1 1766.11 482.050   1
  12  -3  -1 1498.56 566.456   1
   9 -12   1 943.881 372.312   1
   9 -12   1 1348.80 546.026   2
 -12   3   1 556.522 385.924   1
   3 -12   1 1074.26 404.307   2
   9 -12   0 114773. 4117.02   1
  12  -9   0 117422. 4046.16   1
  -3  12   0 99849.7 4025.44   1
  12  -3   0 109489. 4087.14   1
 -12   3   0 98878.8 3953.15   1
   9 -12   0 113311. 4302.46   2
   3 -12   0 118615. 4150.94   2
 -12   9   0 121928. 4179.90   1
  -3  -9   0 103055. 4085.45   2
  -9  12   0 119057. 4180.10   1
 -12   9  -1 503.624 308.390   1
  12  -3   1 62.2331 225.686   1
  -9  12   1-78.8465 344.558   1
   3 -12  -1-37.7642 263.122   1
  -3  12   1 293.113 299.379   1
   9 -12  -1-159.361 267.917   1
  12  -9   1 269.086 260.403   1
   9 -12  -1 93.1489 304.979   2
 -12   3  -1-282.067 302.135   1
   3 -12  -1-465.084 443.615   2
  -3  -9   1 269.103 387.248   2
  -9  12   2 8567.95 1097.77   1
  12  -9   2 9185.50 1078.01   1
  -3  12   2 10274.8 1192.07   1
   9 -12  -2 9302.60 1081.89   1
   3 -12  -2 7290.96 1047.84   1
  12  -3   2 8539.15 1075.03   1
 -12   3  -2 8930.42 1171.62   1
 -12   9  -2 10725.5 1219.46   1
   3 -12  -2 10822.7 1225.33   2
   9 -12  -2 6616.78 1014.92   2
  -3  -9   2 8852.85 1151.01   2
 -12   9  -3 2222.11 546.393   1
   9 -12  -3 2096.97 572.156   1
  12  -3   3 1098.23 448.461   1
  -9  12   3 1539.07 497.025   1
   3 -12  -3 1189.26 529.437   1
  12  -9   3 1892.69 558.753   1
  -3  12   3 1179.50 530.952   1
 -12   3  -3 1210.34 510.989   1
   9 -12  -3 1349.43 470.563   2
   3 -12  -3 1240.56 578.033   2
  -3  -9   3 985.931 375.860   2
   3 -12  -4 256373. 6853.10   1
  -3  12   4 265979. 6748.85   1
  12  -3   4 285752. 6859.22   1
 -12   3  -4 278225. 6978.57   1
   9 -12  -4 250945. 6952.75   2
 -12   3  -5 1728.22 591.959   2
   3 -12  -5 2597.91 628.597   1
  -3  12   5 2954.77 714.591   1
 -12   3  -6-237.366 321.698   2
  10   2   4 5024.43 862.813   1
 -10  -2  -4 5794.90 964.125   1
   2  10   4 4603.59 834.819   1
 -10  -2  -3 90365.9 3881.42   1
  10   2   3 95697.5 3900.22   1
  10   2   2 97730.2 3940.75   1
  12  -2  -1 30287.9 2127.10   1
 -12   2   1 30141.6 2199.96   1
  12  -2   0 13596.9 1364.42   1
 -12   2   0 11453.8 1375.07   1
  -2 -10   0 15642.3 1479.08   2
  12  -2   1 737.544 325.859   1
 -12   2  -1-57.0011 258.319   1
  10 -12  -1 536.472 469.599   2
  -2 -10   1 863.683 464.897   2
   2 -12  -2 91809.6 3978.90   1
  -2  12   2 91412.9 3780.85   1
  12  -2   2 95612.1 3828.95   1
 -12   2  -2 96278.3 3944.41   1
  10 -12  -2 101734. 4149.92   2
  -2 -10   2 95163.5 3953.80   2
   2 -12  -3 17520.6 1641.60   1
  -2  12   3 17158.7 1592.80   1
  -2 -10   3 16970.5 1634.20   2
  -2  12   4 25463.6 1919.63   1
  -7  13  -2 62958.5 3158.68   1
  -6  -7  -2 60066.0 3163.03   2
  -7  -6  -2 58468.0 3154.22   2
  -6  -7  -1 1391.13 526.456   2
  -7  13  -1 992.244 448.032   1
  -6  13  -1 1753.02 585.368   1
   7 -13   1 987.347 468.742   1
  -7  13   0 620.978 334.471   1
  -6  13   0 340.423 333.807   1
   7 -13   0 177.370 332.722   1
   6 -13   0-340.643 287.540   1
  -6  13   1 1403.33 477.706   1
   6 -13  -1 797.307 349.738   1
  -5  13   0 207692. 6044.02   1
   5 -13  -1-212.240 336.507   1
  -5  13   1 534.276 339.445   1
   0   0   0    0.00    0.00   0

;
_shelx_hkl_checksum              7263
loop_
_space_group_symop_operation_xyz
'x, y, z'
'-y, x-y, z'
'-x+y, -x, z'
'-y, -x, -z+1/2'
'-x+y, y, -z+1/2'
'x, x-y, -z+1/2'
'-x, -y, -z'
'y, -x+y, -z'
'x-y, x, -z'
'y, x, z-1/2'
'x-y, -y, z-1/2'
'-x, -x+y, z-1/2'
loop_
_atom_site_label
_atom_site_type_symbol
_atom_site_fract_x
_atom_site_fract_y
_atom_site_fract_z
_atom_site_U_iso_or_equiv
_atom_site_adp_type
_atom_site_occupancy
_atom_site_site_symmetry_order
_atom_site_calc_flag
_atom_site_refinement_flags_posn
_atom_site_refinement_flags_adp
_atom_site_refinement_flags_occupancy
Co1 Co 0.6667 0.3333 0.2500 0.00688(9) Uani 1 6 d S T P
Fe1 Fe 1.0000 0.0000 0.0000 0.00547(9) Uani 1 6 d S T P
O1 O 0.88337(10) 0.34358(9) 0.16805(5) 0.01590(15) Uani 1 1 d . . .
O2 O 1.01323(8) 0.20887(9) 0.08294(5) 0.01167(13) Uani 1 1 d . . .
C1 C 0.87325(12) 0.21018(12) 0.12015(6) 0.01190(15) Uani 1 1 d . . .
H1 H 0.7553 0.1048 0.1112 0.030(5) Uiso 1 1 calc R . .
C2 C 1.3333 0.6667 0.1558(8) 0.134(3) Uani 1 3 d S T P
N1 N 1.2776(3) 0.5553(7) 0.2500 0.102(4) Uani 0.334 2 d S T P
loop_
_atom_site_aniso_label
_atom_site_aniso_U_11
_atom_site_aniso_U_22
_atom_site_aniso_U_33
_atom_site_aniso_U_23
_atom_site_aniso_U_13
_atom_site_aniso_U_12
Co1 0.00625(10) 0.00625(10) 0.00814(15) 0.000 0.000 0.00312(5)
Fe1 0.00479(10) 0.00479(10) 0.00685(16) 0.000 0.000 0.00239(5)
O1 0.0154(3) 0.0122(3) 0.0194(3) -0.0049(2) 0.0047(2) 0.0064(2)
O2 0.0111(2) 0.0111(2) 0.0137(3) -0.00231(19) 0.00145(18) 0.00622(19)
C1 0.0113(3) 0.0119(3) 0.0142(4) -0.0035(2) -0.0010(2) 0.0070(3)
C2 0.0207(8) 0.0207(8) 0.359(10) 0.000 0.000 0.0104(4)
N1 0.0209(17) 0.0102(17) 0.271(13) 0.000 -0.050(4) 0.0051(8)
loop_
_atom_type_symbol
_atom_type_description
_atom_type_scat_dispersion_real
_atom_type_scat_dispersion_imag
_atom_type_scat_source
C C 0.0030 0.0010 'International Tables Vol C Tables 4.2.6.8 and 6.1.1.4'
H H 0.0000 0.0000 'International Tables Vol C Tables 4.2.6.8 and 6.1.1.4'
N N 0.0050 0.0030 'International Tables Vol C Tables 4.2.6.8 and 6.1.1.4'
O O 0.0090 0.0050 'International Tables Vol C Tables 4.2.6.8 and 6.1.1.4'
Fe Fe 0.3380 0.7600 'International Tables Vol C Tables 4.2.6.8 and 6.1.1.4'
Co Co 0.3460 0.8760 'International Tables Vol C Tables 4.2.6.8 and 6.1.1.4'
loop_
_geom_angle_atom_site_label_1
_geom_angle_atom_site_label_2
_geom_angle_atom_site_label_3
_geom_angle
_geom_angle_site_symmetry_1
_geom_angle_site_symmetry_3
O1 Co1 O1 93.45(3) 4_665 6
O1 Co1 O1 83.68(4) 4_665 3_665
O1 Co1 O1 175.96(3) 6 3_665
O1 Co1 O1 175.96(3) 4_665 2_655
O1 Co1 O1 89.56(4) 6 2_655
O1 Co1 O1 93.45(3) 3_665 2_655
O1 Co1 O1 93.45(3) 4_665 5_655
O1 Co1 O1 93.45(3) 6 5_655
O1 Co1 O1 89.56(4) 3_665 5_655
O1 Co1 O1 83.68(4) 2_655 5_655
O1 Co1 O1 89.56(4) 4_665 .
O1 Co1 O1 83.68(4) 6 .
O1 Co1 O1 93.45(3) 3_665 .
O1 Co1 O1 93.45(3) 2_655 .
O1 Co1 O1 175.96(3) 5_655 .
O2 Fe1 O2 180.0 . 7_755
O2 Fe1 O2 88.61(3) . 8_665
O2 Fe1 O2 91.39(3) 7_755 8_665
O2 Fe1 O2 91.39(3) . 2_645
O2 Fe1 O2 88.61(3) 7_755 2_645
O2 Fe1 O2 180.00(5) 8_665 2_645
O2 Fe1 O2 88.61(3) . 9_545
O2 Fe1 O2 91.39(3) 7_755 9_545
O2 Fe1 O2 91.39(3) 8_665 9_545
O2 Fe1 O2 88.61(3) 2_645 9_545
O2 Fe1 O2 91.39(3) . 3_765
O2 Fe1 O2 88.61(3) 7_755 3_765
O2 Fe1 O2 88.61(3) 8_665 3_765
O2 Fe1 O2 91.39(3) 2_645 3_765
O2 Fe1 O2 180.00(4) 9_545 3_765
C1 O1 Co1 124.92(6) . .
C1 O2 Fe1 124.95(6) . .
O1 C1 O2 124.06(8) . .
N1 C2 N1 54.0(4) 3_775 .
N1 C2 N1 54.0(4) 3_775 2_755
N1 C2 N1 54.0(4) . 2_755
N1 N1 N1 60.000(1) 3_775 2_755
N1 N1 C2 63.0(2) 3_775 4_775
N1 N1 C2 63.0(2) 2_755 4_775
N1 N1 C2 63.0(2) 3_775 .
N1 N1 C2 63.0(2) 2_755 .
C2 N1 C2 116.8(5) 4_775 .
loop_
_geom_bond_atom_site_label_1
_geom_bond_atom_site_label_2
_geom_bond_distance
_geom_bond_site_symmetry_2
Co1 O1 2.0697(7) 4_665
Co1 O1 2.0697(7) 6
Co1 O1 2.0697(7) 3_665
Co1 O1 2.0697(7) 2_655
Co1 O1 2.0697(7) 5_655
Co1 O1 2.0697(7) .
Fe1 O2 2.0143(6) .
Fe1 O2 2.0143(6) 7_755
Fe1 O2 2.0143(6) 8_665
Fe1 O2 2.0143(6) 2_645
Fe1 O2 2.0143(6) 9_545
Fe1 O2 2.0143(6) 3_765
O1 C1 1.2435(10) .
O2 C1 1.2626(9) .
C2 N1 1.512(10) 3_775
C2 N1 1.512(10) .
C2 N1 1.512(10) 2_755
N1 N1 1.373(9) 3_775
N1 N1 1.373(9) 2_755
N1 C2 1.512(10) 4_775
