#------------------------------------------------------------------------------
#$Date: 2017-02-04 00:25:31 +0200 (Sat, 04 Feb 2017) $
#$Revision: 191245 $
#$URL: file:///home/coder/svn-repositories/cod/cif/4/34/50/4345098.cif $
#------------------------------------------------------------------------------
#
# This file is available in the Crystallography Open Database (COD),
# http://www.crystallography.net/
#
# All data on this site have been placed in the public domain by the
# contributors.
#
data_4345098
loop_
_publ_author_name
'Mazzuca, Lidia'
'Ca\~nadillas-Delgado, Laura'
'Rodr\'iguez-Velamaz\'an, J Alberto'
'Fabelo, Oscar'
'Scarrozza, Marco'
'Stroppa, Alessandro'
'Picozzi, Silvia'
'Zhao, Jiong-Peng'
'Bu, Xian-He'
'Rodr\'iguez-Carvajal, Juan'
_publ_section_title
;
 Magnetic Structures of Heterometallic M(II)-M(III) Formate Compounds.
;
_journal_issue                   1
_journal_name_full               'Inorganic chemistry'
_journal_page_first              197
_journal_page_last               207
_journal_paper_doi               10.1021/acs.inorgchem.6b01866
_journal_volume                  56
_journal_year                    2017
_chemical_formula_sum            'C8 H14 Fe Mn N O12'
_chemical_formula_weight         426.98
_chemical_name_systematic
;
 ?
;
_space_group_crystal_system      trigonal
_space_group_IT_number           163
_space_group_name_Hall           '-P 3 2c'
_space_group_name_H-M_alt        'P -3 1 c'
_symmetry_space_group_name_Hall  '-P 3 2c'
_symmetry_space_group_name_H-M   'P -3 1 c'
_atom_sites_solution_hydrogens   geom
_audit_creation_method           SHELXL-2014
_cell_angle_alpha                90
_cell_angle_beta                 90
_cell_angle_gamma                120
_cell_formula_units_Z            2
_cell_length_a                   8.27550(10)
_cell_length_b                   8.27550(10)
_cell_length_c                   13.8942(2)
_cell_measurement_reflns_used    6464
_cell_measurement_temperature    55(2)
_cell_measurement_theta_max      32.3630
_cell_measurement_theta_min      2.7140
_cell_volume                     824.048(18)
_computing_cell_refinement       'CrysAlis PRO software program'
_computing_data_collection       'CrysAlis PRO software program'
_computing_data_reduction        'CrysAlis PRO software program'
_computing_molecular_graphics    'Mercury (McRae, 2006)'
_computing_publication_material  'WINGX (Farrugia, 1999)'
_computing_structure_refinement  'SHELXL-2014 (Sheldrick, 2014)'
_computing_structure_solution    'SHELXL-2014 (Sheldrick, 2014)'
_diffrn_ambient_temperature      55(2)
_diffrn_measured_fraction_theta_full 0.914
_diffrn_measured_fraction_theta_max 0.931
_diffrn_measurement_device_type  'CRISTAL beamline, SOLEIL synchrotron'
_diffrn_radiation_type           synchrotron
_diffrn_radiation_wavelength     0.66951
_diffrn_reflns_av_R_equivalents  0.0438
_diffrn_reflns_av_unetI/netI     0.0189
_diffrn_reflns_Laue_measured_fraction_full 0.914
_diffrn_reflns_Laue_measured_fraction_max 0.931
_diffrn_reflns_limit_h_max       12
_diffrn_reflns_limit_h_min       -11
_diffrn_reflns_limit_k_max       11
_diffrn_reflns_limit_k_min       -12
_diffrn_reflns_limit_l_max       22
_diffrn_reflns_limit_l_min       -22
_diffrn_reflns_number            10354
_diffrn_reflns_point_group_measured_fraction_full 0.914
_diffrn_reflns_point_group_measured_fraction_max 0.931
_diffrn_reflns_theta_full        23.685
_diffrn_reflns_theta_max         32.600
_diffrn_reflns_theta_min         2.762
_diffrn_source                   synchrotron
_exptl_absorpt_coefficient_mu    1.436
_exptl_absorpt_correction_T_max  1.00000
_exptl_absorpt_correction_T_min  0.84225
_exptl_absorpt_correction_type   multi-scan
_exptl_absorpt_process_details
;
CrysAlisPro, Agilent Technologies,
Version 1.171.37.33 (release 27-03-2014 CrysAlis171 .NET)
(compiled Mar 27 2014,17:12:48)
Empirical absorption correction using spherical harmonics,
 implemented in SCALE3 ABSPACK scaling algorithm.
;
_exptl_crystal_colour            dark-yellow
_exptl_crystal_density_diffrn    1.721
_exptl_crystal_description       prism
_exptl_crystal_F_000             432
_refine_diff_density_max         0.489
_refine_diff_density_min         -0.441
_refine_diff_density_rms         0.064
_refine_ls_extinction_method     none
_refine_ls_goodness_of_fit_ref   1.229
_refine_ls_hydrogen_treatment    refU
_refine_ls_matrix_type           full
_refine_ls_number_parameters     41
_refine_ls_number_reflns         1123
_refine_ls_number_restraints     0
_refine_ls_restrained_S_all      1.229
_refine_ls_R_factor_all          0.0285
_refine_ls_R_factor_gt           0.0262
_refine_ls_shift/su_max          0.000
_refine_ls_shift/su_mean         0.000
_refine_ls_structure_factor_coef Fsqd
_refine_ls_weighting_details
'w=1/[\s^2^(Fo^2^)+(0.0289P)^2^+0.4955P] where P=(Fo^2^+2Fc^2^)/3'
_refine_ls_weighting_scheme      calc
_refine_ls_wR_factor_gt          0.0710
_refine_ls_wR_factor_ref         0.0793
_reflns_Friedel_coverage         0.000
_reflns_number_gt                1060
_reflns_number_total             1123
_reflns_threshold_expression     'I > 2\s(I)'
_cod_data_source_file            FeMn_55K.cif
_cod_data_source_block           shelx
_cod_original_cell_volume        824.05(2)
_cod_database_code               4345098
_shelx_space_group_comment
;
The symmetry employed for this shelxl refinement is uniquely defined
by the following loop, which should always be used as a source of
symmetry information in preference to the above space-group names.
They are only intended as comments.
;
_shelxl_version_number           2014-3
_shelx_res_file
;
TITL FeMn_warm2 in P-31c
CELL  0.66951   8.2755   8.2755  13.8942   90.000   90.000  120.000
ZERR     2.00   0.0001   0.0001   0.0002    0.000    0.000    0.000
LATT   1
SYMM  - Y,   X - Y,   Z
SYMM  - X + Y, - X,   Z
SYMM  - Y, - X, 1/2 - Z
SYMM  - X + Y,   Y, 1/2 - Z
SYMM    X,   X - Y, 1/2 - Z
SFAC  C        2.31000 20.84392  1.02000 10.20751   1.58860   0.56870 =
         0.86500  51.65125   0.21560   0.003   0.001    10.064   0.770  12.011
SFAC  H        0.49300 10.51091  0.32291 26.12573   0.14019   3.14236 =
         0.04081  57.79977   0.00304   0.000   0.000     0.666   0.320   1.008
SFAC  N       12.21261  0.00570  3.13220  9.89331   2.01250  28.99754 =
         1.16630   0.58260 -11.52901   0.005   0.003    16.889   0.700  14.007
SFAC  O        3.04850 13.27711  2.28680  5.70111   1.54630   0.32390 =
         0.86700  32.90894   0.25080   0.009   0.005    27.551   0.660  15.999
SFAC  FE      11.76951  4.76111  7.35731  0.30720   3.52220  15.35351 =
         2.30450  76.88058   1.03690   0.338   0.762  2939.485   1.260  55.845
SFAC  MN      11.28191  5.34091  7.35731  0.34320   3.01930  17.86742 =
         2.24410  83.75438   1.08960   0.324   0.657  2538.176   1.370  54.938
UNIT  16   28   2    24   2    2
MERG   2
FMAP   2
PLAN   20
ACTA
L.S.  15
WGHT    0.028900    0.495500
FVAR      17.59670
MN2   6    0.666667    0.333333    0.250000    10.16667    0.01016    0.01016 =
         0.01419    0.00000    0.00000    0.00508
FE1   5    1.000000    0.000000    0.000000    10.16667    0.00964    0.00964 =
         0.01341    0.00000    0.00000    0.00482
O1    4    0.889262    0.342523    0.165925    11.00000    0.02098    0.01979 =
         0.03510   -0.00768    0.00726    0.00907
O2    4    1.016037    0.207954    0.081743    11.00000    0.01655    0.01700 =
         0.02392   -0.00351    0.00175    0.00913
C1    1    0.878436    0.211518    0.118064    11.00000    0.01687    0.01918 =
         0.02302   -0.00502   -0.00015    0.01009
AFIX  43
H1    2    0.760595    0.108544    0.108210    11.00000    0.04130
AFIX   0
C2    1    1.333333    0.666667    0.160002    10.33333    0.02775    0.02775 =
         0.55425    0.00000    0.00000    0.01388
N1    3    1.278980    0.557959    0.250000    10.16667    0.02930    0.01321 =
         0.36109    0.00000   -0.06790    0.00661
HKLF    4

REM  FeMn_warm2 in P-31c
REM R1 =  0.0262 for    1060 Fo > 4sig(Fo)  and  0.0285 for all    1123 data
REM     41 parameters refined using      0 restraints

END

WGHT      0.0289      0.4955

REM Highest difference peak  0.489,  deepest hole -0.441,  1-sigma level  0.064
Q1    1   1.3333  0.6667  0.0878  10.33333  0.05    0.49
Q2    1   1.3306  0.5614  0.1708  11.00000  0.05    0.37
Q3    1   0.8657  0.2936  0.1307  11.00000  0.05    0.33
Q4    1   0.8785  0.2553  0.1595  11.00000  0.05    0.27
Q5    1   0.9617  0.1347  0.0473  11.00000  0.05    0.25
Q6    1   1.2556  0.7050  0.1068  11.00000  0.05    0.25
Q7    1   0.9807  0.0993  0.0413  11.00000  0.05    0.24
Q8    1   0.9609  0.1842  0.1236  11.00000  0.05    0.23
Q9    1   0.8801  0.2832  0.2076  11.00000  0.05    0.23
Q10   1   1.3333  0.6667  0.2500  10.16667  0.05    0.21
Q11   1   0.8537  0.4833  0.2079  11.00000  0.05    0.20
Q12   1   0.8257  0.1743  0.2500  10.50000  0.05    0.20
Q13   1   0.9331  0.2053  0.0907  11.00000  0.05    0.20
Q14   1   1.3199  0.4700  0.2799  11.00000  0.05    0.20
Q15   1   0.7487  0.1416  0.0809  11.00000  0.05    0.19
Q16   1   0.7946  0.2855  0.1803  11.00000  0.05    0.19
Q17   1   0.7828  0.0754  0.1988  11.00000  0.05    0.17
Q18   1   0.7716  0.3215 -0.0002  11.00000  0.05    0.17
Q19   1   1.2380  0.3822  0.1098  11.00000  0.05    0.17
Q20   1   0.8956  0.4804  0.1811  11.00000  0.05    0.17
;
_shelx_res_checksum              78849
_shelx_hkl_file
;
   0   0  -2 39096.2 1151.36   1
   0   0   2 37516.9 1146.21   1
   0   0   3-25.7840 184.652   1
   0   0  -3-161.396 201.432   1
   0   0   3 254.235 224.299   2
   0   0  -5 302.621 280.184   1
   0   0   5-72.9580 208.497   1
   0   0   5 67.6828 147.319   2
   0   0   6 58355.9 2114.93   2
   0   0  -6 62890.3 2404.15   1
   0   0   6 67224.8 2515.24   1
   0   0   7-109.239 224.715   2
   0   0   7 136.792 243.395   1
   0   0  -7 150.821 204.549   1
   0   0   8 606276. 13396.4   1
   0   0  -9-586.632 391.341   1
   0   0   9 300.828 261.622   2
   0   0   9 40.7775 240.136   1
   0   0  10 19983.6 1676.63   1
   0   0 -10 18737.8 1566.12   1
   0   0  10 18809.9 1407.55   2
   0   0  11 463.006 496.783   1
   0   0 -11-142.955 372.469   1
   0   0  13-291.472 469.484   2
   0   0  13 689.572 513.822   1
   0   0 -13 341.764 322.550   1
   0   0 -14 2244.20 712.155   1
   0   0  14 2424.56 843.453   1
   0   0  14 2392.04 652.740   2
   0   0  15 552.059 546.114   1
   0   0  15-328.219 396.661   2
   0   0 -15 411.183 358.322   1
   0   0 -16 211208. 7407.66   1
   0   0  16 198418. 7492.02   1
   0   0  17-659.852 555.268   1
   0   0 -17-239.528 371.313   1
   0   0 -18 5797.24 1258.73   1
   0   0  18 3613.92 923.092   1
   0   0 -19 298.085 492.614   1
   0   0  19-376.217 430.925   1
   0   0 -20 20150.6 2231.60   1
   0   0  20 19794.5 2375.71   1
   0   0 -21-133.770 365.488   1
   0   0  21-529.482 695.859   1
   0   0 -22 4212.36 1113.02   1
   0   0  22 4356.49 1173.81   1
  -1   0   3 147891. 3582.91   1
   0   1  -3 152436. 3749.22   1
   0  -1   3 143145. 3752.83   1
   1   0  -3 141203. 3535.12   1
   1   0   3 161749. 3692.82   2
  -1   1  -3 143258. 3662.38   1
   1  -1   3 151649. 3752.41   1
   1   0   3 143401. 3659.06   1
  -1   0  -3 142623. 3640.09   1
   0   1   3 137052. 3466.75   1
  -1   0   4 9892.27 547.772   2
  -1   1   4 9096.88 497.416   2
  -1   1  -4 9693.16 796.351   1
   1   0   4 9831.98 774.460   1
   1  -1   4 10368.9 812.954   1
   0  -1  -4 9493.58 691.271   1
   0   1   4 9726.63 721.005   1
   1   0  -4 11464.7 808.911   1
   0  -1   4 10634.1 842.157   1
   0   1  -4 8044.08 710.816   1
   1   0   4 9708.39 764.256   2
  -1   1   4 12224.9 728.690   1
  -1   0   4 10527.7 789.967   1
   0  -1   4 10282.6 708.511   2
   1  -1   4 9123.10 748.711   2
  -1   0  -4 10998.4 851.616   1
   1  -1  -4 9681.09 658.953   1
   0   1   4 9470.59 734.475   2
   0  -1  -5 7111.09 680.578   1
  -1   1   5 6773.05 478.217   2
  -1   0   5 6913.76 716.083   1
   1  -1  -5 6553.77 616.009   1
  -1   0   5 7159.28 543.342   2
   1  -1   5 7980.93 756.974   2
   1   0   5 7553.20 769.325   1
   0   1   5 6863.67 669.739   1
  -1   1   5 7300.52 618.522   1
   0  -1   5 6619.89 592.582   2
   1   0   5 7801.38 683.656   2
   0   1   5 7975.31 634.903   2
   1  -1   5 6726.22 758.021   1
   0  -1   5 6573.21 753.437   1
   1   0  -5 7818.61 686.455   1
   0   1  -5 8068.83 794.353   1
  -1   0  -5 8125.13 760.521   1
  -1   1  -5 6461.14 733.014   1
   1   0   6 28103.9 1484.66   2
   0  -1   6 26549.0 1578.89   1
   1  -1   6 23979.1 1424.58   2
   0   1  -6 22865.6 1441.18   1
  -1   0   6 23937.7 1450.91   1
  -1   1   6 23627.5 1059.38   2
   0  -1  -6 24160.3 1367.26   1
   1   0  -6 22911.2 1368.02   1
   0   1   6 23110.0 1241.71   2
  -1   1  -6 24202.5 1452.26   1
  -1   1   6 24181.8 1354.73   1
   1   0   6 23277.4 1507.98   1
   1  -1   6 25301.7 1554.19   1
   1  -1  -6 20999.4 1237.53   1
  -1   0  -6 21890.5 1401.89   1
   0   1   6 24217.5 1415.78   1
   0  -1   6 28445.7 1407.98   2
  -1   0   6 26172.4 1161.62   2
   0  -1   7 117249. 3581.81   2
   1   0  -7 118408. 3760.48   1
   0  -1   7 112418. 3922.64   1
  -1   1  -7 113563. 3869.37   1
  -1   1   7 121635. 3749.20   1
   1  -1   7 114242. 3954.23   1
  -1   0   7 123662. 3928.24   1
   0   1   7 121735. 3500.97   2
  -1   0  -7 108205. 3772.85   1
   0  -1  -7 110121. 3637.87   1
   0   1  -7 119444. 3898.17   1
   0   1   7 111358. 3739.27   1
   1   0   7 111958. 3626.47   2
   1   0   7 117283. 3954.47   1
   1  -1  -7 111549. 3562.75   1
  -1   0   7 116004. 3260.92   2
   1  -1   7 107037. 3659.42   2
  -1   1   7 110939. 3091.87   2
   0  -1  -8 36166.2 1964.99   1
  -1   0  -8 36772.6 2078.30   1
   0  -1   8 36243.1 2170.37   1
   0  -1   8 40525.2 1970.63   2
   1  -1   8 39073.4 2015.57   2
   0   1  -8 36766.2 2078.50   1
  -1   1   8 38079.5 1640.44   2
  -1   0   8 37142.5 1676.56   2
  -1   1  -8 35491.7 2078.04   1
   1  -1  -8 31729.4 1825.04   1
  -1   1   8 34915.6 1980.69   1
   0   1   8 40031.5 1882.20   2
  -1   0   8 36780.5 2069.72   1
   1  -1   8 41556.3 2260.96   1
   1   0  -8 38096.4 2020.28   1
   0   1   8 37760.1 2044.24   1
   1   0   8 40032.9 2167.43   1
   1   0   8 37904.4 1963.46   2
   1  -1   9 232102. 6751.55   1
   0  -1  -9 212710. 6225.02   1
  -1   1   9 204019. 5515.78   2
   1  -1   9 236827. 6365.70   2
   0   1   9 238389. 6549.17   1
   1   0   9 228640. 6322.54   2
  -1   1   9 222817. 6376.27   1
  -1   0  -9 223505. 6462.78   1
   1   0   9 220257. 6613.75   1
   1  -1  -9 214277. 6152.08   1
   0   1   9 243609. 6156.03   2
   0  -1   9 227440. 6102.76   2
   0   1  -9 237310. 6601.49   1
   1   0  -9 239657. 6454.26   1
  -1   0   9 211108. 5626.75   2
   0  -1   9 228886. 6675.51   1
  -1   0   9 231266. 6573.13   1
  -1   1  -9 220006. 6495.80   1
  -1   0  10 740570. 16412.8   1
   1  -1  10 731896. 15949.4   2
   0   1  11 151547. 5369.07   1
   1  -1 -11 167622. 5346.08   1
   0  -1 -11 155419. 5258.57   1
  -1   0 -11 154140. 5350.29   1
   0   1 -11 153380. 5378.31   1
  -1   1  11 157878. 5404.44   1
   1   0 -11 142210. 5167.09   1
   1  -1  11 154069. 5572.50   1
  -1   0  11 153589. 4707.39   2
  -1   0  11 152309. 5454.12   1
   1   0  11 147088. 5100.53   2
   0  -1  11 152698. 5002.48   2
  -1   1  11 150679. 4627.62   2
   0  -1  11 146203. 5455.24   1
  -1   1 -11 150364. 5361.96   1
   1  -1  11 155630. 5186.02   2
   1   0  11 141159. 5416.96   1
   0   1  11 151108. 4907.54   2
   0  -1  12 73145.7 3370.93   2
  -1   1  12 73571.3 3044.12   2
   0   1 -12 78737.2 3695.06   1
  -1   1 -12 78413.8 3694.20   1
   1  -1 -12 74638.4 3478.70   1
   1   0  12 76197.1 3499.70   2
   1  -1  12 75787.9 3511.79   2
  -1   0  12 74442.3 3716.34   1
   1  -1  12 72769.9 3759.68   1
  -1   0 -12 82352.1 3779.21   1
   1   0  12 73272.4 3704.61   1
   0   1  12 72746.9 3647.49   1
   0   1  12 75660.4 3292.79   2
   0  -1  12 78127.4 3834.30   1
   0  -1 -12 84768.8 3726.48   1
   1   0 -12 72795.0 3519.62   1
  -1   0  12 71924.1 3152.73   2
  -1   1  12 66357.3 3506.91   1
   0  -1  13 115267. 4955.77   1
  -1   0  13 115771. 4936.79   1
  -1   0 -13 118831. 4877.47   1
   1  -1  13 115745. 4647.75   2
   1   0 -13 116602. 4760.59   1
  -1   0  13 116065. 4277.15   2
   0  -1  13 125473. 4681.26   2
   0   1  13 120196. 4552.02   2
   0  -1 -13 116595. 4702.65   1
  -1   1  13 126125. 5055.58   1
   1   0  13 103426. 4777.39   1
   1  -1 -13 125364. 4863.50   1
   0   1  13 114301. 4899.59   1
  -1   1  13 107291. 4101.84   2
   0   1 -13 120702. 4869.79   1
   1   0  13 116940. 4661.65   2
   1  -1  13 108099. 4903.05   1
  -1   1 -13 118068. 4869.89   1
   0  -1  14 283140. 9108.28   1
   0  -1  14 328204. 8894.35   2
   0   1  14 311437. 8669.25   2
  -1   0 -14 311796. 9079.58   1
   0   1  14 291069. 9172.65   1
   1   0  14 291009. 9125.55   1
  -1   1  14 318842. 9355.98   1
  -1   0  14 284291. 9111.37   1
   0   1 -14 290235. 8906.65   1
   1  -1  14 313741. 9401.06   1
   1  -1 -14 293820. 8833.39   1
   1   0  14 297991. 8773.12   2
   0  -1 -14 308511. 9004.84   1
  -1   1 -14 304103. 9078.41   1
   1  -1  14 299172. 8857.22   2
   1   0 -14 300138. 8956.63   1
   1  -1 -15 84262.8 4064.89   1
   0  -1  15 72614.8 4125.15   1
   0  -1 -15 71581.5 3912.58   1
   1   0  15 70611.4 4041.25   1
   1   0  15 81365.4 4028.39   2
  -1   1  15 75260.2 4087.05   1
  -1   0 -15 70371.8 3866.19   1
   1  -1  15 73244.1 3939.33   2
   0  -1  15 77129.4 3835.83   2
   1   0 -15 69646.3 3829.46   1
  -1   1 -15 69799.1 3899.75   1
   0   1  15 71337.5 4083.93   1
   1  -1  15 75164.1 4184.28   1
   0   1 -15 78314.8 4054.95   1
  -1   0  15 77223.3 4161.46   1
   0  -1 -16 19540.2 2014.60   1
  -1   1 -16 18601.3 2022.27   1
   0  -1  16 19085.7 2143.96   1
  -1   0 -16 20517.2 2086.54   1
   1   0  16 21251.2 2001.02   2
  -1   0  16 21966.9 2258.93   1
   0   1 -16 19257.1 2019.61   1
   0   1  16 20300.0 2070.45   1
   1  -1  16 22251.6 2199.85   2
   1   0  16 18634.6 2094.33   1
   1   0 -16 22869.7 2110.80   1
   1  -1 -16 21005.1 2063.67   1
  -1   1  16 21499.7 2215.38   1
   1  -1  16 20886.9 2216.13   1
   1  -1  17 14158.0 1932.70   1
  -1   0 -17 15582.7 1842.23   1
  -1   1  17 16218.6 1990.81   1
   0   1  17 18814.2 2109.36   1
   1  -1 -17 16021.4 1855.47   1
   0  -1  17 18129.3 2088.86   1
   1   0 -17 16084.5 1901.21   1
   0   1 -17 16204.5 1876.47   1
  -1   0  17 16034.6 1993.20   1
  -1   1 -17 15240.8 1847.40   1
   1   0  17 16552.7 2014.57   1
   0  -1 -17 17062.6 1940.21   1
  -1   1  18 39428.6 3177.95   1
  -1   0 -18 42765.5 3189.75   1
  -1   0  18 42732.5 3327.94   1
   1   0  18 44653.0 3367.33   1
   1   0 -18 40254.3 3111.45   1
   0  -1  18 36774.7 3143.85   1
   1  -1  18 41347.2 3264.02   1
   0   1  18 39748.5 3136.53   1
   0  -1 -18 43147.1 3180.92   1
   1  -1 -18 39928.0 3049.87   1
   0   1 -18 42139.1 3166.97   1
  -1   1 -18 39549.9 3085.77   1
   0   1 -19 7768.81 1433.01   1
   0  -1 -19 7809.31 1387.10   1
   1   0  19 7326.77 1445.97   1
   1   0 -19 7760.33 1374.16   1
  -1   1  19 8294.83 1544.88   1
  -1   1 -19 8732.68 1482.69   1
   1  -1 -19 8914.38 1513.16   1
  -1   0 -19 8837.22 1410.20   1
   1  -1  19 7485.41 1431.87   1
   0  -1  19 8546.51 1508.25   1
  -1   0  19 8206.99 1538.96   1
   0   1  19 6757.03 1434.07   1
  -1   1  20 2400.10 819.560   1
   1   0  20 1677.44 757.026   1
  -1   0 -20 2040.42 828.992   1
  -1   0  20 2177.35 761.335   1
   0  -1 -20 1276.76 526.797   1
   1  -1  20 1756.11 639.225   1
   0   1  20 2060.72 778.204   1
   0   1 -20 1837.08 802.443   1
   0  -1  20 825.595 482.331   1
   1   0 -20 1307.02 482.058   1
  -1   1 -20 2163.40 757.237   1
   1  -1 -20 2267.25 701.403   1
   1   0  21 21619.5 2490.26   1
   0  -1 -21 19733.4 2233.60   1
  -1   0 -21 18976.5 2249.05   1
  -1   1  21 16122.8 2227.05   1
   0   1  21 17477.5 2324.55   1
  -1   0  21 18225.2 2393.24   1
   1  -1  21 22705.3 2445.69   1
   0  -1  21 18214.0 2283.24   1
  -1   1 -21 22064.3 2336.44   1
   1   0 -21 17583.6 2152.57   1
   0   1 -21 21879.0 2400.61   1
   0   1 -22 49376.7 3777.58   1
  -1   0  22 51248.0 3993.24   1
   1   0  22 48768.7 3874.47   1
  -1   0 -22 52145.7 3774.67   1
   0  -1  22 46129.3 3817.59   1
   1   1  22 17846.6 2300.66   1
  -1   2 -21-204.970 376.325   1
  -1  -1 -21-43.3431 327.207   1
   1  -2  21-148.942 526.902   1
   1   1  21-288.297 411.652   1
   1  -2  20 120830. 6022.10   1
  -1   2 -20 124085. 5797.56   1
   1   1  20 117108. 6012.81   1
   2  -1 -19-383.201 592.685   1
   1  -2  19 121.340 604.831   1
  -2   1  19 170.115 464.711   1
  -1   2 -19 352.025 406.314   1
  -1  -1 -19-449.085 661.368   1
   1   1  19-20.4687 367.620   1
   1  -2  18 7338.55 1397.55   1
   2  -1 -18 5393.04 1110.32   1
  -1  -1 -18 8080.04 1447.35   1
  -2   1  18 8450.95 1438.27   1
  -1   2 -18 7299.61 1357.21   1
   1   1  18 9209.74 1619.18   1
  -1  -1 -17-5.66950 338.949   1
  -2   1  17-3.72433 348.254   1
   1   1  17-20.7363 439.983   1
   1  -2  17-1227.19 686.189   2
  -1   2 -17 415.705 482.433   1
   1  -2  17-149.470 531.625   1
   2  -1 -17-136.392 517.011   1
  -2   1  16 226792. 8077.61   1
   1  -2  16 231910. 7882.96   2
  -1  -1 -16 231515. 7931.91   1
   1  -2  16 218561. 8023.29   1
  -1   2 -16 224608. 7861.55   1
   1   1  16 235452. 7896.53   2
   2  -1 -16 228298. 7837.92   1
   1   1  16 227223. 8056.97   1
   2  -1 -15 984.170 578.242   1
   1  -2  15 598.781 368.179   2
  -1  -1 -15 39.7922 348.942   1
  -1   2 -15 78.2087 339.870   1
   1  -2  15 91.3353 437.513   1
   1   1  15 380.326 322.809   2
  -2   1  15 608.344 483.018   1
   1   1  15 665.607 732.368   1
   2  -1 -14 3485.43 848.672   1
  -1   2 -14 2092.91 789.339   1
   1   1  14 3597.20 810.568   2
   1  -2  14 3915.04 1025.05   1
   1   1  14 3225.75 819.366   1
   1  -2  14 4160.32 921.410   2
  -2   1  14 3528.49 914.762   1
  -1  -1 -14 3969.44 931.169   1
  -2   1  13-54.8064 379.395   1
   1  -2  13-137.840 272.611   2
   2  -1 -13-323.044 417.914   1
  -1  -1 -13-88.2910 398.745   1
  -1   2 -13 620.059 479.817   1
   1   1  13-280.287 309.555   2
   1   1  13-307.337 470.575   1
   1  -2  13-153.673 346.354   1
   1   1  12 475671. 12222.0   1
   1   1  12 516408. 11980.3   2
  -2   1  12 468593. 12060.7   1
   2  -1 -12 500071. 11901.7   1
   1  -2  12 484181. 11990.5   2
  -1   2 -12 453913. 12063.8   1
   1  -2  12 459462. 12309.3   1
  -1  -1 -12 471377. 11929.3   1
   1   1  11-71.2131 322.894   1
   1  -2  11 1101.22 612.536   1
  -1   2 -11-754.875 544.270   1
  -2   1  11-22.7892 181.225   2
   1  -2  11 193.688 262.442   2
  -1  -1 -11 108.297 340.832   1
   1   1  11-250.374 339.628   2
   2  -1 -11 108.749 320.969   1
  -2   1  11-189.157 292.340   1
  -1  -1 -10 81428.1 3532.66   1
   1   1  10 78010.9 3598.79   1
   1   1  10 80403.7 3403.74   2
  -2   1  10 80177.1 3483.97   1
   2  -1 -10 81105.6 3334.62   1
   1  -2  10 82979.6 3715.86   1
  -2   1  10 76031.1 2580.26   2
   1  -2  10 79561.8 3462.98   2
  -1   2 -10 83104.1 3664.66   1
   1  -2   9 246.982 300.706   1
  -1  -1  -9-32.9016 286.474   1
   1   1   9-11.3833 263.448   2
  -2   1   9-271.784 302.406   1
   1  -2   9-356.061 327.442   2
  -1   2  -9-15.6862 330.733   1
   1   1   9-685.242 406.797   1
   2  -1  -9 160.774 210.132   1
  -2   1   9 59.5297 169.038   2
   1  -2   8 891944. 18525.3   2
  -2   1   7 57.8378 217.433   1
   1   1   7 248.438 319.567   1
  -2   1   7 179.166 103.084   2
   2  -1  -7-266.813 262.691   1
   1   1   7-159.051 248.030   2
   1  -2   7 134.972 253.969   2
  -1  -1  -7 716.420 414.893   1
   1  -2   7 879.504 463.358   1
  -1   2  -7 542.977 411.250   1
  -1   2  -6 16648.4 1281.92   1
   1   1   6 17085.7 1217.38   2
  -1  -1  -6 14802.4 1148.31   1
   1  -2   6 14521.1 1218.85   1
  -2   1   6 13746.1 1003.77   1
  -2   1   6 10400.1 539.420   2
   1   1   6 13419.0 1130.50   1
   2  -1  -6 13539.8 981.863   1
   1  -2   6 13534.8 1092.44   2
   2  -1  -5 678.769 258.907   1
  -1   2  -5 626.901 250.537   1
   1   1   5 356.965 285.493   1
  -1  -1  -5 379.707 237.719   1
   1   1   5 406.930 302.486   2
   1  -2   5 73.3704 190.542   2
   1  -2   5 419.628 269.371   1
  -2   1   5 258.472 247.523   1
  -2   1   3 1372.53 264.627   1
   2  -1  -3 677.347 201.572   1
  -1  -1  -3 1147.97 337.382   1
   1  -2   3 878.944 305.818   1
   1  -2   3 652.027 288.100   2
  -1   2  -3 813.167 279.842   1
   1   1   3 157.175 230.313   1
  -1   2  -1 920.680 253.675   1
   2  -1  -1 114.707 112.844   2
   1   1   1 975.603 298.132   1
   2  -1  -1 512.098 164.372   1
  -1  -1  -1 1222.68 327.032   1
  -2   1   1 498.770 155.355   1
   1  -2   1 510.877 229.595   1
   1  -2   1 618.759 251.715   2
   2  -1   1 53.6503 189.163   1
  -1   2   1 116.877 106.711   1
   1  -2  -1 182.962 188.634   2
  -1  -1   1-66.8077 225.640   1
   2  -1   1 196.263 162.661   2
   1  -2  -1 89.9651 126.409   1
   1   1  -1 592.250 258.960   1
  -2   1  -1 87.0809 218.352   1
   1  -2  -3 228.498 177.683   1
   1   1  -3 328.540 276.514   1
  -1  -1   3 194.799 195.675   2
  -1   2   3 57.4165 135.446   1
   2  -1   3 517.605 291.146   2
   2  -1   3-242.982 253.811   1
  -2   1  -3 16.0214 197.693   1
  -1  -1   3 57.9734 264.977   1
  -1  -1   5 292.188 177.422   2
  -2   1  -5 525.731 254.140   1
   2  -1   5 531.185 241.374   2
  -1   2   5 771.995 260.831   1
   1   1  -5 1342.22 366.264   1
   2  -1   5 739.017 387.507   1
   1  -2  -5 366.245 216.541   1
  -1   2   6 19414.0 1060.60   2
  -2   1  -6 16370.9 1299.44   1
   2  -1   6 19763.6 1408.96   1
  -1   2   6 16170.1 1108.36   1
   1  -2  -6 14805.2 1004.98   1
   2  -1   6 19371.8 1337.40   2
  -1  -1   6 16661.6 1084.66   2
   1   1  -6 17239.2 1285.33   1
  -1  -1   6 16066.1 1290.29   1
  -1  -1   7 379.776 209.724   2
   2  -1   7 2.81664 291.792   1
  -2   1  -7-377.042 382.723   1
  -1   2   7 330.518 259.292   1
   1   1  -7 388.307 359.582   1
   2  -1   7 9.35886 323.036   2
   1  -2  -7 174.310 264.011   1
  -1   2   7 146.893 170.252   2
  -1  -1   7-87.2573 365.043   1
  -1  -1   9-713.583 322.308   2
  -1  -1   9 128.408 300.983   1
  -2   1  -9 736.810 296.717   1
   2  -1   9 43.1428 334.870   1
  -1   2   9 18.7635 249.417   1
   1  -2  -9 94.1512 222.178   1
   2  -1   9-469.492 302.332   2
  -1   2   9 119.904 229.933   2
   1   1  -9-268.312 368.903   1
   1  -2 -10 98116.5 3745.04   1
  -1   2  10 111542. 4102.62   1
  -1   2  10 97225.9 3392.60   2
   2  -1  10 102953. 4310.50   1
   1   1 -10 102664. 4066.75   1
  -1  -1  10 96876.8 4162.97   1
  -1  -1  10 97868.4 3632.45   2
   2  -1  10 114275. 4185.86   2
  -2   1 -10 105606. 4229.51   1
  -1  -1  11 93.8854 412.430   1
   2  -1  11 256.904 362.616   2
   1  -2 -11 31.1824 340.508   1
  -1   2  11-276.792 308.073   1
  -2   1 -11-14.0716 398.253   1
   1   1 -11-226.415 479.623   1
  -1   2  11-27.1701 246.626   2
  -1  -1  11-107.507 253.218   2
   2  -1  11-445.925 437.079   1
   2  -1  12 532425. 13084.2   2
   2  -1  12 546788. 13512.0   1
  -1  -1  12 533951. 13394.2   1
  -1  -1  12 577226. 12717.3   2
  -2   1 -12 522121. 13184.3   1
   1  -2 -12 483017. 12539.5   1
  -1   2  12 557410. 13265.7   1
   1   1 -12 530386. 13118.4   1
  -1  -1  13-341.891 354.366   2
   2  -1  13 433.015 510.759   1
   1   1 -13-111.536 311.936   1
  -2   1 -13-215.546 344.233   1
  -1  -1  13-254.084 440.586   1
   1  -2 -13 209.955 353.439   1
  -1   2  13-332.733 370.975   1
  -1   2  13-58.5430 301.758   2
   2  -1  13 215.519 359.579   2
   1  -2 -14 42294.5 2841.66   1
   2  -1  14 43948.1 2878.65   2
   2  -1  14 43486.6 2992.43   1
  -1  -1  14 41043.2 2577.05   2
   1   1 -14 44125.5 2898.78   1
  -2   1 -14 44268.9 3012.88   1
  -1   2  14 43995.4 2963.38   1
  -1  -1  14 43631.2 3071.89   1
  -1   2  15 419.492 305.472   1
   2  -1  15 174.044 464.720   2
  -1  -1  15-379.744 527.173   1
   1  -2 -15-184.645 360.625   1
  -2   1 -15-109.403 426.472   1
   1   1 -15-496.449 442.675   1
   2  -1  15 540.729 620.023   1
  -1  -1  16 170092. 6894.91   1
   1   1 -16 174983. 6695.58   1
  -2   1 -16 174433. 6756.48   1
   2  -1  16 182228. 6775.07   2
  -1   2  16 180698. 6991.85   1
   2  -1  16 177156. 6962.52   1
   1  -2 -16 201417. 7050.00   1
   2  -1  17-841.960 577.664   1
  -2   1 -17-424.391 526.607   1
  -1   2  17 23.2728 458.322   1
   2  -1  17 216.859 600.672   2
  -1  -1  17-499.399 496.232   1
   1  -2 -17 747.059 530.794   1
   1   1 -17-521.874 563.014   1
  -2   1 -18 537.007 562.519   1
   1  -2 -18-162.133 304.084   1
   2  -1  18 830.031 675.132   2
   2  -1  18-503.724 543.891   1
  -1   2  18 482.516 693.185   1
  -1  -1  18 534.201 712.261   1
   1   1 -18 153.763 388.978   1
  -1   2  19 79.8744 550.200   1
  -1  -1  19 1468.29 800.342   1
   1   1 -19-441.307 478.758   1
  -2   1 -19-263.329 495.026   1
   2  -1  19 629.023 569.446   1
  -2   1 -20 178041. 7139.82   1
   1   1 -20 154591. 6895.68   1
  -1  -1  20 153702. 7085.93   1
   2  -1  20 171873. 7382.52   1
   1   1 -21 371.935 458.373   1
  -1  -1  21 313.801 582.835   1
   2  -1  21 1123.47 732.412   1
  -2   1 -21 5.40028 428.787   1
  -1  -1  22 1158.78 756.880   1
   1   1 -22 3700.99 1061.29   1
   0  -2   0 130950. 3317.14   1
  -2   0   0 121594. 3286.73   1
   2  -2   0 134466. 3216.88   2
   0   2   0 124499. 3322.67   1
   0  -2  -1 140234. 3571.79   1
   2  -2   1 157021. 3729.31   2
   0  -2   1 155267. 3781.18   1
   2   0  -1 128814. 3556.09   1
   0   2  -1 150358. 3784.57   1
   0   2   1 139015. 3550.97   1
   2   0   1 129376. 3625.62   1
  -2   0  -1 141706. 3705.99   1
   0  -2   1 157486. 3905.14   2
   0  -2   7 78373.4 2993.67   2
  -2   0  -7 80430.2 3234.06   1
   2  -2   7 86141.1 3344.10   1
  -2   2  -7 77034.7 3155.54   1
   0   2   7 78455.3 2949.71   2
   2  -2  -7 80358.4 2693.43   1
   0  -2  -7 66258.1 2773.72   1
   2   0   7 82806.4 3280.32   1
   2   0   7 85388.7 3166.12   2
  -2   2   7 80554.3 2769.84   1
  -2   0   7 75622.9 3036.61   1
   0   2  -7 74178.2 3122.04   1
   0  -2   7 77202.7 3238.30   1
   0   2   7 81136.0 3021.59   1
  -2   0   7 70090.8 2349.33   2
   2  -2   7 84643.0 3198.03   2
   2   0  -7 78770.3 3008.31   1
  -2   2   7 70018.6 2013.97   2
   0  -2  -8 15749.3 1262.03   1
   2  -2   8 11501.1 1139.74   2
   0  -2   8 11456.3 1148.26   2
  -2   2  -8 11234.7 1220.04   1
   0   2   8 12298.4 1174.36   1
  -2   0   8 11936.3 859.355   2
  -2   2   8 13259.2 1090.79   1
   0   2  -8 12536.4 1267.62   1
  -2   2   8 9930.35 694.205   2
   2   0   8 14414.8 1254.40   2
   2   0  -8 13809.4 1238.50   1
   2  -2   8 13177.8 1333.15   1
   0  -2   8 12077.1 1283.80   1
   0   2   8 12409.4 1075.37   2
  -2   0  -8 12843.6 1299.89   1
   2   0   8 12264.0 1270.59   1
   2  -2  -8 13169.6 1079.93   1
  -2   0   8 11922.1 1183.40   1
  -2   2  -9 52463.1 2823.04   1
   2   0  -9 45798.2 2491.37   1
   2  -2   9 52116.2 2637.06   2
   0  -2   9 46221.1 2684.33   1
   2  -2  -9 53940.8 2440.75   1
   2   0   9 55591.8 2694.09   2
   2   0   9 52410.3 2805.01   1
   0   2   9 49460.3 2370.43   2
  -2   0  -9 51505.4 2717.75   1
  -2   2   9 54036.6 2532.79   1
   0  -2   9 50901.3 2517.53   2
   0   2  -9 52288.0 2762.83   1
   0  -2  -9 49115.2 2471.72   1
   2  -2   9 55901.6 2949.54   1
  -2   0   9 47853.5 1973.38   2
  -2   0   9 52082.6 2698.15   1
   0   2   9 49808.3 2594.20   1
  -2   2   9 47067.5 1775.51   2
   0  -2  10 219792. 6420.53   2
   2  -2  10 230212. 6989.67   1
   2  -2  10 222364. 6604.23   2
   0  -2  10 227789. 6976.88   1
   0  -2 -10 205592. 6355.47   1
  -2   0  10 226935. 5690.07   2
   2   0  10 209696. 6848.14   1
   2  -2 -10 231347. 6332.18   1
  -2   0 -10 206871. 6593.85   1
  -2   0  10 230666. 6831.07   1
   0   2  10 213593. 6559.58   1
  -2   2  10 207808. 6295.35   1
   2   0 -10 213631. 6494.90   1
   2   0  10 236279. 6774.32   2
   0   2  10 227993. 6254.13   2
  -2   2 -10 227780. 6852.54   1
   0   2 -10 224524. 6770.06   1
  -2   2  10 201359. 5225.43   2
  -2   2  11 255985. 7479.79   1
   2  -2  11 263528. 8024.45   1
   0   2  11 255365. 7636.73   1
  -2   2 -11 273841. 7921.85   1
   2  -2  11 248936. 7588.88   2
   2   0  11 265650. 7653.86   2
   0  -2  11 265525. 8026.60   1
   2   0  11 254934. 7868.29   1
  -2   0  11 265874. 7818.89   1
  -2   0  11 258891. 6639.38   2
   0   2 -11 258189. 7763.82   1
   2  -2 -11 273102. 7402.58   1
   0  -2 -11 277500. 7645.48   1
  -2   0 -11 254216. 7653.74   1
   0   2  11 280100. 7419.64   2
  -2   2  11 255340. 6292.42   2
   0  -2  11 255855. 7414.13   2
   2   0 -11 261208. 7585.12   1
   0   2 -12 76259.3 3733.79   1
   0   2  12 71820.0 3340.79   2
  -2   2 -12 76603.9 3768.28   1
   0  -2  12 73198.5 3578.73   2
   2  -2  12 78033.5 3738.67   2
   0   2  12 75587.7 3742.74   1
  -2   0  12 80530.7 3974.29   1
  -2   0  12 77059.3 3046.72   2
   0  -2  12 74449.9 3889.12   1
   0  -2 -12 82106.7 3734.66   1
   2  -2 -12 80038.7 3563.77   1
   2   0 -12 73393.3 3578.37   1
  -2   2  12 80050.7 3677.61   1
  -2   0 -12 78511.8 3771.53   1
   2   0  12 75498.5 3845.79   1
   2  -2  12 76129.1 3887.65   1
   2   0  12 77891.3 3708.23   2
   2  -2  13 74898.4 3689.67   2
   2   0  13 68297.1 3768.53   1
   0  -2  13 69851.2 3823.11   1
   0  -2  13 72273.3 3568.68   2
  -2   0 -13 70384.4 3685.49   1
  -2   2 -13 71650.1 3767.24   1
   2   0  13 73170.7 3707.76   2
   0   2 -13 66187.0 3586.95   1
   0  -2 -13 66455.2 3493.41   1
   2   0 -13 71263.9 3641.33   1
   2  -2  13 69716.0 3837.86   1
  -2   0  13 66190.3 3657.56   1
   2  -2 -13 72922.7 3490.26   1
   0   2  13 59649.6 3506.90   1
  -2   2  13 73609.1 3692.74   1
   0   2  13 74458.5 3451.22   2
   2  -2  14 195501. 7133.36   1
   2  -2  14 197013. 6889.97   2
   2   0  14 194270. 6826.19   2
  -2   0  14 181094. 6918.06   1
   0   2  14 195716. 6974.61   1
   0  -2  14 209465. 6838.20   2
   0  -2  14 198104. 7197.39   1
  -2   0 -14 190352. 6823.40   1
   0  -2 -14 202118. 6853.47   1
   0   2 -14 184542. 6755.69   1
   0   2  14 208769. 6680.31   2
   2  -2 -14 196045. 6638.95   1
   2   0 -14 215260. 7050.17   1
  -2   2 -14 191447. 6847.68   1
  -2   2  14 204358. 6997.25   1
   2   0  14 199953. 7092.07   1
   0  -2  15 1654.72 581.402   2
   0   2  15 1350.40 688.110   1
   0  -2 -15 681.675 403.744   1
   2  -2 -15 1238.11 605.512   1
   2   0  15 935.763 369.146   2
  -2   0 -15 937.117 501.086   1
  -2   2  15 1500.49 788.450   1
   0   2 -15 1020.09 584.228   1
   2  -2  15 2230.91 650.442   2
   2   0 -15 1685.86 745.531   1
  -2   2 -15 146.231 311.162   1
  -2   0  15 3038.92 930.844   1
   2   0  15 1399.69 653.735   1
   0  -2  15 528.746 598.578   1
   2  -2  15 1328.07 719.832   1
  -2   0  16 4357.26 1035.04   1
   2   0 -16 3225.90 855.466   1
   0   2 -16 4466.77 1077.60   1
   0   2  16 3563.12 849.672   1
   2  -2  16 4080.30 949.305   2
  -2   2  16 3993.75 973.757   1
   0  -2  16 3476.90 1017.72   1
  -2   0 -16 2998.01 771.979   1
   0  -2 -16 3679.47 933.116   1
  -2   2 -16 3636.57 964.207   1
   2  -2 -16 3477.44 840.960   1
   2   0  16 3655.32 923.094   1
   2   0  16 3829.03 923.074   2
   2  -2  16 3764.84 933.907   1
   0   2 -17 40266.9 3019.07   1
   2   0  17 45373.4 3343.02   1
   0  -2 -17 49597.4 3311.41   1
   2  -2  17 43574.0 3223.54   2
   2  -2 -17 44065.6 3144.64   1
  -2   2 -17 44197.7 3197.99   1
   0   2  17 45941.6 3410.62   1
  -2   0  17 44126.9 3336.84   1
   0  -2  17 35134.0 3042.90   1
   2   0  17 48609.2 3305.37   2
  -2   2  17 40990.3 3220.73   1
  -2   0 -17 47707.7 3248.19   1
   2   0 -17 44357.2 3167.48   1
   2  -2  17 43621.1 3314.24   1
  -2   2 -18 105062. 5150.40   1
   0  -2  18 91092.7 5121.39   1
   2  -2  18 102520. 5240.44   1
   2   0 -18 106888. 5262.92   1
   2  -2  18 96624.8 5114.20   2
   0  -2 -18 92794.7 4945.52   1
   2   0  18 100305. 5256.20   1
   0   2 -18 98959.6 5054.94   1
  -2   2  18 105971. 5416.05   1
  -2   0  18 99033.0 5287.42   1
   0   2  18 114038. 5603.81   1
  -2   0 -18 105506. 5171.02   1
  -2   0 -19 69306.4 4243.56   1
   2   0  19 77535.9 4631.71   1
   0  -2 -19 67737.4 4295.92   1
   0   2  19 74988.6 4612.98   1
   2   0 -19 76207.5 4508.74   1
   0   2 -19 76521.6 4456.55   1
  -2   0  19 73736.0 4625.72   1
   2  -2  19 76760.6 4593.25   1
  -2   2 -19 76618.7 4409.78   1
   0  -2  19 76407.9 4537.70   1
   2   0  20 20507.7 2384.65   1
   0  -2 -20 20351.0 2264.19   1
   0   2 -20 21628.6 2360.26   1
  -2   0 -20 20877.1 2318.40   1
  -2   2 -20 23460.3 2418.72   1
   0  -2  20 22150.8 2515.58   1
   0   2  20 18115.8 2329.93   1
   2  -2  20 21540.3 2435.14   1
  -2   0  20 20022.1 2422.44   1
   2   0 -20 22903.6 2464.14   1
   2   0  21 11902.8 1769.66   1
  -2   2 -21 10968.8 1706.80   1
   0   2 -21 9442.34 1529.64   1
  -2   0  21 10779.3 1755.85   1
   2  -2  21 12663.7 1877.61   1
   0  -2  21 10401.4 1779.14   1
  -2   0 -21 10373.8 1643.92   1
  -1   3 -21 4077.54 904.457   1
  -2   3 -21 3370.07 1007.33   1
   2  -3  21 2630.19 865.831   1
   1  -3  21 3200.38 822.122   1
   2   1  21 4368.39 1085.86   1
  -1  -2 -21 3528.21 1004.25   1
   1   2  21 3344.45 1014.95   1
  -2  -1 -21 2416.51 885.062   1
  -1  -2 -20 35080.7 3055.90   1
  -1   3 -20 43956.0 3377.82   1
   2   1  20 39533.4 3362.47   1
  -2  -1 -20 40703.4 3280.84   1
  -2   3 -20 43596.1 3354.17   1
   2  -3  20 44841.8 3466.39   1
   1   2  20 37777.8 3229.51   1
   1  -3  20 37686.7 3272.92   1
  -2   3 -19 9271.17 1400.70   1
  -2  -1 -19 10565.8 1644.41   1
  -1  -2 -19 8074.66 1373.31   1
   2  -3  19 10009.9 1649.68   1
   1  -3  19 10816.9 1662.24   1
   1   2  19 9645.73 1637.05   1
   2   1  19 9976.49 1639.45   1
  -1   3 -19 9838.82 1585.94   1
   1   2  18 127408. 6049.42   1
   2   1  18 123369. 5888.96   1
  -1  -2 -18 130704. 5873.23   1
   2  -3  18 125314. 6017.70   1
  -2  -1 -18 121943. 5730.03   1
  -2   3 -18 126740. 5752.87   1
  -3   1  18 126179. 6094.49   1
   1  -3  18 122097. 5902.36   1
   2  -3  18 126694. 5987.28   2
  -1   3 -18 121582. 5667.12   1
   1   2  17 99188.1 5081.17   1
  -3   1  17 101299. 5158.54   1
   2   1  17 98167.8 4975.59   2
   2  -3  17 87837.9 4812.17   2
   2   1  17 94874.2 4908.54   1
   1  -3  17 82421.4 4794.69   1
  -1   3 -17 95126.8 4770.74   1
   3  -1 -17 92762.7 4835.13   1
   2  -3  17 91060.3 4947.02   1
  -2   3 -17 99147.7 4860.47   1
  -1  -2 -17 82750.0 4593.72   1
   1  -3  17 94859.6 4899.53   2
  -2  -1 -17 97487.3 4910.15   1
  -3   2  16 1101.70 613.603   1
   1   2  16 658.536 432.996   2
   1  -3  16-654.321 662.406   1
  -1  -2 -16 399.023 515.390   1
   3  -1 -16 148.035 322.588   1
   1  -3  16 649.434 574.909   2
  -2   3 -16-60.3633 433.942   1
   2  -3  16-512.765 471.153   1
  -2  -1 -16 320.491 435.933   1
  -3   1  16 289.691 499.041   1
   1   2  16-293.046 577.293   1
   2   1  16 169.748 368.124   2
   2  -3  16 491.039 507.413   2
  -1   3 -16 245.538 494.322   1
   2   1  16 519.352 413.617   1
   2   1  15 159777. 6313.03   2
  -2   3 -15 163779. 6391.37   1
   3  -2 -15 163302. 6200.05   1
   1   2  15 160031. 6469.27   1
  -1   3 -15 161775. 6326.63   1
   2  -3  15 168206. 6389.40   2
   1  -3  15 149646. 6114.04   2
  -1  -2 -15 154454. 6184.59   1
   1  -3  15 171258. 6622.88   1
   1   2  15 157393. 6151.89   2
  -3   1  15 166418. 6499.68   1
  -3   2  15 166349. 6393.47   1
  -2  -1 -15 152443. 6121.93   1
   2   1  15 162647. 6453.59   1
   3  -1 -15 165146. 6270.43   1
   2  -3  15 162826. 6543.01   1
   1   2  14 74976.1 3867.61   2
   3  -2 -14 76014.2 3778.83   1
   2  -3  14 72041.6 4059.75   1
   3  -1 -14 78402.2 3970.75   1
   2   1  14 73790.6 4069.77   1
  -3   1  14 73507.5 3951.95   1
   2  -3  14 73735.4 3962.48   2
  -1  -2 -14 73141.5 3868.32   1
  -2   3 -14 75138.8 3998.61   1
   1  -3  14 73625.3 4084.84   1
  -2  -1 -14 77540.7 3984.75   1
   1  -3  14 75481.9 3925.31   2
  -1   3 -14 73174.3 4003.08   1
   1   2  14 80618.8 4199.02   1
   2   1  14 73730.5 3990.62   2
  -3   2  14 68483.6 3766.90   1
   3  -1 -13 26145.4 2094.63   1
   2  -3  13 26086.4 2255.32   2
   2   1  13 23918.5 2195.76   2
   1  -3  13 23654.7 2173.74   1
  -1  -2 -13 25841.9 2097.97   1
   1   2  13 24821.5 2205.99   1
  -3   2  13 25893.0 2172.52   1
   3  -2 -13 24711.5 1952.95   1
   2  -3  13 24226.7 2253.24   1
   1   2  13 23987.2 2126.90   2
  -2   3 -13 23499.1 2133.56   1
  -2  -1 -13 21305.1 2014.47   1
   1  -3  13 21305.5 1985.33   2
  -3   1  13 24404.4 2095.48   1
  -1   3 -13 26799.9 2191.76   1
   2   1  13 23084.0 2126.29   1
   1   2  12 3393.29 857.725   2
  -3   2  12 3324.67 731.792   1
  -2   3 -12 2953.49 765.004   1
   2   1  12 3367.71 922.853   1
  -2  -1 -12 3410.29 794.816   1
   1  -3  12 3229.22 786.526   1
   2  -3  12 3260.56 831.542   1
   1   2  12 3199.27 780.284   1
  -3   1  12 3442.05 846.994   1
   3  -1 -12 4431.38 856.831   1
  -1   3 -12 4412.42 886.476   1
   2  -3  12 4292.52 933.728   2
  -1  -2 -12 3975.67 911.146   1
   1  -3  12 2892.95 659.394   2
   2   1  12 3946.72 790.490   2
   3  -2 -12 3279.35 711.564   1
  -2  -1 -11 1945.10 702.280   1
   2  -3  11 1494.57 539.019   2
  -3   1  11 562.527 379.335   1
   2   1  11 1054.69 450.345   2
   3  -1 -11 2076.52 605.276   1
   1  -3  11 1946.70 605.892   2
   2   1  11 1225.15 449.205   1
  -1  -2 -11 783.827 458.569   1
   1   2  11 1626.71 633.547   2
  -3   2  11 1316.98 448.022   1
   3  -2 -11 1777.69 529.833   1
   2  -3  11 1177.76 518.327   1
   1   2  11 2030.06 651.970   1
   1  -3  11 2413.12 790.924   1
  -2   3 -11 1008.91 433.128   1
  -1   3 -11 1691.68 732.352   1
   2  -3  10 401558. 10343.7   2
  -3   1  10 384380. 10077.0   1
  -3   2  10 428197. 10046.3   1
  -1  -2 -10 364919. 9971.50   1
   2  -3  10 369545. 10539.3   1
   1  -3  10 418246. 10437.5   2
  -1   3 -10 399844. 10480.1   1
   1   2  10 405696. 10076.3   2
  -2  -1 -10 389615. 10321.0   1
   2   1  10 398967. 10457.2   1
   3  -2 -10 405015. 9706.00   1
   3  -1 -10 430726. 10140.0   1
   1  -3  10 390409. 10592.4   1
  -2   3 -10 396806. 10530.8   1
   1   2  10 399910. 10356.3   1
   2   1  10 436145. 10422.7   2
   2  -3   9 54229.4 2850.27   2
   1  -3   9 49549.7 2802.77   1
  -3   2   9 53300.6 2498.88   1
  -3   1   9 50736.0 2616.40   1
  -2  -1  -9 48691.8 2726.93   1
   3  -2  -9 49518.7 2373.67   1
   2   1   9 52257.4 2762.30   1
   1   2   9 51054.8 2633.69   2
   2  -3   9 55987.2 3002.31   1
   1  -3   9 53552.9 2780.92   2
   3  -1  -9 50015.2 2512.55   1
  -2   3  -9 48202.2 2756.55   1
   2   1   9 56869.7 2802.80   2
  -1  -2  -9 59047.7 2833.20   1
  -1   3  -9 51632.0 2811.73   1
   1   2   9 44452.3 2569.37   1
   1  -3   7 170149. 5269.33   2
  -3   1   7 165027. 4966.59   1
   2   1   7 170592. 5303.34   1
   2   1   7 191705. 5434.27   2
   3  -1  -7 167540. 4860.39   1
  -1   3  -7 172001. 5394.67   1
   1   2   7 191036. 5464.43   2
   1   2   7 164936. 5169.98   1
  -2  -1  -7 165627. 5299.85   1
   1  -3   7 177850. 5597.47   1
  -2   3  -7 171607. 5375.57   1
  -3   2   7 185569. 4802.41   1
   3  -2  -7 154146. 4475.87   1
  -1  -2  -7 176336. 5227.75   1
   2  -3   7 177701. 5413.53   2
   2  -3   7 167100. 5418.10   1
  -3   1   4 328930. 7185.26   1
  -2  -1  -4 292847. 7569.18   1
  -1   3  -4 320031. 7618.97   1
   2  -3   4 311714. 7564.58   1
   1  -3   4 327045. 7752.88   2
   2   1   4 314393. 7660.08   1
  -1  -2  -4 304546. 7450.42   1
  -2   3  -4 305214. 7516.55   1
   2  -3   4 332053. 7738.97   2
   1  -3   4 327076. 7745.61   1
  -2   3  -2 104135. 3017.42   1
  -3   2   2 98595.1 2428.26   1
   3  -2  -2 107870. 2549.33   2
   3  -2  -2 96247.6 2389.31   1
  -3   1   2 102679. 2917.79   1
  -1  -2  -2 99326.6 3220.04   1
   1  -3   2 100728. 3163.72   1
  -2  -1  -2 103752. 3321.92   1
   2  -3   2 104808. 3279.26   2
   3  -1  -2 111645. 2962.33   1
   3  -1  -2 102977. 2623.61   2
   2  -3   2 105916. 3045.65   1
   1  -3   2 106944. 3358.13   2
   2   1   2 105906. 3258.11   1
  -1   3  -2 96668.2 3084.64   1
   1   2   2 99714.7 3200.44   1
  -2  -1  -1 228765. 5714.86   1
  -3   1   1 225771. 5268.85   1
   3  -1   0 1406.23 308.122   2
  -3   1   0 1256.08 313.267   1
  -1   3   0 1020.06 306.736   1
   2   1   0 1667.01 362.274   1
   3  -2   0 959.583 228.211   1
   1   2   0 900.906 284.607   1
  -2   3   0 1204.31 227.744   1
   3  -1   0 1647.27 371.109   1
   1  -3   0 1272.61 311.181   1
  -3   2   0 1065.22 213.772   1
  -2  -1   0 1156.73 326.879   1
   1  -3   0 967.888 330.653   2
   3  -2   0 1549.04 344.719   2
   2  -3   0 1245.94 250.242   1
   2  -3   0 2291.81 373.195   2
  -1  -2   0 1242.04 361.859   1
  -3   2  -1 203452. 4772.37   1
   1   2  -1 199642. 5236.03   1
  -2  -1   1 221495. 5316.69   1
  -3   1  -1 205880. 5015.99   1
  -1   3   1 197353. 4698.01   1
   3  -1   1 184350. 4862.20   1
   1  -3  -1 229183. 5311.14   2
   2   1  -1 202232. 5231.49   1
  -1  -2   1 202989. 5242.70   1
   2   1  -3 47747.2 2133.82   1
  -1  -2   3 53275.9 2199.78   2
  -2   3   3 44753.7 1285.47   1
  -3   2  -3 47296.2 1997.80   1
   3  -1   3 44078.3 2014.19   1
  -1  -2   3 48881.7 2215.06   1
   1   2  -3 50451.8 2204.63   1
   3  -2   3 52177.6 2173.17   2
  -1   3   3 47486.9 1716.61   1
   3  -1   3 50456.8 2109.74   2
  -3   1  -3 48224.2 2100.52   1
   1  -3  -3 52372.5 1758.51   1
  -2  -1   3 45537.1 2081.48   1
   2  -3  -3 51518.6 1303.06   1
   3  -2   3 48524.4 2030.33   1
   3  -1   5 283250. 7412.16   2
   3  -2   5 300038. 7517.49   2
  -1  -2   5 316139. 7302.70   2
  -1  -2   5 290505. 7553.27   1
  -3   2  -5 300943. 7419.65   1
   2   1  -5 308430. 7492.44   1
   3  -1   5 279534. 7328.04   1
  -2  -1   5 298137. 7470.60   1
   3  -2   5 285815. 7416.93   1
  -3   1  -5 285018. 7411.52   1
   1   2  -5 304559. 7571.94   1
   1   2  -8 28953.7 1962.00   1
  -3   1  -8 27002.7 1965.54   1
   3  -2   8 28668.3 2026.44   1
   1  -3  -8 29259.4 1694.65   1
  -2  -1   8 30351.1 2077.05   1
   2  -3  -8 30360.4 1611.29   1
  -1  -2   8 26808.6 1735.91   2
   2   1  -8 28888.8 1949.04   1
  -2   3   8 23221.1 1311.65   2
   3  -2   8 28744.4 1959.41   2
  -1   3   8 27600.3 1646.10   2
  -1   3   8 25607.7 1643.67   1
  -1  -2   8 28890.7 1993.40   1
   3  -1   8 28421.7 1925.80   2
  -3   2  -8 28052.3 1971.57   1
  -2   3   8 30943.7 1674.69   1
  -2  -1   8 25721.7 1562.46   2
   3  -1   8 29740.1 2048.68   1
  -1   3   9 474648. 10344.4   1
  -2   3   9 466947. 10006.7   1
   2   1  -9 453690. 10645.5   1
  -1  -2   9 415338. 10710.2   1
   3  -1   9 435882. 10808.1   1
   1   2  -9 423509. 10580.5   1
   3  -2   9 406510. 10477.2   2
  -1   3   9 414952. 9643.31   2
   1  -3  -9 453390. 10005.1   1
   3  -2   9 415933. 10686.1   1
   3  -1   9 429033. 10523.5   2
  -3   2  -9 417775. 10540.6   1
  -2  -1   9 427850. 9676.22   2
  -1  -2   9 388303. 9949.55   2
  -3   1  -9 414076. 10577.1   1
  -1  -2  10 155741. 5714.77   1
   2  -3 -10 187409. 5264.99   1
  -2   3  10 175882. 5287.15   1
  -2  -1  10 154872. 5570.73   1
   3  -1  10 159801. 5548.90   2
   1  -3 -10 174276. 5283.18   1
   3  -2  10 172587. 5733.96   2
  -1   3  10 136747. 4733.55   2
  -2   3  10 144307. 4287.81   2
  -1  -2  10 170667. 5344.54   2
  -3   2 -10 158348. 5587.09   1
  -1   3  10 160627. 5276.95   1
   2   1 -10 172144. 5641.72   1
   1   2 -10 159717. 5602.22   1
  -3   1 -10 155165. 5582.32   1
   3  -1  10 151628. 5589.43   1
   3  -2  10 160314. 5717.92   1
  -2  -1  10 153208. 4849.44   2
  -3   2 -11 27184.1 2154.40   1
   3  -1  11 31790.2 2300.52   1
   1   2 -11 28440.5 2176.09   1
   1  -3 -11 28779.6 1964.39   1
   2   1 -11 28915.5 2192.04   1
   3  -1  11 30415.3 2193.40   2
  -1   3  11 26956.1 1758.49   2
  -3   1 -11 26238.6 2091.98   1
   3  -2  11 29022.1 2211.89   2
  -2   3  11 31686.2 2083.50   1
  -2  -1  11 26962.0 1825.06   2
   3  -2  11 29396.8 2290.30   1
  -1   3  11 29710.1 2104.14   1
  -2  -1  11 27400.8 2165.26   1
  -1  -2  11 26485.1 1975.30   2
  -2   3  11 23136.6 1473.74   2
  -1  -2  11 30150.6 2330.84   1
   2  -3 -11 31158.0 1991.97   1
   1   2 -12 3329.62 763.551   1
  -3   1 -12 3567.30 885.707   1
  -2  -1  12 3320.57 835.605   1
  -2  -1  12 3693.51 746.240   2
   3  -1  12 3070.47 812.648   1
   3  -1  12 2872.65 744.528   2
   2  -3 -12 3902.38 738.499   1
  -1   3  12 4266.63 823.554   1
   3  -2  12 2912.32 776.601   1
  -2   3  12 4004.74 793.325   1
   1  -3 -12 3745.00 759.476   1
   3  -2  12 1974.48 568.643   2
  -3   2 -12 3431.30 845.162   1
   2   1 -12 2178.93 635.618   1
  -1  -2  12 2917.51 695.562   2
  -1   3  12 3721.63 675.052   2
  -1  -2  12 3301.70 801.827   1
  -1   3  13 19881.8 1912.16   1
  -2   3  13 18413.6 1760.44   1
   3  -2  13 17355.5 1818.72   2
  -1  -2  13 19257.4 1700.02   2
   1  -3 -13 19845.7 1800.12   1
   3  -1  13 20638.3 1940.09   2
   2   1 -13 18828.5 1864.01   1
  -3   1 -13 18799.5 1873.69   1
   3  -2  13 17594.5 1928.20   1
  -3   2 -13 17702.2 1800.20   1
   1   2 -13 16589.0 1741.15   1
  -1  -2  13 19227.2 1972.13   1
   2  -3 -13 21465.1 1813.12   1
   3  -1  13 19567.2 1968.54   1
  -2  -1  13 21166.4 1991.13   1
  -2   3  14 128124. 5260.44   1
  -1  -2  14 125299. 5054.75   2
   3  -1  14 116837. 5289.60   1
   1  -3 -14 111358. 4941.03   1
  -3   1 -14 124688. 5290.78   1
   1   2 -14 114120. 5112.72   1
   3  -1  14 125374. 5300.79   2
   3  -2  14 130622. 5381.23   2
  -3   2 -14 113717. 5164.23   1
   3  -2  14 121659. 5435.02   1
  -1   3  14 119318. 5163.55   1
   2   1 -14 119546. 5223.02   1
  -1  -2  14 125283. 5544.56   1
  -2  -1  14 128995. 5526.89   1
   2   1 -15 31824.4 2558.72   1
  -2   3  15 34812.8 2656.54   1
  -1  -2  15 32723.4 2713.68   1
   3  -1  15 36386.7 2748.68   2
   1   2 -15 30812.1 2589.17   1
  -3   1 -15 31533.2 2591.06   1
  -3   2 -15 31342.9 2585.13   1
  -2  -1  15 35010.2 2839.28   1
   3  -2  15 34462.9 2653.18   2
   3  -1  15 32704.6 2724.52   1
   3  -2  15 30966.0 2649.95   1
  -1   3  15 30474.1 2597.45   1
   2  -3 -15 35090.2 2560.80   1
   1  -3 -15 32824.7 2531.29   1
  -1   3  16 110383. 5255.58   1
   1  -3 -16 114647. 5159.34   1
  -3   1 -16 116408. 5242.58   1
  -2   3  16 113945. 5299.86   1
   1   2 -16 111174. 5245.67   1
   3  -2  16 114646. 5242.09   2
  -2  -1  16 102837. 5229.36   1
   2   1 -16 106375. 5095.59   1
  -1  -2  16 106392. 5285.99   1
   3  -1  16 108475. 5236.04   1
   3  -1  16 115420. 5292.13   2
  -3   2 -16 108587. 5159.72   1
   3  -2  16 109118. 5265.42   1
  -2  -1  17 19230.9 2186.61   1
  -3   1 -17 18782.7 2025.60   1
   1  -3 -17 17643.0 1945.62   1
   2   1 -17 20811.6 2210.51   1
   3  -1  17 16711.5 1980.58   1
   3  -2  17 21055.4 2205.54   1
   3  -1  17 19883.3 2088.86   2
   1   2 -17 18060.6 1954.35   1
  -1  -2  17 18435.0 2082.51   1
  -1   3  17 15518.3 2008.16   1
  -3   2 -17 20475.1 2186.51   1
   3  -2  17 21038.0 2183.31   2
   3  -1  18 206106. 7823.12   2
   1   2 -18 214611. 7925.22   1
   2   1 -18 194451. 7709.60   1
  -3   1 -18 209759. 7773.43   1
  -3   2 -18 224571. 7961.62   1
   3  -2  18 209478. 7916.68   2
   3  -1  18 211064. 7970.44   1
  -2  -1  18 207883. 8160.47   1
   3  -2  18 211771. 8081.15   1
  -1  -2  18 187271. 7746.75   1
  -3   1 -19 35335.4 2969.25   1
   3  -2  19 34574.6 3039.11   1
   3  -1  19 38313.8 3179.43   1
   3  -1  19 33511.5 2982.48   2
   3  -2  19 35086.2 3016.45   2
   1   2 -19 33566.0 2906.33   1
  -1  -2  19 36595.6 3211.25   1
  -3   2 -19 34934.9 2919.15   1
   2   1 -19 33393.4 2892.72   1
   2   1 -20 1020.21 542.992   1
   1   2 -20 935.891 471.660   1
  -2  -1  20 2533.17 857.596   1
  -1  -2  20 1449.74 687.657   1
   3  -1  20 1106.76 689.564   1
   3  -2  20 317.900 521.079   1
  -3   2 -20 1503.00 735.547   1
  -3   1 -20 2969.73 997.329   1
   3  -1  21 38743.6 3367.50   1
   2   1 -21 34690.6 3060.50   1
  -1  -2  21 33524.2 3194.09   1
   1   2 -21 33356.1 2971.46   1
  -2  -1  21 32861.2 3191.48   1
  -3   1 -21 41105.4 3320.58   1
   3  -2  21 43505.2 3493.48   1
  -3   2 -21 44190.3 3353.85   1
   0  -3  -1 443.313 205.010   1
   3  -3  -1 564.333 145.439   2
   3  -3   1 570.688 208.652   1
   3   0  -1 1376.35 410.875   1
   0   3  -1 1126.05 387.845   1
  -3   3   1 1130.07 154.175   1
  -3   0   1 856.998 319.615   1
   0  -3   1 621.814 354.180   2
   3   0   1 460.064 242.692   2
   0  -3   1 900.071 253.334   1
   3  -3  -1 1011.76 141.997   1
   3   0   1 1089.36 332.720   1
  -3   0  -1 1144.59 401.283   1
   0   3   1 595.674 264.170   1
   3  -3   1 824.466 302.790   2
  -3   3  -1 1083.64 265.565   1
   0   3  -2 27791.6 1633.81   1
   3  -3  -2 32460.6 1322.52   2
   0  -3  -2 25161.7 1412.26   1
  -3   0  -2 29098.7 1638.19   1
   3  -3   2 30243.2 1584.21   2
   0  -3   2 30243.8 1637.54   1
   0  -3   2 33710.1 1791.91   2
   3   0  -2 28125.3 1519.38   1
  -3   3  -2 31453.0 1434.52   1
   3   0   2 27014.0 1563.94   1
   3   0   2 35783.8 1771.14   2
   0   3   2 29262.5 1524.53   1
   3  -3   2 31452.8 1450.21   1
  -3   0   2 29325.1 1551.77   1
  -3   3  -3 37476.2 1729.58   1
   3  -3   3 35940.3 1809.72   2
   3  -3  -3 36256.7 1346.26   2
  -3   0   3 38103.2 1840.98   1
   0  -3   3 36387.2 1925.93   1
   3   0   3 35599.1 1870.45   1
   0   3  -3 34937.1 1882.87   1
   3   0  -3 35621.7 1768.86   1
   0   3   3 33076.3 1654.39   1
  -3   0  -3 35452.9 1908.15   1
   0  -3   3 30791.8 1787.05   2
   3  -3   3 36981.5 1741.32   1
   0  -3  -3 31848.3 1659.89   1
   3   0   3 37819.6 1926.37   2
   3  -3   5 18473.3 1398.47   1
  -3   0  -5 17843.4 1425.35   1
   0  -3   5 20896.4 1497.96   2
   0  -3   5 20681.5 1573.43   1
  -3   0   5 17636.6 1332.01   1
   3  -3   5 18849.0 1447.52   2
  -3   3  -5 15986.7 1307.61   1
  -3   3   5 18088.1 801.645   1
   0   3  -5 18217.5 1475.24   1
   3   0   5 24395.0 1567.34   2
   3  -3  -5 20304.9 809.703   1
   3   0   5 17326.5 1426.28   1
   0  -3  -5 20970.5 1366.03   1
   0   3   5 21209.0 1363.22   1
   3   0  -5 21942.2 1447.98   1
   3  -3   6 27052.9 1833.09   2
   0   3  -6 32496.5 2015.24   1
  -3   0   6 26953.1 1751.08   1
   3   0  -6 29250.5 1746.49   1
   0   3   6 28661.1 1692.43   1
  -3   3  -6 29955.2 1885.42   1
   3   0   6 27001.1 1797.46   2
   3  -3  -6 32137.4 1253.56   1
  -3   3   6 27843.4 1239.87   1
   0  -3   6 29404.8 1970.37   1
  -3   0  -6 31735.3 1926.31   1
   0  -3   6 24420.6 1682.21   2
   3   0   6 28773.7 1831.12   1
   3  -3   6 26635.9 1783.00   1
   0  -3  -6 29348.0 1702.36   1
   0  -3   7 9537.52 1154.03   1
  -3   0   7 10535.3 1115.31   1
   3   0  -7 9126.74 961.309   1
   0  -3  -7 12029.9 1072.34   1
   3   0   7 9625.53 1077.74   1
   0   3  -7 8966.49 1061.61   1
   3  -3   7 8433.31 1017.06   1
   3  -3  -7 7860.42 688.750   1
  -3   3  -7 8558.46 1072.54   1
  -3   3   7 8295.83 732.850   1
   0  -3   7 10735.9 1100.85   2
   3   0   7 9050.41 1055.18   2
  -3   0  -7 10811.0 1157.22   1
   0   3   7 9767.83 1030.23   1
   3  -3   7 9787.49 1159.79   2
  -3   0   8 911577. 19383.7   1
   0   3   9 18373.1 1543.32   2
   0  -3   9 17980.1 1662.79   1
   3   0   9 18645.8 1693.22   1
   0   3   9 17251.9 1480.20   1
   3   0   9 18661.4 1641.29   2
  -3   0   9 15843.0 1523.43   1
   3  -3   9 19305.8 1666.50   2
   3  -3   9 18627.4 1724.09   1
   0  -3  -9 20628.7 1603.14   1
  -3   3  -9 15869.5 1582.35   1
  -3   0  -9 17665.9 1654.77   1
  -3   3   9 16795.0 1297.82   1
   0  -3   9 18204.4 1607.83   2
   0   3  -9 18135.5 1657.32   1
   3  -3  -9 17633.0 1260.12   1
   3   0  -9 18485.7 1558.37   1
  -3   3  10 985.038 441.435   1
  -3   0 -10 500.417 415.207   1
   3   0  10-313.770 482.496   1
  -3   0  10 42.1846 291.157   1
  -3   3 -10 451.012 395.544   1
  -3   0  10 95.6706 173.802   2
   3  -3  10 253.252 344.546   2
   0   3 -10 26.2283 347.866   1
   3   0 -10 201.556 435.054   1
   0   3  10 23.1681 322.720   1
   0  -3  10 23.9011 307.236   2
   0  -3  10 817.046 537.247   1
   3  -3  10 294.021 336.706   1
   0  -3 -10 1079.10 466.957   1
   3  -3 -10 201.192 242.808   1
   0   3  10 51.8024 252.346   2
   3   0  10 252.832 283.244   2
  -3   0  11 236.629 482.315   1
  -3   3 -11 123.128 411.814   1
   3   0  11 1168.43 581.382   1
   0   3 -11 265.436 336.590   1
   0   3  11 308.402 357.870   1
  -3   0 -11 672.985 337.476   1
   0  -3  11 234.063 411.046   1
   0  -3 -11 309.686 373.873   1
   3  -3  11-582.326 500.200   2
   3  -3  11 1247.43 638.843   1
   0  -3  11-132.123 256.135   2
   3  -3 -11-35.9724 249.230   1
   3   0 -11-191.854 415.029   1
   3   0  11-1005.96 483.275   2
   0   3  11 279.059 279.309   2
  -3   3  11-354.342 334.619   1
   0  -3  12 348357. 9789.57   2
  -3   3  12 369811. 9666.21   1
   0  -3 -12 356492. 9653.58   1
   3  -3 -12 362138. 9270.21   1
   3   0  12 352730. 10181.6   1
   0   3  12 388653. 10147.4   1
   3   0 -12 375662. 9944.74   1
   0   3  12 313763. 9158.80   2
  -3   0  12 337499. 9933.22   1
   3  -3  12 350651. 10181.6   1
   0   3 -12 356278. 10034.7   1
   3  -3  12 349720. 9904.87   2
   3   0  12 367412. 9975.18   2
  -3   0 -12 352400. 9906.14   1
  -3   3 -12 375228. 10180.0   1
   0  -3  12 345229. 10217.7   1
  -3   3  13 836.111 353.891   1
   0   3  13 829.286 546.865   1
   3  -3 -13 1169.80 519.089   1
   0  -3  13 49.5073 354.706   1
   0   3 -13 841.233 453.080   1
   3  -3  13 237.365 370.193   1
   3   0 -13 1850.37 751.356   1
   0  -3 -13 782.578 538.274   1
  -3   0  13 1051.10 514.544   1
   0   3  13 419.337 413.800   2
   3  -3  13 472.466 359.128   2
   3   0  13 239.637 343.413   2
  -3   3 -13-164.634 392.752   1
   3   0  13 587.555 392.835   1
  -3   0 -13 964.640 551.098   1
   0  -3  13 810.782 417.893   2
   0   3  14-286.423 489.523   1
  -3   0 -14-15.9456 436.008   1
  -3   0  14 136.466 503.702   1
   0   3 -14 343.814 463.424   1
   3   0  14 668.238 590.989   2
   3   0 -14-274.750 387.822   1
   3  -3  14-88.5644 643.287   1
   0  -3  14 810.413 626.759   2
   0  -3 -14 616.547 546.087   1
  -3   3 -14-4.12827 412.687   1
  -3   3  14 1046.48 623.310   1
   0  -3  14 1208.09 652.415   1
   0   3  14 360.144 472.547   2
   3   0  14 386.540 411.934   1
   3  -3  14-168.719 481.255   2
   0  -3  15 1552.32 640.494   1
   3   0 -15 849.268 549.700   1
  -3   3 -15 1051.94 587.970   1
   3  -3  15 1475.67 661.731   1
   3  -3  15 1437.54 691.351   2
   0  -3  15-67.4313 451.325   2
  -3   0 -15 1826.85 665.627   1
   0   3  15 1615.67 529.998   1
   0  -3 -15 798.637 517.911   1
  -3   0  15 470.612 365.262   1
   3   0  15 1439.05 736.119   2
   0   3 -15 1920.13 652.100   1
   3   0  15 1410.06 776.739   1
   3  -3  16 242950. 8367.34   2
   3   0 -16 233507. 8140.95   1
   3   0  16 240468. 8255.97   2
   3  -3  16 233509. 8344.40   1
   0  -3  16 223599. 8295.77   1
   0   3  16 231864. 8294.75   1
  -3   0  16 238188. 8436.08   1
  -3   0 -16 218039. 7886.59   1
   0   3 -16 240321. 8221.71   1
   0  -3 -16 240155. 8175.93   1
   3   0  16 227894. 8249.31   1
  -3   3 -16 244185. 8245.44   1
   3   0  17 1031.58 800.692   2
   3   0 -17 605.666 484.731   1
   3  -3  17 155.196 574.926   1
   0  -3  17 904.757 634.225   1
   3  -3  17 1041.86 647.510   2
   0  -3 -17 859.520 382.843   1
  -3   0  17 1144.44 644.075   1
  -3   0 -17 987.500 616.668   1
   3   0  17 509.471 389.083   1
   0   3  17-670.177 600.873   1
   0   3 -17 152.256 324.325   1
  -3   3 -17 896.590 763.749   1
   0   3  18 572.285 526.155   1
   0   3 -18 2162.08 949.285   1
  -3   3 -18 1565.25 561.347   1
  -3   0  18 1766.38 784.793   1
   0  -3  18 924.950 643.006   1
   3   0  18 983.892 657.077   1
   3   0  18 505.483 476.440   2
   3  -3  18 864.627 511.560   2
  -3   0 -18 682.934 474.985   1
   0  -3 -18 1267.45 646.861   1
   3  -3  18 1251.61 618.235   1
   3   0 -18 1374.92 760.829   1
   0   3  19 94.6215 391.235   1
   3  -3  19-10.8607 580.689   1
  -3   0  19-1633.90 753.014   1
   3   0 -19 331.259 411.755   1
   3  -3  19 79.1962 522.381   2
   0   3 -19 559.221 609.682   1
  -3   0 -19 702.767 559.742   1
   3   0  19-697.684 593.574   1
   0  -3  19 939.172 687.305   1
  -3   3 -19-153.565 568.831   1
  -3   0 -20 121526. 5910.49   1
  -3   3 -20 120613. 5816.00   1
   3   0  20 116255. 5918.98   1
   3  -3  20 118395. 5962.76   1
   0   3 -20 115004. 5728.62   1
   0  -3  20 112276. 5899.00   1
   3   0  21 98.3622 318.318   1
  -3   0 -21 1080.77 549.306   1
   0   3 -21 1351.41 799.725   1
  -2  -2 -21-287.111 499.226   1
   2   2  21-210.618 527.685   1
   2   2  20 106553. 5729.16   1
  -2  -2 -20 97677.9 5350.79   1
   2  -4  20 113970. 5795.44   1
  -2   4 -20 118754. 5638.10   1
   2   2  19-357.061 471.947   1
  -2   4 -19-900.560 585.372   1
   2  -4  19-950.043 832.749   1
  -2  -2 -19 159.692 377.767   1
   2   2  18 13253.0 1883.75   1
   2  -4  18 12464.7 1817.94   2
   2  -4  18 12777.0 1832.21   1
  -2   4 -18 13264.0 1790.91   1
  -2  -2 -18 11929.7 1703.00   1
   2  -4  17 420.328 427.259   1
   2   2  17 743.732 551.966   1
  -2  -2 -17-694.020 556.196   1
   2   2  17-170.006 460.955   2
   2  -4  17 392.797 511.488   2
  -2   4 -17-268.958 372.201   1
   2  -4  16 269373. 9186.73   1
   2   2  16 242365. 8843.74   1
  -2  -2 -16 275026. 8952.42   1
  -2   4 -16 271366. 8884.66   1
   2   2  16 263036. 8939.35   2
   2  -4  16 276774. 9139.62   2
   2   2  15-50.5230 383.528   2
   2  -4  15 55.9630 546.401   1
   2   2  15 138.798 421.072   1
  -2   4 -15-893.475 592.728   1
  -2  -2 -15 364.473 353.489   1
   2  -4  15-759.466 515.119   2
   2  -4  14 121932. 5461.87   1
   2  -4  14 117719. 5237.00   2
   2   2  14 124868. 5452.50   1
   4  -2 -14 127250. 5167.15   1
  -4   2  14 116470. 5115.14   1
  -2  -2 -14 123474. 5237.95   1
  -2   4 -14 110543. 5130.13   1
   2   2  14 112607. 5072.70   2
   2  -4  13 395.391 369.692   2
   2   2  13 356.961 519.762   1
  -2   4 -13-538.555 427.018   1
  -2  -2 -13 441.441 502.291   1
  -4   2  13 175.729 422.021   1
   2  -4  13-321.192 416.019   1
   4  -2 -13 49.5135 345.670   1
   2   2  13 437.770 393.804   2
  -4   2  12 106376. 4502.27   1
   2   2  12 103910. 4522.79   2
   2  -4  12 105421. 4722.70   2
   2  -4  12 109705. 4894.69   1
   2   2  12 116738. 5002.27   1
  -2   4 -12 109574. 4797.56   1
   4  -2 -12 116554. 4557.47   1
  -2  -2 -12 107836. 4723.63   1
  -2   4 -11 451.065 508.019   1
  -2  -2 -11 251.420 351.705   1
   4  -2 -11 554.969 350.124   1
  -4   2  11 1221.32 515.571   1
   2  -4  11 798.998 455.534   2
   2   2  11 346.086 422.425   2
   2  -4  11-133.922 502.393   1
   2   2  11 104.107 366.300   1
   2   2  10 265939. 7943.63   1
  -2  -2 -10 278682. 7964.18   1
   2  -4  10 265616. 8114.68   1
  -4   2  10 275889. 7538.45   1
   4  -2 -10 259876. 7238.02   1
  -2   4 -10 269101. 8027.72   1
   2   2  10 256602. 7696.57   2
   2  -4  10 248878. 7776.30   2
  -4   2   9 8.48878 259.059   1
   2  -4   9 936.416 578.963   1
   2   2   9-41.3135 384.195   2
   2  -4   9-385.626 449.697   2
  -2   4  -9 938.118 507.613   1
  -2  -2  -9 803.325 559.261   1
   4  -2  -9 108.482 280.964   1
   2   2   9 129.386 327.311   1
  -2   4  -7 637.172 503.780   1
   4  -2  -7 618.522 310.970   1
  -4   2   7 565.392 269.599   1
   2   2   7 1155.13 564.522   1
   2   2   7 684.242 365.192   2
   2  -4   7 31.6059 361.937   2
  -2  -2  -7 589.598 387.182   1
   2  -4   7-503.112 551.259   1
   2  -4   6-95.7059 301.697   2
  -2  -2  -6-280.843 483.726   1
   2  -4   6 693.419 429.974   1
  -4   2   6-48.8986 248.188   1
   2   2   6 756.469 344.978   1
  -2   4  -6-73.9387 278.771   1
   4  -2  -6 75.8677 177.264   1
  -2  -2  -5-152.471 301.773   1
   4  -2  -5 155.738 153.351   1
   2  -4   5 543.274 359.788   1
  -4   2   5 101.462 215.147   1
  -2   4  -5-104.550 289.073   1
   2  -4   5-88.4517 229.004   2
   2   2   5 149.959 308.208   1
  -4   2   3 742.532 248.772   1
  -2  -2  -3 733.892 403.740   1
   2  -4   3 484.188 371.171   2
   2   2   3 644.285 428.559   1
  -2   4  -3 410.829 288.588   1
   4  -2  -3 349.361 187.920   1
   4  -2  -3 297.547 162.646   2
   2  -4   3-143.292 262.392   1
   2   2   1 1335.59 449.273   1
  -2  -2  -1 876.813 427.902   1
   2  -4   1 690.857 408.218   2
  -4   2   1 982.221 314.828   1
   4  -2  -1 793.443 270.021   1
  -2   4  -1 632.442 240.265   1
   4  -2  -1 352.351 157.204   2
   2  -4   1 712.658 307.733   1
  -2   4   1 248.235 176.480   1
   2  -4  -1 94.4802 149.828   1
   2   2  -1 11.9443 327.137   1
  -2  -2   1 608.508 365.204   1
   4  -2   1-75.2415 176.615   1
  -4   2  -1 111.463 173.689   1
   4  -2   1 223.524 179.176   2
   2   2  -3 0.53932 268.591   1
   4  -2   3-133.687 274.489   1
   2  -4  -3 544.508 203.768   1
  -2  -2   3 635.865 404.234   1
   4  -2   3 130.513 200.496   2
  -2   4   3 277.142 172.537   1
  -4   2  -3 282.413 195.729   1
  -4   2  -5-114.917 234.755   1
   2   2  -5 409.587 396.812   1
  -2  -2   5 724.432 444.328   1
  -2   4   5 198.341 179.662   1
   4  -2   5 224.314 339.322   2
   2  -4  -5 342.371 158.381   1
   4  -2   5 58.6081 229.396   1
   4  -2   6 1074.33 395.902   2
   4  -2   6 841.165 433.323   1
  -2   4   6 790.544 266.239   1
  -2  -2   6 343.871 284.930   1
   2   2  -6 781.579 470.904   1
  -4   2  -6 331.905 264.594   1
   2  -4  -6 419.000 213.185   1
   4  -2   7-284.949 390.806   2
  -2  -2   7 437.625 278.631   2
  -2   4   7 135.439 205.022   1
  -2  -2   7 559.323 495.206   1
  -4   2  -7-27.6617 328.897   1
   4  -2   7-73.2904 371.535   1
   2  -4  -7 355.172 221.440   1
   2   2  -7-55.8140 463.918   1
  -4   2  -9 128.396 333.538   1
   4  -2   9 108.589 412.713   1
  -2   4   9-83.3464 202.495   1
   2  -4  -9 557.410 253.966   1
  -2  -2   9-16.1289 346.278   2
   2   2  -9-164.093 448.872   1
  -2   4   9 87.2018 275.439   2
  -2  -2   9 975.510 512.859   1
   4  -2   9 179.998 315.247   2
  -2  -2  10 75274.3 3741.76   1
   2   2 -10 72844.8 3566.28   1
   4  -2  10 77991.1 3611.35   2
   4  -2  10 76672.8 3666.25   1
   2  -4 -10 78890.3 3144.57   1
  -2  -2  10 80125.3 3360.76   2
  -2   4  10 81079.5 3282.35   1
  -4   2 -10 76717.3 3652.42   1
   4  -2  11-49.9290 389.532   2
  -2  -2  11 116.564 321.068   2
  -2   4  11-166.514 292.080   2
  -2   4  11 355.680 416.670   1
   2   2 -11-110.996 383.605   1
   2  -4 -11-273.445 264.406   1
  -4   2 -11 470.692 515.462   1
   4  -2  11 16.4533 427.659   1
  -2  -2  11 35.3923 382.360   1
   2  -4 -12 37801.8 2413.46   1
  -2   4  12 33689.7 2331.18   1
  -2  -2  12 33959.5 2661.94   1
  -2  -2  12 42389.3 2530.80   2
   2   2 -12 38409.7 2674.57   1
   4  -2  12 36752.5 2650.71   2
  -4   2 -12 38405.8 2625.72   1
   4  -2  12 42551.4 2846.13   1
  -2   4  13-446.461 399.398   1
   4  -2  13 356.991 499.948   1
   4  -2  13 271.296 373.688   2
  -2  -2  13 680.123 611.272   1
   2  -4 -13 389.154 376.005   1
  -4   2 -13 247.233 507.365   1
   2   2 -13 86.3118 562.170   1
   2   2 -14 27894.8 2324.50   1
   4  -2  14 26731.6 2469.23   1
  -4   2 -14 26717.2 2365.88   1
  -2  -2  14 24092.8 2351.20   1
   4  -2  14 25443.7 2337.38   2
   4  -2  15 237.681 406.920   1
  -4   2 -15-40.2428 377.919   1
   2   2 -15 487.150 453.185   1
   4  -2  15 699.284 388.194   2
  -2  -2  15 569.269 349.920   1
  -4   2 -16 472039. 12921.3   1
  -2  -2  16 459944. 13246.4   1
   2   2 -16 442967. 12817.7   1
   4  -2  16 470995. 12888.7   2
   4  -2  16 465378. 13139.3   1
   4  -2  17-699.290 653.401   2
   4  -2  17 679.623 615.663   1
   2   2 -17 901.942 718.429   1
  -2  -2  17 788.207 490.624   1
  -4   2 -17-276.486 415.605   1
   4  -2  18 6066.79 1249.08   2
  -2  -2  18 7503.51 1427.89   1
  -4   2 -18 8857.86 1541.55   1
   2   2 -18 7471.65 1419.03   1
   4  -2  18 6701.40 1313.99   1
   4  -2  19-142.453 429.783   2
   4  -2  19-198.993 595.879   1
   2   2 -19-118.815 412.889   1
  -4   2 -19 454.309 619.793   1
  -2  -2  19-122.587 475.834   1
  -4   2 -20 90812.9 4887.20   1
   4  -2  20 83248.6 4852.97   1
   4  -2  20 66837.1 4493.70   2
  -2  -2  20 72402.8 4638.65   1
   2   2 -20 71645.8 4481.38   1
  -2  -2  21 149.126 601.255   1
   2   2 -21 942.765 711.466   1
   3   1  20 23266.3 2572.56   1
   1   3  20 21011.0 2519.01   1
   3  -4  20 26597.6 2706.28   1
  -3  -1 -20 26748.4 2614.34   1
   1  -4  20 25625.2 2613.85   1
  -1   4 -20 25504.6 2536.99   1
  -3   4 -20 26579.6 2569.51   1
   1   3  19 8772.26 1583.87   1
   3  -4  19 9526.09 1551.37   1
  -1   4 -19 9207.08 1579.29   1
  -1  -3 -19 9038.37 1504.95   1
   3  -4  19 6958.80 1412.94   2
  -3  -1 -19 9397.22 1519.86   1
   3   1  19 7708.88 1457.81   1
   1  -4  19 7866.87 1471.17   1
  -3   4 -19 6744.16 1301.02   1
   3   1  18 107073. 5528.11   1
   1   3  18 106186. 5483.54   1
  -3   4 -18 109805. 5319.42   1
  -1  -3 -18 102254. 5280.27   1
  -3  -1 -18 106435. 5324.46   1
   3   1  18 108188. 5504.36   2
   3  -4  18 105644. 5440.26   2
   1  -4  18 104017. 5515.31   1
   3  -4  18 111890. 5584.96   1
  -1   4 -18 103985. 5292.15   1
   3  -4  17 3920.40 1025.05   2
   1   3  17 3936.93 971.491   1
   1  -4  17 4586.93 1078.66   1
   3   1  17 4727.26 1071.55   2
  -1  -3 -17 2896.69 822.568   1
   3  -4  17 4348.61 1047.84   1
  -3  -1 -17 4011.63 928.366   1
  -1   4 -17 5763.42 1194.62   1
   3   1  17 4422.55 999.804   1
  -3   4 -17 4246.25 975.196   1
   1  -4  17 2776.93 872.564   2
  -1   4 -16 1300.15 573.261   1
   1  -4  16 2508.45 914.071   2
  -4   1  16 497.862 453.791   1
  -3  -1 -16 1673.35 717.678   1
   3  -4  16 1437.59 689.278   2
   1   3  16 1527.91 720.599   1
   4  -1 -16 1839.17 692.006   1
   1  -4  16 3100.03 943.862   1
  -1  -3 -16 1395.46 670.324   1
   3   1  16 1184.65 652.782   2
   3   1  16 2041.21 718.618   1
   3  -4  16 2170.00 776.342   1
  -3   4 -16 2271.35 718.872   1
   1  -4  15 93167.3 4879.44   1
  -3   4 -15 89290.0 4658.18   1
   1   3  15 94481.9 4684.46   2
  -1   4 -15 94194.0 4727.21   1
   3  -4  15 94526.9 4821.54   2
   4  -1 -15 97098.0 4699.97   1
  -4   1  15 94405.4 4809.84   1
  -1  -3 -15 112420. 4993.18   1
  -3  -1 -15 93454.0 4666.88   1
   3   1  15 85626.0 4668.40   1
   3  -4  15 91550.0 4892.49   1
   3   1  15 94644.7 4747.18   2
   1   3  15 94227.6 4767.24   1
   1  -4  15 104054. 4953.50   2
   3   1  14 67764.6 3840.81   2
   1   3  14 70157.5 3982.47   1
  -1   4 -14 66146.2 3831.54   1
   3  -4  14 68343.3 3876.41   2
   1  -4  14 74079.6 4125.13   1
   3  -4  14 65678.8 3941.72   1
   1  -4  14 71348.8 3987.43   2
  -1  -3 -14 69923.9 3797.77   1
  -3  -1 -14 72783.7 3972.04   1
   3   1  14 73504.0 4100.05   1
  -4   1  14 71917.0 3980.25   1
  -3   4 -14 67846.9 3862.66   1
   4  -1 -14 78209.1 3973.22   1
   1   3  14 65087.7 3786.01   2
   3  -4  13 210732. 7604.87   1
  -3   4 -13 227708. 7626.09   1
   1   3  13 210814. 7521.66   1
  -1  -3 -13 229539. 7475.02   1
  -4   1  13 212476. 7389.11   1
   3  -4  13 223089. 7536.88   2
  -3  -1 -13 218432. 7346.30   1
   1  -4  13 218581. 7718.80   1
   4  -1 -13 248818. 7602.72   1
   3   1  13 234961. 7545.66   2
   3   1  13 210062. 7594.28   1
  -1   4 -13 211154. 7446.54   1
   1  -4  13 231239. 7594.55   2
   1   3  13 219459. 7313.28   2
   1  -4  12 21058.7 2088.45   1
   1   3  12 21402.0 1977.26   1
   3   1  12 23109.5 2094.37   1
  -1   4 -12 24597.1 2164.12   1
   3  -4  12 22390.6 2070.95   2
   3  -4  12 23797.4 2101.22   1
  -1  -3 -12 21261.6 1947.63   1
   3   1  12 24975.0 2120.87   2
   4  -1 -12 25045.1 2020.64   1
  -4   3  12 21281.2 1816.16   1
  -4   1  12 21776.4 1958.17   1
   1   3  12 18500.0 1820.18   2
   1  -4  12 21230.9 1987.61   2
  -3   4 -12 20778.2 1961.29   1
  -3  -1 -12 21172.9 1955.10   1
   1  -4  11 18161.2 1876.90   1
   3   1  11 18059.5 1765.94   2
   3  -4  11 16104.1 1766.85   2
  -1   4 -11 16741.6 1772.45   1
  -4   1  11 19457.6 1775.24   1
   1  -4  11 18102.3 1775.00   2
   1   3  11 18308.3 1747.46   1
  -3   4 -11 19186.0 1810.20   1
   4  -3 -11 17413.9 1465.00   1
  -1  -3 -11 15510.6 1556.52   1
   4  -1 -11 18939.7 1695.75   1
  -3  -1 -11 16752.6 1689.10   1
   3  -4  11 17969.6 1897.10   1
  -4   3  11 19824.5 1618.07   1
   3   1  11 16680.5 1721.10   1
   1   3  11 18413.1 1710.48   2
  -4   1  10 626513. 14403.5   1
  -3  -1 -10 616707. 14585.1   1
   3   1  10 646877. 14616.6   2
   1  -4  10 604952. 14532.4   2
   3  -4  10 590542. 14565.4   2
   1  -4  10 578772. 14691.2   1
   1   3  10 567429. 14281.2   1
   3  -4  10 616235. 14807.1   1
   3   1  10 604786. 14642.6   1
  -1   4 -10 619474. 14765.3   1
  -3   4 -10 581263. 14520.3   1
  -1  -3  -9 1802.73 559.609   1
   4  -1  -9 2106.42 542.916   1
   3   1   9 2800.26 704.653   1
  -3  -1  -9 2292.82 664.494   1
  -3   4  -9 2831.13 769.834   1
   1   3   9 2580.06 680.308   1
  -1   4  -9 2383.64 592.406   1
   4  -3  -9 2414.48 458.536   1
  -4   1   9 2476.50 605.691   1
   3  -4   9 2947.79 727.548   2
   1  -4   9 2139.60 588.376   1
   1   3   9 3252.18 778.614   2
   1  -4   9 3276.92 793.222   2
   3   1   9 2945.22 722.632   2
  -4   3   9 2697.98 481.194   1
   3  -4   9 2972.43 771.344   1
  -3   4  -8 265443. 7675.87   1
   3   1   8 259178. 7638.48   1
  -3  -1  -8 245626. 7481.89   1
   3  -4   8 258712. 7683.11   1
   1   3   8 255829. 7361.88   1
  -1  -3  -8 297337. 7637.72   1
  -1   4  -8 250905. 7559.98   1
   4  -3  -8 278127. 6434.55   1
   1   3   8 287352. 7784.77   2
  -4   3   8 265222. 6526.35   1
   3   1   8 279168. 7713.88   2
   4  -1  -8 248630. 7099.82   1
   1  -4   8 252020. 7517.77   2
  -4   1   8 259988. 7234.06   1
   1  -4   8 268369. 7853.45   1
   3  -4   8 250915. 7586.71   2
   3  -4   7 311756. 8339.13   1
  -3   4  -7 303603. 8195.11   1
  -4   1   7 286425. 7650.51   1
   4  -3  -7 294181. 6769.25   1
   3   1   7 301153. 8219.71   1
   3   1   7 331742. 8406.37   2
   1  -4   7 293572. 8171.20   2
  -3  -1  -7 297245. 8183.29   1
   3  -4   7 291160. 8165.41   2
   1   3   7 318730. 8170.16   1
  -1  -3  -7 260453. 7730.68   1
  -1   4  -7 299436. 8273.55   1
  -4   3   7 311938. 6931.60   1
   1  -4   7 302513. 8388.37   1
   4  -1  -7 325964. 7870.20   1
   3  -4   6 408465. 9958.27   1
   4  -1  -6 403019. 9389.96   1
  -1  -3  -6 436381. 9940.71   1
  -3   4  -6 343268. 9569.40   1
  -1   4  -6 392775. 9949.69   1
   3   1   6 444991. 10231.7   2
   1   3   6 379365. 9655.34   1
   3   1   6 400938. 9965.56   1
  -3  -1  -6 416033. 10066.2   1
  -4   1   6 386932. 9365.62   1
   3  -4   6 418708. 10087.0   2
   1  -4   6 424708. 10224.7   1
   1  -4   6 400676. 9938.78   2
  -3   4  -5 297912. 7714.27   1
   3  -4   5 299558. 7738.42   1
   3   1   5 297223. 7923.66   1
  -3  -1  -5 303274. 7962.13   1
   1  -4   5 305344. 8029.85   2
  -1   4  -5 304403. 7924.60   1
   4  -1  -5 303655. 7346.51   1
  -4   1   5 317310. 7497.18   1
   3  -4   5 310960. 7992.48   2
   3   1   5 314992. 8152.19   2
  -1  -3  -5 316666. 7787.25   1
   4  -3  -4 9592.64 563.752   2
  -3  -1  -4 9110.70 1014.63   1
   1  -4   4 11396.7 1120.67   1
  -4   3   4 9395.41 537.845   1
   3  -4   4 10157.6 1013.30   1
   3   1   4 10898.4 1165.00   2
   4  -3  -4 9505.37 521.876   1
  -1   4  -4 11005.3 1065.45   1
   4  -1  -4 9492.03 877.229   1
   3  -4   4 10287.3 1107.16   2
  -1  -3  -4 10678.8 1054.87   1
  -3   4  -4 9539.46 958.069   1
   1   3   4 11617.7 1057.82   1
  -4   1   4 9767.01 949.927   1
   4  -1  -4 10300.3 699.585   2
   1  -4   4 12032.2 1196.48   2
   3   1   4 9770.21 1074.22   1
   3  -4   3 156659. 4549.44   1
   1  -4   3 166153. 5079.35   2
  -1   4  -3 151445. 4756.33   1
   4  -3  -3 168233. 3857.14   2
   3  -4   3 162567. 4947.13   2
   3   1   3 150654. 4813.29   1
   4  -1  -3 177403. 4197.78   2
   1   3   3 153510. 4684.23   1
   1  -4   3 148020. 4728.08   1
  -3   4  -3 159830. 4541.97   1
  -3  -1  -3 155871. 4891.68   1
   4  -1  -3 142115. 4316.70   1
  -1  -3  -3 169842. 4909.49   1
  -4   1   3 160678. 4533.15   1
  -3  -1  -2 634728. 13759.8   1
   1  -4   0 48552.7 2089.90   1
   1   3   0 50001.8 2329.91   1
   4  -1   0 58418.2 2247.25   2
   3   1   0 52621.4 2380.71   1
   4  -1   0 49936.6 2172.44   1
  -3   4   0 52449.5 1768.19   1
  -3  -1   0 50977.0 2404.56   1
   4  -3   0 59550.3 1885.65   1
   3  -4   0 58567.8 2359.61   2
  -1  -3   0 48348.8 2311.39   1
   1  -4   0 57225.5 2550.86   2
   3  -4   0 55036.0 1798.73   1
  -1   4   0 48887.7 2153.55   1
  -4   3   0 52369.2 1826.30   1
   4  -3   0 50381.1 2096.55   2
  -4   1   0 60672.2 2376.58   1
   3  -4  -1 433435. 9240.67   2
   1  -4  -1 402288. 8929.28   1
   4  -1   1 415342. 9197.43   2
  -3  -1   1 414575. 9572.79   1
   4  -3   3 42971.0 2134.31   2
   1  -4  -3 35489.5 1707.47   1
   4  -1   3 40821.9 2082.09   1
   3  -4  -3 49811.0 1984.44   2
  -1   4   3 47904.7 1928.60   1
  -3  -1   3 38613.6 2092.49   1
   4  -1   3 41354.9 2115.25   2
  -1  -3   3 36788.0 2093.85   1
  -4   1  -3 40928.3 2089.37   1
   4  -3   3 40615.2 1956.04   1
   3   1  -3 41343.6 2152.80   1
   1   3  -3 39384.2 2158.34   1
  -4   3  -3 37464.0 1894.79   1
  -4   1  -4 330903. 8032.16   1
   4  -3   4 295094. 7619.10   1
   4  -3   4 328037. 8010.27   2
   4  -1   4 265706. 7622.52   1
   4  -1   4 328167. 7946.72   2
   1  -4  -4 299871. 7170.32   1
  -4   3  -4 300837. 7625.17   1
  -1  -3   4 341283. 8211.30   2
   3   1  -4 305403. 7848.49   1
   1   3  -4 320014. 8100.22   1
  -3  -1   4 319937. 7940.94   1
  -1   4   4 317473. 7266.49   1
  -1  -3   4 312675. 8077.55   1
   3  -4  -5 31177.2 1012.19   1
   1   3  -5 36769.2 2150.09   1
   3   1  -5 33812.5 2045.10   1
   4  -3   5 37069.5 2093.36   2
  -3  -1   5 35401.4 2096.06   1
  -1  -3   5 35862.9 2090.53   2
   4  -3   5 35684.4 2009.96   1
  -4   1  -5 31980.7 1980.47   1
  -1  -3   5 35582.8 2111.39   1
  -3   4   5 33838.5 1094.46   1
   4  -1   5 41249.4 2172.33   1
   4  -1   5 34625.3 2047.82   2
   1  -4  -5 38752.5 1802.62   1
  -1   4   5 31554.7 1667.84   1
  -4   3  -5 33281.4 1968.63   1
   4  -3   7 200995. 6268.32   2
  -1   4   7 195050. 5602.11   1
  -4   3  -7 198589. 6179.03   1
   4  -1   7 205040. 6325.05   2
  -1  -3   7 201601. 6418.18   1
   1   3  -7 202800. 6318.81   1
  -1  -3   7 198349. 6059.19   2
   3   1  -7 203475. 6213.07   1
  -3  -1   7 195832. 6205.14   1
  -3   4   7 206937. 4931.17   1
   4  -3   7 209401. 6323.40   1
  -4   1  -7 208206. 6279.47   1
   4  -1   7 218307. 6457.16   1
   3  -4  -7 200350. 4788.29   1
   4  -3   8 24131.9 1971.21   1
  -3   4   8 23687.0 1365.29   1
   3  -4  -8 27157.7 1376.03   1
  -1  -3   8 22108.8 1760.10   2
  -4   3  -8 23402.3 1829.61   1
  -1   4   8 20614.3 1574.82   1
   3   1  -8 25830.3 1883.03   1
  -4   1  -8 23781.6 1879.99   1
  -1  -3   8 24361.5 1967.22   1
   1   3  -8 21969.4 1821.33   1
  -3  -1   8 25501.3 1946.65   1
   4  -3   8 22298.1 1829.28   2
   4  -1   8 22523.7 1836.10   1
   4  -1   8 24115.8 1852.39   2
   1  -4  -8 21442.1 1532.67   1
   3  -4  -9 368532. 7772.18   1
   4  -3   9 329365. 9002.52   1
  -3   4   9 364135. 7903.42   1
   4  -1   9 354924. 9170.45   1
   4  -1   9 345842. 8987.16   2
  -4   1  -9 366983. 9238.16   1
   1   3  -9 363231. 9245.77   1
   3   1  -9 365640. 9089.75   1
  -1   4   9 366411. 8583.94   1
  -3  -1   9 362482. 9236.73   1
  -1  -3   9 378713. 9039.61   2
  -4   3  -9 343438. 9045.20   1
  -1  -3   9 373076. 9509.56   1
   1  -4  -9 362625. 8457.92   1
   4  -3   9 351541. 9134.35   2
  -3  -1  10 116200. 4866.50   1
  -3   4  10 134028. 4315.60   1
  -1  -3  10 111435. 4630.81   2
   4  -1  10 121653. 4921.34   2
   1   3 -10 117132. 4850.86   1
   1  -4 -10 132303. 4552.76   1
  -1  -3  10 123301. 5113.17   1
  -4   3 -10 114639. 4813.93   1
   4  -1  10 120596. 4982.73   1
   4  -3  10 123497. 4914.15   2
  -4   1 -10 123630. 4951.51   1
  -1   4  10 133818. 4714.08   1
   3  -4 -10 131958. 4175.55   1
   4  -3  10 116590. 4899.45   1
   3   1 -10 118259. 4739.19   1
  -1   4  10 108521. 4358.63   2
  -3   4  11 109396. 4198.57   1
   4  -3  11 107337. 4840.63   1
   4  -1  11 117412. 5003.36   1
  -1   4  11 133179. 4848.97   1
  -1   4  11 111111. 4314.05   2
   1  -4 -11 130606. 4662.63   1
  -4   1 -11 117562. 4891.16   1
  -4   3 -11 118007. 4925.39   1
  -3  -1  11 112960. 4921.08   1
   4  -1  11 123000. 4950.88   2
   4  -3  11 111613. 4792.12   2
  -1  -3  11 112477. 5027.01   1
   1   3 -11 117814. 4911.18   1
   3   1 -11 125594. 4961.80   1
  -1  -3  11 111725. 4653.77   2
  -1   4  12 2809.32 614.449   2
  -3  -1  12 3342.59 882.620   1
  -1  -3  12 3458.47 832.118   2
   4  -3  12 2992.74 886.156   1
  -4   3 -12 3678.41 876.128   1
  -1  -3  12 2556.09 810.786   1
   4  -3  12 2056.56 646.374   2
   1  -4 -12 2363.89 671.647   1
  -4   1 -12 2953.12 804.423   1
   4  -1  12 2925.39 707.906   2
   1   3 -12 2255.95 731.666   1
   3   1 -12 3072.38 794.026   1
   4  -1  12 2408.46 707.188   1
  -1   4  12 3528.60 731.414   1
   1  -4 -13 6430.47 1018.46   1
   1   3 -13 5240.23 1098.91   1
  -4   3 -13 3596.34 902.243   1
   3   1 -13 4651.25 950.531   1
   4  -1  13 4012.59 937.018   2
  -1  -3  13 5193.48 1030.99   2
  -4   1 -13 4474.29 926.657   1
   4  -1  13 4832.14 980.833   1
   4  -3  13 4135.54 1009.17   2
  -1   4  13 6660.57 1088.98   1
  -3  -1  13 4623.56 1011.92   1
   4  -3  13 3970.16 967.555   1
   4  -3  14 273681. 8665.67   2
   4  -1  14 271527. 8883.23   1
  -4   1 -14 266903. 8585.13   1
   3   1 -14 276899. 8739.03   1
  -3  -1  14 274447. 8926.68   1
   4  -1  14 272521. 8696.96   2
  -1  -3  14 264443. 8446.07   2
   1  -4 -14 250975. 8164.42   1
  -1   4  14 275972. 8612.90   1
  -4   3 -14 268021. 8703.70   1
   1   3 -14 265831. 8691.69   1
   4  -3  14 257625. 8772.48   1
  -1   4  15 42927.2 3040.46   1
   4  -1  15 39309.9 2906.95   2
  -4   1 -15 38357.6 2854.54   1
   4  -3  15 35949.1 2915.22   1
   4  -3  15 35591.5 2824.27   2
  -4   3 -15 34612.7 2795.85   1
   1   3 -15 37092.5 2891.69   1
   3   1 -15 42266.8 2987.01   1
   4  -1  15 40993.4 3000.68   1
   1  -4 -15 38571.4 2809.35   1
  -3  -1  15 35869.4 2926.53   1
  -4   3 -16 81738.2 4308.76   1
  -4   1 -16 76130.6 4212.57   1
   3   1 -16 73291.3 4179.03   1
  -1  -3  16 70143.4 4308.02   1
   4  -3  16 63711.2 3980.74   2
  -3  -1  16 81763.9 4578.76   1
   4  -1  16 72680.7 4233.29   1
   4  -3  16 71723.2 4238.45   1
   1   3 -16 71227.3 4154.25   1
   4  -1  16 73235.3 4205.79   2
   1   3 -17 70994.7 4149.83   1
  -3  -1  17 65460.1 4192.52   1
   4  -1  17 70384.6 4227.09   1
   4  -3  17 71953.8 4238.07   1
  -1  -3  17 62046.1 4026.44   1
  -4   1 -17 70616.0 4133.29   1
   4  -3  17 67756.2 4152.50   2
   3   1 -17 62148.7 4017.24   1
   4  -1  17 74193.6 4329.91   2
  -4   3 -17 67590.4 3982.38   1
  -4   3 -18 92293.0 4864.57   1
   4  -3  18 88752.1 4914.28   1
   4  -1  18 90593.0 4881.39   1
  -4   1 -18 81518.1 4614.58   1
  -3  -1  18 77456.8 4693.91   1
   3   1 -18 83561.8 4729.04   1
   4  -3  18 85465.2 4839.77   2
  -1  -3  18 81529.8 4829.54   1
   1   3 -18 83091.2 4678.56   1
   4  -1  18 77725.5 4546.26   2
   3   1 -19 8133.41 1507.66   1
  -1  -3  19 11187.5 1743.29   1
   4  -3  19 10914.7 1651.01   1
   4  -1  19 10807.2 1776.17   1
  -3  -1  19 8610.66 1493.01   1
   4  -1  19 7914.66 1527.47   2
  -4   3 -19 11276.8 1648.81   1
   1   3 -19 10198.0 1647.81   1
   4  -3  19 12470.6 1805.89   2
  -4   1 -19 9062.99 1483.12   1
   3   1 -20 18.7957 409.464   1
   4  -3  20 252.426 503.359   2
   4  -1  20-426.657 425.518   1
  -3  -1  20-275.492 430.931   1
  -4   1 -20 523.394 421.080   1
   4  -3  20-971.669 843.361   1
   4  -1  20-316.578 679.788   2
  -4   3 -20 382.604 543.443   1
  -1  -3  20 616.041 439.203   1
   1   3 -20 1273.49 682.619   1
   4  -4   0 45976.0 1628.67   1
  -4   4   0 46711.4 1659.81   1
  -4   0   0 49653.3 2355.72   1
   0   4   0 48320.8 2305.89   1
   4  -4   0 46325.4 2121.72   2
   0  -4   0 52528.3 2338.60   1
   4   0   0 52039.4 2375.09   1
   0  -4   1 389265. 9104.30   1
  -4   0   1 359349. 9008.50   1
  -4   0  -1 376889. 9139.69   1
   4   0   1 395856. 9098.91   1
   0   4  -1 378149. 9100.92   1
   4   0  -1 386597. 9074.25   1
   0   4   1 363464. 8925.12   1
   4   0   1 400704. 9174.11   2
   4  -4   1 385592. 8910.59   2
   0  -4  -1 371862. 8879.47   1
   0  -4   3 530068. 11845.7   1
   4   0   3 497220. 11604.0   1
  -4   4  -3 505656. 11170.9   1
   0  -4   4 209707. 6098.62   1
   0  -4   4 212223. 6183.09   2
   0  -4  -4 191913. 5561.89   1
   4   0   4 210555. 6060.06   1
   4  -4   4 206501. 5693.12   1
  -4   4  -4 189008. 5551.54   1
   0   4   4 193151. 5564.74   1
   4  -4  -4 193141. 4877.32   2
   0   4  -4 184080. 5860.64   1
   4  -4   4 195519. 5914.79   2
   4   0   4 227802. 6161.88   2
  -4   0  -4 204369. 6054.93   1
  -4   0   4 214573. 5911.17   1
   4   0  -4 203877. 5783.47   1
   4  -4   5 34113.5 2031.05   1
  -4   0  -5 34668.3 2171.27   1
   4   0  -5 36440.9 2049.38   1
   0   4  -5 35948.4 2222.41   1
   4   0   5 34259.5 2115.55   1
   4   0   5 35079.4 2147.91   2
  -4   4  -5 32913.7 2015.98   1
   0  -4  -5 35100.6 1944.45   1
   0  -4   5 35632.4 2171.58   2
  -4   0   5 31243.3 1976.78   1
   4  -4   5 29923.9 2023.99   2
   0  -4   5 35261.9 2227.66   1
   0   4   5 36167.9 2033.33   1
   4  -4   6 38435.3 2302.93   1
  -4   4  -6 36829.1 2238.87   1
   4  -4   6 42283.9 2463.78   2
   4   0   6 38546.5 2349.12   2
   4   0   6 39472.0 2405.80   1
   0  -4   6 31779.5 2275.01   1
   0   4   6 42382.5 2270.43   1
   0   4  -6 40948.6 2418.41   1
   4   0  -6 36998.4 2191.01   1
   0  -4   6 40948.2 2422.31   2
  -4   0   6 36525.4 2211.92   1
  -4   0  -6 37059.1 2355.03   1
   0  -4  -6 33860.5 2014.12   1
   4  -4  -7 15448.3 781.784   1
   0   4   7 18354.1 1442.18   1
  -4   4  -7 16373.6 1540.32   1
   4  -4   7 16388.6 1543.55   1
   4   0   7 18159.4 1591.14   1
   4  -4   7 15771.4 1476.78   2
  -4   4   7 15201.0 827.925   1
   0  -4   7 14663.2 1514.89   1
   0  -4  -7 18078.5 1474.31   1
  -4   0   7 15403.8 1451.69   1
   0   4  -7 16783.8 1617.38   1
   4   0   7 16694.5 1557.41   2
   4   0  -7 16567.3 1437.34   1
   0  -4   7 14764.8 1463.03   2
  -4   0  -7 14844.6 1498.05   1
   4  -4   8 5293.91 891.444   2
   0   4  -8 6450.69 1085.62   1
  -4   0  -8 6292.14 997.131   1
  -4   0   8 5238.53 866.823   1
   4   0   8 5463.24 921.928   2
   4   0   8 6608.62 958.904   1
   0  -4   8 5060.76 847.738   2
   0   4   8 6324.21 918.414   1
   0  -4  -8 6450.14 859.093   1
   0  -4   8 5826.93 1024.82   1
   4  -4   8 5208.03 943.730   1
  -4   4  -8 6594.63 1056.98   1
   4   0  -8 4856.35 780.644   1
   4   0   9 76023.7 3757.37   1
   4  -4   9 76513.1 3786.44   1
   0   4  -9 83120.7 3861.05   1
   0   4   9 75303.9 3452.30   1
  -4   0  -9 79837.5 3772.29   1
  -4   0   9 70892.3 3553.64   1
   0  -4   9 78117.9 3702.38   2
   0  -4   9 79680.5 3919.62   1
   4   0  -9 80285.1 3651.58   1
   4  -4   9 77918.3 3756.56   2
   4   0   9 90400.8 3836.32   2
  -4   4  -9 76752.9 3649.65   1
   0  -4  -9 77420.6 3438.99   1
   4  -4  10 397546. 10692.3   1
   4   0  10 384442. 10559.8   1
   0   4  10 394992. 10224.5   1
   4   0 -10 388421. 10223.1   1
   4   0  10 421129. 10663.1   2
   0   4 -10 382180. 10548.8   1
   0  -4  10 405964. 10927.0   1
   0  -4  10 387615. 10423.1   2
  -4   0  10 376981. 10403.7   1
   0  -4 -10 385520. 10044.2   1
  -4   0 -10 406348. 10610.2   1
  -4   4 -10 383885. 10480.8   1
   4  -4  10 384684. 10508.5   2
   4  -4  11 315176. 9088.48   2
  -4   4 -11 302918. 8998.60   1
   0   4  11 308145. 8755.44   1
  -4   0  11 283782. 8774.29   1
  -4   0 -11 300982. 8949.57   1
   0   4 -11 289083. 8908.68   1
   4   0  11 302101. 8987.87   1
   0  -4 -11 308778. 8623.21   1
   4   0  11 304671. 8891.25   2
   4  -4  11 276598. 8910.35   1
   4   0 -11 319680. 8867.97   1
   0   4  11 270049. 8385.16   2
   0  -4  11 306651. 8956.29   2
  -4   0 -12 75934.1 3864.68   1
   4   0  12 76160.1 4066.33   1
   0  -4  12 79398.1 4126.81   1
   0  -4 -12 82625.8 3910.81   1
  -4   0  12 73816.1 3984.62   1
  -4   4 -12 73311.7 3930.90   1
   4  -4  12 72070.1 3891.07   2
   0  -4  12 66597.1 3775.60   2
   4   0 -12 73106.0 3774.93   1
   4   0  12 78206.3 3992.28   2
   0   4  12 73872.3 3716.74   2
   0   4 -12 74632.4 3956.67   1
   4  -4  12 75664.6 4014.68   1
   0   4  12 80904.4 4003.19   1
  -4   4 -13 152033. 5935.78   1
   0   4  13 161034. 6051.76   1
   0   4 -13 131010. 5732.47   1
   0  -4 -13 144284. 5640.69   1
   0  -4  13 151888. 5930.50   2
   0  -4  13 143998. 5999.09   1
   4  -4  13 141140. 5813.08   2
  -4   0 -13 151365. 5789.32   1
   4   0  13 143259. 5782.96   2
   4  -4  13 129341. 5796.98   1
   0   4  13 133411. 5378.10   2
   4   0 -13 148886. 5775.01   1
   4   0  13 143683. 5953.56   1
  -4   0  13 131157. 5777.47   1
   4  -4  14 316539. 9777.27   1
   0   4  14 289196. 9313.70   1
   4   0 -14 332060. 9661.63   1
   0   4 -14 285521. 9339.53   1
  -4   0 -14 314769. 9489.56   1
   4   0  14 286615. 9437.05   1
   0  -4  14 284612. 9369.35   2
   0  -4  14 314615. 9805.35   1
   4  -4  14 302618. 9528.07   2
   4   0  14 313748. 9468.19   2
   0  -4 -14 322871. 9405.23   1
  -4   4 -14 298297. 9430.44   1
   0   4  14 292921. 9032.98   2
  -4   0  14 282074. 9412.87   1
   4   0  15 19660.9 2087.21   2
  -4   0  15 16526.5 2001.88   1
   0   4 -15 17101.3 1952.69   1
   0  -4 -15 19685.4 2003.52   1
   0  -4  15 22412.0 2246.09   2
   4  -4  15 19540.2 2087.94   2
   4   0 -15 20268.0 2103.23   1
   4  -4  15 19878.2 2229.79   1
  -4   0 -15 22331.1 2107.03   1
   4   0  15 22835.4 2292.39   1
   0   4  15 20081.2 2163.55   1
   0  -4  15 21136.6 2250.92   1
  -4   4 -15 19056.4 2051.69   1
  -4   0 -16 8009.55 1328.92   1
   4   0  16 8005.75 1384.17   2
   4  -4  16 7288.90 1394.81   1
   0  -4  16 9299.81 1503.25   1
   0  -4 -16 9883.64 1502.10   1
   4   0  16 9468.02 1565.25   1
   0   4  16 9425.63 1519.76   1
   4   0 -16 7832.81 1394.85   1
   0   4 -16 8815.40 1554.00   1
  -4   0  16 9240.99 1481.00   1
   0  -4  16 7694.75 1396.50   2
   4  -4  16 6817.44 1402.87   2
  -4   4 -16 9137.35 1519.07   1
  -4   0  17 6512.88 1357.22   1
  -4   0 -17 9333.37 1465.40   1
   4  -4  17 6382.77 1197.09   1
   4  -4  17 6759.79 1416.18   2
   0   4  17 6376.25 1279.33   1
   4   0  17 7709.81 1373.62   1
  -4   4 -17 6407.17 1209.54   1
   4   0  17 7563.94 1481.18   2
   4   0 -17 6610.23 1281.33   1
   0   4 -17 7562.50 1250.99   1
   4   0  18 19844.0 2273.69   1
  -4   0 -18 21306.9 2255.82   1
   4  -4  18 18435.8 2139.95   2
   4  -4  18 20493.4 2283.50   1
   0   4 -18 18071.9 2130.65   1
  -4   4 -18 19668.0 2172.08   1
  -4   0  18 17140.4 2110.22   1
   4   0  18 16744.3 2211.88   2
  -4   0 -19 19478.5 2244.05   1
   4   0  19 13293.4 2085.77   2
   4  -4  19 15588.2 2034.78   2
   4   0  19 18852.2 2219.69   1
  -4   4 -19 19368.3 2149.51   1
   0  -4  19 18537.3 2191.62   1
   0   4 -19 14723.3 1962.00   1
   4  -4  19 21037.0 2405.12   1
  -4   4 -20 4459.57 1074.14   1
   0   4 -20 5922.00 1263.79   1
   4  -4  20 4851.11 1086.90   1
   4   0  20 4408.80 1069.07   1
   0  -4  20 4594.18 1208.77   1
   4  -4  20 3734.05 1059.28   2
  -4   0 -20 5362.88 1239.54   1
   2   3  20 5641.52 1327.90   1
  -2  -3 -20 6464.94 1371.38   1
  -3  -2 -20 6570.92 1367.07   1
   3   2  20 8392.75 1624.42   1
   3  -5  19 22231.2 2303.24   1
   2   3  19 18875.2 2278.54   1
   3   2  19 20431.9 2373.10   1
  -3  -2 -19 17176.2 2078.67   1
   3  -5  19 16889.2 2135.99   2
   2  -5  19 19402.0 2281.28   1
  -2   5 -19 21439.5 2332.62   1
  -3   5 -19 19711.4 2190.20   1
  -2  -3 -19 15751.4 2049.10   1
  -3   5 -18 91997.5 4861.21   1
   3   2  18 85517.5 4948.44   1
  -3  -2 -18 88121.0 4804.42   1
   3  -5  18 78741.7 4727.68   2
   3   2  18 75368.3 4708.67   2
   2  -5  18 96188.2 5133.00   1
  -2   5 -18 92946.8 4908.28   1
   2   3  18 93976.5 5103.75   1
  -2  -3 -18 75269.7 4552.32   1
   2  -5  18 80155.9 4758.25   2
   3  -5  18 91411.4 5038.28   1
   3  -5  17 41406.4 3226.81   1
  -3  -2 -17 38005.2 3112.74   1
   3  -5  17 36495.8 3106.49   2
  -2  -3 -17 37046.0 3025.65   1
   3   2  17 38016.5 3188.39   2
   3   2  17 40015.0 3227.57   1
  -2   5 -17 37010.2 2988.03   1
   2  -5  17 35689.9 3057.04   2
   2   3  17 38778.5 3108.59   1
  -3   5 -17 38529.8 3012.78   1
   2  -5  17 41382.7 3272.35   1
   3  -5  16 27321.9 2615.74   1
   2   3  16 23735.4 2453.19   1
   2   3  16 25444.1 2461.23   2
  -3  -2 -16 27670.8 2521.91   1
   3  -5  16 26864.3 2595.07   2
  -2   5 -16 26388.9 2527.11   1
   2  -5  16 27189.3 2634.26   1
   3   2  16 25200.7 2450.39   1
   2  -5  16 31339.5 2709.35   2
   3   2  16 24224.5 2391.24   2
  -2  -3 -16 25629.3 2446.35   1
  -3   5 -16 32112.8 2643.67   1
   3   2  15 15891.6 1953.77   1
   3  -5  15 14973.5 1855.10   2
  -2   5 -15 17952.4 2010.60   1
   3  -5  15 14579.6 1882.18   1
  -3   5 -15 12830.2 1751.94   1
  -2  -3 -15 17763.8 1942.17   1
  -3  -2 -15 13812.5 1766.09   1
   2  -5  15 18459.0 2104.58   2
   2   3  15 17314.2 2019.44   1
   3   2  15 13209.3 1694.66   2
   2  -5  15 14098.3 1807.06   1
   2   3  15 15869.3 1908.04   2
   2  -5  14 127227. 5785.93   1
   3  -5  14 129190. 5810.17   1
   2   3  14 133796. 5608.78   2
  -2  -3 -14 125552. 5475.74   1
  -3   5 -14 127100. 5562.35   1
   2  -5  14 127222. 5691.53   2
   3  -5  14 130705. 5692.77   2
   3   2  14 133466. 5839.77   1
   3   2  14 117048. 5419.99   2
   2   3  14 133862. 5827.35   1
  -3  -2 -14 122082. 5457.56   1
  -2   5 -14 128435. 5607.13   1
   3   2  13 11198.2 1550.86   1
   3  -5  13 12477.0 1658.33   1
  -2   5 -13 9669.74 1419.09   1
   2   3  13 8090.95 1304.69   2
   3   2  13 9320.96 1412.98   2
  -2  -3 -13 11033.3 1493.26   1
  -3   5 -13 9335.65 1403.16   1
   3  -5  13 9111.12 1344.96   2
  -3  -2 -13 9457.63 1366.58   1
   2  -5  13 8816.77 1318.31   2
   2  -5  13 9577.89 1447.55   1
   2   3  13 11247.2 1625.97   1
   5  -2 -12 5494.97 956.159   1
   2  -5  12 7930.58 1328.78   1
   3  -5  12 8012.04 1339.81   1
  -3  -2 -12 9597.17 1308.92   1
   3  -5  12 7661.72 1201.56   2
  -3   5 -12 7009.56 1150.90   1
   3   2  12 7196.51 1197.30   1
   2   3  12 5470.09 1055.65   1
  -2   5 -12 6339.27 1216.27   1
   2  -5  12 6119.63 1237.75   2
   3   2  12 8314.11 1300.04   2
  -2  -3 -12 6436.13 1139.18   1
  -5   2  12 8545.52 1213.78   1
   2   3  12 6755.49 1175.30   2
   2  -5  11 127272. 5452.33   1
   3   2  11 142697. 5393.32   2
   2   3  11 125655. 5219.64   2
   3  -5  11 125729. 5402.40   1
  -3   5 -11 127734. 5322.09   1
   3   2  11 122822. 5215.05   1
  -2  -3 -11 131134. 5268.65   1
  -5   2  11 133504. 5058.40   1
   2   3  11 131398. 5343.00   1
   2  -5  11 139001. 5481.16   2
   3  -5  11 130283. 5363.67   2
  -3  -2 -11 138818. 5381.15   1
   5  -2 -11 138237. 4980.82   1
  -2   5 -11 129578. 5390.90   1
  -3   5 -10 219040. 7123.00   1
   2   3  10 223645. 7088.57   2
   2   3  10 207151. 6869.84   1
  -2   5 -10 200231. 6875.76   1
   3   2  10 202605. 6918.49   1
   2  -5  10 205834. 7157.90   1
  -5   2  10 196980. 6382.74   1
  -3  -2 -10 209586. 6899.67   1
  -2  -3 -10 207288. 6834.61   1
   5  -2 -10 221493. 6555.61   1
   3   2  10 219558. 7000.30   2
   3  -5  10 204257. 6978.85   2
   2  -5  10 214857. 7112.82   2
   3  -5  10 209179. 7188.68   1
   3  -5   9 225065. 7354.43   1
  -2  -3  -9 211862. 6878.98   1
   3   2   9 243393. 7343.54   1
   2   3   9 216852. 7069.55   1
  -5   2   9 224064. 6632.99   1
  -3  -2  -9 214341. 7015.55   1
  -3   5  -9 221802. 7149.07   1
   5  -2  -9 240713. 6677.87   1
  -2   5  -9 229043. 7295.86   1
   5  -3  -9 209375. 6027.46   1
   2  -5   9 226968. 7259.16   2
   2  -5   9 230477. 7379.74   1
  -5   3   9 245828. 6362.24   1
   3  -5   9 227565. 7227.50   2
   2   3   9 253541. 7471.23   2
   3   2   9 210136. 6989.41   2
  -3  -2  -8 53318.3 2988.82   1
   3   2   8 52552.7 2998.72   1
   3  -5   8 54882.0 3101.23   2
   3  -5   8 56707.7 3093.48   1
   2   3   8 63269.6 3275.95   2
  -2  -3  -8 51759.9 2929.42   1
   5  -3  -8 64363.2 2501.40   1
   5  -2  -8 65843.6 2834.34   1
  -5   3   8 53881.7 2405.16   1
  -3   5  -8 55405.4 3016.47   1
   2  -5   8 58155.6 3134.43   2
  -5   2   8 59790.4 2790.78   1
   2  -5   8 56565.0 3138.57   1
   3   2   8 53310.4 3073.50   2
  -2   5  -8 56507.6 3151.83   1
   2   3   8 60530.3 3152.57   1
  -5   2   7 149082. 4748.36   1
   3  -5   7 158454. 5577.33   2
  -5   3   7 159406. 4419.40   1
   3   2   7 134944. 5173.22   1
  -3   5  -7 140855. 5205.84   1
   2  -5   7 143972. 5402.19   2
   5  -2  -7 170268. 4888.90   1
   3  -5   7 140809. 5262.02   1
   5  -3  -7 160524. 4313.69   1
  -2  -3  -7 155098. 5351.53   1
   3   2   7 155089. 5520.06   2
  -3  -2  -7 160683. 5462.46   1
  -2   5  -7 148882. 5367.41   1
   2   3   7 151221. 5369.95   1
   2  -5   7 155119. 5456.21   1
   2  -5   6 753085. 16375.3   1
   2   3   6 704238. 16150.0   1
   3  -5   5 198444. 5926.81   1
  -5   2   5 182610. 5226.91   1
   5  -2  -5 168388. 4147.31   2
  -2  -3  -5 195355. 5911.54   1
   5  -3  -5 188282. 4614.58   1
   3  -5   5 187270. 6105.62   2
  -2   5  -5 193884. 5943.93   1
   3   2   5 201027. 6065.09   1
   2   3   5 201439. 5969.87   1
  -5   3   5 184998. 4673.94   1
   2  -5   5 204826. 6233.08   2
  -3   5  -5 195209. 5822.70   1
  -3  -2  -5 210189. 6184.02   1
   5  -2  -5 188281. 5161.41   1
   3  -5   4 153419. 5115.29   2
  -2  -3  -4 150438. 4985.45   1
   2   3   4 144895. 4902.15   1
   5  -3  -4 147932. 3741.94   1
  -5   3   4 146321. 3836.06   1
   5  -2  -4 160112. 4372.66   1
   3  -5   4 132380. 4651.36   1
   3   2   4 158971. 5095.49   1
   2  -5   4 147629. 5113.19   2
   2  -5   4 147007. 4888.69   1
  -2   5  -4 151885. 4913.61   1
  -5   2   4 149729. 4374.53   1
  -3  -2  -4 142859. 4945.78   1
   5  -3  -4 141208. 3582.37   2
  -3   5  -4 141841. 4701.91   1
   5  -2  -4 153517. 3764.54   2
  -5   3   3 80870.5 2642.02   1
   2   3   3 87030.0 3529.92   1
   3  -5   3 91566.7 3721.18   2
   2  -5   3 86715.9 3438.95   1
  -2  -3  -3 97514.0 3743.15   1
   5  -2  -3 97674.5 2911.62   2
   5  -3  -3 94411.6 2691.95   1
   3   2   3 87146.6 3556.14   1
   5  -2  -3 99522.4 3188.61   1
  -5   2   3 101457. 3263.74   1
   3  -5   3 93433.8 3402.46   1
   2  -5   3 97634.6 3831.27   2
  -3  -2  -3 92367.9 3691.38   1
   5  -3  -3 94994.8 2775.13   2
  -3   5  -3 87220.4 3355.77   1
  -2   5  -3 93343.8 3527.64   1
   3  -5   2 324939. 7774.17   1
  -5   2   2 282680. 7493.85   1
  -2  -3  -2 336539. 8400.37   1
   5  -2  -2 349930. 7641.69   1
   3   2   2 322653. 8276.46   1
   2  -5   2 336552. 8480.07   2
   2   3   2 310142. 8269.37   1
   2  -5   2 306843. 7869.56   1
  -3  -2  -2 323479. 8365.23   1
   3  -5   2 342412. 8404.22   2
  -3   5  -2 308914. 7686.26   1
  -5   3   2 328455. 7116.60   1
  -2   5  -2 326058. 8015.98   1
  -5   2   1 22044.6 1425.90   1
   3  -5   1 23284.6 1403.13   1
   5  -3  -1 25184.4 1296.88   1
  -3   5  -1 22478.2 1386.29   1
   2  -5   1 25933.9 1770.52   2
   5  -2  -1 24312.2 1457.06   1
  -2  -3  -1 23616.2 1724.39   1
   2  -5   1 23995.2 1498.40   1
   3   2   1 26723.4 1795.79   1
  -2   5  -1 24096.9 1554.39   1
   3  -5   1 25596.4 1736.75   2
  -5   3   1 25531.8 1362.13   1
   5  -3  -1 27275.1 1466.25   2
   5  -2  -1 26672.1 1497.29   2
  -3  -2  -1 21284.3 1596.54   1
   2   3   1 23447.0 1739.35   1
   2  -5   0 49361.0 2093.18   1
   2  -5   0 42854.8 2359.18   2
   5  -2   0 48579.0 2176.90   2
   5  -2   0 45561.5 2085.35   1
   3  -5   0 44633.4 2291.79   2
  -3  -2   0 44194.8 2344.62   1
   5  -3   0 44802.8 1907.77   1
   5  -3   0 42964.4 2053.17   2
   3  -5   0 43111.8 1824.30   1
   3   2   0 46067.9 2400.70   1
  -2  -3   0 48720.4 2437.88   1
   2   3   0 45781.8 2417.76   1
  -5   3   0 48364.1 1999.21   1
  -2   5   0 45102.4 2062.08   1
  -3   5   0 40853.2 1824.02   1
  -5   2   0 40039.3 2020.90   1
  -2   5   1 152997. 4306.49   1
   5  -3   1 153079. 4280.88   1
   5  -2   1 142712. 4452.48   1
  -5   3  -1 136150. 4217.67   1
   5  -2   1 140101. 4478.17   2
   3  -5  -1 148397. 3796.44   1
  -3  -2   1 142200. 4849.99   1
  -3   5   1 155655. 3956.59   1
  -2  -3   1 165322. 5062.92   1
   3   2  -1 154651. 4964.13   1
   2   3  -1 158806. 5039.78   1
   2  -5  -1 153698. 4242.44   1
   2  -5  -1 157792. 5012.01   2
   3  -5  -1 160895. 4829.33   2
  -5   2  -1 135855. 4447.32   1
   5  -3   1 154415. 4596.25   2
   2   3  -2 600719. 13832.9   1
  -2  -3   2 612686. 13750.8   1
  -3  -2   2 617574. 13758.6   1
  -2  -3   3 368551. 9095.12   1
  -2   5   3 371174. 7959.06   1
   5  -3   3 344226. 8657.14   2
   5  -3   3 338698. 8395.20   1
   5  -2   3 374993. 8755.85   1
  -5   3  -3 349831. 8543.61   1
  -5   2  -3 320179. 8502.45   1
   3   2  -3 324775. 8829.17   1
   2   3  -3 336458. 8952.90   1
  -3  -2   3 332223. 8840.44   1
   5  -2   3 373682. 8800.13   2
   3  -5  -4 60768.9 1752.27   1
   5  -3   4 54486.4 2631.74   1
   5  -2   4 61262.7 2773.93   1
  -5   3  -4 60674.9 2767.63   1
   3   2  -4 56106.3 2789.02   1
  -3   5   4 52493.1 1728.16   1
   2  -5  -4 70519.8 2397.52   1
  -2   5   4 56924.3 2237.75   1
   2   3  -4 64909.5 3087.19   1
  -3  -2   4 53727.2 2810.83   1
  -5   2  -4 59430.7 2800.01   1
  -2  -3   4 63661.9 3057.92   1
   5  -3   4 59690.1 2765.85   2
   5  -2   4 63593.4 2896.00   2
  -5   3  -5 373720. 9561.36   1
  -3  -2   5 385077. 9861.15   1
  -5   2  -5 384733. 9719.39   1
   5  -2   5 386877. 9657.08   1
   5  -3   5 404695. 9911.65   2
  -2   5   5 398349. 8694.87   1
   2   3  -5 377568. 9994.15   1
  -2  -3   5 381314. 9941.54   1
   5  -3   5 376872. 9594.42   1
   5  -2   5 411799. 9891.67   2
   3   2  -5 377775. 9785.60   1
   5  -3   6 711728. 15637.6   2
  -2  -3   6 649484. 15596.8   1
  -3  -2   6 672320. 15567.8   1
  -5   3  -6 711145. 15599.1   1
   3   2  -6 673166. 15584.8   1
   5  -2   6 732757. 15656.4   2
   5  -2   7 195271. 6466.82   1
   3  -5  -7 211850. 5046.35   1
  -2   5   7 210642. 5662.31   1
   2  -5  -7 226919. 5743.40   1
  -3  -2   7 199568. 6636.34   1
  -5   2  -7 201496. 6627.91   1
   5  -3   7 227690. 6825.24   2
  -3   5   7 233338. 5289.71   1
   2   3  -7 209532. 6769.13   1
   5  -3   7 209130. 6632.35   1
  -2  -3   7 192685. 6640.49   1
  -5   3  -7 198440. 6469.48   1
   5  -2   7 218048. 6701.10   2
   3   2  -7 213905. 6710.06   1
   5  -3   8 57052.1 3113.54   1
  -2  -3   8 59772.5 3060.24   2
   5  -2   8 55265.2 3101.88   1
  -2   5   8 53803.1 2507.84   1
   5  -2   8 63337.0 3203.80   2
  -5   2  -8 59640.9 3103.72   1
   2  -5  -8 50686.3 2419.40   1
  -3  -2   8 50377.6 2975.13   1
  -5   3  -8 57093.8 3101.56   1
   5  -3   8 58801.1 3166.10   2
   2   3  -8 60340.6 3219.74   1
  -2  -3   8 55283.1 3184.07   1
   3   2  -8 61913.1 3215.57   1
  -3   5   8 58190.2 2270.58   1
  -3  -2   9 16743.4 1747.91   1
   5  -2   9 17660.4 1668.49   2
   5  -2   9 16842.6 1738.94   1
  -2   5   9 17863.9 1449.86   1
  -5   3  -9 15704.8 1656.93   1
  -5   2  -9 17103.6 1684.82   1
  -2  -3   9 17645.7 1746.14   1
  -2  -3   9 16682.0 1695.75   2
   5  -3   9 15759.3 1674.79   1
   2   3  -9 17186.3 1743.63   1
   3   2  -9 19035.9 1780.91   1
   5  -3   9 19489.3 1789.83   2
   2  -5  -9 15842.5 1334.59   1
   5  -3  10 221606. 7213.29   1
  -2   5  10 233619. 6561.11   1
   5  -2  10 198312. 6988.60   1
   2  -5 -10 206451. 6199.61   1
   5  -3  10 207090. 7065.87   2
  -5   2 -10 217440. 7078.15   1
  -3  -2  10 213386. 7238.62   1
  -2  -3  10 220104. 7042.66   2
   3   2 -10 204514. 6964.41   1
   5  -2  10 211763. 7053.51   2
   2   3 -10 220722. 7182.44   1
  -5   3 -10 209043. 7055.24   1
  -2  -3  10 196147. 7053.63   1
  -2  -3  11 15445.0 1800.42   1
   5  -3  11 14717.2 1696.14   1
   5  -2  11 17463.2 1872.48   1
  -2  -3  11 19716.3 1867.84   2
  -5   3 -11 18013.8 1831.65   1
  -5   2 -11 17113.5 1775.69   1
   5  -3  11 17593.0 1826.18   2
   2   3 -11 19105.5 1862.15   1
   3   2 -11 17726.3 1849.02   1
   5  -2  11 17810.7 1804.11   2
  -3  -2  11 18616.9 1867.41   1
  -2   5  11 18363.8 1596.00   1
   5  -3  12 42407.9 2958.62   1
   5  -2  12 40201.3 2863.82   1
  -2  -3  12 38862.0 3012.13   1
  -5   3 -12 40608.3 2843.85   1
   5  -2  12 45352.2 3021.68   2
  -3  -2  12 42499.5 3014.55   1
  -2  -3  12 43732.2 2883.64   2
   5  -3  12 40647.6 2858.81   2
   3   2 -12 46654.6 3035.61   1
   2   3 -12 47152.9 3021.80   1
  -5   2 -12 43588.1 2925.53   1
   5  -3  13 82122.1 4428.51   1
   2   3 -13 88961.3 4513.66   1
  -5   3 -13 88002.8 4369.13   1
  -2  -3  13 85316.2 4539.41   1
  -5   2 -13 88018.2 4448.77   1
  -2  -3  13 86028.3 4343.80   2
   5  -2  13 92570.7 4637.91   1
  -3  -2  13 92322.8 4672.53   1
   5  -3  13 89340.3 4450.96   2
   5  -2  13 94291.5 4525.05   2
   3   2 -13 81868.9 4290.75   1
   5  -3  14 114077. 5318.68   1
   5  -2  14 117986. 5413.82   1
  -5   3 -14 120116. 5338.46   1
  -5   2 -14 123219. 5324.19   1
   2   3 -14 108009. 5178.17   1
   3   2 -14 114239. 5283.74   1
   5  -2  14 116351. 5301.48   2
   5  -3  14 119926. 5411.90   2
  -2  -3  14 112610. 5400.85   1
  -3  -2  14 115767. 5481.06   1
   5  -2  15 63830.2 3870.02   1
  -2  -3  15 50339.1 3556.27   1
  -5   3 -15 53970.6 3506.48   1
  -5   2 -15 57833.3 3596.47   1
   3   2 -15 58650.1 3711.75   1
   5  -2  15 51117.3 3471.12   2
   5  -3  15 49771.1 3453.01   2
  -3  -2  15 48062.3 3475.12   1
   2   3 -15 57485.3 3643.40   1
   5  -3  15 54635.6 3606.68   1
   2   3 -16 7574.31 1428.79   1
   5  -2  16 5726.68 1241.70   2
   5  -3  16 6972.93 1351.29   1
   5  -2  16 6472.66 1279.85   1
  -5   2 -16 7965.19 1400.57   1
  -5   3 -16 6133.41 1176.87   1
  -3  -2  16 6892.43 1266.19   1
  -2  -3  16 6186.20 1317.66   1
   5  -3  16 6468.77 1242.35   2
   3   2 -16 7720.57 1389.42   1
   5  -2  17 24610.5 2500.63   2
   5  -3  17 26359.6 2524.45   1
   5  -2  17 24071.9 2438.19   1
  -5   3 -17 23240.7 2343.28   1
  -5   2 -17 24669.1 2391.20   1
   5  -3  17 26892.3 2503.81   2
  -2  -3  17 22361.8 2408.09   1
   2   3 -17 24539.3 2417.21   1
  -3  -2  17 23008.2 2417.70   1
   3   2 -17 21548.8 2329.59   1
   5  -2  18 108887. 5452.24   1
   5  -3  18 93123.3 5097.11   2
  -2  -3  18 97610.5 5403.32   1
   2   3 -18 101915. 5290.77   1
  -5   2 -18 116266. 5430.45   1
  -3  -2  18 102622. 5571.91   1
   3   2 -18 94851.6 5192.99   1
   5  -2  18 102897. 5333.09   2
   5  -3  18 111682. 5582.28   1
  -5   3 -18 110738. 5401.33   1
   5  -3  19 27386.5 2704.80   1
   5  -2  19 24843.6 2635.49   1
  -5   3 -19 28238.2 2673.99   1
  -2  -3  19 24462.5 2633.61   1
   5  -3  19 25000.3 2609.50   2
   5  -2  19 22546.4 2452.82   2
  -5   2 -19 29766.2 2743.23   1
   3   2 -19 23305.5 2480.68   1
   2   3 -19 26436.5 2665.74   1
  -3  -2  19 22247.8 2541.23   1
   3   2 -20 8083.11 1563.58   1
   2   3 -20 7237.51 1421.26   1
   5  -3  20 6873.85 1396.30   2
  -3  -2  20 6674.41 1419.28   1
  -2  -3  20 9529.28 1688.60   1
   5  -2  20 7941.34 1528.74   2
   4  -5  20 77940.7 4848.57   2
  -1   5 -19 2131.36 792.778   1
   4   1  19 1111.54 541.500   1
  -4   5 -19 907.229 534.276   1
   4  -5  19 1555.63 845.861   2
   4   1  19 949.487 715.124   2
  -4  -1 -19 2787.32 855.683   1
   4  -5  19 1764.47 850.451   1
  -4   5 -18 878.715 523.015   1
   4  -5  18 1342.77 620.375   1
  -4  -1 -18 1140.10 725.534   1
   1   4  18 766.171 637.298   1
  -1   5 -18 1527.12 831.056   1
   4  -5  18 824.031 647.391   2
   4   1  18 849.690 606.003   1
   4   1  18 7.97424 419.417   2
   4  -5  17 2484.44 904.338   2
   1   4  17 1319.78 840.136   1
   4   1  17 1525.19 792.528   1
   4  -5  17 1018.97 625.294   1
   1  -5  17 41.6727 502.515   1
   1  -5  17 1547.52 645.382   2
  -1   5 -17 1808.15 711.049   1
  -1  -4 -17 1919.24 812.561   1
  -4   5 -17 1726.44 857.623   1
   4   1  17 218.608 498.692   2
  -4  -1 -17 1233.56 708.790   1
  -4   5 -16 62974.6 4012.75   1
   4  -5  16 67363.3 4174.70   1
   1  -5  16 65039.7 4147.91   2
   1   4  16 66556.8 4194.50   1
  -1  -4 -16 57942.1 3793.53   1
   4  -5  16 62148.7 3922.86   2
   1  -5  16 70292.1 4307.54   1
   4   1  16 70242.3 4162.82   1
   4   1  16 59893.7 3939.56   2
  -4  -1 -16 61297.5 3847.21   1
  -1   5 -16 68614.3 4111.73   1
   4  -5  15-828.194 727.605   1
   4   1  15 295.609 440.137   1
  -4   5 -15 243.820 543.387   1
  -1   5 -15-102.964 487.998   1
   4  -5  15 58.1081 428.397   2
   1  -5  15 155.591 455.811   1
  -4  -1 -15 705.917 538.976   1
   1  -5  15-310.313 423.574   2
  -1  -4 -15-262.397 616.509   1
   1   4  15 652.380 506.103   1
   4   1  15 661.706 535.070   2
   1   4  15 176.981 400.811   2
   5  -1 -14-473.448 490.942   1
   1  -5  14 523.114 558.040   2
   4  -5  14 2508.31 1007.22   1
  -1   5 -14 1426.16 785.301   1
   1   4  14 309.167 523.437   1
  -4   5 -14 335.167 457.010   1
   1  -5  14 34.9918 635.064   1
   4   1  14 273.804 434.401   2
  -1  -4 -14 245.426 322.447   1
   4  -5  14-109.323 440.916   2
  -4  -1 -14 452.878 506.205   1
  -5   1  14 1314.45 683.157   1
   4   1  14 318.293 580.036   1
   1   4  14 67.6471 295.690   2
   5  -1 -13-341.690 499.849   1
   1  -5  13 1165.85 495.079   1
   4  -5  13 894.356 710.694   1
   1  -5  13 54.0725 390.369   2
   4   1  13 339.624 433.589   1
   1   4  13 442.091 459.729   1
  -4   5 -13-275.447 498.727   1
   4  -5  13 904.540 491.740   2
   4   1  13 459.953 480.134   2
  -1  -4 -13 608.403 504.029   1
  -4  -1 -13 563.402 571.127   1
  -5   1  13-366.018 536.920   1
  -1   5 -13 245.283 497.910   1
   1   4  13 574.893 526.626   2
   1   4  12 894822. 20474.3   1
  -4   5 -12 889863. 20522.6   1
   4   1  12 911846. 20672.5   1
   4   1  12 927263. 20514.6   2
   4  -5  12 903135. 20926.9   1
   1   4  12 892658. 20297.6   2
  -1   5 -12 876901. 20562.6   1
  -4  -1 -12 907065. 20638.5   1
  -1  -4 -12 862699. 20183.8   1
   5  -1 -12 932012. 20278.2   1
   1  -5  12 846751. 20686.9   1
   1  -5  12 865980. 20552.0   2
   4  -5  12 878380. 20501.1   2
   1  -5  11 3955.21 938.790   1
   4  -5  11 5937.35 988.662   2
   4  -5  11 4177.52 974.146   1
  -5   1  11 4017.39 816.096   1
   4   1  11 3907.70 900.366   1
  -4   5 -11 3481.23 833.320   1
   1   4  11 4488.84 929.594   1
   5  -1 -11 3999.50 850.286   1
  -4  -1 -11 3284.49 775.978   1
   1  -5  11 3210.20 825.456   2
  -1   5 -11 3333.34 887.191   1
   4   1  11 3881.70 897.186   2
  -1  -4 -11 3660.69 826.234   1
   1   4  11 4038.04 973.826   2
  -1  -4 -10 4004.88 737.369   1
   4   1  10 3076.05 773.261   1
  -1   5 -10 3053.24 821.654   1
   4  -5  10 2575.71 818.732   1
  -4   5 -10 1749.31 695.229   1
   5  -1 -10 4216.61 848.510   1
   1   4  10 2549.16 580.914   1
   4  -5  10 3737.24 918.751   2
  -5   1  10 3135.96 750.055   1
   4   1  10 3146.59 845.416   2
   1  -5  10 2988.10 788.730   2
  -4  -1 -10 4974.40 999.677   1
   1   4  10 1918.72 617.785   2
  -1  -4  -9 4359.22 834.848   1
  -1   5  -9 5776.31 1083.88   1
   4  -5   9 3909.14 924.876   1
   1   4   9 4651.02 920.566   1
  -5   1   9 5367.08 883.286   1
  -4  -1  -9 4799.24 854.163   1
  -4   5  -9 5037.98 968.916   1
   4   1   9 5339.85 1024.64   1
   4  -5   9 7640.51 1136.56   2
   4   1   9 5286.12 912.014   2
   5  -1  -9 5001.88 895.444   1
   1  -5   9 4439.80 881.575   1
   1  -5   9 5356.67 1035.21   2
   4  -5   8 210647. 6787.29   1
   4   1   8 188924. 6552.26   1
  -5   1   8 199179. 6307.30   1
  -1  -4  -8 192522. 6313.26   1
   1   4   8 203035. 6516.17   1
  -4  -1  -8 213764. 6704.95   1
   1  -5   8 210037. 6764.11   2
   4   1   8 218261. 6789.62   2
   5  -1  -8 211965. 6355.33   1
   1  -5   8 195790. 6783.36   1
  -1   5  -8 200239. 6657.30   1
   4  -5   8 208619. 6822.50   2
  -4   5  -8 197417. 6587.93   1
  -5   1   7 11147.0 1213.65   1
  -1   5  -7 10918.3 1368.29   1
   4   1   7 11087.0 1332.44   1
  -1  -4  -7 11543.5 1299.96   1
   1   4   7 10936.2 1286.31   1
  -4   5  -7 10612.0 1246.56   1
   1  -5   7 12627.9 1472.14   1
   5  -1  -7 10789.4 1174.90   1
  -4  -1  -7 13198.7 1423.89   1
   1  -5   7 11235.0 1350.09   2
   4  -5   7 11952.9 1429.42   2
   4  -5   7 11294.7 1317.62   1
   4   1   7 11434.9 1267.59   2
   1  -5   6 9700.36 1255.58   1
   4   1   6 10805.2 1284.11   2
  -4  -1  -6 10959.9 1180.37   1
  -1  -4  -6 9181.20 1137.15   1
   1  -5   6 9785.84 1243.66   2
  -5   1   6 9204.50 1044.01   1
   4   1   6 8862.06 1097.95   1
   4  -5   6 10161.9 1291.49   2
   5  -1  -6 4768.75 566.816   2
   1   4   6 9270.49 1136.30   1
  -4   5  -6 9064.40 1106.32   1
   4  -5   6 9987.01 1195.26   1
  -1   5  -6 7685.40 1099.92   1
   5  -1  -6 9549.08 1038.00   1
   1  -5   5 32084.6 2231.65   2
  -4   5  -5 31816.6 2050.56   1
   1  -5   5 34695.5 2307.33   1
   4   1   5 40325.6 2437.45   2
   4  -5   5 33775.2 2246.15   2
   5  -1  -5 36092.8 2047.25   1
  -4  -1  -5 32923.3 2225.59   1
   5  -4  -5 30014.5 1279.72   2
   4   1   5 34574.1 2227.26   1
  -1   5  -5 33331.8 2199.84   1
  -1  -4  -5 36358.3 2157.56   1
   4  -5   5 37088.3 2192.64   1
  -5   1   5 33345.2 2022.88   1
   1   4   5 30260.1 1994.12   1
   5  -1  -5 29776.3 1487.94   2
  -4   5  -4 428413. 10209.4   1
  -1  -4  -4 401902. 10312.5   1
   1  -5   4 477319. 11093.0   2
   4   1   4 460220. 10831.8   1
   1   4   4 451901. 10556.2   1
  -5   1   4 438386. 10281.3   1
   4  -5   4 452743. 10845.2   2
   4  -5   4 450490. 10342.7   1
   5  -1  -4 409612. 9426.09   2
  -1   5  -4 390241. 10473.8   1
   1  -5   4 444701. 10779.9   1
  -4  -1  -4 436006. 10737.3   1
  -1   5  -3 5626.05 854.644   1
  -4   5  -3 7585.66 854.880   1
   4  -5   3 5753.64 763.174   1
   4  -5   3 6480.60 860.842   2
   4   1   3 6718.73 980.140   1
  -4  -1  -3 7573.06 1061.59   1
  -5   1   3 4626.92 736.692   1
   1   4   3 5938.51 851.852   1
   1  -5   3 6232.97 925.979   2
   5  -4  -3 5741.94 618.885   2
   5  -1  -3 5696.76 790.369   1
   1  -5   3 6499.95 852.636   1
   5  -1  -3 5427.71 668.781   2
  -1  -4  -3 7062.99 939.019   1
   4  -5   2 79279.7 2828.95   1
  -4  -1  -2 71947.9 3217.31   1
   5  -4  -2 66722.3 1867.86   1
   4   1   2 68655.9 3120.28   1
  -5   1   2 66579.0 2907.55   1
   1  -5   2 84572.5 3288.45   1
  -1  -4  -2 66739.1 3002.64   1
  -1   5  -2 71592.8 3073.02   1
   5  -1  -2 80271.3 3080.87   1
   4  -5   2 73542.2 3129.02   2
   1   4   2 71695.4 3148.48   1
   5  -1  -2 74293.6 2767.17   2
   5  -4  -2 77476.8 2676.84   2
  -5   4   2 66861.1 1904.56   1
   1  -5   2 81983.5 3502.02   2
  -4   5  -2 71611.5 2709.18   1
   1  -5   1 2635.82 580.419   1
   4  -5   1 1052.01 306.785   1
  -4   5  -1 1960.15 403.833   1
   5  -1  -1 1153.99 325.723   1
   5  -4  -1 1169.33 251.093   1
  -1   5  -1 1475.07 407.138   1
  -1  -4  -1 2184.01 564.707   1
   4   1   1 1300.53 438.354   1
   1  -5   1 2209.37 557.698   2
  -5   4   1 1329.88 263.830   1
   5  -1  -1 2431.30 508.418   2
   5  -4  -1 1355.01 416.771   2
   1   4   1 1882.91 636.679   1
   4  -5   1 1704.93 534.487   2
  -4  -1  -1 1625.77 579.743   1
  -5   1   1 1419.16 444.788   1
  -1  -4   1 18722.3 1479.16   1
   5  -4   1 18409.1 1154.98   1
   1  -5  -1 17436.1 1306.05   1
   5  -1   1 17222.9 1384.37   1
  -4   5   1 17627.2 874.132   1
   4  -5  -1 19081.4 860.018   1
  -1   5   1 14606.8 1269.83   1
   1   4  -1 17205.4 1493.92   1
   4   1  -1 17782.0 1485.76   1
   5  -1   1 16175.5 1389.11   2
   5  -4   1 17824.4 1350.01   2
   4  -5  -1 16371.1 1366.96   2
  -5   4  -1 18805.1 1189.99   1
  -5   1  -1 17716.3 1466.39   1
  -4  -1   1 18337.1 1526.99   1
   1  -5  -2 74005.6 2953.38   1
   5  -4   2 81688.2 2907.72   1
   5  -4   2 80655.4 3255.07   2
   5  -1   2 79390.7 3231.05   1
  -1   5   2 88655.2 3238.63   1
  -5   1  -2 85259.8 3379.73   1
  -5   4  -2 71370.5 2805.42   1
   1   4  -2 80140.3 3454.36   1
  -4  -1   2 74892.0 3300.31   1
  -1  -4   2 76947.0 3376.88   1
   4  -5  -2 85378.3 3110.49   2
   4   1  -2 83760.6 3385.21   1
   5  -1   2 73531.9 3154.95   2
   5  -4   3 7352.88 953.657   2
   1  -5  -3 8821.44 933.657   1
   5  -4   3 6295.11 772.323   1
   4  -5  -3 8213.46 857.298   2
  -5   4  -3 6620.02 803.039   1
   1   4  -3 7596.96 975.847   1
  -1  -4   3 7479.45 1067.97   1
   5  -1   3 7553.09 975.980   1
   4   1  -3 7658.93 982.909   1
  -5   1  -3 8973.72 1032.85   1
  -1   5   3 7920.70 911.136   1
   5  -1   3 6893.22 914.689   2
  -4  -1   3 7579.79 961.398   1
   5  -4   4 488921. 11161.5   1
  -1  -4   4 504245. 11836.6   1
  -5   4  -4 485195. 11158.2   1
   1   4  -4 498879. 11804.0   1
  -4  -1   4 462179. 11432.6   1
   4   1  -4 460137. 11427.3   1
  -5   1  -4 476282. 11495.2   1
  -5   1  -5 3741.01 805.203   1
   4   1  -5 5077.56 897.727   1
  -5   4  -5 5616.78 783.428   1
   5  -4   5 4263.60 706.142   1
   5  -1   5 3528.18 647.029   1
   1  -5  -5 4383.47 662.437   1
  -1   5   5 4300.28 691.265   1
  -1  -4   5 4503.07 857.307   2
  -1  -4   5 3518.71 791.842   1
  -4  -1   5 3520.99 741.137   1
   5  -4   5 4173.63 829.981   2
   5  -1   5 4804.65 772.028   2
   1   4  -5 4858.93 901.512   1
  -4  -1   6 48055.3 2731.63   1
   5  -1   6 50936.6 2771.07   1
  -5   4  -6 50375.7 2704.11   1
   5  -4   6 50044.9 2797.55   2
  -1   5   6 50749.7 2515.91   1
  -5   1  -6 53161.7 2821.47   1
  -1  -4   6 55544.9 3046.88   1
   1  -5  -6 48180.6 2427.58   1
   1   4  -6 50560.3 2849.88   1
   5  -1   6 49520.5 2693.26   2
   5  -4   6 50223.3 2694.40   1
   4   1  -6 47345.7 2661.40   1
  -1  -4   6 45770.1 2736.15   2
  -1  -4   7 36789.6 2457.77   2
  -4  -1   7 33719.5 2323.61   1
   5  -1   7 30241.9 2155.48   1
  -5   4  -7 31414.3 2177.11   1
   5  -4   7 36443.3 2379.52   2
  -1  -4   7 31746.9 2326.03   1
   4   1  -7 37083.6 2389.42   1
  -1   5   7 35131.2 2083.50   1
  -5   1  -7 32837.9 2263.39   1
   1   4  -7 33335.2 2357.53   1
   5  -4   7 32191.0 2262.76   1
   5  -1   7 35670.0 2357.04   2
   1  -5  -7 30002.2 1903.81   1
  -1  -4   8 239197. 7698.83   1
   5  -1   8 228083. 7402.99   1
  -1  -4   8 266309. 7752.46   2
  -5   4  -8 250732. 7508.86   1
  -4  -1   8 238595. 7497.11   1
   1  -5  -8 235922. 6769.13   1
  -5   1  -8 249761. 7639.77   1
   4   1  -8 229773. 7296.34   1
   5  -4   8 234621. 7394.38   1
   5  -4   8 257660. 7658.24   2
   5  -1   8 257020. 7616.49   2
   1   4  -8 251795. 7665.82   1
  -1   5   8 255029. 7005.28   1
   1   4  -9 655.607 689.456   1
  -5   1  -9-33.2307 378.157   1
   5  -4   9 1148.05 457.417   1
  -1   5   9 960.961 488.913   1
   5  -1   9 169.299 454.959   1
  -5   4  -9 707.708 477.260   1
  -1  -4   9 71.1347 354.414   2
  -1  -4   9 137.504 489.234   1
  -4  -1   9 1185.07 589.838   1
   1  -5  -9 1176.98 416.076   1
   5  -4   9 1479.17 710.345   2
   4   1  -9 1140.56 624.625   1
   5  -1   9 782.174 477.799   2
   5  -1  10 11161.3 1428.27   2
   1   4 -10 11943.6 1458.97   1
   5  -4  10 14594.0 1598.65   1
  -1  -4  10 12677.0 1594.78   1
   5  -1  10 12189.4 1422.58   1
   1  -5 -10 13647.8 1424.15   1
  -4  -1  10 13691.8 1639.30   1
  -1  -4  10 13187.8 1485.36   2
  -5   4 -10 10723.1 1412.36   1
  -1   5  10 12924.1 1385.61   1
   5  -4  10 11557.4 1415.15   2
  -5   1 -10 12791.0 1507.60   1
   4   1 -10 10275.0 1339.17   1
   4   1 -11 5485.80 1016.73   1
   5  -4  11 5915.26 1159.07   1
   1  -5 -11 4658.25 891.331   1
  -1   5  11 6342.16 1058.27   1
  -5   4 -11 5128.01 1039.58   1
   1   4 -11 5544.55 1063.85   1
  -1  -4  11 5756.14 1116.57   1
  -1  -4  11 5459.15 988.080   2
   5  -1  11 6712.19 1220.25   1
  -4  -1  11 5335.08 1015.92   1
  -5   1 -11 6310.70 1063.26   1
   5  -1  11 6515.06 1115.29   2
   5  -4  11 6999.53 1141.93   2
  -1   5  11 4755.92 904.096   2
   5  -4  12 690719. 16895.6   1
  -4  -1  12 712202. 17068.5   1
   5  -1  12 700562. 17064.9   1
  -5   4 -12 649126. 16688.4   1
   5  -4  12 695929. 16837.1   2
   5  -1  12 735668. 16936.3   2
  -1  -4  12 701872. 16719.0   2
  -1  -4  12 703765. 17275.5   1
   1  -5 -12 755119. 16419.6   1
  -1   5  12 626455. 16164.6   1
   1   4 -12 694485. 16826.9   1
   4   1 -12 680860. 16587.1   1
  -5   1 -12 672566. 16606.1   1
   1   4 -13 481.978 469.445   1
   5  -4  13 1051.08 625.732   2
  -5   4 -13 282.193 388.571   1
   5  -4  13 125.484 378.636   1
  -1  -4  13 234.087 391.027   1
  -1   5  13 671.605 414.992   1
   5  -1  13 29.4844 409.704   1
  -1  -4  13 8.40754 378.978   2
   4   1 -13 895.117 552.885   1
  -5   1 -13 1468.33 591.684   1
   5  -1  13 274.983 447.464   2
  -4  -1  13 489.864 397.457   1
   5  -1  14 19922.5 2056.44   2
   1   4 -14 19856.8 2096.92   1
   5  -4  14 18922.0 2113.79   1
  -4  -1  14 20830.7 2171.76   1
  -1  -4  14 19204.0 1979.55   2
   5  -1  14 19830.7 2148.41   1
  -1  -4  14 19987.7 2130.52   1
   4   1 -14 18272.1 1989.73   1
  -5   1 -14 20771.8 2161.95   1
  -5   4 -14 20830.6 2080.70   1
   5  -4  14 19101.9 1960.08   2
   1   4 -15 652.516 435.708   1
   5  -4  15 1196.56 737.273   1
  -4  -1  15-144.058 527.247   1
   5  -1  15 588.298 561.573   1
  -1  -4  15 374.275 537.904   1
  -5   4 -15 670.365 498.473   1
   4   1 -15 94.6507 470.239   1
   5  -1  15 434.641 380.486   2
  -5   1 -15 952.200 602.507   1
   5  -4  15 603.234 510.725   2
   5  -4  16 141804. 6392.05   1
   5  -4  16 140161. 6242.37   2
  -5   4 -16 146008. 6259.67   1
  -1  -4  16 146372. 6459.45   1
   1   4 -16 141985. 6200.70   1
  -5   1 -16 149902. 6285.33   1
   4   1 -16 146638. 6315.70   1
  -4  -1  16 130690. 6207.88   1
   5  -1  16 147407. 6370.14   1
   5  -1  16 141532. 6191.00   2
   1   4 -17 1108.57 463.480   1
  -1  -4  17 1037.31 691.108   1
   4   1 -17 886.264 639.534   1
  -5   4 -17-297.184 416.282   1
   5  -1  17 711.561 491.641   1
  -4  -1  17 644.265 549.914   1
  -5   1 -17 704.371 458.701   1
   5  -4  17 1433.14 769.809   1
   5  -4  17 287.605 422.741   2
   5  -1  17-536.125 709.448   2
   4   1 -18 5839.64 1262.83   1
   1   4 -18 6653.88 1228.39   1
   5  -4  18 7114.64 1395.51   1
  -4  -1  18 5310.22 1262.30   1
  -1  -4  18 5868.74 1252.35   1
   5  -1  18 5724.17 1306.99   1
  -5   4 -18 5753.02 1176.74   1
  -5   1 -18 5698.80 1162.77   1
   5  -4  18 6399.41 1338.29   2
   5  -1  18 5401.08 1330.38   2
   4   1 -19 1569.86 635.217   1
  -1  -4  19 3338.69 1007.05   1
   1   4 -19 1221.95 530.297   1
  -4  -1  19 2047.08 870.502   1
   5  -1  19 1722.37 479.635   1
  -5   4 -19 2781.40 843.494   1
   5  -4  19 2317.84 851.474   1
   5  -4  19 1608.53 807.847   2
  -5   1 -19 2068.09 898.945   1
   5  -1  19 2029.49 868.895   2
   5  -1  20 30236.8 3103.12   2
   5  -4  20 38051.6 3250.09   2
   5  -5   0 187941. 5617.03   2
   5  -5   0 195852. 4703.72   1
  -5   5   0 193744. 4712.41   1
   0   5   0 203337. 6006.05   1
  -5   0   0 193002. 5979.80   1
   5   0   0 204991. 5955.39   1
   0  -5   0 188469. 5800.49   1
   5   0   0 197122. 5906.98   2
  -5   0  -1 514497. 12002.9   1
   0   5  -1 503925. 11915.5   1
   5  -5   1 479839. 11495.8   2
   5   0   1 550316. 12057.6   2
   5   0   1 514916. 11838.0   1
   5   0  -1 474419. 11670.4   1
   0  -5  -1 484842. 11590.9   1
   0   5   1 484222. 11696.0   1
  -5   0   1 506368. 11881.4   1
   0  -5   1 525892. 11932.1   1
   0  -5  -3 229003. 6829.90   1
  -5   0   3 243674. 7180.97   1
  -5   5  -3 260973. 6789.44   1
   5   0   3 271644. 7390.20   1
   0  -5   3 268169. 7434.38   1
   0   5  -3 264419. 7472.35   1
   0   5   3 228345. 6900.46   1
   5   0  -3 239211. 6995.50   1
   5  -5  -3 272384. 6580.92   2
   5  -5   3 271325. 6852.21   1
  -5   0  -3 238661. 7191.28   1
   5   0   3 280048. 7514.49   2
   5  -5   3 256213. 7255.78   2
   5  -5   4 29537.3 1902.70   1
   0  -5  -4 33616.2 2031.95   1
   5  -5  -4 32586.3 1664.91   2
   0  -5   4 30544.2 2134.78   1
   5   0   4 32341.7 2113.20   1
   5   0  -4 31682.5 2062.92   1
   0   5   4 31906.5 2009.85   1
  -5   0   4 30982.4 2094.52   1
   0   5  -4 31748.5 2199.23   1
  -5   5  -4 29051.5 1874.32   1
  -5   0  -4 30768.8 2157.61   1
   0  -5   4 29497.5 2191.63   2
   5   0   4 32589.2 2140.80   2
   5  -5   4 32803.7 2181.11   2
   5  -5   5 11685.0 1220.88   1
  -5   0   5 9234.10 1152.43   1
   0  -5   5 10241.4 1316.44   2
  -5   5  -5 12438.5 1287.59   1
   5   0   5 10464.2 1220.21   1
   5  -5   5 11349.2 1324.81   2
   5   0  -5 11954.6 1265.26   1
  -5   0  -5 12180.8 1370.96   1
   0   5   5 10557.1 1168.77   1
   0   5  -5 12102.4 1361.02   1
   5   0   5 12454.0 1342.91   2
   0  -5   5 10671.6 1307.00   1
   0  -5  -5 10090.5 1117.42   1
   0  -5   6 1297.81 630.422   1
   0   5  -6 994.484 541.542   1
   5  -5   6 754.593 550.207   2
  -5   5  -6 894.296 445.131   1
   5  -5   6 814.804 446.028   1
  -5   0  -6 816.805 503.577   1
   0  -5  -6 1263.95 407.674   1
   5   0   6 966.841 425.699   1
  -5   0   6 1145.61 506.502   1
   0   5   6 1370.64 500.519   1
   5   0  -6 1278.12 450.633   1
   0  -5   6 2887.42 778.521   2
   5   0   6 1322.18 595.197   2
  -5   0  -7 1142.16 614.582   1
  -5   0   7 653.489 328.036   1
   5  -5   7 411.364 359.562   1
   0  -5   7 175.413 480.969   1
   0  -5  -7 2070.60 625.015   1
   5   0  -7 619.134 513.389   1
   5   0   7 681.808 518.098   1
   5   0   7-220.262 468.973   2
   0   5  -7-127.892 425.717   1
  -5   5  -7 885.952 567.255   1
   0   5   7 897.289 496.798   1
   0  -5   7 664.449 337.849   2
   5  -5   7 185.931 402.983   2
  -5   0   8 315.953 435.805   1
  -5   0  -8 792.811 516.986   1
   0   5  -8 980.253 556.371   1
   0  -5  -8 423.994 364.688   1
   5   0   8 109.088 351.312   1
   0   5   8 655.590 429.610   1
  -5   5  -8 362.760 375.846   1
   0  -5   8-10.4114 326.477   1
   0  -5   8 987.728 414.824   2
   5  -5   8 238.739 393.695   1
   5  -5   8 855.717 480.068   2
   5   0  -8-221.237 356.788   1
   5   0   8 156.561 357.970   2
  -5   0   9 81832.5 4094.88   1
   0  -5   9 91643.7 4462.75   1
  -5   5  -9 96710.9 4431.78   1
   0   5   9 97104.4 4156.56   1
   5  -5   9 95021.9 4393.59   2
  -5   0  -9 92374.0 4342.06   1
   0  -5  -9 99316.1 4123.24   1
   0  -5   9 93945.0 4320.60   2
   5  -5   9 94034.7 4392.19   1
   5   0   9 102697. 4397.42   2
   5   0  -9 101198. 4336.26   1
   0   5  -9 94952.0 4425.14   1
   5   0   9 101885. 4502.74   1
   5  -5  10 451013. 12100.8   1
  -5   5 -10 441261. 11947.7   1
   0  -5  10 445598. 12033.6   2
   0  -5  10 440388. 12212.2   1
   5   0  10 438398. 11977.8   1
   0   5  10 454653. 11684.7   1
  -5   0  10 474757. 12146.1   1
  -5   0 -10 447198. 11988.0   1
   0  -5 -10 426736. 11407.6   1
   5  -5  10 464460. 12102.1   2
   5   0  10 455518. 12010.0   2
   0   5 -10 464726. 12256.9   1
   5   0 -10 486044. 11991.7   1
   5  -5  11 224001. 7730.30   1
  -5   5 -11 227063. 7678.81   1
   5   0  11 227829. 7727.74   1
   0   5  11 232554. 7468.77   1
  -5   0  11 220158. 7549.13   1
   0  -5  11 247780. 8132.96   1
  -5   0 -11 227956. 7695.04   1
   0  -5 -11 237522. 7441.10   1
   5   0 -11 247413. 7671.04   1
   0  -5  11 220655. 7592.74   2
   0   5  11 207937. 7272.94   2
   0   5 -11 218948. 7577.75   1
   5   0  11 207909. 7405.51   2
   5  -5  11 233713. 7727.60   2
   5  -5  12 112390. 5064.87   2
   5  -5  12 106920. 5083.27   1
  -5   5 -12 112932. 5094.40   1
   5   0  12 115651. 5255.65   1
   0   5 -12 107310. 4991.79   1
   0   5  12 108580. 4867.85   1
  -5   0  12 108078. 5007.96   1
  -5   0 -12 110706. 5057.71   1
   0  -5 -12 120951. 5039.43   1
   0  -5  12 101006. 4960.65   1
   5   0 -12 126926. 5193.85   1
   0  -5  12 104447. 4888.15   2
   5   0  12 104847. 4848.68   2
   0   5  12 90625.2 4556.39   2
   5  -5  13 103690. 5073.01   1
  -5   5 -13 99655.5 4895.44   1
   0   5  13 110351. 5030.49   1
  -5   0  13 108672. 5149.48   1
   5  -5  13 105304. 4966.35   2
   0   5  13 94289.2 4597.86   2
   0  -5 -13 88238.9 4503.18   1
  -5   0 -13 108620. 5044.72   1
   5   0 -13 114090. 5057.29   1
   0  -5  13 98739.7 5009.47   1
   0  -5  13 101167. 4913.33   2
   5   0  13 103401. 4802.83   2
   0   5 -13 106399. 5027.03   1
   5   0  13 99493.9 4925.72   1
   5  -5  14 259821. 8992.40   1
   0   5  14 280817. 9117.25   1
   5   0  14 268821. 9111.48   1
  -5   5 -14 270157. 8951.52   1
   0  -5 -14 249081. 8488.05   1
  -5   0 -14 277260. 8866.92   1
  -5   0  14 250325. 8806.29   1
   0  -5  14 272923. 9007.58   2
   5   0  14 272792. 8879.35   2
   5   0 -14 244541. 8587.79   1
   0  -5  14 272502. 9158.83   1
   0   5 -14 264885. 8926.81   1
   5  -5  14 256862. 8812.05   2
   5  -5  15 16134.1 1945.51   1
  -5   5 -15 16404.2 1985.39   1
   5   0  15 17226.4 1993.77   2
   0   5  15 18253.1 2084.59   1
   5   0  15 18466.6 2112.54   1
   0   5 -15 15286.6 1891.29   1
  -5   0 -15 15802.5 1912.14   1
   0  -5  15 16587.5 1959.42   2
   5   0 -15 19173.8 2106.06   1
  -5   0  15 17580.0 1998.01   1
   0  -5  15 14875.9 1947.06   1
   5  -5  15 14237.6 1871.94   2
   0   5 -16 5008.41 1144.82   1
   5  -5  16 8415.20 1483.43   1
   0  -5  16 4654.97 1113.52   2
   5   0  16 5427.94 1128.60   1
  -5   5 -16 6649.50 1303.04   1
   0  -5  16 6477.46 1292.70   1
  -5   0 -16 5855.53 1197.29   1
  -5   0  16 7218.27 1363.76   1
   5   0  16 8192.43 1395.82   2
   5  -5  16 7059.18 1284.50   2
   5   0 -16 7190.64 1353.88   1
   0   5 -17 6232.69 1206.57   1
   5   0  17 8368.52 1446.79   1
  -5   5 -17 6583.80 1285.06   1
  -5   0 -17 6774.30 1266.95   1
   0  -5  17 6585.50 1304.97   1
   5  -5  17 6612.86 1300.99   2
   5  -5  17 6335.87 1359.38   1
   5   0  17 4256.63 1179.79   2
   5  -5  18 8845.78 1541.46   1
   5   0  18 8482.05 1547.76   1
  -5   5 -18 7375.00 1337.39   1
  -5   0 -18 8321.26 1474.30   1
   0   5 -18 7247.83 1373.62   1
   0  -5  18 6769.04 1426.95   1
   5   0  18 7052.96 1428.92   2
   5  -5  18 8839.96 1580.71   2
   0   5 -19 10519.5 1633.56   1
   5  -5  19 10857.6 1769.92   1
   5   0  19 10430.9 1739.10   1
  -5   0 -19 11071.9 1645.43   1
   0  -5  19 9516.28 1732.86   1
   5  -5  19 7408.36 1352.90   2
   5   0  19 7741.24 1603.19   2
  -5   5 -19 10558.0 1677.76   1
   5  -5  20-250.351 488.461   2
   5   0  20 1413.39 910.205   2
   3   3  19-249.382 448.485   1
   3  -6  19-133.975 509.903   2
  -3  -3 -19-89.7298 414.655   1
   3  -6  18 5693.19 1227.92   1
   3   3  18 3407.54 1034.39   1
  -3  -3 -18 4946.18 1152.93   1
  -3   6 -18 5117.68 1159.16   1
   3  -6  18 4020.60 966.904   2
   3  -6  17-218.789 475.676   1
   3   3  17-379.522 338.476   1
   3  -6  17 159.228 572.537   2
  -3   6 -17-287.313 487.400   1
  -3  -3 -17-62.3308 472.371   1
   3   3  17 406.523 390.532   2
  -3  -3 -16 259318. 8759.03   1
   3   3  16 248953. 8874.09   1
   3   3  16 232386. 8573.12   2
  -3   6 -16 241963. 8579.26   1
   3  -6  16 218341. 8502.51   2
   3  -6  16 242301. 8850.67   1
   3  -6  15 428.796 631.390   1
  -3   6 -15-32.6546 448.338   1
   3  -6  15 186.820 416.423   2
   3   3  15 87.6369 466.820   1
  -3  -3 -15-404.490 628.780   1
   3   3  15 262.978 619.358   2
   3   3  14 156485. 6431.74   1
   3  -6  14 145527. 6262.24   2
   3   3  14 146878. 6118.05   2
  -3  -3 -14 157766. 6398.78   1
  -3   6 -14 159134. 6516.30   1
   3  -6  14 155046. 6597.41   1
  -3   6 -13 54.2109 509.617   1
   3   3  13-174.747 433.902   1
   3  -6  13-268.353 582.446   1
   3  -6  13-265.293 418.942   2
  -3  -3 -13 468.861 463.543   1
   3   3  13 416.339 405.800   2
   3   3  12 89957.9 4569.72   1
  -3  -3 -12 95562.0 4573.01   1
   3  -6  12 95346.4 4731.03   2
   3   3  12 106203. 4699.75   2
  -3   6 -12 80000.0 4353.07   1
   3  -6  12 90060.5 4618.14   1
  -3  -3 -11 113.321 425.608   1
   3  -6  11-417.351 505.713   2
   3  -6  11 67.1919 394.120   1
   3   3  11 277.600 339.431   2
  -3   6 -11 408.251 647.098   1
   3   3  11-594.071 442.368   1
   3   3  10 338550. 9753.86   1
   3  -6  10 321036. 9717.18   2
  -3  -3 -10 341230. 9730.89   1
  -3   6 -10 315225. 9629.20   1
   3  -6  10 330656. 9898.31   1
   3  -6   9-64.8656 328.853   1
  -3  -3  -9 598.733 468.623   1
  -3   6  -9-34.0489 465.449   1
   3   3   9 33.0194 310.407   1
   3   3   9-603.571 484.731   2
   3  -6   9-845.941 548.723   2
   3   3   8 739528. 17395.7   1
   3  -6   8 729249. 17444.3   2
  -3   6  -8 751615. 17409.5   1
  -3  -3  -8 731546. 17240.3   1
   3  -6   8 726487. 17342.3   1
   3  -6   7-158.119 403.273   1
  -3   6  -7 396.874 295.536   1
  -3  -3  -7 187.502 339.117   1
   3  -6   7 761.487 430.677   2
  -6   3   7-128.896 223.565   1
   3   3   7 19.3938 313.485   1
   6  -3  -7-31.8797 241.433   1
  -3   6  -6 92282.2 4101.62   1
  -6   3   6 98762.1 3403.03   1
   6  -3  -6 96186.3 3318.30   1
   3   3   6 95000.2 4188.49   1
   3  -6   6 93239.0 4223.89   2
  -3  -3  -6 98270.3 4159.46   1
   3  -6   6 94478.0 4058.93   1
  -6   3   5-113.022 185.515   1
   3  -6   5 104.192 361.106   2
  -3  -3  -5-399.222 319.000   1
   3   3   5-316.443 526.690   1
   6  -3  -5 592.408 303.090   1
  -3   6  -5 53.4939 350.972   1
  -3   6  -3 156.209 340.714   1
  -6   3   3 164.001 189.748   1
   6  -3  -3 535.294 302.448   1
   3  -6   3 339.749 317.222   1
   3  -6   3-386.412 434.787   2
  -3  -3  -3 357.934 307.426   1
   6  -3  -3 144.600 155.072   2
   3   3   3 603.303 489.718   1
  -3  -3  -2 231247. 7041.94   1
  -6   3   2 253512. 6243.37   1
   6  -3  -2 240063. 6051.57   1
   3   3   2 226716. 6966.46   1
   3  -6   2 227833. 6489.73   1
   6  -3  -2 251078. 6217.67   2
   3  -6   2 218671. 6939.07   2
  -3   6  -2 240702. 6646.71   1
  -6   3   1 418.014 324.330   1
   6  -3  -1-59.9599 188.749   1
   3   3   1 121.611 359.476   1
   3  -6   1 347.060 303.609   1
   3  -6   1 66.5065 340.821   2
  -3  -3  -1-124.073 355.108   1
   6  -3  -1 182.787 205.472   2
  -3   6  -1 292.189 307.326   1
   3  -6   0 89877.1 3784.52   2
   6  -3   0 86700.0 3208.52   1
  -3  -3   0 95882.9 3871.91   1
   3   3   0 93581.5 3849.92   1
  -6   3   0 85546.6 3269.27   1
  -3   6   0 92507.4 3287.89   1
   6  -3   0 87553.5 3388.86   2
   3  -6   0 82354.7 3075.62   1
  -3  -3   1-303.457 471.657   1
  -3   6   1 527.219 232.064   1
   6  -3   1-40.7484 303.535   2
   3   3  -1 319.572 330.200   1
   3  -6  -1 563.772 401.994   2
  -6   3  -1 331.195 291.336   1
   3  -6  -1 397.874 305.693   1
   6  -3   1 269.715 305.172   1
  -3  -3   2 213110. 6656.88   1
   6  -3   2 205182. 5990.36   1
   3   3  -2 225072. 6741.66   1
   3  -6  -2 229929. 5485.03   1
  -3   6   2 217732. 5460.73   1
  -6   3  -2 200774. 6052.88   1
   6  -3   2 209968. 6243.11   2
   6  -3   3 527.327 377.463   1
  -3   6   3 729.118 264.044   1
   3  -6  -3 1049.60 279.379   1
  -3  -3   3 579.563 478.548   1
  -6   3  -3 1126.74 500.943   1
   3   3  -3 606.743 546.517   1
   6  -3   3-23.9405 251.684   2
  -3   6   5 451.346 218.534   1
   3  -6  -5 766.780 269.682   1
   6  -3   5 480.438 372.203   1
   3   3  -5-507.534 543.267   1
  -3  -3   5-62.2360 420.397   1
   6  -3   5 649.013 413.378   2
  -6   3  -5 559.865 327.232   1
  -3  -3   6 42709.8 2729.27   1
   6  -3   6 48510.8 2747.82   1
   3   3  -6 44978.6 2768.11   1
  -6   3  -6 44269.9 2690.24   1
   6  -3   6 45215.2 2734.20   2
  -3  -3   7 297.653 583.866   1
   6  -3   7 691.219 544.523   1
   6  -3   7 255.895 343.757   2
  -6   3  -7 578.480 377.797   1
   3   3  -7 779.753 443.238   1
   3   3  -8 426764. 11180.0   1
  -3  -3   8 415219. 11223.2   1
  -6   3  -8 384271. 10823.5   1
   6  -3   8 416384. 11128.2   1
   6  -3   8 431694. 11111.7   2
  -3  -3   9-27.5639 481.512   1
   6  -3   9 21.3410 458.694   1
  -6   3  -9 399.439 446.845   1
   6  -3   9 200.894 375.813   2
   3   3  -9 812.856 444.156   1
   3   3 -10 292916. 9133.44   1
   6  -3  10 304542. 9206.70   2
  -6   3 -10 307689. 9273.84   1
  -3  -3  10 322975. 9561.64   1
   6  -3  10 328523. 9491.02   1
   3   3 -11 243.936 484.914   1
   6  -3  11-10.2614 322.749   1
  -3  -3  11-220.282 410.307   1
  -6   3 -11 269.483 565.282   1
   6  -3  11 1151.43 737.263   2
   6  -3  12 290787. 9232.09   1
  -6   3 -12 285366. 9083.51   1
   6  -3  12 305388. 9264.58   2
  -3  -3  12 268765. 9038.74   1
   3   3 -12 287015. 9131.71   1
   3   3 -13-716.218 642.908   1
   6  -3  13 552.253 658.548   1
  -6   3 -13-271.291 389.879   1
   6  -3  13 405.544 404.630   2
  -3  -3  13-169.558 475.363   1
  -3  -3  14 84332.3 4627.18   1
   6  -3  14 75007.8 4394.25   1
  -6   3 -14 83368.8 4351.50   1
   6  -3  14 79624.9 4364.18   2
   3   3 -14 69331.7 4149.11   1
  -3  -3  15 326.136 522.958   1
   6  -3  15 219.221 644.012   1
   6  -3  15 657.864 583.307   2
   3   3 -15-1004.30 629.193   1
  -6   3 -15 791.654 556.205   1
   6  -3  16 90802.6 4877.96   1
  -6   3 -16 97120.2 4836.42   1
  -3  -3  16 78929.9 4750.07   1
   3   3 -16 82789.8 4689.01   1
   6  -3  16 87366.9 4767.76   2
   3   3 -17 353.018 569.904   1
   6  -3  17 1099.48 824.681   1
  -6   3 -17-76.0628 536.153   1
   6  -3  17 955.088 701.202   2
  -3  -3  17 567.902 619.426   1
   3   3 -18 491.311 522.351   1
  -3  -3  18 945.812 647.063   1
   6  -3  18 302.961 728.783   1
  -6   3 -18-722.598 759.586   1
   6  -3  18-485.678 446.073   2
  -3  -3  19-234.561 665.882   1
   6  -3  19-489.272 538.560   2
   3   3 -19-698.441 626.840   1
   2   4  19 42545.4 3577.07   1
   4   2  19 45299.4 3608.03   1
  -4  -2 -19 46957.6 3539.89   1
   4   2  19 34774.1 3220.57   2
   4  -6  19 39213.1 3377.96   2
   4  -6  18 78869.7 4768.47   1
   4  -6  18 68681.6 4451.62   2
   2   4  18 69875.4 4473.97   1
  -2  -4 -18 56902.3 4011.36   1
  -4  -2 -18 73307.4 4394.70   1
  -4   6 -18 82020.1 4584.57   1
   4   2  18 60999.0 4252.48   2
   4   2  18 80706.0 4739.77   1
  -2   6 -18 77634.4 4564.13   1
   2  -6  18 65371.1 4333.06   2
   2  -6  17 15547.6 2058.26   1
   4  -6  17 15412.4 2013.93   1
   4   2  17 13702.8 1879.42   1
  -4   6 -17 15011.1 1944.25   1
   2   4  17 12281.6 1905.31   1
  -2  -4 -17 14030.5 1912.20   1
  -4  -2 -17 15138.6 1896.96   1
   2  -6  17 11731.5 1878.60   2
  -2   6 -17 13662.1 1858.67   1
   4  -6  17 13397.2 1881.15   2
   4   2  17 10333.6 1680.04   2
   4  -6  16 39740.0 3209.95   1
   2   4  16 41359.0 3271.74   1
   4   2  16 41362.0 3250.96   1
   2   4  16 38897.6 3064.37   2
  -2  -4 -16 39744.8 3081.70   1
  -4  -2 -16 39920.0 3087.16   1
   4   2  16 37836.1 3180.53   2
   2  -6  16 40033.2 3240.90   2
   4  -6  16 37003.2 3063.95   2
  -4   6 -16 43678.1 3172.42   1
  -2   6 -16 42420.0 3229.67   1
   2  -6  16 39944.3 3278.79   1
   4  -6  15 13644.5 1856.21   1
   4   2  15 13712.4 1813.52   1
   2   4  15 15701.7 1940.90   1
  -2   6 -15 15222.8 1964.65   1
  -2  -4 -15 16260.9 1892.61   1
  -4  -2 -15 12571.1 1731.09   1
   2  -6  15 15632.7 2030.08   1
   2  -6  15 14128.7 1772.20   2
   4  -6  15 13868.3 1854.33   2
   4   2  15 12146.3 1741.97   2
   2   4  15 15892.8 1895.90   2
  -4   6 -15 13639.3 1828.41   1
   4  -6  14 133710. 5949.94   1
   2  -6  14 124892. 5839.89   1
   4   2  14 131919. 5866.54   1
   2   4  14 135564. 5966.63   1
   2  -6  14 124997. 5893.98   2
   2   4  14 131778. 5758.67   2
  -4  -2 -14 135743. 5916.17   1
  -2  -4 -14 139249. 5873.50   1
   4  -6  14 126292. 5824.14   2
  -4   6 -14 126354. 5735.77   1
   4   2  14 136519. 5847.72   2
  -2   6 -14 129392. 5811.90   1
   4  -6  13 24013.9 2373.49   1
   4   2  13 29728.5 2397.87   2
   2   4  13 25417.0 2312.37   2
  -2  -4 -13 27291.5 2390.81   1
   4   2  13 24500.0 2344.84   1
   2   4  13 24876.8 2362.42   1
   4  -6  13 25435.0 2388.28   2
  -4  -2 -13 28428.0 2431.63   1
   2  -6  13 26657.8 2505.29   2
  -2   6 -13 24379.5 2286.88   1
   2  -6  13 24929.5 2453.91   1
  -4   6 -13 28321.7 2447.70   1
   4  -6  12 28818.8 2525.02   1
   2   4  12 24301.6 2242.66   1
   4  -6  12 29792.0 2518.73   2
   2  -6  12 25924.4 2462.72   2
  -4  -2 -12 25100.4 2299.42   1
  -2  -4 -12 27256.7 2352.81   1
   4   2  12 26587.8 2433.31   1
   4   2  12 32643.9 2516.94   2
   2   4  12 26490.4 2414.28   2
  -2   6 -12 27108.6 2423.74   1
   2  -6  12 24808.1 2371.31   1
  -4   6 -12 28620.0 2378.68   1
   4  -6  11 37982.2 2856.68   1
   4   2  11 38626.8 2817.41   1
   2  -6  11 40960.2 2961.58   2
  -4   6 -11 39431.9 2886.74   1
  -4  -2 -11 42425.3 2829.56   1
  -2  -4 -11 38039.4 2724.98   1
   2   4  11 37599.3 2781.03   1
   4   2  11 36602.7 2698.63   2
   4  -6  11 38327.9 2762.72   2
  -2   6 -11 41291.6 2890.37   1
   2   4  11 37997.1 2789.60   2
   2  -6  11 39796.4 2934.70   1
   4  -6  10 153335. 6179.06   1
  -6   2  10 167990. 5840.95   1
  -2  -4 -10 172286. 6138.07   1
   4   2  10 169066. 6223.61   1
   2   4  10 151573. 6002.55   1
   2  -6  10 161527. 6276.71   2
   4   2  10 158484. 6101.88   2
  -4  -2 -10 160722. 6102.87   1
   4  -6  10 165946. 6252.11   2
  -2   6 -10 165930. 6322.40   1
   2   4  10 178603. 6418.53   2
  -4   6 -10 159575. 6154.00   1
   4  -6   9 193717. 6737.92   1
   4  -6   9 181274. 6566.09   2
   2   4   9 181638. 6467.83   1
   4   2   9 187709. 6512.22   2
   6  -2  -9 195069. 6119.64   1
  -4  -2  -9 185417. 6481.02   1
   4   2   9 170427. 6386.28   1
   2  -6   9 188024. 6742.32   1
   2  -6   9 182275. 6608.55   2
  -2  -4  -9 189423. 6478.90   1
  -2   6  -9 168626. 6395.80   1
  -6   2   9 183443. 6123.01   1
   2   4   9 192567. 6737.73   2
  -4   6  -9 181134. 6461.69   1
  -2   6  -8 8204.48 1164.25   1
  -4  -2  -8 9060.95 1225.21   1
  -4   6  -8 8738.72 1228.11   1
   4   2   8 9564.54 1265.05   1
   2   4   8 8450.21 1219.95   1
   4  -6   8 9514.86 1286.34   1
   2  -6   8 10213.3 1378.54   2
  -6   2   8 9343.61 1141.50   1
  -2  -4  -8 8887.73 1212.74   1
   4  -6   8 7658.60 1228.63   2
   6  -2  -8 8775.66 1077.56   1
   4   2   8 9357.71 1287.24   2
   2  -6   8 8575.26 1293.35   1
   4  -6   7 182578. 6259.30   1
   4   2   7 168351. 6098.67   1
   2   4   7 172660. 6098.31   1
   6  -2  -7 193189. 5726.88   1
   2  -6   7 170258. 6215.01   1
  -6   2   7 176526. 5666.74   1
  -2   6  -7 177387. 6241.33   1
   2  -6   7 181735. 6363.39   2
  -4  -2  -7 189292. 6370.59   1
  -2  -4  -7 176256. 6080.89   1
   4   2   7 197191. 6563.42   2
   4  -6   7 182021. 6301.03   2
  -4   6  -7 177874. 6174.44   1
  -6   2   6 492240. 11060.2   1
   4  -6   6 462135. 11504.8   1
  -4   6  -6 446282. 11385.5   1
   4   2   6 493755. 12057.3   2
   4   2   6 434930. 11550.5   1
   2   4   6 457964. 11535.0   1
   2  -6   6 452257. 11655.7   1
  -2   6  -6 416581. 11426.7   1
   6  -2  -6 444928. 10654.5   1
  -4  -2  -6 425993. 11475.2   1
  -2  -4  -6 468493. 11521.2   1
   4  -6   6 463793. 11746.1   2
   2  -6   6 463317. 11796.0   2
   4  -6   5 88391.0 3763.33   1
   2  -6   5 84337.1 3834.63   1
  -2   6  -5 89076.7 3885.76   1
   2  -6   5 82443.8 3906.59   2
   4   2   5 87812.6 3905.79   1
   2   4   5 86372.8 3847.84   1
  -6   2   5 91466.4 3532.87   1
   6  -2  -5 98566.1 3604.32   1
   4  -6   5 81036.1 3853.39   2
   6  -2  -5 78566.5 2693.37   2
  -4  -2  -5 89940.6 3935.46   1
  -4   6  -5 88471.2 3753.80   1
  -2  -4  -5 85331.3 3789.35   1
  -2  -4  -4 390896. 10172.7   1
  -6   2   4 402007. 9617.31   1
   4   2   4 392835. 10301.9   1
   2   4   4 363701. 9967.32   1
   4  -6   4 399931. 10335.2   2
   6  -2  -4 427740. 9635.89   1
   2  -6   4 411173. 10519.2   2
  -6   4   4 381764. 8224.29   1
  -2   6  -4 401076. 10190.0   1
   2  -6   4 411679. 10248.9   1
  -4  -2  -4 387654. 10400.0   1
  -4   6  -4 401263. 9933.56   1
   6  -4  -4 392069. 8584.90   2
   4  -6   4 410548. 9979.92   1
  -4  -2  -3 212927. 6829.81   1
  -2  -4  -3 204310. 6673.48   1
   6  -4  -3 229424. 5182.98   1
   2  -6   3 227203. 6658.32   1
   2   4   3 210791. 6632.37   1
   6  -2  -3 243435. 6343.59   1
   2  -6   3 232544. 7070.55   2
  -4   6  -3 216633. 6332.46   1
   4  -6   3 229123. 6923.17   2
  -6   4   3 229204. 5281.09   1
   6  -4  -3 235372. 5824.81   2
   4   2   3 222857. 6848.86   1
  -2   6  -3 226321. 6768.66   1
   6  -2  -3 214176. 5803.10   2
  -6   2   3 231057. 6395.76   1
   4  -6   3 222870. 6342.60   1
  -6   2   2 505406. 11839.6   1
  -4  -2  -2 525331. 12647.3   1
  -2  -4  -2 518210. 12433.6   1
   2   4   2 531685. 12630.4   1
  -2   6  -2 486734. 12046.2   1
   2  -6   2 556495. 12863.8   2
   4  -6   2 551875. 12597.1   2
   6  -2  -1 38964.9 2077.81   2
   4  -6   1 41013.9 2451.18   2
   2  -6   1 43337.9 2252.63   1
   6  -4  -1 37190.9 1709.25   1
  -4  -2  -1 40536.7 2504.39   1
   6  -2  -1 38439.4 2106.40   1
  -2  -4  -1 40661.9 2452.08   1
   6  -4  -1 40072.7 2077.25   2
   4   2   1 41119.9 2443.94   1
   2   4   1 40678.3 2453.79   1
  -6   4   1 38027.9 1743.77   1
   2  -6   1 41986.6 2569.75   2
  -2   6  -1 34354.0 2137.70   1
   4  -6   1 41437.5 2036.63   1
  -4   6  -1 39496.3 1974.10   1
  -6   2   1 36147.3 2134.16   1
  -4  -2   0 7196.02 1039.36   1
   6  -4   0 8473.10 818.253   1
   6  -2   0 8418.16 945.841   2
  -2   6   0 7955.90 951.126   1
   4  -6   0 7320.51 764.132   1
   2   4   0 8441.96 1057.36   1
  -6   4   0 8458.52 850.735   1
   4   2   0 8425.98 1164.62   1
   2  -6   0 8505.41 1150.16   2
   6  -2   0 7815.25 936.023   1
  -2  -4   0 7642.99 945.707   1
   4  -6   0 9555.05 1120.89   2
   6  -4   0 8702.86 986.756   2
   2  -6   0 8046.04 905.182   1
  -6   2   0 8648.63 977.379   1
  -4   6   0 7462.82 767.345   1
   6  -4   1 3181.67 603.430   2
   6  -4   1 3002.93 503.566   1
  -6   2  -1 3289.93 667.459   1
   6  -2   1 2917.78 626.189   1
   2  -6  -1 2630.71 533.896   1
   4  -6  -1 4181.20 822.261   2
   4   2  -1 2587.78 653.340   1
   4  -6  -1 2758.81 405.154   1
  -2  -4   1 2714.47 630.173   1
   2   4  -1 2729.55 675.797   1
  -2   6   1 2610.79 495.046   1
  -4  -2   1 3474.52 768.129   1
  -6   4  -1 3119.30 587.591   1
  -4   6   1 2627.28 442.512   1
   6  -2   1 2554.53 625.940   2
   4  -6  -2 452220. 10371.3   2
   6  -4   2 412141. 10133.5   2
   6  -2   2 366586. 9897.07   1
  -6   4  -2 376723. 9626.17   1
   2  -6  -2 458577. 9859.09   1
  -2   6   2 456964. 9974.11   1
  -4  -2   2 432422. 10675.3   1
   4   2  -2 419107. 10553.4   1
  -6   2  -2 399981. 10186.3   1
  -2  -4   2 407666. 10559.0   1
   6  -2   2 390129. 10061.4   2
   2   4  -2 428761. 10706.7   1
   2  -6  -3 554894. 11569.0   1
   6  -2   3 516960. 12103.7   1
   4   2  -3 530646. 12488.4   1
  -2  -4   3 499897. 12475.3   1
  -2   6   3 524755. 11505.7   1
   2   4  -3 503480. 12508.9   1
   6  -2   3 461828. 11901.5   2
  -4  -2   3 518229. 12510.8   1
   6  -4   3 502305. 12102.1   2
  -6   2  -3 497223. 12156.3   1
  -6   2  -4 505.959 475.800   1
  -4  -2   4 497.564 548.868   1
  -6   4  -4 332.144 331.657   1
   6  -4   4 330.264 342.209   1
   6  -2   4 315.132 291.727   1
   4   2  -4 496.073 437.163   1
   2   4  -4 1489.06 585.493   1
   2  -6  -4 521.677 249.867   1
  -2   6   4 364.831 231.009   1
   6  -4   4 921.981 442.183   2
   6  -2   4 308.638 453.668   2
  -2  -4   4 254.890 423.904   1
   6  -4   5 430928. 10838.0   1
  -2  -4   5 461268. 11423.1   1
   6  -2   5 433809. 10954.8   1
   4   2  -5 469351. 11396.3   1
   6  -2   5 444333. 11058.8   2
  -6   2  -5 431722. 11098.2   1
   2   4  -5 424800. 11222.7   1
   6  -4   5 416097. 10988.9   2
  -4  -2   5 459619. 11415.0   1
  -6   4  -5 445733. 10915.1   1
   2  -6  -5 423685. 9998.60   1
   6  -4   6 339214. 8972.94   1
   6  -2   6 315636. 8861.14   1
  -2  -4   6 312379. 9141.86   1
   2   4  -6 307021. 9124.61   1
  -2   6   6 341799. 8171.18   1
  -6   4  -6 338458. 9006.05   1
  -4  -2   6 291667. 8876.14   1
   4   2  -6 332791. 9157.00   1
   6  -2   6 331376. 8983.72   2
  -6   2  -6 325236. 9025.22   1
   6  -4   6 339497. 9082.95   2
   2  -6  -6 300119. 7888.79   1
  -4  -2   7 20148.8 1866.73   1
   6  -4   7 18276.4 1737.76   1
   6  -2   7 17190.3 1698.42   1
   2  -6  -7 20537.8 1480.77   1
  -2   6   7 19940.8 1514.33   1
  -6   4  -7 21014.6 1783.42   1
  -2  -4   7 19042.3 1834.89   1
  -6   2  -7 19013.5 1787.15   1
   6  -4   7 18491.9 1797.62   2
   4   2  -7 21070.0 1880.64   1
   2   4  -7 20222.2 1899.38   1
   6  -2   7 20427.6 1840.74   2
   6  -4   8 134984. 5295.27   1
   6  -2   8 136317. 5336.49   1
  -4  -2   8 135141. 5412.54   1
  -2   6   8 140793. 4673.33   1
  -6   4  -8 140979. 5387.14   1
   4   2  -8 145697. 5453.92   1
  -6   2  -8 139234. 5357.34   1
  -2  -4   8 133871. 5465.68   1
   2  -6  -8 141704. 4597.64   1
   6  -2   8 136126. 5305.95   2
   6  -4   8 133250. 5321.02   2
   2   4  -8 146867. 5610.03   1
   6  -2   9 38373.3 2689.26   2
   6  -2   9 34267.6 2538.05   1
  -4  -2   9 35124.8 2633.43   1
  -6   4  -9 34397.4 2541.94   1
  -2  -4   9 34275.0 2620.73   1
  -6   2  -9 36789.2 2598.33   1
   4   2  -9 35230.6 2559.60   1
   6  -4   9 33301.8 2522.59   1
   2   4  -9 37982.1 2703.58   1
   6  -4   9 37758.5 2621.71   2
  -4  -2  10 318108. 9580.13   1
   6  -4  10 293310. 9309.67   1
   6  -2  10 338861. 9694.98   1
  -6   4 -10 317588. 9449.23   1
  -6   2 -10 319340. 9501.39   1
  -2  -4  10 335798. 9852.25   1
   4   2 -10 318580. 9423.68   1
   6  -4  10 307154. 9402.62   2
   2   4 -10 307138. 9452.20   1
   6  -2  10 328146. 9472.34   2
   6  -2  11 66345.4 3763.12   1
  -6   4 -11 66614.8 3772.64   1
   6  -4  11 62035.3 3726.59   1
  -6   2 -11 70725.7 3795.07   1
  -4  -2  11 68296.2 3906.83   1
   2   4 -11 69309.2 3904.05   1
  -2  -4  11 65996.0 3896.20   1
   6  -2  11 63590.3 3600.32   2
   6  -4  11 60799.4 3602.58   2
   4   2 -11 67728.4 3803.05   1
   6  -4  12 26635.3 2439.50   1
   2   4 -12 27067.4 2406.66   1
   6  -2  12 28310.0 2498.03   1
  -6   2 -12 28643.6 2440.64   1
  -6   4 -12 28866.1 2492.89   1
   6  -4  12 32132.3 2526.33   2
  -2  -4  12 26546.5 2410.09   2
  -4  -2  12 26708.2 2448.83   1
   6  -2  12 27131.9 2435.89   2
   4   2 -12 31185.1 2551.97   1
  -2  -4  12 30806.4 2604.16   1
   6  -4  13 26697.0 2448.15   1
   6  -2  13 25045.6 2403.41   1
  -6   4 -13 29767.5 2467.74   1
  -6   2 -13 26220.2 2400.82   1
  -2  -4  13 23949.5 2488.26   2
  -4  -2  13 24035.3 2366.05   1
   2   4 -13 28274.9 2518.03   1
   4   2 -13 27033.3 2448.68   1
   6  -4  13 24709.0 2347.91   2
   6  -2  13 27747.2 2474.23   2
  -2  -4  13 25304.3 2435.95   1
   2   4 -14 99005.5 4983.61   1
   6  -4  14 98837.6 5076.75   1
  -6   4 -14 101335. 4946.49   1
  -2  -4  14 105080. 5194.93   1
  -6   2 -14 104509. 5036.72   1
   6  -2  14 99489.7 4936.19   2
   6  -4  14 101448. 4986.20   2
  -4  -2  14 88756.9 4852.40   1
   4   2 -14 95430.3 4863.60   1
   6  -2  14 90424.3 4874.69   1
   6  -4  15 48623.0 3432.63   1
  -6   4 -15 39990.0 3127.35   1
  -6   2 -15 42377.4 3130.36   1
   4   2 -15 43851.1 3266.08   1
   6  -4  15 42608.1 3167.19   2
   6  -2  15 43355.0 3331.96   2
  -4  -2  15 38924.7 3146.22   1
   2   4 -15 37655.5 3060.84   1
  -2  -4  15 37307.0 3113.87   1
   6  -2  15 48735.2 3373.03   1
   4   2 -16 260.791 427.877   1
   2   4 -16 402.449 502.976   1
  -6   2 -16-109.888 530.914   1
   6  -4  16 191.529 393.248   1
  -2  -4  16-362.799 496.484   1
  -6   4 -16 269.703 310.311   1
   6  -4  16-530.163 524.352   2
  -4  -2  16 518.245 579.325   1
   6  -2  16 474.907 604.464   2
   6  -2  16 264.994 672.236   1
   6  -4  17 34572.1 3038.39   1
  -6   4 -17 33836.0 2877.30   1
   6  -2  17 32040.8 2895.84   1
   6  -2  17 30566.2 2903.27   2
  -6   2 -17 34356.9 2893.26   1
  -4  -2  17 32927.6 3060.06   1
   6  -4  17 32958.6 2958.73   2
  -2  -4  17 30662.5 2850.08   1
   4   2 -17 30652.1 2825.60   1
   2   4 -17 32507.5 2863.83   1
   6  -2  18 51635.5 3682.32   1
  -6   4 -18 56756.1 3722.10   1
  -6   2 -18 57276.8 3763.90   1
   6  -4  18 45257.0 3486.81   2
   6  -2  18 49578.2 3698.23   2
  -2  -4  18 48089.6 3729.42   1
   6  -4  18 49697.8 3618.09   1
   4   2 -18 44557.3 3501.39   1
   2   4 -18 46698.1 3523.75   1
  -4  -2  18 45206.5 3656.41   1
   4   2 -19 15023.7 2108.47   1
  -2  -4  19 16579.4 2190.92   1
   6  -2  19 15247.9 2117.54   2
  -4  -2  19 14798.4 2093.36   1
   6  -4  19 16311.1 2062.65   2
   2   4 -19 18303.6 2153.80   1
   5  -6  19 6737.83 1435.71   2
   5   1  19 5188.80 1297.86   2
   5  -6  18 54733.5 3971.46   1
   5  -6  18 49680.3 3671.51   2
   5   1  18 47410.1 3626.41   1
  -5  -1 -18 55154.7 3722.26   1
   1  -6  18 56906.6 3961.61   1
   5   1  18 47568.0 3678.29   2
  -5   6 -18 53648.7 3779.96   1
  -1   6 -18 53544.9 3719.26   1
   1  -6  17 11047.0 1706.60   2
   5  -6  17 10494.0 1736.06   1
  -5   6 -17 11579.2 1716.67   1
  -5  -1 -17 10103.9 1576.01   1
   5  -6  17 10462.3 1678.25   2
  -1   6 -17 10339.2 1606.10   1
   5   1  17 12229.2 1783.80   1
   1  -6  17 11693.4 1771.41   1
   5   1  17 9085.09 1672.55   2
  -1   6 -16 4556.99 1112.84   1
   5  -6  16 3094.90 879.471   1
   1   5  16 5513.91 1267.34   1
   5   1  16 2737.65 877.620   1
  -5   6 -16 3883.57 1001.55   1
   1  -6  16 3100.92 980.686   2
   1  -6  16 4216.73 1150.76   1
   5  -6  16 3485.90 937.871   2
  -5  -1 -16 3527.88 967.822   1
   5   1  16 3949.62 1055.96   2
  -5   6 -15 41595.5 3205.47   1
   5  -6  15 42788.4 3368.14   1
   1   5  15 49992.5 3568.65   1
   5   1  15 45467.7 3432.34   1
  -1  -5 -15 50038.3 3445.41   1
   5  -6  15 46649.9 3346.68   2
   5   1  15 41486.8 3200.47   2
   1  -6  15 42649.9 3263.07   2
   1  -6  15 50185.7 3488.84   1
   1   5  15 39953.1 3098.01   2
  -1   6 -15 46199.2 3312.70   1
  -5  -1 -15 49710.2 3409.12   1
  -1   6 -14 121374. 5635.32   1
  -5   6 -14 122623. 5664.57   1
   5   1  14 122353. 5732.99   1
   1   5  14 130909. 5845.80   1
   5  -6  14 118337. 5640.39   1
  -5  -1 -14 129904. 5713.17   1
  -1  -5 -14 134098. 5770.75   1
   1   5  14 109693. 5317.65   2
   1  -6  14 120416. 5706.10   1
   5  -6  14 118956. 5565.88   2
   1  -6  14 120825. 5700.31   2
   5   1  14 117422. 5573.40   2
   5  -6  13 59052.9 3910.64   1
  -5   6 -13 72053.0 4110.34   1
   5   1  13 67266.9 3984.11   1
   1   5  13 65291.1 3912.88   1
  -6   1  13 71304.9 4059.14   1
   1  -6  13 66600.9 4019.25   2
   1  -6  13 67964.1 4122.93   1
   5  -6  13 68987.2 4052.12   2
  -5  -1 -13 69663.7 4039.81   1
   5   1  13 68497.9 3987.82   2
   1   5  13 67527.9 3939.11   2
  -1   6 -13 62283.1 3907.62   1
  -6   1  12 64675.7 3763.32   1
   5   1  12 66383.5 3829.15   1
   1   5  12 68311.8 3889.84   1
  -5  -1 -12 64627.4 3791.41   1
  -1  -5 -12 78850.3 4022.60   1
   1  -6  12 58350.3 3777.90   1
  -5   6 -12 65210.9 3821.21   1
  -1   6 -12 59752.3 3747.72   1
   5  -6  12 61618.9 3688.70   2
   6  -1 -12 69534.7 3753.59   1
   5   1  12 60287.5 3559.82   2
   1  -6  12 66786.1 3884.51   2
   5  -6  12 62420.4 3869.27   1
   1   5  12 62733.9 3791.33   2
   5   1  11 37272.6 2722.87   1
   5  -6  11 41969.3 2978.39   1
  -6   1  11 38867.8 2810.49   1
   1   5  11 33967.2 2818.61   2
  -5   6 -11 41754.8 2963.67   1
   1   5  11 37151.2 2719.70   1
   5  -6  11 37442.1 2813.85   2
   1  -6  11 37082.1 2837.78   1
  -5  -1 -11 41204.1 2911.03   1
  -1  -5 -11 42482.5 2814.02   1
  -1   6 -11 43848.1 3097.02   1
   5   1  11 41771.6 2789.31   2
   1  -6  11 39073.3 2964.29   2
   6  -1 -11 34216.5 2512.46   1
   5  -6  10 343841. 10301.7   1
   1   5  10 365453. 10181.8   1
  -5   6 -10 346503. 10152.8   1
   5   1  10 346328. 10054.4   2
  -1  -5 -10 354567. 9964.35   1
   6  -1 -10 341918. 9694.80   1
  -5  -1 -10 348349. 10127.7   1
   1  -6  10 344837. 10245.7   2
   1  -6  10 342143. 10328.2   1
  -1   6 -10 344360. 10209.5   1
   5   1  10 354487. 10217.7   1
   5  -6  10 350242. 10301.8   2
  -6   1  10 370821. 10175.4   1
  -5   6  -9 15616.2 1761.34   1
  -1   6  -9 20188.2 1915.73   1
  -1  -5  -9 19152.7 1848.83   1
   5  -6   9 18485.4 1912.58   1
   5   1   9 18028.3 1850.23   1
   1  -6   9 19739.8 1998.42   1
   1   5   9 20378.8 1905.36   1
  -5  -1  -9 18507.2 1798.36   1
   1  -6   9 22071.0 2006.46   2
   6  -1  -9 23039.0 1893.01   1
   5   1   9 17937.1 1851.67   2
   5  -6   9 19148.3 1950.50   2
  -6   1   9 19111.2 1891.72   1
  -5   6  -8 23900.0 2114.99   1
   1  -6   8 23294.3 2146.87   2
   5   1   8 22999.0 2113.10   1
   1   5   8 26294.6 2098.92   1
  -5  -1  -8 25580.7 2156.34   1
  -1   6  -8 27136.7 2268.64   1
   6  -1  -8 26122.9 2009.81   1
   1  -6   8 26033.3 2265.24   1
   5  -6   8 26372.1 2252.40   2
  -1  -5  -8 30225.5 2237.47   1
  -6   1   8 27140.0 2144.02   1
   5  -6   8 25322.9 2149.33   1
   5   1   8 25944.4 2114.16   2
   5  -6   7 139539. 5288.02   1
  -5   6  -7 134714. 5234.53   1
   5   1   7 133801. 5309.79   1
   1   5   7 140454. 5300.82   1
   1  -6   7 133817. 5418.04   2
   6  -1  -7 138189. 5047.19   1
   5  -6   7 137520. 5417.94   2
  -5  -1  -7 139124. 5426.47   1
  -6   1   7 142783. 5201.22   1
  -1   6  -7 131461. 5343.06   1
  -1  -5  -7 145205. 5337.74   1
   5   1   7 139090. 5372.48   2
   1  -6   7 137781. 5476.77   1
  -5   6  -6 27669.0 2115.18   1
   5  -6   6 31001.8 2274.94   2
   5  -6   6 31927.7 2269.86   1
  -1  -5  -6 26984.4 2035.22   1
  -6   1   6 32258.5 2232.47   1
   5   1   6 25825.2 2136.98   1
   1   5   6 25939.9 2112.04   1
   5   1   6 30063.7 2268.92   2
   1  -6   6 30971.5 2355.06   2
   6  -1  -6 31535.7 2136.71   1
  -5  -1  -6 31589.9 2304.81   1
  -1   6  -6 27403.2 2248.38   1
   1  -6   6 29197.5 2300.67   1
  -1  -5  -5 266167. 7588.71   1
   5  -6   5 273065. 7525.64   1
   1  -6   5 248853. 7696.81   1
   5   1   5 241182. 7581.75   1
  -5   6  -5 253260. 7381.39   1
   1   5   5 273704. 7678.40   1
   1  -6   5 261339. 8016.49   2
  -6   1   5 271389. 7568.52   1
   6  -1  -5 270067. 7399.08   1
   5  -6   5 244297. 7632.60   2
  -1   6  -5 259214. 7860.30   1
  -5  -1  -5 265654. 7858.09   1
   5   1   5 267551. 7908.29   2
   5  -6   4 5557.32 920.630   1
   1   5   4 5557.17 958.163   1
  -5   6  -4 5582.84 807.649   1
  -6   1   4 5057.55 837.651   1
  -1  -5  -4 4975.74 883.488   1
  -5  -1  -4 4469.72 827.211   1
   5   1   4 6161.16 999.414   1
   1  -6   4 5753.59 911.856   1
   1  -6   4 5093.23 942.086   2
   5   1   4 5509.99 972.719   2
   6  -1  -4 6369.98 964.163   1
   5  -6   4 5330.74 969.897   2
   6  -5  -4 5194.73 633.046   2
   6  -1  -4 5240.81 713.791   2
  -1   6  -4 5610.56 960.507   1
   5  -6   3 18692.4 1504.87   1
   1  -6   3 21913.9 1956.31   2
   1  -6   3 20496.8 1742.11   1
  -6   1   3 21258.2 1706.90   1
   5   1   3 19726.6 1712.13   1
   6  -1  -3 22033.4 1533.68   2
   1   5   3 21349.0 1765.33   1
   6  -1  -3 18729.3 1585.69   1
   5  -6   3 22770.8 1870.19   2
   6  -5  -3 21800.2 1447.27   2
  -1   6  -3 21899.7 1806.47   1
   5   1   3 21116.7 1861.57   2
  -1  -5  -3 24392.2 1855.54   1
  -5  -1  -3 22448.1 1876.70   1
  -5   6  -3 21014.7 1562.13   1
   6  -5  -1 63190.7 2252.65   1
  -5  -1  -1 79625.7 3610.55   1
  -6   5   1 75675.8 2383.56   1
   5  -6   1 81350.3 3536.58   2
   6  -1  -1 81109.2 3347.54   1
   5   1   1 81753.2 3565.90   1
  -1  -5  -1 76438.6 3491.73   1
   1   5   1 80015.1 3590.98   1
   6  -5  -1 83865.9 3264.73   2
  -1   6  -1 78071.6 3515.48   1
   6  -1  -1 94988.6 3503.51   2
  -6   1   1 74458.4 3403.34   1
   1  -6   1 77381.5 3428.95   1
  -5   6  -1 77719.5 2846.69   1
   5  -6   1 80922.6 2837.80   1
  -6   1   0 302174. 8279.23   1
   6  -5   0 299901. 6937.69   1
  -6   5   0 298655. 6984.70   1
  -5  -1   0 298308. 8501.63   1
   5  -6   0 316562. 6928.48   1
   6  -1   0 321365. 8218.07   1
   5   1   0 315932. 8433.27   1
   1   5   0 294703. 8438.01   1
  -1   6   0 306514. 8284.48   1
   6  -5   0 291612. 7866.90   2
   5  -6   0 303592. 8223.38   2
   6  -1   0 288190. 7941.61   2
   1  -6   0 300906. 8077.96   1
  -1  -5   0 308734. 8455.98   1
  -5   6   0 307830. 6920.75   1
   6  -1   1 517874. 11985.0   2
  -5  -1   1 522277. 12390.3   1
   5   1  -1 526006. 12350.5   1
   6  -5   1 482999. 11806.9   2
  -1   6   1 529844. 12118.5   1
  -6   1  -1 483407. 12058.2   1
   1   5  -1 496447. 12280.1   1
  -1  -5   1 502321. 12268.1   1
   6  -5   2 347488. 8301.37   1
  -6   5  -2 381495. 8508.82   1
   6  -1   2 334686. 8890.80   1
   1  -6  -2 341316. 8709.21   1
   5  -6  -2 342002. 8658.99   2
  -5  -1   2 328527. 9113.65   1
   5   1  -2 368800. 9336.50   1
  -1   6   2 304077. 8548.11   1
   1   5  -2 314860. 9030.35   1
   6  -5   2 334118. 8830.99   2
  -1  -5   2 346695. 9213.27   1
   6  -1   2 341801. 8900.65   2
  -6   1  -2 310838. 8890.33   1
   6  -5   3 77158.2 3177.35   1
  -6   5  -3 68051.0 3021.85   1
   1  -6  -3 79623.4 3290.58   1
   5  -6  -3 82208.2 3303.78   2
   6  -1   3 76752.9 3487.61   1
  -1   6   3 69641.6 3163.60   1
  -5  -1   3 74394.2 3512.67   1
   5   1  -3 68580.7 3347.21   1
   6  -5   3 71979.8 3391.31   2
  -6   1  -3 71450.6 3463.49   1
   6  -1   3 74448.1 3412.04   2
  -1  -5   3 72077.0 3528.90   1
   1   5  -3 77541.7 3685.76   1
   1  -6  -4 20916.0 1591.16   1
  -1  -5   4 17638.5 1699.50   1
  -6   5  -4 17415.9 1498.80   1
   6  -1   4 17578.8 1635.60   1
  -6   1  -4 16903.0 1623.63   1
  -1   6   4 18368.4 1514.82   1
  -5  -1   4 15747.2 1607.81   1
   5  -6  -4 18938.9 1452.46   2
   6  -5   4 16571.8 1548.30   2
   1   5  -4 17393.1 1737.51   1
   6  -1   4 18072.5 1578.08   2
   6  -5   4 16988.9 1461.69   1
   5   1  -4 15489.8 1549.39   1
  -5  -1   5 5643.45 951.807   1
  -6   1  -5 5444.59 962.898   1
   6  -5   5 4711.55 849.306   1
  -1  -5   5 4496.95 895.310   1
  -1   6   5 5670.87 855.639   1
   6  -1   5 5754.17 930.944   1
   6  -1   5 5950.81 954.553   2
   1  -6  -5 5674.97 874.623   1
  -6   5  -5 4878.41 837.497   1
   5   1  -5 5876.34 997.250   1
   6  -5   5 6376.29 1039.85   2
   1   5  -5 5698.65 1005.54   1
  -5  -1   6 148627. 5664.49   1
   6  -5   6 165500. 5630.53   1
  -6   5  -6 153147. 5486.26   1
  -1   6   6 167419. 5376.15   1
  -1  -5   6 156555. 5800.13   1
   6  -1   6 163044. 5755.34   1
  -6   1  -6 159401. 5773.24   1
   6  -5   6 138718. 5492.70   2
   6  -1   6 163017. 5730.41   2
   1   5  -6 141221. 5656.30   1
   1  -6  -6 181333. 5491.67   1
   5   1  -6 171977. 5844.93   1
   6  -5   7 122407. 4871.70   1
  -6   5  -7 122483. 4879.98   1
   6  -1   7 109773. 4717.89   1
  -1   6   7 123585. 4585.87   1
  -6   1  -7 117132. 4849.27   1
  -1  -5   7 115182. 4960.15   1
   6  -5   7 120467. 4934.98   2
   5   1  -7 123825. 4924.11   1
   1   5  -7 122301. 5098.57   1
   1  -6  -7 128978. 4620.41   1
  -5  -1   7 111824. 4831.39   1
   6  -1   7 128927. 5025.59   2
  -5  -1   8 24196.7 2126.95   1
   6  -5   8 25609.3 2147.80   1
  -6   5  -8 24836.1 2122.52   1
   6  -1   8 22509.0 1996.14   1
  -1   6   8 22805.2 1859.05   1
   6  -1   8 24731.5 2038.49   2
  -6   1  -8 22938.1 2033.06   1
  -1  -5   8 27136.2 2220.92   1
   1  -6  -8 29615.6 2017.07   1
   6  -5   8 22172.4 2056.67   2
   1   5  -8 26945.8 2233.73   1
   5   1  -8 23112.5 2015.26   1
  -1  -5   8 27213.5 2263.17   2
   6  -5   9 201001. 7352.62   1
  -5  -1   9 236287. 7724.02   1
   6  -5   9 233826. 7620.25   2
   6  -1   9 210442. 7436.70   1
  -1   6   9 218577. 7009.24   1
  -6   5  -9 228557. 7629.42   1
   6  -1   9 239888. 7667.52   2
  -6   1  -9 235601. 7586.15   1
  -1  -5   9 236901. 7880.58   2
   1  -6  -9 246903. 7162.61   1
   5   1  -9 255318. 7783.14   1
   1   5  -9 227654. 7724.58   1
  -1  -5   9 232719. 7831.59   1
  -5  -1  10 300697. 9247.85   1
  -6   5 -10 302308. 9162.43   1
   6  -1  10 303571. 9145.89   1
  -1   6  10 332969. 8942.40   1
   1   5 -10 279273. 9077.19   1
   6  -5  10 296252. 9117.26   2
  -6   1 -10 289420. 9122.02   1
   1  -6 -10 338276. 8846.48   1
   6  -1  10 307397. 9140.18   2
  -1  -5  10 279703. 9150.65   2
  -1  -5  10 282339. 9192.84   1
   5   1 -10 268431. 8787.54   1
   6  -5  10 285417. 9007.96   1
  -6   5 -11 63560.4 3651.50   1
   6  -1  11 57726.1 3467.87   1
  -1   6  11 66854.0 3545.22   1
  -5  -1  11 60417.3 3688.96   1
   6  -5  11 60058.7 3705.51   1
   6  -5  11 60844.9 3635.04   2
  -6   1 -11 60786.2 3585.28   1
   5   1 -11 66325.0 3675.23   1
   1   5 -11 57020.6 3599.10   1
   6  -1  11 62019.2 3635.52   2
  -1  -5  11 59842.9 3719.19   1
  -1  -5  11 59914.3 3676.77   2
   6  -5  12 31570.7 2676.92   1
  -6   5 -12 32333.3 2641.87   1
   6  -1  12 27308.4 2511.40   1
  -5  -1  12 35926.1 2810.77   1
   6  -5  12 34848.4 2650.80   2
   1   5 -12 33167.9 2639.60   1
  -6   1 -12 32467.2 2685.67   1
  -1  -5  12 33850.8 2688.95   2
  -1  -5  12 33557.9 2755.81   1
   5   1 -12 32546.8 2637.82   1
   6  -1  12 31617.3 2582.94   2
   6  -5  13 25683.4 2425.63   1
   1   5 -13 27713.5 2475.19   1
  -6   5 -13 27543.5 2435.58   1
   6  -1  13 28504.0 2505.24   1
  -5  -1  13 24952.7 2387.59   1
   6  -5  13 21676.6 2245.80   2
  -6   1 -13 24869.4 2333.91   1
  -1  -5  13 31047.4 2677.17   2
   5   1 -13 29434.7 2525.77   1
   6  -1  13 28267.0 2502.22   2
  -1  -5  13 28242.0 2604.87   1
   6  -5  14 139924. 6281.04   1
  -6   5 -14 152093. 6333.92   1
   6  -1  14 142114. 6227.59   1
  -6   1 -14 142553. 6097.54   1
  -5  -1  14 150813. 6446.27   1
  -1  -5  14 140510. 6277.29   1
   6  -5  14 137835. 6108.31   2
  -1  -5  14 132907. 6120.85   2
   5   1 -14 150616. 6308.26   1
   6  -1  14 147335. 6187.02   2
   1   5 -14 138705. 6084.25   1
  -1  -5  15 26719.3 2574.89   1
   6  -5  15 27642.1 2647.94   1
  -6   5 -15 26398.4 2513.63   1
   6  -1  15 30605.7 2602.16   1
  -6   1 -15 30462.8 2614.70   1
  -5  -1  15 26905.7 2673.39   1
   6  -5  15 28653.4 2550.93   2
   6  -1  15 24003.2 2448.56   2
   5   1 -15 29162.0 2710.72   1
   1   5 -15 24292.0 2437.50   1
   6  -5  16 19799.0 2253.25   1
  -6   5 -16 19942.3 2188.08   1
   6  -1  16 22299.4 2307.46   2
   6  -1  16 20577.1 2260.56   1
  -1  -5  16 25541.2 2566.51   1
  -6   1 -16 22305.0 2268.07   1
  -5  -1  16 17855.3 2179.65   1
   6  -5  16 21462.5 2298.54   2
   1   5 -16 24770.2 2396.16   1
   5   1 -16 16136.2 2064.50   1
  -1  -5  17 25238.5 2506.54   1
   6  -5  17 23722.1 2429.24   1
   6  -1  17 24181.6 2442.51   1
  -6   1 -17 21486.8 2290.84   1
   6  -1  17 16481.2 2245.13   2
  -5  -1  17 22696.7 2460.60   1
  -6   5 -17 25468.0 2538.21   1
   6  -5  17 22248.1 2499.49   2
   5   1 -17 19498.3 2332.49   1
   1   5 -17 24557.3 2456.25   1
   6  -5  18 31858.3 3004.66   1
   6  -1  18 30280.4 2840.42   1
  -6   5 -18 32135.7 2863.20   1
  -6   1 -18 30697.7 2726.03   1
  -1  -5  18 29238.5 2920.12   1
  -5  -1  18 27372.8 2813.00   1
   6  -5  18 26724.5 2731.83   2
   1   5 -18 29980.8 2715.75   1
   6  -1  18 29898.4 2885.13   2
   6  -5  19 9819.92 1632.88   2
   6  -1  19 7686.44 1507.76   2
   6   0   1 4634.63 891.347   1
   6  -6   1 4947.34 666.338   1
   6   0  -1 5360.77 937.427   1
   0  -6   1 6158.42 977.166   1
  -6   0  -1 5753.14 908.642   1
  -6   6  -1 5361.94 665.159   1
   6  -6  -1 6562.69 933.236   2
   0   6   1 5065.19 879.996   1
   0  -6  -1 4669.01 847.913   1
   6  -6   1 5568.71 905.885   2
   0   6  -1 5249.19 936.903   1
  -6   0   1 4886.39 902.595   1
   6   0   1 4888.87 875.524   2
   6   0  -1 5143.59 966.780   2
   6  -6   2 13361.2 1181.96   1
  -6   6  -2 15006.9 1218.00   1
  -6   0   2 14739.7 1511.56   1
   0  -6  -2 14392.7 1417.08   1
   0   6  -2 11360.7 1386.03   1
   6   0   2 11973.6 1365.43   1
   6  -6  -2 13525.6 1308.48   2
   6   0  -2 11493.1 1307.48   1
   0   6   2 13248.2 1403.58   1
   6  -6   2 13544.6 1371.18   2
   6   0  -2 13759.3 1403.08   2
   6   0   2 14571.9 1468.31   2
   0  -6   2 15218.9 1570.85   1
  -6   0  -2 12906.8 1415.45   1
   0  -6  -3 7197.91 1027.39   1
   6  -6   3 8777.46 1025.12   1
  -6   6  -3 8744.68 1041.99   1
   6  -6  -3 6721.32 916.678   2
  -6   0   3 8116.13 1075.84   1
   6   0  -3 8727.83 1148.31   1
  -6   0  -3 7619.51 1142.26   1
   6   0   3 7317.77 1090.59   1
   6  -6   3 7624.06 1108.15   2
   0   6   3 8382.10 1129.28   1
   0   6  -3 7356.72 1073.33   1
   6   0   3 7470.33 1061.08   2
   0  -6   3 7616.11 1144.99   1
   6   0   4 285796. 8212.38   2
   6  -6   4 269729. 7777.27   1
  -6   6  -4 274864. 7776.52   1
   0  -6   4 276848. 8262.29   1
   6   0   4 276331. 8248.26   1
   0   6   4 270648. 7893.78   1
  -6   0   4 257723. 7998.24   1
   6   0  -4 290983. 8182.80   1
   0   6  -4 268915. 8271.51   1
   6  -6  -4 293992. 7373.96   2
   6  -6   4 262154. 8069.02   2
  -6   0  -4 289796. 8421.48   1
   6   0  -5 4176.14 866.044   1
   6  -6   5 4092.42 843.300   1
  -6   0  -5 4879.48 835.664   1
   0  -6   5 5095.31 979.616   1
  -6   6  -5 3473.71 709.188   1
   6   0   5 4482.57 896.100   1
  -6   0   5 3809.72 828.508   1
   0  -6  -5 3735.84 805.747   1
   0   6   5 5161.50 915.991   1
   6  -6   5 3999.72 827.540   2
   6   0   5 4605.98 880.683   2
   0   6  -5 4183.53 920.602   1
   0   6  -6 15135.0 1693.57   1
  -6   6  -6 17712.1 1716.32   1
   6   0   6 13778.0 1596.79   1
   0  -6  -6 18893.2 1653.66   1
   0   6   6 17503.9 1672.57   1
   0  -6   6 17013.4 1769.79   1
   0  -6   6 17924.7 1896.21   2
   6  -6   6 16225.7 1619.09   1
   6  -6   6 15442.1 1664.28   2
   6   0  -6 15962.6 1640.48   1
  -6   0   6 13589.4 1482.35   1
  -6   0  -6 18375.5 1809.53   1
   6   0   6 15865.5 1659.32   2
  -6   0   7 3059.79 805.660   1
   6  -6   7 2521.55 736.461   1
   0  -6  -7 3448.46 814.739   1
  -6   6  -7 2904.72 780.450   1
   6   0   7 2524.85 696.021   1
   0  -6   7 3958.93 857.980   2
   0   6   7 2676.48 736.363   1
   0  -6   7 1857.82 634.649   1
   6  -6   7 4156.70 950.521   2
   6   0  -7 2696.04 689.674   1
   6   0   7 2354.49 700.472   2
  -6   0  -7 2210.17 663.623   1
   0   6  -7 3798.00 968.988   1
   6  -6   8 403234. 11079.1   1
  -6   6  -8 392578. 11049.3   1
   6   0   8 423641. 11318.7   1
   0   6   8 427570. 11052.6   1
   6  -6   8 397926. 11183.6   2
   0  -6   8 401998. 11449.8   2
  -6   0  -8 407031. 11179.4   1
   0  -6  -8 449302. 11072.4   1
   0  -6   8 385767. 11251.1   1
   0   6  -8 386943. 11183.5   1
  -6   0   8 391808. 11007.2   1
   6   0  -8 418435. 11031.6   1
   6   0   8 415291. 11090.7   2
   0   6  -9 5450.38 1150.80   1
  -6   0  -9 5758.01 1143.01   1
   0  -6   9 5860.04 1029.37   1
   0  -6  -9 5777.59 980.908   1
   6  -6   9 5968.55 1095.98   1
   6   0  -9 5325.41 988.763   1
   6   0   9 4120.53 905.546   2
   6   0   9 5086.31 1008.43   1
  -6   6  -9 5397.39 1036.02   1
   0   6   9 5449.39 1053.35   1
  -6   0   9 4544.61 1051.26   1
   0  -6   9 4380.76 850.501   2
   6  -6   9 4630.05 969.165   2
   0   6 -10 4537.56 1006.50   1
   0  -6 -10 4939.21 966.795   1
   6   0 -10 5070.57 965.281   1
   6  -6  10 3544.58 965.230   1
   0  -6  10 4095.54 1049.64   1
   6   0  10 3424.60 808.543   1
   0   6  10 4058.79 879.835   1
  -6   6 -10 4704.32 1039.80   1
   0  -6  10 4172.73 934.995   2
  -6   0  10 5663.25 1053.59   1
   6  -6  10 4327.88 1060.22   2
   6   0  10 4758.42 1132.65   2
  -6   0 -10 4473.79 942.658   1
  -6   0 -11 722.351 689.083   1
   0   6 -11 927.306 519.890   1
   6  -6  11 751.908 578.198   1
   0  -6  11 160.411 349.741   1
  -6   0  11 736.253 422.553   1
   6   0  11 144.223 480.572   1
   0   6  11 219.566 540.928   1
  -6   6 -11 1005.43 697.842   1
   0  -6  11 307.981 428.264   2
   6   0  11 1154.44 617.909   2
   6  -6  11-332.265 623.185   2
   6   0 -11 1288.12 681.761   1
   0  -6 -11 866.465 502.080   1
   0  -6  12 327464. 10015.2   2
  -6   0  12 324548. 9946.04   1
  -6   6 -12 321162. 10018.2   1
   6  -6  12 324957. 10136.5   1
   6   0  12 335031. 9977.28   1
   0   6  12 339388. 9928.82   1
   6   0  12 344675. 9969.51   2
  -6   0 -12 344316. 10023.3   1
   0  -6 -12 296849. 9354.04   1
   6  -6  12 337974. 9982.28   2
   6   0 -12 383831. 10354.2   1
   0   6 -12 335530. 10089.9   1
   0  -6  12 349915. 10396.8   1
   0   6 -13-220.981 626.237   1
  -6   0  13 111.392 446.812   1
   6  -6  13-500.623 460.362   1
   6   0  13 119.663 594.167   1
  -6   6 -13 98.4477 553.562   1
   0  -6  13 621.744 427.694   1
   0  -6  13 966.475 539.655   2
  -6   0 -13-948.608 586.315   1
   6  -6  13 254.727 455.161   2
   6   0 -13 109.175 353.989   1
   6   0  13-433.971 538.281   2
   0   6  13-51.6772 494.865   2
   0   6 -14 5206.81 1157.22   1
  -6   0 -14 5639.35 1174.57   1
   6  -6  14 6534.57 1391.43   1
  -6   0  14 4076.07 1059.10   1
   6   0  14 4564.44 1090.85   1
  -6   6 -14 5735.84 1165.84   1
   0  -6  14 4473.00 1211.87   1
   6  -6  14 4243.08 808.248   2
   0  -6  14 4547.27 1129.04   2
   6   0 -14 5059.13 1136.81   1
   6   0  14 3968.35 1035.24   2
   0   6 -15-726.638 437.170   1
   6  -6  15 394.602 603.648   1
   6   0  15 310.871 495.601   1
   0  -6  15-263.638 459.815   2
  -6   6 -15 745.033 712.929   1
   6   0  15-492.693 385.587   2
   0  -6  15-225.716 482.368   1
  -6   0 -15 14.3228 439.881   1
   6  -6  15 315.926 497.630   2
   6  -6  16 118971. 5904.10   1
  -6   6 -16 123629. 5822.47   1
   0  -6  16 116850. 5883.73   1
   6   0  16 127944. 5955.30   1
  -6   0 -16 135598. 5910.12   1
   6  -6  16 112566. 5636.00   2
   0  -6  16 109868. 5708.30   2
   6   0  16 104926. 5531.58   2
   0   6 -16 114484. 5672.94   1
   0   6 -17 1694.71 707.876   1
  -6   0 -17 1770.69 700.851   1
   6  -6  17 550.764 461.569   1
   6   0  17 1629.91 768.878   1
  -6   6 -17 1664.88 779.362   1
   0  -6  17 1561.94 794.401   1
   6  -6  17 1118.81 580.738   2
   6   0  17 2216.31 859.404   2
   0   6 -18 1113.53 634.219   1
   6  -6  18 399.162 647.618   1
   6   0  18 570.176 504.889   1
  -6   6 -18 876.378 536.060   1
  -6   0 -18 513.069 407.895   1
   6  -6  18 38.8311 563.180   2
   6   0  18 1255.01 770.164   2
   0  -6  18 881.681 502.935   1
   3   4  19-384.142 527.216   1
   3   4  18 93978.4 5279.51   1
   4   3  18 98418.3 5396.14   1
  -3  -4 -18 79377.4 4821.28   1
  -4  -3 -18 85645.5 4948.48   1
   4  -7  18 101879. 5494.56   1
   4  -7  18 93625.3 5281.42   2
   3  -7  18 98365.4 5446.06   2
   4   3  18 76799.0 4839.52   2
  -4   7 -18 108874. 5506.05   1
   3   4  17 53175.0 3873.57   1
   4   3  17 55316.8 3923.53   1
  -3  -4 -17 49445.5 3603.20   1
  -4  -3 -17 52881.1 3664.10   1
   4  -7  17 51250.8 3776.09   2
   3  -7  17 54636.5 3913.17   2
   4   3  17 46427.3 3612.41   2
   3   4  17 42939.4 3488.19   2
  -3   7 -17 52616.5 3713.87   1
  -4   7 -17 56262.3 3838.31   1
   4  -7  17 56942.2 3960.45   1
   4   3  16 44247.8 3463.42   1
   3   4  16 41609.3 3379.07   1
   4   3  16 36791.8 3124.70   2
   3  -7  16 38162.9 3195.06   2
  -3  -4 -16 47054.1 3410.11   1
  -4  -3 -16 49568.7 3481.17   1
   4  -7  16 39548.0 3205.79   2
  -4   7 -16 44943.3 3374.38   1
   3   4  16 38843.0 3177.11   2
  -3   7 -16 49099.5 3517.35   1
   3  -7  16 45239.7 3527.49   1
   4  -7  16 42692.1 3443.75   1
   3  -7  15 10176.9 1670.71   1
   4  -7  15 8072.24 1463.83   1
  -3   7 -15 10188.9 1588.16   1
  -4   7 -15 7906.51 1395.15   1
   4   3  15 8516.24 1523.55   1
   3   4  15 8354.31 1436.94   1
   3  -7  15 10075.1 1607.69   2
   4  -7  15 8636.09 1486.08   2
   3   4  15 7001.29 1323.22   2
  -4  -3 -15 7393.88 1338.07   1
  -3  -4 -15 10004.1 1600.70   1
   4   3  15 9224.08 1529.49   2
   4   3  14 133124. 6001.18   1
   3   4  14 127870. 5920.35   1
   3  -7  14 123265. 5934.46   2
  -4  -3 -14 146941. 6143.23   1
  -3  -4 -14 128256. 5850.73   1
   4  -7  14 132300. 5971.94   2
   4   3  14 124110. 5737.07   2
   3   4  14 125276. 5722.17   2
  -3   7 -14 132527. 5946.41   1
  -4   7 -14 135520. 6035.71   1
   3  -7  14 127814. 6027.36   1
   4  -7  14 129875. 6056.74   1
   3  -7  13 4611.31 1128.02   1
   4  -7  13 4921.78 1119.62   1
  -3   7 -13 4309.79 1089.24   1
  -4   7 -13 4437.50 989.559   1
   3  -7  13 5479.05 1201.19   2
   4   3  13 5374.79 1131.20   1
   3   4  13 5407.73 1187.23   1
   4   3  13 5072.53 1100.88   2
  -3  -4 -13 5781.96 1177.67   1
   4  -7  13 5791.02 1215.88   2
  -4  -3 -13 5787.64 1086.43   1
   3   4  13 6765.87 1252.69   2
  -3  -4 -12 8050.46 1346.81   1
   3  -7  12 6584.30 1318.48   1
   4  -7  12 6946.54 1299.24   1
  -3   7 -12 7848.88 1325.75   1
  -4   7 -12 6867.98 1288.40   1
   4   3  12 7122.70 1237.13   1
   3   4  12 7650.14 1232.15   1
   3  -7  12 7226.76 1366.23   2
   4  -7  12 7649.39 1391.13   2
   4   3  12 9733.86 1474.30   2
   3   4  12 8158.25 1308.90   2
  -4  -3 -12 8619.82 1382.68   1
   4   3  11 58780.6 3644.01   1
   3   4  11 71555.1 3964.89   1
  -4   7 -11 62073.5 3771.50   1
  -3  -4 -11 71391.5 3892.53   1
   3  -7  11 61339.8 3814.05   2
   4  -7  11 61392.1 3825.38   2
   4   3  11 66832.0 3826.93   2
  -3   7 -11 64447.3 3869.70   1
   3   4  11 64191.4 3777.86   2
  -4  -3 -11 67855.5 3858.96   1
   4  -7  11 67766.4 3962.65   1
   3  -7  10 31337.8 2644.18   1
   4   3  10 32743.8 2603.27   1
   3   4  10 32789.3 2588.97   1
   4   3  10 30730.2 2502.65   2
   3  -7  10 29941.9 2581.15   2
   4  -7  10 34676.8 2710.83   2
  -3  -4 -10 31273.6 2501.01   1
  -4  -3 -10 30351.5 2465.99   1
  -3   7 -10 30275.6 2577.69   1
   3   4  10 33643.4 2678.91   2
  -4   7 -10 33120.4 2612.01   1
   4  -7  10 32377.4 2624.33   1
   3  -7   9 112039. 5128.65   1
   4   3   9 110428. 4925.13   1
   3   4   9 109449. 4941.93   1
  -3   7  -9 112926. 5053.28   1
   3  -7   9 107089. 5007.86   2
  -4  -3  -9 111978. 4992.96   1
  -3  -4  -9 106954. 4845.37   1
   4   3   9 117191. 5128.03   2
   3   4   9 118699. 5221.60   2
  -4   7  -9 108397. 4958.07   1
   4  -7   9 102063. 4933.67   2
   4  -7   9 105637. 5003.29   1
   4  -7   8 224.393 424.002   1
  -3   7  -8 162.513 323.580   1
  -4   7  -8 557.733 372.991   1
  -4  -3  -8-250.865 391.054   1
  -3  -4  -8 474.258 585.862   1
   3  -7   8-81.5541 396.078   1
   4   3   8-206.211 477.421   1
   3   4   8-310.798 524.488   1
   3  -7   8 204.048 445.958   2
   4  -7   8 1523.47 662.758   2
   4   3   8-140.886 427.686   2
   3  -7   7 135607. 5518.07   2
   4  -7   7 128193. 5377.36   2
   4   3   7 128198. 5307.78   1
   3   4   7 123067. 5216.03   1
   3  -7   7 138700. 5495.39   1
  -4  -3  -7 134364. 5346.63   1
  -4   7  -7 125341. 5268.84   1
  -3  -4  -7 132098. 5274.76   1
  -3   7  -7 130043. 5363.93   1
   4   3   7 140965. 5554.21   2
   4  -7   7 131001. 5290.48   1
  -7   3   6 684493. 14626.3   1
   3  -7   6 699182. 16050.9   2
   3  -7   6 698514. 15903.1   1
   4   3   6 629145. 15544.6   1
   3   4   6 607433. 15376.3   1
  -4  -3  -6 600920. 15365.6   1
   4  -7   6 673619. 15885.8   2
  -3   7  -6 649547. 15604.3   1
  -4   7  -6 670738. 15694.8   1
  -3  -4  -6 644952. 15490.7   1
   3  -7   5 132443. 5058.98   1
  -7   3   5 120014. 4267.59   1
   3  -7   5 116652. 4979.66   2
   4   3   5 114428. 4792.09   1
   3   4   5 116950. 4846.27   1
   7  -3  -5 120744. 4093.53   1
   4  -7   5 114028. 4882.66   2
  -3   7  -5 120494. 4866.18   1
   4  -7   5 125067. 4881.52   1
  -4   7  -5 115944. 4726.33   1
  -4  -3  -5 118497. 4897.75   1
  -3  -4  -5 111147. 4754.72   1
  -4  -3  -4 322403. 9285.06   1
  -3  -4  -4 330446. 9296.01   1
   3  -7   4 310357. 9292.61   2
  -7   3   4 369375. 8614.20   1
   4   3   4 309718. 9108.16   1
   7  -3  -4 299046. 8038.25   1
   3   4   4 332344. 9294.30   1
   4  -7   4 321760. 8893.21   1
   4  -7   4 311355. 9259.18   2
  -3   7  -4 336169. 9166.97   1
   3  -7   4 344098. 9231.66   1
  -4   7  -4 324158. 8916.00   1
   3  -7   3 44745.7 2838.29   2
  -4  -3  -3 42801.2 2684.02   1
   4  -7   3 42091.4 2472.70   1
  -3  -4  -3 45046.5 2768.93   1
   7  -3  -3 48036.1 2349.76   1
   4   3   3 42159.5 2683.19   1
   7  -3  -3 42518.4 2170.99   2
   3   4   3 40647.8 2593.64   1
   4  -7   3 44858.5 2800.07   2
   3  -7   3 47247.9 2660.73   1
   7  -4  -3 44912.4 2196.67   2
  -7   4   3 44503.6 2109.25   1
  -3   7  -3 38074.5 2496.67   1
  -4   7  -3 41424.4 2448.41   1
  -7   3   3 39192.8 2248.50   1
  -4  -3  -2 308216. 8883.37   1
  -3  -4  -2 271352. 8526.96   1
   7  -4  -2 309796. 7463.36   1
   3  -7   2 309640. 8332.59   1
   7  -3  -2 324420. 7994.57   1
   4   3   2 307346. 8710.96   1
   3   4   2 305876. 8762.58   1
   3  -7   2 299929. 8801.35   2
  -7   3   2 347749. 8305.72   1
   4  -7   2 298268. 8701.41   2
  -7   4   2 298084. 7553.37   1
   7  -4  -2 283885. 7727.46   2
  -3   7  -2 329182. 8622.06   1
   4  -7   2 329352. 8332.45   1
  -4   7  -2 319818. 8333.53   1
   7  -3  -2 291731. 7795.81   2
   3  -7   1 48095.0 2494.82   1
   7  -4  -1 42503.9 2142.35   1
  -4  -3  -1 43763.4 2769.99   1
  -3  -4  -1 45726.4 2764.74   1
   7  -3  -1 55980.1 2608.49   1
  -7   4   1 45158.7 2231.86   1
   4  -7   1 42426.8 2294.19   1
   4   3   1 44121.4 2743.42   1
   3  -7   1 45253.7 2815.15   2
   3   4   1 43630.3 2715.12   1
  -3   7  -1 45672.5 2518.69   1
  -4   7  -1 55144.6 2569.82   1
   4  -7   1 42384.5 2679.98   2
   7  -4  -1 54119.9 2617.44   2
   7  -3  -1 40510.7 2357.31   2
  -7   3   1 49262.1 2545.93   1
   4  -7   0 9241.28 935.295   1
   7  -4   0 9238.37 954.934   1
  -4  -3   0 9944.77 1272.74   1
   7  -3   0 9995.46 1089.57   1
   3  -7   0 10565.9 1380.00   2
  -3  -4   0 9116.95 1263.50   1
  -7   4   0 8685.16 1000.59   1
   4  -7   0 7382.46 1095.05   2
  -4   7   0 8952.01 966.713   1
  -3   7   0 9359.53 1069.71   1
   4   3   0 9848.65 1272.72   1
   3   4   0 9899.99 1315.87   1
  -7   3   0 9929.54 1162.72   1
   3  -7   0 10396.4 1100.48   1
   7  -4   0 7609.37 1023.75   2
   7  -3   0 8431.50 1049.65   2
   7  -4   1 70498.3 3134.50   1
  -7   3  -1 82336.0 3574.83   1
   7  -3   1 78612.1 3372.96   1
  -3   7   1 89914.2 3450.05   1
  -4  -3   1 75687.6 3726.08   1
  -3  -4   1 77054.1 3793.96   1
   4   3  -1 77430.2 3786.19   1
  -7   4  -1 78760.5 3340.13   1
   3   4  -1 70903.4 3660.17   1
   3  -7  -1 82999.8 3204.04   1
  -4   7   1 87464.9 3061.86   1
   4  -7  -1 73586.6 2804.42   1
   4  -7  -1 84690.1 3868.42   2
   7  -4   1 85627.3 3587.09   2
   7  -3   1 82229.0 3550.77   2
   7  -4   2 125425. 4525.33   1
   7  -3   2 134880. 4785.11   1
   3  -7  -2 126175. 4218.81   1
  -7   4  -2 120536. 4524.58   1
  -3  -4   2 129969. 5098.41   1
  -4  -3   2 125409. 5112.03   1
  -3   7   2 147627. 4510.61   1
   4   3  -2 142211. 5272.72   1
  -7   3  -2 143072. 4963.36   1
   3   4  -2 139485. 5250.75   1
   7  -4   2 122545. 4713.98   2
   7  -3   2 132782. 4864.03   2
   4  -7  -2 154386. 5352.81   2
   7  -4   3 146045. 4973.66   1
   3  -7  -3 147446. 4430.85   1
   7  -3   3 151758. 5122.99   1
  -3   7   3 139107. 4392.55   1
  -7   4  -3 140170. 5026.98   1
   7  -3   3 128700. 4956.05   2
  -7   3  -3 125082. 4893.00   1
  -4  -3   3 139264. 5407.11   1
  -3  -4   3 144166. 5365.85   1
   4   3  -3 144278. 5401.57   1
   7  -4   3 145541. 5180.28   2
   3   4  -3 146574. 5446.93   1
  -4  -3   4 2990.39 771.990   1
   7  -4   4 2085.16 682.562   2
  -7   3  -4 2579.56 679.124   1
   7  -4   4 2318.84 666.106   1
  -3  -4   4 1987.24 641.820   1
   7  -3   4 1894.91 644.620   1
   4   3  -4 2486.95 752.660   1
   3   4  -4 2106.66 625.706   1
  -7   4  -4 3116.45 697.972   1
   7  -3   4 1959.05 674.988   2
   7  -3   5 269347. 8047.11   2
   7  -4   5 275441. 8033.18   1
   7  -3   5 263006. 7872.21   1
  -7   4  -5 269942. 8028.42   1
  -7   3  -5 274289. 8112.10   1
   4   3  -5 275503. 8303.23   1
   7  -4   5 274149. 8114.39   2
  -4  -3   5 266590. 8282.78   1
  -3  -4   5 257494. 8208.24   1
   3   4  -5 272045. 8277.88   1
  -3  -4   6 501754. 12606.9   1
   7  -4   6 498208. 12347.9   1
   7  -3   6 479773. 12120.3   1
  -7   4  -6 453521. 12007.5   1
   3   4  -6 482663. 12425.8   1
  -7   3  -6 434930. 11998.0   1
   4   3  -6 475984. 12399.7   1
   7  -4   6 525835. 12552.7   2
   7  -3   6 498702. 12391.5   2
  -4  -3   6 446585. 12374.2   1
  -3  -4   7 94136.6 4442.10   1
   7  -4   7 96442.8 4411.48   1
   7  -3   7 93722.9 4359.47   1
   3   4  -7 93932.7 4470.37   1
  -7   4  -7 91521.0 4316.40   1
  -7   3  -7 97735.7 4443.81   1
   4   3  -7 100775. 4518.16   1
   7  -4   7 97821.2 4469.15   2
   7  -3   7 87729.3 4226.96   2
  -4  -3   7 94754.5 4488.05   1
   7  -4   8 204335. 7073.74   1
   7  -3   8 220451. 7322.58   1
  -3  -4   8 218393. 7347.02   1
  -7   4  -8 205569. 7068.08   1
  -7   3  -8 200929. 7066.63   1
   7  -4   8 197175. 7006.84   2
   4   3  -8 210022. 7182.84   1
   3   4  -8 203713. 7169.63   1
   7  -3   8 195574. 6885.12   2
  -4  -3   8 211241. 7240.27   1
  -7   4  -9 1103.63 429.604   1
  -4  -3   9 1892.81 762.785   1
   7  -4   9 831.215 391.250   1
  -3  -4   9 781.137 437.011   1
   7  -3   9 1379.94 629.254   1
  -7   3  -9 1598.01 730.825   1
   7  -4   9 1425.44 738.954   2
   7  -3   9 1299.46 642.582   2
   4   3  -9 1301.37 571.306   1
   3   4  -9 451.893 432.229   1
   7  -3  10 244872. 8070.50   1
   7  -4  10 211163. 7572.76   1
   7  -3  10 233688. 7727.04   2
   3   4 -10 218064. 7652.14   1
  -4  -3  10 207797. 7582.10   1
   7  -4  10 220818. 7598.35   2
  -7   4 -10 216647. 7596.39   1
  -3  -4  10 218209. 7753.04   1
  -7   3 -10 220773. 7641.40   1
   4   3 -10 222098. 7687.75   1
   7  -4  11 25814.2 2431.46   1
   7  -3  11 31230.4 2550.65   1
  -4  -3  11 26356.3 2442.52   1
  -7   4 -11 27109.5 2429.28   1
  -7   3 -11 28915.5 2407.21   1
  -3  -4  11 27184.8 2504.86   1
   4   3 -11 28554.8 2422.77   1
   3   4 -11 26137.1 2388.55   1
   7  -4  11 29328.1 2430.04   2
   7  -3  11 26439.3 2435.60   2
   7  -3  12 11041.8 1630.51   1
  -7   4 -12 11813.7 1623.27   1
   7  -4  12 11807.2 1668.34   1
  -4  -3  12 12848.0 1767.56   1
  -3  -4  12 11283.4 1630.99   1
   7  -4  12 9882.90 1515.52   2
  -7   3 -12 13277.8 1686.35   1
   3   4 -12 13152.0 1725.66   1
   7  -3  12 11156.1 1604.52   2
   4   3 -12 11553.6 1590.89   1
   7  -4  13 78850.2 4505.81   1
   7  -3  13 82830.5 4606.57   1
  -7   4 -13 82397.1 4505.18   1
  -7   3 -13 82706.5 4509.43   1
  -4  -3  13 79974.9 4556.06   1
  -3  -4  13 87204.8 4717.29   1
   7  -4  13 85155.0 4575.53   2
   7  -3  13 79548.6 4393.16   2
   4   3 -13 81789.1 4525.97   1
   3   4 -13 87772.1 4668.10   1
   7  -4  14 35708.6 2949.49   1
   7  -3  14 33969.1 2913.55   1
  -7   4 -14 34166.0 2843.97   1
   4   3 -14 32153.4 2835.49   1
  -7   3 -14 35797.1 2822.33   1
   7  -4  14 36086.0 2895.43   2
  -4  -3  14 34076.9 2944.19   1
  -3  -4  14 33528.8 2900.39   1
   3   4 -14 34336.7 2870.51   1
   7  -3  14 36299.6 2995.30   2
   7  -4  15 37144.7 3089.18   1
  -7   4 -15 39756.7 3113.89   1
   3   4 -15 36212.6 3012.82   1
  -7   3 -15 40164.0 3098.50   1
  -4  -3  15 35833.0 3019.46   1
   7  -3  15 40832.6 3187.49   1
  -3  -4  15 38047.7 3127.98   1
   7  -4  15 33212.6 2868.93   2
   4   3 -15 37583.0 3073.40   1
   7  -3  15 37422.3 2970.36   2
   7  -4  16 1154.43 557.184   1
   7  -3  16 342.391 362.893   1
  -7   4 -16 818.967 558.454   1
  -4  -3  16 1061.98 663.199   1
  -7   3 -16 2135.15 795.426   1
  -3  -4  16 2508.77 882.542   1
   4   3 -16 553.536 461.126   1
   7  -4  16 1742.46 686.854   2
   7  -3  16 1494.01 790.013   2
   3   4 -16 1452.72 629.876   1
   7  -4  17 23357.1 2512.57   1
   7  -3  17 19986.5 2294.21   1
  -7   4 -17 21183.9 2297.96   1
  -7   3 -17 21308.2 2347.03   1
   4   3 -17 19898.1 2321.86   1
  -4  -3  17 19521.5 2281.54   1
  -3  -4  17 20945.0 2386.83   1
   7  -3  17 22189.7 2467.34   2
   3   4 -17 22910.8 2377.61   1
   7  -4  17 18074.3 2124.40   2
   7  -4  18 110515. 5718.90   1
  -7   4 -18 114639. 5590.77   1
  -4  -3  18 103932. 5618.59   1
   7  -4  18 105005. 5443.98   2
   7  -3  18 98825.4 5352.37   2
   4   3 -18 95747.8 5438.23   1
   3   4 -18 102649. 5452.05   1
  -3  -4  18 105628. 5697.59   1
   5   2  18-193.692 351.043   2
  -5  -2 -18 465.231 644.423   1
   5   2  18 771.805 604.914   1
   2  -7  18 440.813 604.605   2
   5  -7  18-15.8497 503.122   2
   2  -7  17 5271.09 1303.94   2
   5  -7  17 5815.49 1324.84   1
  -2   7 -17 4396.13 1094.83   1
  -5   7 -17 4594.77 1154.08   1
   2   5  17 4856.07 1242.11   1
   5   2  17 4207.96 923.417   1
   2  -7  17 3908.36 904.567   1
   5  -7  17 4090.65 1085.15   2
  -5  -2 -17 4164.64 1045.64   1
   5   2  17 4174.45 1143.06   2
   5  -7  16 197456. 8021.31   1
   5   2  16 230722. 8318.07   1
   2   5  16 194266. 8048.36   1
   5  -7  16 197461. 7832.42   2
  -5   7 -16 206680. 7961.90   1
  -2  -5 -16 183610. 7572.91   1
  -5  -2 -16 219187. 8041.04   1
   2  -7  16 186188. 7788.59   2
   2  -7  16 217900. 8327.16   1
   5   2  16 184048. 7668.86   2
   2   5  16 180969. 7596.18   2
  -2   7 -16 200883. 7872.11   1
   5  -7  15-323.556 746.701   1
  -2   7 -15 1495.76 771.011   1
  -5   7 -15 487.406 467.578   1
   5   2  15 340.339 442.700   1
   2   5  15 931.534 543.370   1
   2  -7  15 1221.90 733.135   2
  -2  -5 -15 749.246 609.054   1
  -5  -2 -15 731.196 386.410   1
   5  -7  15 125.295 417.023   2
   2  -7  15 2612.05 1002.80   1
   5   2  15 1096.57 741.774   2
   2   5  15 2375.68 862.073   2
   5  -7  14 3880.96 1045.70   1
  -2   7 -14 3349.77 1028.76   1
  -5   7 -14 3805.63 980.307   1
   5   2  14 4558.80 1150.29   1
   2   5  14 3541.22 1009.01   1
  -5  -2 -14 4628.60 1102.51   1
   2  -7  14 4424.92 1076.05   2
   5  -7  14 3441.80 1018.66   2
   2  -7  14 3278.03 916.582   1
  -2  -5 -14 3352.28 941.585   1
   5   2  14 2956.67 860.064   2
   2   5  14 3379.64 924.972   2
   5  -7  13 198.396 452.692   1
  -2   7 -13-343.647 460.116   1
  -5   7 -13 1373.77 733.631   1
   2  -7  13 1507.20 830.860   2
   5   2  13 736.247 414.877   1
   2   5  13 983.469 682.064   1
   2  -7  13-396.740 678.890   1
   5  -7  13 486.719 451.000   2
  -5  -2 -13 842.988 556.340   1
   5   2  13-322.914 375.797   2
  -2  -5 -13 587.314 521.023   1
   2   5  13 397.130 466.844   2
   5  -7  12 88533.7 4935.37   1
   5   2  12 105506. 5102.83   1
   2   5  12 116430. 5227.26   1
   2  -7  12 101281. 5192.71   1
  -5  -2 -12 103302. 5002.95   1
  -2  -5 -12 115331. 5245.47   1
   2  -7  12 104089. 5209.25   2
   5  -7  12 109088. 5192.61   2
   5   2  12 111876. 5097.56   2
  -2   7 -12 107014. 5188.43   1
   2   5  12 96198.6 4912.08   2
  -5   7 -12 104072. 5156.83   1
  -5  -2 -11 735.336 619.571   1
  -2  -5 -11 1178.36 621.361   1
  -2   7 -11 1601.14 692.645   1
   5  -7  11 442.044 429.354   1
  -5   7 -11 1045.24 518.222   1
   2  -7  11 2557.43 840.470   1
   5   2  11 1266.42 730.289   1
   2   5  11 1514.74 557.168   1
   2  -7  11 548.223 598.207   2
   5  -7  11 1218.63 648.306   2
   5   2  11 836.511 581.616   2
   2   5  11 549.714 582.618   2
   5  -7  10 34415.3 2710.32   1
  -2  -5 -10 36031.9 2713.46   1
   5   2  10 37431.6 2834.94   1
   2   5  10 35777.0 2705.62   1
   2  -7  10 31690.9 2714.90   1
  -5  -2 -10 34754.9 2689.34   1
   2  -7  10 33665.9 2710.45   2
   5  -7  10 37269.3 2814.38   2
   2   5  10 36543.8 2829.26   2
  -2   7 -10 35902.3 2780.69   1
   5   2  10 35476.3 2697.77   2
  -5   7 -10 35071.8 2763.25   1
  -2   7  -9 7147.57 1244.84   1
   5  -7   9 7932.00 1353.82   1
  -5  -2  -9 8290.33 1309.13   1
  -2  -5  -9 7123.23 1157.64   1
  -5   7  -9 5795.30 1116.13   1
   5  -7   9 5037.44 1154.39   2
   5   2   9 5673.13 1074.81   1
   2   5   9 8152.04 1326.39   1
   2  -7   9 5819.19 1187.36   2
   2  -7   9 8581.07 1393.05   1
   5   2   9 8791.80 1355.09   2
   5  -7   8 464908. 12561.0   1
   2  -7   8 473965. 12806.2   1
   5   2   8 476770. 12578.2   1
   2   5   8 468606. 12505.0   1
   7  -2  -8 512675. 12081.8   1
   2  -7   8 491769. 12883.0   2
   5  -7   8 468931. 12718.2   2
  -7   2   8 496634. 12203.7   1
  -2  -5  -8 450845. 12346.4   1
  -5  -2  -8 472293. 12629.6   1
  -2   7  -8 458585. 12594.8   1
   5   2   8 509077. 12842.4   2
  -5   7  -8 459366. 12496.4   1
  -2   7  -7 1199.07 640.489   1
   5  -7   7 1251.71 609.728   1
  -5   7  -7 1912.42 632.754   1
  -5  -2  -7 1843.33 759.054   1
   2  -7   7 1410.10 710.825   2
   2  -7   7 1960.97 702.087   1
  -2  -5  -7 2008.97 663.264   1
   5   2   7 1590.12 553.688   1
   2   5   7 2611.89 817.716   1
  -7   2   7 1552.37 570.765   1
   5  -7   7 863.628 462.123   2
   7  -2  -7 928.207 464.568   1
   5   2   7 2752.53 767.750   2
   5  -7   6 14168.1 1516.33   1
  -2   7  -6 11802.1 1481.60   1
   5   2   6 12828.0 1557.81   1
   2   5   6 13579.0 1524.18   1
   5   2   6 14731.1 1686.43   2
  -7   2   6 12906.6 1385.79   1
   7  -2  -6 14525.1 1406.61   1
   2  -7   6 14187.8 1643.58   2
   2  -7   6 11858.3 1537.55   1
  -5  -2  -6 13722.6 1569.29   1
  -2  -5  -6 11897.2 1442.71   1
   5  -7   6 13059.8 1523.36   2
  -5   7  -6 13174.6 1464.82   1
  -2  -5  -5 20449.7 1866.77   1
  -2   7  -5 21034.1 1940.47   1
  -7   2   5 23523.7 1849.33   1
   5   2   5 23853.8 2044.87   1
   2   5   5 19845.7 1866.13   1
   7  -2  -5 24551.7 1819.91   1
   2  -7   5 24199.4 2080.89   1
   5  -7   5 25802.4 2173.91   2
  -5  -2  -5 26631.3 2156.30   1
   2  -7   5 22275.9 2123.42   2
   5   2   5 26522.8 2171.49   2
  -5   7  -5 26854.1 2039.20   1
   5  -7   5 25059.5 1984.11   1
  -2  -5  -4 671683. 15527.4   1
  -7   2   4 645488. 15007.8   1
   5   2   4 634826. 15429.3   1
   2   5   4 636413. 15353.7   1
   2  -7   4 695809. 15664.8   1
   2  -7   4 633211. 15760.6   2
   5  -7   4 650847. 15610.9   2
  -5   7  -4 667079. 15166.9   1
  -5  -2  -4 652919. 15627.2   1
   5  -7   4 685396. 15161.8   1
   2   5   3 8328.67 1122.91   1
  -5   7  -3 7268.14 1021.50   1
  -5  -2  -3 6080.43 1086.98   1
   2  -7   3 7203.97 1058.91   1
   7  -2  -3 7960.68 974.211   1
  -7   2   3 7229.54 1079.02   1
   5   2   3 8063.69 1133.86   1
   7  -5  -3 5092.20 757.849   2
   5  -7   3 6463.83 1109.32   2
  -2  -5  -3 5498.64 1011.46   1
   7  -2  -3 5843.56 824.554   2
  -2   7  -3 6476.59 1083.96   1
   2  -7   3 7081.48 1225.47   2
   5  -7   2-12.5518 213.940   1
   2  -7   2 810.629 533.067   1
  -5   7  -2 232.665 265.751   1
  -2  -5  -2 214.346 330.176   1
   2  -7   2 85.8237 410.495   2
   7  -2  -2-64.9959 404.708   1
   7  -2  -2-11.5452 280.226   2
   2   5   2-558.428 513.855   1
   5  -7   2 435.316 410.383   2
  -7   2   2 513.312 351.744   1
   7  -5  -2 253.098 327.714   2
  -5  -2  -2 1316.62 595.160   1
   5   2   2-280.507 487.835   1
  -2   7  -2 119.855 340.657   1
  -5   7  -1 528.050 294.802   1
   5  -7   1 165.988 226.217   1
  -2  -5  -1 440.728 558.739   1
   7  -2  -1 823.254 462.065   1
  -7   2   1 97.8223 320.948   1
   5   2   1 264.517 370.301   1
   5  -7   1 106.933 355.600   2
   2   5   1 75.2001 462.276   1
   2  -7   1-417.588 353.318   1
   7  -5  -1 421.469 319.135   2
  -2   7  -1 566.852 366.227   1
  -5  -2  -1-297.759 531.781   1
   7  -2  -1 841.633 437.652   2
  -5  -2   0 526356. 13617.9   1
   7  -2   0 644605. 13547.0   1
   5  -7   0 587597. 13605.9   2
   5   2   0 539030. 13608.6   1
  -2  -5   0 518153. 13492.5   1
   2  -7   0 610514. 13376.5   1
   2   5   0 582257. 13880.9   1
  -2   7   0 549161. 13250.4   1
   7  -5   0 539013. 13040.6   2
  -7   2   0 568104. 13406.1   1
   7  -5   1 10281.2 1032.92   1
  -5  -2   1 9164.56 1221.65   1
  -7   5  -1 8984.34 973.716   1
  -7   2  -1 8626.96 1139.88   1
   7  -2   1 8218.28 1063.42   1
  -2   7   1 9425.56 1152.41   1
   5  -7  -1 8199.12 1153.83   2
   5   2  -1 8768.30 1294.03   1
  -2  -5   1 9025.66 1278.65   1
   2   5  -1 7499.91 1095.58   1
   7  -5   1 8121.95 1095.54   2
   7  -2   1 7117.18 1030.66   2
   2  -7  -1 7727.86 998.627   1
   5   2  -2 10227.7 1316.28   1
   7  -5   2 9365.65 1055.71   1
   7  -5   2 10211.2 1213.92   2
  -7   5  -2 12668.0 1176.91   1
   2  -7  -2 9779.09 1148.87   1
  -5  -2   2 10377.6 1306.95   1
   7  -2   2 10654.8 1244.88   1
  -2   7   2 11562.7 1258.84   1
   5  -7  -2 11436.0 1284.04   2
  -7   2  -2 10537.2 1294.81   1
   2   5  -2 10171.8 1297.86   1
   7  -2   2 10911.7 1211.27   2
  -2  -5   2 9697.61 1328.01   1
   2  -7  -3 7051.24 904.821   1
  -7   2  -3 5562.05 1006.85   1
   7  -5   3 4707.08 793.050   1
  -2  -5   3 5684.45 1012.57   1
   7  -2   3 3873.20 808.930   1
   7  -2   3 4863.67 866.172   2
   5  -7  -3 6476.28 1017.73   2
  -2   7   3 5894.70 900.554   1
  -7   5  -3 6654.98 946.844   1
   5   2  -3 5680.01 961.641   1
   7  -5   3 4891.36 923.669   2
   2   5  -3 6068.88 1029.96   1
  -5  -2   3 5904.74 995.594   1
   2  -7  -4 315237. 8237.50   1
   7  -5   4 308988. 8530.86   1
   7  -2   4 316341. 8907.64   1
  -7   5  -4 307344. 8597.20   1
   2   5  -4 314567. 9213.94   1
  -2   7   4 339872. 8406.29   1
   5   2  -4 305744. 8969.76   1
  -5  -2   4 292032. 8947.44   1
  -7   2  -4 308509. 8909.31   1
   7  -2   4 332269. 9025.28   2
  -2  -5   4 318891. 9237.45   1
   7  -5   4 310508. 8859.48   2
  -7   2  -5 3791.10 854.668   1
   2   5  -5 3258.44 828.076   1
   7  -5   5 4311.97 857.228   1
   7  -2   5 4441.77 905.524   1
   7  -2   5 3303.69 712.009   2
  -7   5  -5 4627.50 957.620   1
  -2   7   5 4168.18 770.982   1
   5   2  -5 3444.04 754.464   1
   7  -5   5 5420.49 932.545   2
  -2  -5   5 4028.15 900.131   1
   2  -7  -5 3911.80 713.018   1
  -5  -2   5 2898.08 758.536   1
  -7   2  -6 1002.73 628.540   1
  -2  -5   6 1048.72 506.018   1
  -5  -2   6 818.729 528.723   1
   7  -5   6 772.087 483.324   1
   7  -2   6 850.750 499.403   1
   7  -2   6 929.189 569.417   2
  -2   7   6 284.551 261.512   1
  -7   5  -6 635.863 426.658   1
   5   2  -6 556.542 384.770   1
   7  -5   6 2295.34 792.646   2
   2   5  -6 328.919 436.202   1
   7  -5   7 14170.8 1577.46   1
  -2  -5   7 13945.5 1654.48   1
   7  -2   7 11912.4 1455.76   1
  -7   5  -7 16542.6 1700.70   1
  -7   2  -7 13167.4 1610.98   1
   5   2  -7 14138.5 1624.29   1
   2   5  -7 13887.4 1702.06   1
   7  -2   7 14651.6 1628.19   2
  -5  -2   7 16387.5 1837.17   1
   7  -5   7 12566.5 1515.76   2
   7  -5   8 829496. 18296.4   1
  -2  -5   8 785796. 18399.8   1
  -7   5  -8 774743. 17990.7   1
   7  -5   8 798223. 18079.1   2
  -7   2  -8 753986. 17973.5   1
   2   5  -8 750797. 18156.9   1
   5   2  -8 700945. 17677.8   1
   7  -2   8 762430. 17867.4   2
  -5  -2   8 748658. 18104.6   1
   7  -5   9 5171.49 1029.28   1
   7  -2   9 5074.53 1039.19   1
  -5  -2   9 7072.74 1230.04   1
  -2  -5   9 6475.78 1245.53   1
   7  -5   9 5912.53 1084.11   2
   5   2  -9 5113.62 986.122   1
  -7   2  -9 7607.74 1232.43   1
   7  -2   9 7252.46 1201.50   2
  -7   5  -9 6953.16 1261.86   1
   2   5  -9 6266.22 1127.68   1
  -5  -2  10-84.8103 459.493   1
   7  -5  10 679.786 427.091   1
   2   5 -10 819.942 509.694   1
   7  -2  10-11.5981 348.987   1
  -2  -5  10 746.145 526.909   1
   7  -5  10 267.362 398.111   2
  -7   2 -10 405.250 399.980   1
   5   2 -10 1021.61 526.284   1
   7  -2  10 316.590 422.515   2
  -7   5 -10 512.058 405.231   1
  -5  -2  11 974.623 494.289   1
   5   2 -11 1034.27 573.176   1
   7  -5  11 1307.51 656.377   1
   7  -2  11 2182.97 945.747   1
  -7   5 -11 952.581 459.886   1
  -2  -5  11 1913.66 780.049   1
  -7   2 -11 1937.16 688.366   1
   7  -5  11 1578.38 668.169   2
   7  -2  11 864.090 678.233   2
   2   5 -11 1643.82 746.981   1
   7  -5  12 104283. 5238.54   1
   7  -2  12 115306. 5329.10   1
  -5  -2  12 105308. 5234.16   1
  -7   5 -12 106189. 5146.21   1
  -7   2 -12 111219. 5159.84   1
   2   5 -12 106054. 5160.92   1
  -2  -5  12 101950. 5167.76   1
   7  -5  12 108049. 5065.09   2
   7  -2  12 100058. 5047.11   2
   5   2 -12 109265. 5212.23   1
   2   5 -13-150.378 423.130   1
   7  -5  13 1443.60 818.912   1
  -5  -2  13 167.498 381.743   1
   7  -2  13 945.833 507.821   1
  -7   5 -13 738.347 509.365   1
  -7   2 -13 1299.52 850.069   1
  -2  -5  13 909.152 458.139   1
   7  -5  13 1299.58 785.572   2
   7  -2  13-59.4567 473.123   2
   5   2 -13 820.336 472.913   1
   2   5 -14-38.8962 505.802   1
   7  -5  14-42.1814 489.891   1
  -5  -2  14 1199.94 481.173   1
   7  -2  14 897.217 752.160   1
  -7   5 -14 588.739 519.184   1
  -7   2 -14-370.921 543.931   1
  -2  -5  14-637.643 687.211   1
   7  -5  14 1219.76 752.917   2
   7  -2  14 58.9096 393.137   2
   5   2 -14 262.745 419.586   1
   2   5 -15 997.965 518.216   1
   7  -5  15 1737.50 810.286   1
   7  -2  15 723.540 612.024   1
  -5  -2  15 1437.21 724.066   1
   7  -5  15 1238.99 631.976   2
  -7   5 -15 531.487 475.317   1
  -7   2 -15 861.903 615.361   1
  -2  -5  15 1833.26 684.877   1
   7  -2  15 961.339 524.501   2
   5   2 -15 261.221 408.345   1
   7  -5  16 142811. 6560.05   1
   7  -2  16 152118. 6626.14   1
  -7   5 -16 151003. 6534.29   1
  -5  -2  16 144143. 6644.40   1
  -7   2 -16 155353. 6556.06   1
   2   5 -16 149843. 6591.11   1
   5   2 -16 124183. 6170.93   1
  -2  -5  16 154294. 6862.75   1
   7  -5  16 151139. 6560.74   2
   7  -2  16 146181. 6523.95   2
   2   5 -17 2180.81 880.762   1
   7  -5  17 1985.41 819.031   1
   7  -2  17 2056.26 763.794   1
  -5  -2  17 1489.60 805.112   1
  -7   5 -17 1827.31 643.051   1
  -7   2 -17 1499.21 739.440   1
   7  -5  17 1486.28 657.704   2
   7  -2  17 616.573 513.891   2
  -2  -5  17 1748.96 784.976   1
   5   2 -17 1803.72 756.760   1
  -5  -2  18 2058.44 717.199   1
   7  -5  18 3249.37 904.671   2
   7  -2  18 2115.65 845.184   2
   5   2 -18 3564.59 1000.21   1
   6  -7  17 50699.4 3865.94   1
   1  -7  17 53911.2 3898.93   1
   6   1  17 60604.1 4056.28   1
  -6  -1 -17 54761.8 3730.88   1
   1  -7  17 40013.3 3500.58   2
   6  -7  17 52828.7 3817.36   2
   6   1  17 52254.9 3816.56   2
  -1   7 -17 52494.4 3724.18   1
  -6   7 -17 57363.7 3938.36   1
  -1   7 -16 1363.33 677.125   1
   6  -7  16 1329.04 656.213   1
  -6   7 -16 2124.86 815.445   1
   6   1  16 1239.92 592.500   1
   1  -7  16 2017.39 830.632   1
   6  -7  16 1651.56 764.878   2
  -6  -1 -16 701.750 344.537   1
   1  -7  16 1554.68 767.791   2
   6   1  16 172.511 391.949   2
  -6   7 -15 47360.2 3517.04   1
   6  -7  15 46606.0 3612.61   1
   1  -7  15 48371.8 3567.33   1
  -1   7 -15 49512.1 3520.16   1
   6   1  15 54147.3 3728.93   1
   1  -7  15 44261.1 3463.82   2
  -6  -1 -15 54840.0 3697.61   1
   6  -7  15 41786.7 3291.27   2
   6   1  15 49987.9 3593.31   2
  -6   7 -14 82589.4 4672.81   1
   6  -7  14 69488.6 4563.61   1
   1  -7  14 94246.9 5001.49   1
   6   1  14 87594.0 4743.34   1
   1   6  14 82370.2 4677.94   1
  -6  -1 -14 86125.3 4625.06   1
   6  -7  14 87463.1 4747.15   2
   1  -7  14 79715.8 4658.33   2
   6   1  14 76930.5 4585.20   2
  -1   7 -14 80282.0 4641.63   1
   1   6  14 60881.9 4003.97   2
  -6   7 -13 17559.7 2051.74   1
   6  -7  13 14291.4 1907.11   1
   1  -7  13 15347.0 1979.93   1
   6   1  13 13614.4 1919.51   1
   1   6  13 14430.9 1857.80   1
   1  -7  13 14419.0 1929.78   2
  -6  -1 -13 17012.4 2000.11   1
  -1  -6 -13 13905.0 1800.42   1
   6   1  13 16341.5 1889.69   2
   6  -7  13 15427.2 1866.19   2
  -1   7 -13 16179.1 1948.39   1
   1   6  13 12701.5 1661.65   2
  -6   7 -12 19432.8 2158.17   1
   6  -7  12 22761.6 2314.25   1
   6   1  12 20121.0 2142.96   1
   1   6  12 23429.8 2269.03   1
  -6  -1 -12 22635.2 2245.47   1
  -1  -6 -12 18258.5 2062.72   1
   1  -7  12 20521.7 2189.47   2
   6  -7  12 20472.8 2214.43   2
  -1   7 -12 22341.2 2231.71   1
   6   1  12 24923.4 2296.35   2
   1   6  12 16393.4 1885.60   2
   1  -7  12 22254.1 2356.76   1
  -1   7 -11 8951.57 1507.74   1
  -1  -6 -11 8133.76 1256.83   1
   6  -7  11 7351.37 1369.07   1
  -7   1  11 6412.15 1261.74   1
  -6   7 -11 7818.11 1269.45   1
   1  -7  11 9162.63 1439.93   1
   6   1  11 7453.93 1257.04   1
   1   6  11 7565.96 1288.22   1
   6  -7  11 7802.08 1288.99   2
   1  -7  11 8213.13 1355.79   2
   6   1  11 8684.09 1344.89   2
   1   6  11 4936.65 1108.53   2
  -6  -1 -11 8609.89 1389.52   1
  -6   7 -10 121628. 5543.38   1
   6  -7  10 126972. 5683.62   1
   1  -7  10 116236. 5495.35   2
   6   1  10 120339. 5412.93   1
   1   6  10 129576. 5586.67   1
   7  -1 -10 139494. 5551.36   1
  -1  -6 -10 130239. 5487.27   1
   6  -7  10 125782. 5572.81   2
  -7   1  10 127340. 5502.71   1
  -1   7 -10 133649. 5706.52   1
  -6  -1 -10 121239. 5403.40   1
   1  -7  10 121270. 5599.30   1
   6   1  10 127795. 5426.23   2
  -6   7  -9 34650.3 2731.91   1
   6  -7   9 37087.6 2809.54   1
   6   1   9 34829.0 2711.48   1
   1   6   9 38248.5 2785.41   1
   6   1   9 36288.4 2678.36   2
   7  -1  -9 38643.3 2657.65   1
  -6  -1  -9 32825.1 2648.82   1
   1  -7   9 32940.7 2713.35   2
  -7   1   9 38481.9 2815.10   1
  -1  -6  -9 36516.6 2677.21   1
   1  -7   9 33007.1 2735.00   1
  -1   7  -9 29803.3 2561.01   1
   6  -7   9 31789.3 2640.05   2
  -6   7  -8 115979. 5016.20   1
   6  -7   8 115031. 5063.46   1
   6   1   8 112012. 4959.66   1
   1   6   8 110343. 4913.72   1
   7  -1  -8 119341. 4856.88   1
   1  -7   8 99541.0 4929.76   2
  -6  -1  -8 113514. 4983.49   1
   1  -7   8 106699. 5056.56   1
  -7   1   8 100779. 4748.97   1
  -1  -6  -8 126169. 5209.63   1
  -1   7  -8 113327. 5148.42   1
   6   1   8 114125. 5019.88   2
   6  -7   8 117636. 5148.90   2
  -6   7  -7 89953.8 4300.05   1
   6  -7   7 97876.4 4493.10   1
   6   1   7 88604.2 4368.57   1
   1   6   7 91725.2 4357.03   1
  -7   1   7 95815.0 4377.33   1
   1  -7   7 85420.7 4350.43   1
   7  -1  -7 87899.6 4093.88   1
   1  -7   7 84580.4 4422.53   2
   6  -7   7 85860.0 4360.60   2
  -6  -1  -7 88907.0 4408.84   1
  -1   7  -7 87693.0 4427.66   1
   6   1   7 91995.2 4330.22   2
  -6   7  -6 434584. 11397.0   1
   6  -7   6 434321. 11443.2   1
   1  -7   6 419007. 11933.0   2
   6   1   6 406304. 11441.4   1
   1   6   6 434980. 11509.4   1
  -7   1   6 472451. 11647.2   1
   1  -7   6 445642. 11790.7   1
   6  -7   6 419491. 11567.5   2
   7  -1  -6 437109. 11259.9   1
  -1   7  -6 440945. 11820.4   1
  -6  -1  -6 409572. 11589.4   1
   6   1   6 420008. 11496.6   2
  -1  -6  -6 435552. 11402.5   1
   6  -7   5 125478. 4909.36   1
  -1  -6  -5 127940. 5061.52   1
   1  -7   5 113853. 4998.26   1
   6   1   5 114578. 4969.75   1
  -7   1   5 123859. 4959.46   1
   1   6   5 125215. 5066.10   1
   7  -1  -5 131083. 5027.73   1
   1  -7   5 129116. 5426.07   2
   6  -7   5 120836. 5117.24   2
  -6  -1  -5 124963. 5150.21   1
  -1   7  -5 123255. 5219.14   1
   6   1   5 126646. 5167.10   2
  -6   7  -5 126520. 4956.32   1
   6  -7   4 11899.7 1303.46   1
  -1  -6  -4 12367.0 1453.01   1
   1  -7   4 9826.33 1361.54   1
  -7   1   4 11494.0 1384.04   1
   1  -7   4 10978.4 1446.58   2
   1   6   4 11983.5 1377.87   1
  -6  -1  -4 11457.2 1477.15   1
   7  -1  -4 12106.1 1415.20   1
   6   1   4 10864.5 1338.04   1
   6  -7   4 12057.8 1457.40   2
   7  -1  -4 12095.6 1217.94   2
  -1   7  -4 11979.0 1495.10   1
   6   1   4 11732.6 1383.85   2
  -6   7  -4 11413.9 1289.40   1
   6  -7   3 280112. 7840.94   1
   1  -7   3 322659. 8815.78   1
  -1  -6  -3 295976. 8609.24   1
  -7   1   3 306011. 8665.35   1
   6   1   3 295362. 8623.10   1
   7  -1  -3 288843. 8245.31   1
   1   6   3 269707. 8390.24   1
  -1   7  -3 272237. 8425.43   1
   7  -1  -3 271089. 7786.26   2
   6   1   3 305023. 8790.49   2
  -6  -1  -3 280731. 8566.15   1
  -6   7  -3 307679. 8067.29   1
   6  -7   3 284189. 8511.06   2
  -6  -1  -2 182366. 6394.39   1
  -7   1   2 197351. 6430.81   1
  -1  -6  -2 164062. 5982.81   1
   6   1   2 173449. 6217.81   1
   7  -1  -2 192982. 6108.25   1
   1   6   2 177853. 6284.62   1
   6  -7   2 166281. 6134.51   2
   7  -6  -2 177067. 5675.40   2
  -1   7  -2 185040. 6396.09   1
   7  -1  -2 196877. 5997.13   2
   1  -7   2 194516. 6417.92   1
  -6   7  -2 189538. 5609.41   1
   6   1   2 206540. 6670.00   2
  -7   1   1 255363. 7768.80   1
  -6  -1  -1 248082. 7865.29   1
   1  -7   1 255131. 7697.86   1
   7  -1  -1 254594. 7569.75   1
  -1  -6  -1 258347. 7833.76   1
   6   1   1 259224. 7791.25   1
   1   6   1 261618. 7990.91   1
  -1   7  -1 253777. 7804.19   1
   6  -7   1 275130. 7902.02   2
   7  -6  -1 262369. 7480.23   2
   7  -1  -1 252805. 7403.11   2
   6   1   1 271476. 8127.43   2
  -6  -1   0 51332.3 3114.25   1
   7  -1   0 53319.4 2955.16   1
   6   1   0 53493.5 3014.93   1
  -1  -6   0 64939.3 3341.55   1
   1   6   0 51201.5 3057.35   1
  -1   7   0 62917.7 3231.19   1
   6  -7   0 57210.3 3027.53   2
   1  -7   0 54447.6 2952.18   1
   7  -6   0 57658.7 2986.31   2
   7  -1   0 62042.5 3088.98   2
  -7   1   0 54672.1 3168.39   1
  -6  -1   1 307.562 440.908   1
   6   1  -1 346.157 321.038   1
  -7   1  -1 472.656 293.864   1
   7  -1   1 1153.81 519.951   1
   1  -7  -1 531.290 268.877   1
   6  -7  -1 1038.44 449.182   2
  -1   7   1 678.108 486.583   1
   7  -6   1 672.258 408.773   2
   1   6  -1 343.526 393.772   1
  -1  -6   1 856.611 507.207   1
   7  -1   1 1072.35 607.004   2
   7  -1   2 406673. 10291.3   2
   7  -6   2 385493. 10213.2   2
   7  -6   2 369460. 9459.70   1
  -7   6  -2 414608. 9595.45   1
  -6  -1   2 370521. 10368.1   1
   7  -1   2 395408. 10341.0   1
   1  -7  -2 373059. 9939.41   1
   6   1  -2 382514. 10323.4   1
  -1   7   2 364442. 10098.7   1
   1   6  -2 395162. 10641.9   1
   6  -7  -2 411900. 10163.5   2
  -7   1  -2 389498. 10441.9   1
  -1  -6   2 349316. 10197.5   1
   1  -7  -3 5247.01 905.368   1
   7  -6   3 3752.23 723.465   1
  -6  -1   3 3728.77 799.631   1
  -7   1  -3 4401.26 928.222   1
  -1  -6   3 4908.04 980.150   1
   6   1  -3 3901.75 955.120   1
   7  -1   3 3479.17 836.032   1
  -7   6  -3 3208.76 671.102   1
   6  -7  -3 3440.60 648.220   2
  -1   7   3 2355.21 680.534   1
   7  -6   3 3163.05 742.228   2
   1   6  -3 4172.29 871.227   1
   7  -1   3 3546.19 779.646   2
   7  -6   4 113210. 4482.88   1
  -7   1  -4 102825. 4686.74   1
   1  -7  -4 114324. 4525.52   1
  -7   6  -4 121511. 4590.16   1
   7  -1   4 111481. 4731.75   1
  -1   7   4 127698. 4725.18   1
  -6  -1   4 104810. 4754.28   1
   6   1  -4 118110. 4828.74   1
   7  -6   4 113511. 4782.81   2
   6  -7  -4 127985. 4605.28   2
  -1  -6   4 112764. 4906.85   1
   1   6  -4 114285. 4943.35   1
   7  -1   4 112467. 4689.30   2
  -1  -6   5 171774. 6193.54   1
   7  -6   5 161788. 5749.39   1
  -7   6  -5 167096. 5824.47   1
  -7   1  -5 149049. 5909.40   1
   7  -1   5 165050. 6055.00   1
  -1   7   5 171404. 5786.07   1
   6   1  -5 166728. 5973.26   1
  -6  -1   5 162201. 6068.69   1
   7  -6   5 162845. 6008.92   2
   7  -1   5 157142. 5769.74   2
   1   6  -5 152951. 6009.16   1
   1  -7  -5 169154. 5732.92   1
   7  -6   6 314117. 9119.19   1
  -7   6  -6 324481. 9167.78   1
  -1  -6   6 333698. 9635.48   1
   7  -1   6 285873. 9024.25   1
  -1   7   6 333800. 8991.38   1
   6   1  -6 304162. 9093.90   1
  -6  -1   6 308782. 9279.44   1
   7  -6   6 318483. 9306.33   2
   1   6  -6 301108. 9375.67   1
  -7   1  -6 306912. 9241.50   1
   7  -1   6 342008. 9421.96   2
   1  -7  -6 306881. 8757.75   1
   7  -6   7 289011. 8441.87   1
  -7   6  -7 260537. 8167.37   1
  -1  -6   7 239626. 8146.17   1
   7  -1   7 293716. 8510.78   1
  -7   1  -7 237913. 8004.79   1
  -1   7   7 277170. 8011.00   1
   7  -6   7 248170. 8165.71   2
   6   1  -7 256779. 8154.76   1
  -6  -1   7 230994. 8008.57   1
   1   6  -7 256081. 8394.85   1
   1  -7  -7 253540. 7731.74   1
   7  -1   7 258709. 8163.72   2
   7  -6   8-370.258 395.859   1
  -6  -1   8 52.1070 371.833   1
   6   1  -8-415.676 436.379   1
   7  -1   8 1088.30 534.296   1
  -1  -6   8 382.631 400.246   1
  -1   7   8-22.8069 392.763   1
  -7   1  -8 1203.05 692.877   1
  -7   6  -8 21.7967 279.837   1
   1   6  -8-80.4720 379.834   1
   7  -6   8 247.806 465.682   2
   7  -1   8 1426.58 810.234   2
   7  -6   9 85669.5 4338.43   1
  -7   6  -9 82247.7 4314.84   1
   7  -1   9 90757.6 4440.08   1
  -1  -6   9 84395.0 4416.58   1
  -7   1  -9 89632.5 4426.47   1
   6   1  -9 84825.4 4257.39   1
   7  -6   9 82821.2 4331.47   2
   1   6  -9 78187.2 4287.32   1
   7  -1   9 87043.9 4459.37   2
  -6  -1   9 79934.0 4369.54   1
   7  -6  10 157233. 6358.97   1
  -7   6 -10 153046. 6295.23   1
   7  -1  10 142308. 6061.55   1
   1   6 -10 157775. 6401.45   1
   7  -1  10 160565. 6283.30   2
  -1  -6  10 163283. 6517.07   1
  -7   1 -10 159762. 6299.14   1
  -6  -1  10 160486. 6522.60   1
   7  -6  10 152327. 6192.79   2
   7  -6  11 43236.5 3184.33   1
  -7   6 -11 40535.7 3062.73   1
   7  -1  11 45605.4 3148.63   1
  -6  -1  11 39625.2 3138.72   1
  -7   1 -11 46193.5 3162.28   1
  -1  -6  11 40443.5 3165.98   1
   6   1 -11 45016.2 3105.43   1
   7  -6  11 46032.7 3180.95   2
   1   6 -11 44825.1 3244.36   1
   7  -1  11 43729.9 3050.34   2
  -6  -1  12 16490.6 1969.55   1
   7  -6  12 17726.7 2027.87   1
  -7   6 -12 16804.8 1997.47   1
   7  -1  12 18420.1 2070.28   1
   1   6 -12 17692.8 1990.58   1
  -1  -6  12 19532.0 2135.33   1
  -7   1 -12 20502.1 2129.26   1
   6   1 -12 18765.9 2093.00   1
  -1  -6  12 15281.0 1889.42   2
   7  -6  12 19004.6 2082.23   2
   7  -1  12 17731.4 2022.89   2
  -6  -1  13 23040.9 2425.27   1
   7  -6  13 20557.1 2338.34   1
  -7   6 -13 24858.0 2442.48   1
   7  -1  13 27218.6 2585.98   1
  -1  -6  13 25456.6 2568.10   2
  -7   1 -13 25400.4 2405.23   1
   6   1 -13 20702.9 2257.92   1
  -1  -6  13 23120.9 2352.38   1
   7  -6  13 24505.1 2385.97   2
   1   6 -13 26383.7 2475.69   1
   7  -1  13 22220.9 2311.85   2
   7  -6  14 62533.0 4068.34   1
  -6  -1  14 59805.6 4024.91   1
  -7   6 -14 62763.9 4015.97   1
  -1  -6  14 60674.3 4178.81   2
   7  -1  14 68649.7 4200.66   1
  -7   1 -14 66276.0 3991.53   1
   6   1 -14 61740.3 4030.76   1
  -1  -6  14 67725.4 4249.18   1
   1   6 -14 65414.9 4077.23   1
   7  -1  14 63078.0 4078.60   2
   7  -6  14 58373.0 3836.77   2
   1   6 -15 9559.77 1561.60   1
  -6  -1  15 9090.79 1607.08   1
   7  -6  15 9880.44 1659.51   1
   7  -1  15 10335.7 1645.45   1
  -7   6 -15 11266.7 1672.22   1
  -7   1 -15 7959.83 1403.49   1
   7  -6  15 10641.5 1654.26   2
   7  -1  15 7950.80 1438.35   2
   6   1 -15 8295.24 1407.98   1
  -1  -6  15 10316.0 1646.34   1
   7  -6  16 24024.7 2589.60   1
  -7   6 -16 25846.6 2603.76   1
  -6  -1  16 19207.9 2288.61   1
   7  -1  16 23011.1 2460.59   1
  -7   1 -16 21633.9 2303.84   1
   7  -6  16 24033.3 2441.98   2
  -1  -6  16 26231.6 2632.62   1
   7  -1  16 22428.7 2502.38   2
   1   6 -16 24396.9 2498.25   1
   1   6 -17 5720.77 1308.51   1
   7  -6  17 6698.51 1217.04   1
   7  -1  17 6237.15 1189.76   1
  -7   6 -17 8567.11 1502.52   1
  -7   1 -17 6817.91 1289.11   1
   7  -1  17 5898.96 1297.45   2
   7  -6  17 6463.90 1360.22   2
  -1  -6  17 7870.96 1540.51   1
   7   0   0-50.9161 323.621   1
   0  -7   0-87.2208 320.827   1
  -7   0   0 716.595 437.955   1
   0   7   0 466.036 429.241   1
   7  -7   0-113.906 382.751   2
   7   0   0 220.712 490.393   2
   7  -7  -1 3599.23 834.105   2
   0  -7  -1 3166.59 745.359   1
   7   0   1 2812.51 674.350   1
   7   0  -1 3191.25 746.495   1
  -7   0  -1 2523.06 718.686   1
   0   7   1 3944.35 914.148   1
   7  -7   1 3182.23 696.227   2
   0   7  -1 3182.65 861.778   1
  -7   0   1 3325.56 807.758   1
   0  -7   1 3188.35 860.983   1
   7   0   1 3092.46 735.491   2
   7   0  -1 4446.08 912.550   2
  -7   0   2 188338. 6688.45   1
   0  -7  -2 178255. 6435.66   1
   7   0   2 194339. 6622.01   1
   7   0  -2 209948. 6743.58   1
   0   7   2 185091. 6601.72   1
  -7   0  -2 175785. 6569.70   1
   7  -7   2 203527. 6708.48   2
   7  -7  -2 201561. 6385.12   2
   0  -7   2 198637. 6737.85   1
   7   0   2 206545. 6750.03   2
   7   0  -2 207943. 6645.25   2
   0   7  -2 190376. 6764.01   1
   0  -7  -3 291505. 8731.93   1
  -7   0   3 305429. 8998.71   1
   7   0   3 270207. 8617.48   1
   0   7   3 320053. 9004.32   1
   7   0  -3 326579. 9041.41   1
   0   7  -3 315662. 9233.88   1
   7  -7   3 308605. 8946.65   2
   7   0   3 327280. 9048.13   2
   0  -7   3 256346. 8583.03   1
  -7   0  -3 296473. 8955.48   1
   7   0  -3 277090. 8361.30   2
  -7   7  -4 119739. 4620.42   1
   0  -7  -4 122491. 4943.39   1
   7   0   4 120188. 4995.26   1
  -7   0   4 106776. 4771.84   1
   7  -7   4 113779. 4886.98   2
   0   7   4 122961. 4924.40   1
   7   0  -4 119276. 4879.83   1
   0   7  -4 114460. 5027.16   1
  -7   0  -4 113576. 4987.74   1
   7   0   4 121355. 4958.09   2
   0  -7   4 113696. 5001.07   1
   0  -7  -5 154440. 5828.10   1
   7  -7   5 157841. 5727.02   1
  -7   7  -5 174290. 5954.21   1
   0  -7   5 152411. 6020.98   1
   7   0   5 146224. 5838.66   1
   0   7   5 152349. 5771.33   1
  -7   0   5 161539. 6070.71   1
   7  -7   5 151813. 5943.93   2
   7   0  -5 177241. 6205.88   1
   0   7  -5 141381. 5876.95   1
  -7   0  -5 161991. 6161.18   1
   7   0   5 159416. 5902.12   2
   7  -7   6 300773. 8704.59   1
  -7   7  -6 295422. 8717.75   1
   0   7  -6 268968. 8783.51   1
   0  -7   6 262438. 8676.98   1
   7   0   6 264952. 8536.41   1
   0   7   6 276364. 8533.83   1
  -7   0   6 272706. 8651.37   1
   7   0  -6 267499. 8494.72   1
   7  -7   6 281135. 8798.24   2
  -7   0  -6 280088. 8845.58   1
   7   0   6 291582. 8727.13   2
   0  -7  -6 308095. 8771.91   1
   7  -7   7 24941.4 2198.58   1
  -7   7  -7 25228.8 2233.09   1
   0  -7   7 21084.9 2171.68   1
   7   0   7 25620.8 2267.89   1
   7  -7   7 23180.6 2168.28   2
   0   7   7 29374.9 2345.49   1
  -7   0   7 23281.0 2192.61   1
   7   0  -7 26487.7 2219.58   1
  -7   0  -7 25134.6 2165.24   1
   0   7  -7 24757.0 2305.07   1
   0  -7  -7 25383.6 2190.82   1
   7   0   7 24819.2 2195.26   2
   7  -7   8 23836.8 2214.76   1
  -7   7  -8 22019.1 2124.70   1
   7   0   8 19229.2 1975.51   1
   0   7   8 21664.9 2099.28   1
   0  -7   8 22065.9 2147.78   1
   0   7  -8 19331.8 2072.68   1
  -7   0  -8 23508.2 2143.33   1
   7  -7   8 19168.7 2073.28   2
   0  -7  -8 26599.6 2230.63   1
   7   0   8 21604.4 2087.32   2
   7   0  -8 23749.2 2179.42   1
  -7   0   8 18005.4 1941.06   1
   7  -7   9 70633.8 4113.59   1
  -7   7  -9 78954.0 4225.39   1
   0  -7  -9 61067.5 3692.09   1
   7   0   9 70535.8 3936.90   1
   0   7   9 73455.4 3964.27   1
   0  -7   9 64052.4 3922.68   1
   0  -7   9 61432.7 3891.46   2
   7  -7   9 72539.3 3987.67   2
  -7   0  -9 69711.9 3970.86   1
   7   0  -9 66688.3 3842.28   1
   0   7  -9 71730.7 4050.19   1
  -7   0   9 74519.8 4107.68   1
   7   0   9 70146.0 3926.85   2
   7  -7  10 130413. 5811.00   1
  -7   7 -10 132784. 5780.20   1
   7   0  10 123294. 5511.30   1
   0   7  10 141506. 5762.03   1
   0  -7  10 120282. 5640.08   1
  -7   0 -10 125817. 5505.36   1
   0  -7  10 104254. 5422.86   2
   7   0 -10 127941. 5541.08   1
  -7   0  10 124714. 5635.44   1
   0   7 -10 131697. 5833.97   1
   7   0  10 126578. 5512.73   2
   7  -7  10 125593. 5611.33   2
   7  -7  11 20219.2 2179.70   1
  -7   7 -11 23607.5 2363.04   1
   0  -7  11 20362.2 2200.97   1
   7   0  11 18559.3 2057.14   1
  -7   0 -11 24834.7 2317.46   1
   7  -7  11 21623.9 2280.12   2
   0  -7  11 19699.5 2178.67   2
   0   7 -11 20987.4 2188.85   1
  -7   0  11 23781.1 2390.49   1
   7   0  11 22525.3 2214.46   2
   7   0 -11 22157.5 2216.85   1
   0   7 -12 7777.00 1255.78   1
   7  -7  12 7684.97 1383.72   1
   7   0  12 9848.40 1513.24   1
  -7   7 -12 10080.1 1601.99   1
  -7   0  12 8200.22 1369.19   1
   0  -7  12 9765.12 1616.96   2
   7   0 -12 7826.29 1325.98   1
   0  -7  12 7794.12 1477.61   1
   7  -7  12 8146.93 1385.57   2
  -7   0 -12 10908.5 1538.27   1
   7   0  12 8966.62 1387.18   2
   0   7  12 5422.43 1172.37   2
   0   7 -13 11537.0 1809.04   1
   7  -7  13 10685.3 1648.96   1
   0  -7  13 11430.8 1709.66   2
   7   0  13 13173.7 1776.27   1
  -7   7 -13 12708.3 1793.98   1
   7  -7  13 13460.3 1797.47   2
  -7   0 -13 11584.1 1659.27   1
   0  -7  13 12883.2 1834.25   1
   7   0  13 9475.39 1601.90   2
   7  -7  14 71823.7 4537.35   1
  -7   7 -14 83419.8 4750.27   1
   7   0  14 94432.7 4935.89   1
   0  -7  14 89950.2 4933.51   1
  -7   0 -14 92473.1 4845.18   1
   0  -7  14 74822.0 4666.76   2
   7  -7  14 84914.7 4700.61   2
   0   7 -14 89181.9 4847.56   1
   7   0  14 77915.0 4680.06   2
   7  -7  15 31013.7 2824.58   1
  -7   7 -15 27541.4 2662.65   1
   7   0  15 36450.9 3081.91   1
  -7   0 -15 35280.5 2943.90   1
   0  -7  15 31201.1 2968.51   2
   7  -7  15 30410.6 2799.22   2
   0  -7  15 32835.1 2962.20   1
   0   7 -15 32597.2 2883.05   1
   7   0  15 29675.0 2866.03   2
   0  -7  16 13644.8 1891.56   1
   0   7 -16 9046.58 1487.40   1
   7  -7  16 9559.12 1672.41   1
   7   0  16 11571.7 1696.98   1
  -7   7 -16 9010.23 1564.39   1
  -7   0 -16 12490.3 1764.76   1
   0  -7  16 7811.34 1587.28   2
   7  -7  16 10999.8 1669.55   2
   7   0  16 9769.93 1683.14   2
  -7   7 -17 21397.4 2390.74   1
   7  -7  17 19843.1 2379.40   1
  -4   8 -17 71.4155 456.383   1
   4   4  17-432.589 435.783   1
   4  -8  17 741.207 578.442   2
  -4  -4 -17 782.671 529.263   1
   4   4  17-450.989 380.614   2
   4   4  16 141624. 6494.26   1
  -4  -4 -16 127063. 6158.94   1
   4  -8  16 153693. 6793.56   2
   4   4  16 127177. 6165.84   2
  -4   8 -16 156610. 6729.69   1
  -4   8 -15 458.734 553.714   1
   4   4  15 198.027 369.129   1
   4  -8  15-917.452 698.370   2
  -4  -4 -15 739.056 512.478   1
   4   4  15 297.085 725.817   2
  -4   8 -14 1783.92 780.121   1
   4   4  14-39.4510 390.412   1
   4  -8  14 893.311 750.465   2
  -4  -4 -14-217.779 450.805   1
   4   4  14 1248.06 837.055   2
  -4   8 -13-158.356 426.997   1
   4   4  13 19.6155 412.590   1
   4  -8  13-1207.57 708.388   2
   4   4  13-798.472 748.334   2
  -4  -4 -13 528.756 565.166   1
   4   4  12 269175. 8927.47   1
  -4  -4 -12 265614. 8781.32   1
   4  -8  12 242910. 8754.64   2
   4  -8  12 245112. 8947.21   1
   4   4  12 252441. 8645.37   2
  -4   8 -12 247244. 8813.10   1
  -4  -4 -11-832.915 499.502   1
  -4   8 -11 38.8339 368.950   1
   4   4  11-28.6688 376.536   1
   4  -8  11 549.123 554.895   1
   4  -8  11 185.868 400.120   2
   4   4  11-230.010 509.936   2
   4  -8  10 2071.05 736.011   1
  -4   8 -10 2846.41 845.208   1
  -4  -4 -10 2595.34 781.813   1
   4   4  10 2957.61 751.263   1
   4  -8  10 2819.15 869.532   2
   4   4  10 2639.19 756.962   2
  -4   8  -9 126.359 351.812   1
  -4  -4  -9 162.870 434.501   1
   4  -8   9 33.7520 462.589   1
   4   4   9 195.945 458.438   1
   4  -8   9-734.384 671.919   2
   4   4   9 585.586 617.346   2
   4   4   8 187313. 6884.44   1
   4  -8   8 197196. 7170.95   1
   4  -8   8 185024. 6940.60   2
  -4   8  -8 186671. 6948.19   1
  -4  -4  -8 161893. 6473.17   1
   4   4   8 172342. 6770.04   2
  -4   8  -7 997.813 658.244   1
   4  -8   7-371.215 551.539   1
  -4  -4  -7-470.047 459.424   1
   4   4   7-429.897 329.107   1
   4  -8   7 396.979 543.843   2
  -4   8  -6 12386.7 1497.14   1
   4  -8   6 13240.1 1622.32   1
  -4  -4  -6 10356.4 1418.17   1
   4   4   6 9257.48 1401.21   1
   4  -8   6 7745.15 1327.30   2
  -4   8  -5-187.029 445.514   1
   4   4   5-595.574 626.096   1
   4  -8   5 585.466 393.740   1
  -4  -4  -5-95.4871 385.629   1
   4  -8   5-199.144 406.648   2
  -4  -4  -4 447182. 11685.5   1
   4   4   4 406911. 11360.8   1
   4  -8   4 420891. 11612.7   2
   4  -8   4 398408. 11131.0   1
  -4   8  -4 459094. 11585.9   1
   4   4   3 468.030 580.399   1
   4  -8   3-296.925 522.172   2
   4  -8   3 345.745 410.858   1
  -4  -4  -3 708.087 508.300   1
  -4   8  -3-308.826 433.128   1
  -4  -4  -2 20252.1 1964.89   1
   4  -8   2 20523.0 1704.50   1
   4   4   2 18723.2 1813.03   1
   4  -8   2 20957.3 1940.37   2
  -4   8  -2 22301.7 1850.66   1
   8  -4  -2 20920.5 1681.64   2
  -4  -4  -1 405.570 342.361   1
  -8   4   1 265.923 257.707   1
   4  -8   1 60.3204 345.211   2
   4   4   1-103.728 361.659   1
   8  -4  -1 49.3843 278.113   2
  -4   8  -1 330.006 257.126   1
   4  -8   1 254.536 272.192   1
  -4  -4   0 758702. 17591.8   1
   4   4   0 764291. 17618.0   1
   4  -8   0 754087. 17699.6   2
   8  -4   0 733664. 16779.6   2
  -8   4  -1 773.803 317.747   1
  -4  -4   1 240.685 454.082   1
   4   4  -1 209.802 426.564   1
   8  -4   1 335.233 402.648   1
   4  -8  -1 1208.28 604.285   2
   8  -4   1 780.127 470.564   2
   8  -4   2 122519. 4624.77   1
  -4  -4   2 111034. 4920.43   1
  -8   4  -2 117799. 4650.89   1
   4   4  -2 107365. 4806.20   1
   8  -4   2 115575. 4710.89   2
   8  -4   3 428.777 376.078   2
   8  -4   3 251.962 268.921   1
  -4  -4   3 571.036 470.656   1
   4   4  -3 423.020 352.244   1
  -8   4  -3-211.327 476.902   1
   4   4  -4 288697. 8921.66   1
  -4  -4   4 270869. 8783.70   1
   8  -4   4 270222. 8516.49   2
  -4  -4   5 1130.84 749.794   1
   8  -4   5 69.1171 345.381   1
   4   4  -5 133.252 499.798   1
   8  -4   5 850.540 499.550   2
  -8   4  -5-158.621 410.322   1
   8  -4   6 70428.8 3713.84   1
   4   4  -6 64186.5 3700.62   1
  -8   4  -6 73162.4 3823.37   1
   8  -4   6 66234.5 3719.39   2
  -4  -4   6 62407.8 3728.40   1
   8  -4   7-15.0421 356.037   1
  -4  -4   7-162.064 404.964   1
  -8   4  -7 244.530 332.911   1
   4   4  -7 200.660 484.459   1
   8  -4   7-93.9205 412.546   2
   8  -4   8 339970. 10028.4   1
  -8   4  -8 318941. 9824.22   1
   4   4  -8 320289. 9850.82   1
   8  -4   8 340719. 9924.14   2
  -4  -4   8 318428. 9988.41   1
   8  -4   9-521.621 353.166   1
  -8   4  -9 386.492 504.433   1
   8  -4   9 253.340 473.569   2
   4   4  -9-650.250 543.474   1
  -4  -4   9-50.1461 395.876   1
  -4  -4  10 425.091 676.924   1
  -8   4 -10 751.487 558.995   1
   8  -4  10 1018.83 721.208   1
   8  -4  10-1020.42 676.322   2
   4   4 -10 988.513 462.115   1
  -4  -4  11-9.72092 479.461   1
   8  -4  11 361.885 646.540   1
  -8   4 -11 233.859 432.204   1
   8  -4  11 818.639 545.943   2
   4   4 -11 439.653 487.017   1
   8  -4  12 193450. 7482.11   1
  -4  -4  12 204131. 7705.05   1
  -8   4 -12 195004. 7473.16   1
   4   4 -12 183906. 7386.28   1
   8  -4  12 213486. 7606.09   2
  -4  -4  13-1231.62 456.657   1
   8  -4  13-1056.88 756.950   1
  -8   4 -13 99.9687 477.585   1
   8  -4  13-248.149 550.863   2
   4   4 -13 325.617 352.718   1
  -4  -4  14 5595.49 1288.55   1
   8  -4  14 5754.68 1244.51   1
  -8   4 -14 6269.45 1251.89   1
   8  -4  14 6347.07 1216.46   2
   4   4 -14 4793.10 1127.29   1
   8  -4  15 395.392 431.236   1
  -4  -4  15 1016.95 624.291   1
  -8   4 -15 832.370 678.949   1
   8  -4  15 127.476 603.521   2
   4   4 -15 523.163 468.741   1
   8  -4  16 148521. 6745.56   1
  -8   4 -16 159045. 6751.65   1
   8  -4  16 157757. 6660.36   2
  -4  -4  16 142087. 6692.51   1
   4   4 -16 141428. 6594.84   1
  -4  -4  17-805.319 601.096   1
   4   4 -17-673.128 624.557   1
  -5   8 -17 3757.34 972.438   1
   3   5  17 3260.57 998.619   1
   5   3  17 5002.13 1220.80   1
   5  -8  17 2912.57 946.449   2
   3  -8  17 4491.13 1135.92   2
  -3  -5 -17 2534.26 950.172   1
  -5  -3 -17 4081.23 1054.21   1
   5   3  17 3626.14 983.475   2
   5  -8  16 5837.92 1278.78   1
  -3   8 -16 8815.65 1562.29   1
  -5   8 -16 7166.15 1309.76   1
   5   3  16 8116.39 1479.04   1
   3   5  16 6277.54 1385.75   1
   5  -8  16 6483.44 1346.20   2
   3  -8  16 10017.7 1758.57   1
   3  -8  16 6452.50 1366.77   2
  -5  -3 -16 9200.04 1528.51   1
  -3  -5 -16 7231.53 1410.90   1
   5   3  16 8223.92 1498.40   2
   3   5  16 6819.76 1349.96   2
   5   3  15 100631. 5263.21   1
   3   5  15 107100. 5432.89   1
  -5  -3 -15 114388. 5536.71   1
  -3  -5 -15 88400.4 4969.99   1
   3  -8  15 109780. 5650.73   1
   3  -8  15 99374.2 5286.58   2
   5  -8  15 105847. 5479.82   2
   5   3  15 95436.5 5074.13   2
  -3   8 -15 96349.0 5229.96   1
   3   5  15 81598.5 4743.67   2
  -5   8 -15 106213. 5447.02   1
   5  -8  15 90919.6 5184.18   1
   3  -8  14 67362.3 4281.20   2
   5  -8  14 73576.7 4378.58   2
   5   3  14 73511.3 4356.56   1
   3   5  14 73956.2 4435.05   1
  -5  -3 -14 77419.1 4442.58   1
  -3  -5 -14 65945.9 4111.40   1
   3  -8  14 65854.1 4338.08   1
   5   3  14 72799.6 4206.05   2
  -3   8 -14 74983.5 4457.24   1
   3   5  14 65043.4 4092.92   2
  -5   8 -14 68176.3 4258.20   1
   5  -8  14 67150.8 4351.94   1
   5   3  13 46321.5 3368.01   1
   3   5  13 46579.2 3370.91   1
   3  -8  13 45702.9 3485.22   1
  -5  -3 -13 47663.1 3374.66   1
  -3  -5 -13 48851.8 3416.13   1
   3  -8  13 42510.7 3325.67   2
   5  -8  13 45557.9 3416.04   2
  -3   8 -13 51624.3 3607.56   1
   5   3  13 52013.9 3469.78   2
   3   5  13 41889.7 3141.42   2
  -5   8 -13 42707.6 3348.80   1
   5  -8  13 46759.1 3511.52   1
  -5  -3 -12 2559.67 835.027   1
  -3  -5 -12 2752.93 861.685   1
   5  -8  12 690.477 528.021   1
  -3   8 -12 2933.88 943.422   1
  -5   8 -12 2587.09 832.377   1
   3  -8  12 3005.91 730.301   1
   5   3  12 1905.11 742.616   1
   3   5  12 2392.40 798.298   1
   3   5  12 3600.83 951.408   2
   3  -8  12 1067.80 599.267   2
   5  -8  12 1389.87 433.844   2
   5   3  12 2093.54 693.883   2
   3  -8  11 2181.16 888.910   1
  -5  -3 -11 1175.28 534.340   1
   5  -8  11 1031.15 685.725   1
  -3   8 -11 1180.97 457.887   1
  -3  -5 -11 959.905 541.615   1
  -5   8 -11 1060.21 566.883   1
   5   3  11 928.143 418.740   1
   3   5  11 751.982 433.488   1
   3  -8  11 509.123 451.345   2
   5   3  11 864.183 444.481   2
   3   5  11 566.370 600.176   2
  -3   8 -10 171756. 6936.83   1
   5   3  10 176098. 6902.44   1
   3   5  10 191823. 7132.80   1
   3  -8  10 178071. 7106.18   1
  -3  -5 -10 188033. 7049.36   1
  -5  -3 -10 194408. 7086.46   1
   5  -8  10 180193. 7098.31   2
   3  -8  10 180545. 7107.43   2
   5   3  10 197028. 7113.03   2
  -5   8 -10 183979. 7113.15   1
   3   5  10 180799. 7030.00   2
   5  -8  10 181187. 7159.01   1
   3  -8   9 27912.0 2477.01   1
   5   3   9 27722.6 2369.40   1
   3   5   9 28552.6 2404.98   1
   3  -8   9 22417.8 2281.54   2
   5  -8   9 24459.6 2369.02   2
  -5  -3  -9 22018.1 2208.68   1
  -3  -5  -9 23708.7 2296.06   1
  -3   8  -9 24309.3 2301.10   1
   5   3   9 27729.8 2371.44   2
  -5   8  -9 25345.1 2390.94   1
   5  -8   9 22789.6 2231.60   1
   3  -8   8 78422.4 4269.35   1
   5   3   8 75310.0 4101.52   1
   3   5   8 72184.8 4056.05   1
   3  -8   8 73244.2 4161.25   2
  -5  -3  -8 73967.7 4080.19   1
  -3  -5  -8 73124.1 4049.64   1
  -3   8  -8 80694.9 4288.41   1
   5  -8   8 72042.7 4150.43   2
  -5   8  -8 79468.7 4190.99   1
   5   3   8 82054.9 4352.14   2
   5  -8   8 79133.3 4258.44   1
   5   3   7 86892.2 4394.98   1
   3   5   7 87058.1 4345.50   1
  -3   8  -7 87365.7 4451.60   1
  -5   8  -7 88781.4 4441.49   1
   3  -8   7 88986.5 4559.02   2
   5  -8   7 87667.1 4548.72   2
  -5  -3  -7 95990.7 4564.39   1
  -3  -5  -7 83175.0 4225.34   1
   3  -8   7 95644.9 4654.20   1
   5   3   7 100920. 4770.46   2
   5   3   6 137862. 5442.87   1
   3   5   6 124043. 5316.51   1
   3  -8   6 117283. 5289.86   2
   5  -8   6 117657. 5312.41   2
   5  -8   6 129619. 5399.29   1
   3  -8   6 130463. 5447.02   1
  -3   8  -6 119500. 5276.03   1
  -5  -3  -6 117110. 5164.41   1
  -5   8  -6 121411. 5219.10   1
  -3  -5  -6 128468. 5295.16   1
   5   3   6 136614. 5562.15   2
   3  -8   5 160675. 5966.34   1
   5   3   5 151130. 5896.63   1
   3   5   5 146758. 5790.46   1
   5  -8   5 162435. 5906.62   1
   3  -8   5 151730. 6049.63   2
   5  -8   5 149190. 6013.01   2
  -3   8  -5 162340. 6108.17   1
  -5   8  -5 156084. 5869.47   1
  -5  -3  -5 152208. 5931.32   1
  -3  -5  -5 152457. 5923.50   1
  -8   3   4 18328.4 1710.11   1
  -3  -5  -4 16452.7 1751.61   1
   5  -8   4 18317.2 1750.42   1
   5  -8   4 17378.6 1857.13   2
   5   3   4 15380.3 1728.90   1
   3  -8   4 18678.8 1826.96   1
   3   5   4 16104.8 1761.38   1
   3  -8   4 15387.2 1838.90   2
  -3   8  -4 13880.8 1653.94   1
  -5   8  -4 19675.9 1787.88   1
  -5  -3  -4 15837.0 1765.77   1
  -5  -3  -3 66113.4 3730.99   1
  -3  -5  -3 75330.3 3858.94   1
   3  -8   3 64411.6 3435.93   1
   8  -3  -3 73358.7 3323.00   1
   5   3   3 66638.4 3624.96   1
   3   5   3 70911.2 3691.75   1
   3  -8   3 71802.4 3881.71   2
   5  -8   3 69283.8 3832.55   2
  -3   8  -3 69857.1 3703.07   1
  -5   8  -3 73933.8 3511.96   1
   5  -8   3 75101.7 3547.01   1
  -8   3   3 68441.6 3394.13   1
   3  -8   2 453221. 12597.7   2
   3  -8   2 490764. 12085.2   1
  -5  -3  -2 440325. 12373.6   1
  -3  -5  -2 503483. 12670.6   1
   5  -8   2 463339. 12456.9   2
   8  -3  -2 518154. 11876.8   1
   5   3   2 445261. 12191.4   1
   3   5   2 450205. 12270.8   1
  -3   8  -2 508631. 12368.0   1
   8  -3  -2 477787. 11696.4   2
  -8   3   2 511320. 12054.6   1
   5  -8   1 14857.5 1702.15   2
  -3  -5  -1 12545.7 1506.77   1
  -5  -3  -1 13756.4 1649.40   1
   8  -3  -1 17409.0 1545.02   1
   5   3   1 13442.6 1580.48   1
   3   5   1 15790.6 1645.69   1
   3  -8   1 15626.3 1698.53   2
  -3   8  -1 16883.2 1608.38   1
   8  -5  -1 16663.6 1566.74   2
   8  -3  -1 13840.0 1570.72   2
  -8   3   1 18413.8 1677.50   1
   3  -8   1 15727.3 1519.65   1
   3  -8   0 5105.71 892.610   1
  -5  -3   0 6250.02 1060.77   1
  -8   3   0 6946.07 1025.65   1
  -3  -5   0 6636.85 1123.42   1
   8  -3   0 5235.43 985.145   1
   5  -8   0 6642.76 1101.42   2
   5   3   0 5804.10 933.073   1
   3   5   0 6557.65 1129.35   1
  -3   8   0 6170.34 974.692   1
   8  -5   0 6012.83 952.972   2
   8  -3   0 5851.05 972.126   2
   8  -3   1 189379. 6277.72   2
   5  -8  -1 182682. 6590.13   2
   8  -3   1 192985. 6213.76   1
  -5  -3   1 176693. 6492.70   1
  -8   5  -1 176043. 5822.08   1
  -3  -5   1 155135. 6231.68   1
   5   3  -1 179368. 6506.90   1
   3  -8  -1 201907. 6060.13   1
   3   5  -1 174719. 6438.43   1
  -3   8   1 197529. 6115.79   1
  -8   3  -1 187969. 6345.18   1
   8  -5   1 181979. 6147.12   2
   8  -5   2 137198. 5009.16   1
   8  -3   2 149605. 5348.68   1
  -8   5  -2 138537. 5071.30   1
  -5  -3   2 125510. 5324.84   1
  -3   8   2 131043. 4830.17   1
   5   3  -2 134727. 5430.53   1
   3   5  -2 136696. 5519.53   1
  -3  -5   2 139834. 5547.07   1
   5  -8  -2 151626. 5665.73   2
  -8   3  -2 142303. 5396.33   1
   8  -5   2 144909. 5369.29   2
   8  -3   2 145798. 5363.00   2
   8  -5   3 164196. 5584.14   1
   8  -3   3 156428. 5658.13   1
  -8   5  -3 161066. 5577.81   1
  -5  -3   3 145319. 5843.97   1
   5   3  -3 141461. 5698.30   1
  -8   3  -3 150022. 5616.74   1
   3   5  -3 138936. 5714.90   1
   8  -5   3 159423. 5707.81   2
   8  -3   3 144371. 5483.73   2
  -3  -5   3 142635. 5732.31   1
   8  -5   4 57810.3 3234.99   1
   8  -3   4 66467.6 3454.38   1
  -8   5  -4 67213.7 3403.37   1
  -5  -3   4 62342.0 3596.18   1
   5   3  -4 58354.4 3409.73   1
  -8   3  -4 67447.7 3580.48   1
   3   5  -4 61489.9 3555.56   1
   8  -5   4 63219.2 3421.34   2
   8  -3   4 56906.7 3342.43   2
  -3  -5   4 61018.5 3561.70   1
  -8   3  -5 784.498 329.124   1
   8  -5   5 671.315 357.869   1
  -3  -5   5-484.134 466.584   1
   8  -3   5 954.699 485.887   1
  -8   5  -5 1034.03 434.867   1
   5   3  -5 752.078 458.073   1
   3   5  -5-109.775 415.260   1
   8  -5   5 1188.60 531.622   2
  -5  -3   5 978.452 560.425   1
   8  -3   5 966.048 492.281   2
   8  -5   6 330975. 9723.04   1
  -8   5  -6 327233. 9673.86   1
   5   3  -6 313867. 9699.43   1
  -8   3  -6 318899. 9689.81   1
   3   5  -6 349309. 10078.5   1
  -5  -3   6 324551. 9891.79   1
   8  -5   6 315966. 9677.68   2
   8  -3   6 334017. 9868.90   2
  -3  -5   6 327089. 9893.49   1
   8  -5   7 63403.5 3580.30   1
   8  -3   7 59714.7 3551.98   1
  -8   5  -7 61049.1 3513.28   1
  -8   3  -7 64868.2 3701.99   1
   5   3  -7 57053.7 3530.80   1
   3   5  -7 61876.1 3650.22   1
   8  -5   7 64766.0 3640.50   2
  -5  -3   7 65509.7 3831.24   1
   8  -3   7 61779.9 3586.58   2
  -3  -5   7 61656.2 3683.15   1
  -3  -5   8 38559.3 2955.04   1
   8  -5   8 43671.3 3070.08   1
   8  -3   8 41041.3 2921.48   1
  -8   5  -8 46145.6 3087.86   1
  -8   3  -8 40478.6 2964.86   1
   5   3  -8 41264.5 2982.94   1
   3   5  -8 39434.7 2954.41   1
   8  -3   8 38056.7 2887.44   2
  -5  -3   8 40116.9 2993.25   1
   8  -5   8 38481.1 2850.45   2
  -3  -5   9 196140. 7295.64   1
   8  -5   9 206058. 7370.47   1
   8  -3   9 178621. 6960.40   1
  -8   5  -9 202117. 7311.92   1
  -8   3  -9 192543. 7230.53   1
   3   5  -9 201046. 7317.83   1
   8  -5   9 210180. 7338.56   2
   8  -3   9 198305. 7188.86   2
  -5  -3   9 197841. 7385.62   1
   5   3  -9 191382. 7187.12   1
   8  -5  10 125982. 5654.27   1
  -3  -5  10 118145. 5590.54   1
   8  -3  10 120913. 5618.41   1
  -8   5 -10 126194. 5624.49   1
  -8   3 -10 130063. 5687.90   1
   5   3 -10 110341. 5335.11   1
   3   5 -10 125240. 5679.33   1
   8  -5  10 133766. 5684.64   2
   8  -3  10 140502. 5801.26   2
  -5  -3  10 128697. 5802.62   1
  -3  -5  11 10763.8 1614.41   1
   8  -5  11 10859.5 1632.24   1
   8  -3  11 11445.6 1709.92   1
  -8   3 -11 8555.55 1437.82   1
   8  -5  11 11283.8 1539.21   2
   8  -3  11 12272.5 1665.50   2
   5   3 -11 11306.1 1663.03   1
  -5  -3  11 10833.7 1642.88   1
  -8   5 -11 11586.3 1573.73   1
   3   5 -11 12138.6 1712.87   1
  -5  -3  12 348.531 511.623   1
  -8   3 -12 224.328 396.268   1
   8  -5  12 971.735 661.333   1
   8  -3  12 639.851 677.354   1
  -3  -5  12 812.933 694.159   1
  -8   5 -12 890.166 560.391   1
   8  -5  12-580.613 501.281   2
   8  -3  12 77.7664 419.352   2
   5   3 -12 898.287 464.322   1
   3   5 -12 444.995 465.145   1
  -5  -3  13 4217.07 1119.12   1
   8  -5  13 4430.55 1188.93   1
   8  -3  13 3968.94 1014.20   1
  -3  -5  13 2729.89 952.672   1
  -8   5 -13 4650.46 1044.63   1
  -8   3 -13 3763.07 864.996   1
   8  -5  13 5343.66 1157.95   2
   5   3 -13 4722.74 1110.72   1
   3   5 -13 5183.92 1131.50   1
   8  -3  13 3484.73 915.706   2
   8  -5  14 70222.4 4437.87   1
  -5  -3  14 73722.1 4526.54   1
   8  -3  14 77401.3 4563.13   1
  -8   5 -14 81276.5 4655.17   1
  -8   3 -14 82666.8 4616.56   1
  -3  -5  14 79114.7 4660.97   1
   5   3 -14 78445.1 4631.86   1
   8  -5  14 78497.5 4498.99   2
   3   5 -14 75454.3 4469.48   1
   8  -3  14 79296.0 4568.45   2
   8  -5  15 58620.2 4039.77   1
   8  -3  15 67334.7 4287.45   1
  -5  -3  15 62572.3 4228.36   1
  -8   5 -15 67402.2 4117.16   1
   3   5 -15 62559.9 4075.60   1
  -8   3 -15 70871.3 4233.48   1
  -3  -5  15 66358.0 4273.87   1
   5   3 -15 51243.2 3836.30   1
   8  -3  15 64860.7 4068.38   2
   8  -5  15 73663.6 4292.74   2
   8  -5  16 52071.0 3747.70   1
   8  -3  16 50184.7 3697.64   1
  -8   5 -16 51845.6 3656.69   1
  -5  -3  16 42324.8 3479.11   1
  -8   3 -16 52631.2 3710.48   1
  -3  -5  16 50345.1 3711.67   1
   3   5 -16 48348.0 3696.69   1
   5   3 -16 48476.5 3714.79   1
   8  -5  16 51914.9 3613.29   2
   8  -3  16 52583.8 3705.44   2
  -5  -3  17 28279.5 2812.76   1
   5   3 -17 25622.3 2666.49   1
   2  -8  17 30056.8 2975.72   2
  -2   8 -16 334.743 710.350   1
   6  -8  16 61.2993 540.084   1
  -6   8 -16 1130.88 628.603   1
   6   2  16 274.944 418.174   1
   2  -8  16 833.761 707.718   2
   2  -8  16-187.616 534.669   1
   6  -8  16 884.300 683.289   2
  -6  -2 -16 111.418 543.866   1
   6   2  16 467.197 541.213   2
   6  -8  15 35250.2 3154.74   1
   2  -8  15 39744.2 3287.72   1
   6   2  15 42288.4 3266.46   1
   2   6  15 37202.4 3260.73   1
  -6  -2 -15 41430.3 3185.90   1
   6  -8  15 38335.7 3146.84   2
   2  -8  15 32435.7 2937.30   2
  -2   8 -15 34558.9 2976.88   1
   6   2  15 32380.2 2957.59   2
   2   6  15 24334.4 2467.08   2
  -6   8 -15 31194.6 2904.71   1
   6  -8  14 44655.2 3501.94   1
   2  -8  14 49090.9 3674.59   1
   6   2  14 51166.2 3610.98   1
   2   6  14 50009.4 3611.32   1
   6  -8  14 47638.1 3557.05   2
  -6  -2 -14 52578.3 3605.12   1
  -2  -6 -14 45289.8 3452.77   1
   2  -8  14 43640.7 3504.08   2
   6   2  14 51805.1 3561.32   2
  -2   8 -14 51491.4 3692.21   1
   2   6  14 36107.7 3030.56   2
  -6   8 -14 46695.4 3516.45   1
   6  -8  13 38649.2 3284.48   1
   6   2  13 42765.8 3227.37   1
   2   6  13 40119.0 3235.73   1
  -6  -2 -13 45013.0 3270.23   1
  -2  -6 -13 40301.9 3162.46   1
   6  -8  13 41887.4 3247.33   2
  -2   8 -13 40081.1 3127.79   1
   6   2  13 41996.8 3168.59   2
   2   6  13 33185.1 2910.07   2
  -6   8 -13 40296.4 3228.76   1
   2  -8  13 35905.0 3118.27   2
   2  -8  13 39387.4 3280.25   1
  -2   8 -12 11913.7 1758.75   1
   6  -8  12 10811.8 1697.01   1
  -2  -6 -12 12437.3 1734.39   1
   6   2  12 13027.7 1739.25   1
  -6   8 -12 13116.8 1764.85   1
   2  -8  12 12446.3 1793.79   1
   2   6  12 12468.4 1755.84   1
  -6  -2 -12 10746.8 1568.51   1
   2  -8  12 8829.27 1504.87   2
   6  -8  12 12122.0 1780.85   2
   6   2  12 12087.2 1586.97   2
   2   6  12 8883.93 1526.89   2
  -6  -2 -11 12576.5 1659.76   1
  -2   8 -11 14029.3 1826.76   1
   6  -8  11 12888.3 1824.82   1
  -6   8 -11 14755.1 1824.05   1
   2   6  11 14620.0 1827.64   1
   6   2  11 12359.0 1619.57   1
  -2  -6 -11 13964.3 1778.85   1
   2  -8  11 14100.2 1888.10   2
   6  -8  11 12966.3 1745.40   2
   6   2  11 12609.1 1673.86   2
   2  -8  11 13021.5 1828.94   1
   2   6  11 10195.9 1599.21   2
   6  -8  10 126592. 5861.54   1
   6   2  10 126187. 5567.09   1
   2   6  10 138107. 5876.86   1
   2  -8  10 119059. 5736.48   1
  -6  -2 -10 126723. 5606.47   1
   6  -8  10 122653. 5744.38   2
  -2  -6 -10 137037. 5801.39   1
  -2   8 -10 120749. 5641.44   1
   6   2  10 133923. 5708.36   2
   2  -8  10 109111. 5452.12   2
  -6   8 -10 130602. 5865.56   1
   2  -8   9 4047.02 971.625   1
  -2   8  -9 2720.11 769.024   1
   6  -8   9 3173.60 886.764   1
  -6  -2  -9 2342.78 780.157   1
  -6   8  -9 2926.12 823.054   1
  -2  -6  -9 2504.79 661.413   1
   6   2   9 3589.54 939.740   1
   2   6   9 3487.62 873.283   1
   2  -8   9 2665.93 749.074   2
   6  -8   9 3021.44 838.150   2
   6   2   9 3259.55 838.353   2
   6   2   8 134742. 5811.13   1
   2   6   8 131377. 5744.11   1
   6  -8   8 131920. 5863.42   2
   2  -8   8 131787. 5838.24   2
   2  -8   8 144605. 6070.63   1
  -6  -2  -8 152583. 6138.22   1
  -2   8  -8 148505. 6204.15   1
  -2  -6  -8 161086. 6205.35   1
   6   2   8 154264. 6022.03   2
  -6   8  -8 146859. 6034.27   1
   6  -8   8 150109. 6107.20   1
   6   2   7 50455.3 3308.22   1
   2   6   7 59105.3 3469.01   1
   6  -8   7 49633.8 3261.11   2
   2  -8   7 47722.8 3269.81   1
   2  -8   7 50477.3 3340.34   2
  -2   8  -7 52440.0 3412.67   1
  -6  -2  -7 52539.9 3389.18   1
  -2  -6  -7 47153.2 3134.20   1
   6   2   7 54450.6 3374.53   2
  -6   8  -7 51580.1 3309.04   1
   6  -8   7 50231.3 3284.60   1
  -8   2   6 412551. 10919.8   1
   6   2   6 395056. 11056.3   1
   2  -8   6 394302. 11456.1   2
   2   6   6 401741. 11146.1   1
   2  -8   6 397461. 11280.7   1
   8  -2  -6 367071. 10376.3   1
   6  -8   6 388113. 11195.6   2
  -2   8  -6 371769. 11122.6   1
  -6  -2  -6 400241. 11209.3   1
   6   2   6 427868. 11489.5   2
  -6   8  -6 392314. 10972.6   1
  -2  -6  -6 398165. 11100.9   1
   6  -8   6 396865. 10983.6   1
  -2  -6  -5 164020. 6220.15   1
  -8   2   5 183614. 6351.39   1
   2  -8   5 174051. 6508.61   1
   6   2   5 168858. 6324.17   1
   2   6   5 186221. 6562.44   1
   8  -2  -5 162958. 5822.34   1
   2  -8   5 167347. 6621.49   2
   6  -8   5 161023. 6369.82   2
  -2   8  -5 162172. 6301.60   1
  -6  -2  -5 170918. 6372.92   1
  -6   8  -5 175649. 6205.88   1
   6   2   5 183614. 6619.06   2
   6  -8   5 164126. 6054.62   1
  -6   8  -4 4799.78 851.471   1
   2  -8   4 2953.90 710.984   1
   2   6   4 3341.75 805.159   1
  -6  -2  -4 4572.47 973.044   1
   6   2   4 3067.11 798.504   1
   8  -2  -4 3013.92 742.229   1
   2  -8   4 3244.60 968.723   2
   6  -8   4 5355.84 1028.81   2
  -2  -6  -4 2684.27 737.594   1
  -8   2   4 3855.50 775.235   1
  -2   8  -4 3285.37 869.573   1
   6   2   4 4246.25 960.679   2
   2  -8   3 193327. 7192.76   2
   2  -8   3 209364. 7070.28   1
  -8   2   3 200767. 6902.31   1
  -2  -6  -3 199982. 7099.96   1
   6   2   3 211679. 7163.21   1
   8  -2  -3 226631. 6912.67   1
   2   6   3 218314. 7249.42   1
  -2   8  -3 211888. 7151.06   1
   6  -8   3 208629. 7176.46   2
   6   2   3 217048. 7387.68   2
  -6  -2  -3 211214. 7273.22   1
  -6  -2  -2 59594.0 3486.25   1
  -2  -6  -2 62199.6 3502.96   1
   8  -2  -2 64860.1 3294.45   1
   6   2   2 59573.8 3389.55   1
   2   6   2 65150.0 3550.28   1
   6  -8   2 63049.0 3580.55   2
  -2   8  -2 60575.7 3422.80   1
   8  -2  -2 57253.5 3061.23   2
   2  -8   2 65368.2 3463.66   1
  -8   2   2 63161.7 3412.63   1
  -2   8  -1 101702. 4698.38   1
  -6  -2  -1 111544. 5016.08   1
  -2  -6  -1 129095. 5222.92   1
   8  -2  -1 125876. 4889.41   1
   6   2   1 124036. 5018.72   1
   2   6   1 118732. 5090.11   1
   6  -8   1 126754. 5159.92   2
   8  -6  -1 122578. 4726.10   2
   2  -8   1 136915. 5117.16   1
   8  -2  -1 116245. 4708.86   2
  -8   2   1 136776. 5194.24   1
  -6  -2   0 15586.1 1762.73   1
   2  -8   0 16985.0 1638.86   1
   8  -2   0 17462.4 1689.29   1
  -2  -6   0 16886.6 1724.14   1
   6   2   0 13415.9 1542.60   1
   2   6   0 16343.9 1770.76   1
  -2   8   0 16698.9 1677.11   1
   6  -8   0 14456.1 1639.88   2
   8  -6   0 16689.6 1588.20   2
   8  -2   0 14476.1 1605.64   2
  -8   2   0 16144.7 1678.25   1
  -6  -2   1-144.899 320.877   1
  -8   2  -1 1131.69 444.051   1
   6  -8  -1-75.3787 359.970   2
   8  -2   1 563.476 361.302   1
   2  -8  -1 514.108 489.675   1
   6   2  -1 586.709 450.707   1
  -2  -6   1 238.250 478.385   1
  -2   8   1 698.212 349.130   1
   2   6  -1 920.270 620.150   1
   8  -6   1 247.490 408.299   2
   8  -2   1-313.793 548.185   2
   8  -2   2 298366. 8479.97   1
  -6  -2   2 240510. 8149.27   1
   2  -8  -2 271842. 7928.19   1
   6   2  -2 254771. 8225.31   1
  -2   8   2 275263. 8116.28   1
   2   6  -2 281406. 8574.85   1
   6  -8  -2 273320. 8276.25   2
  -2  -6   2 262602. 8375.73   1
   8  -6   2 272689. 8195.59   2
  -8   2  -2 251921. 8151.48   1
   8  -2   2 285669. 8294.79   2
  -2  -6   3 1407.52 664.511   1
  -8   2  -3 1176.91 400.526   1
  -6  -2   3 1407.17 709.812   1
   8  -2   3 963.024 586.223   1
   6  -8  -3 1020.84 594.335   2
  -2   8   3 1436.60 534.511   1
   6   2  -3 1543.25 587.327   1
   8  -6   3 1490.62 721.179   2
   2   6  -3 1487.12 696.755   1
   8  -2   3 1703.48 646.087   2
   2  -8  -3 2145.80 609.339   1
   8  -6   4 216038. 7104.21   1
  -8   6  -4 236961. 7320.75   1
   8  -2   4 214624. 7295.76   1
   8  -6   4 237727. 7582.97   2
  -2   8   4 234967. 7086.30   1
  -6  -2   4 222279. 7595.60   1
   6   2  -4 214595. 7391.19   1
   2   6  -4 226517. 7685.16   1
  -8   2  -4 230608. 7603.93   1
  -2  -6   4 227669. 7676.60   1
   8  -2   4 221388. 7345.17   2
   8  -6   5 114752. 4892.77   1
  -8   6  -5 137309. 5225.70   1
   8  -2   5 112372. 4985.76   1
  -6  -2   5 120658. 5295.24   1
   6   2  -5 130715. 5365.18   1
   2   6  -5 124339. 5358.53   1
  -8   2  -5 111213. 5034.85   1
   8  -6   5 122105. 5127.25   2
   8  -2   5 113569. 5006.36   2
  -2  -6   5 120046. 5282.92   1
   8  -6   6 384613. 10589.8   1
   2   6  -6 385768. 11012.9   1
  -8   6  -6 382951. 10588.8   1
   8  -2   6 362062. 10496.0   1
   6   2  -6 364443. 10564.2   1
  -8   2  -6 360917. 10573.0   1
  -6  -2   6 365267. 10793.9   1
   8  -6   6 374292. 10643.9   2
   8  -2   6 370228. 10494.5   2
  -2  -6   6 376316. 10868.3   1
  -2  -6   7 166791. 6572.14   1
   8  -6   7 175723. 6516.29   1
  -8   6  -7 177255. 6555.75   1
   8  -2   7 144439. 6030.51   1
  -6  -2   7 168080. 6512.78   1
  -8   2  -7 171671. 6466.52   1
   6   2  -7 162746. 6323.42   1
   8  -6   7 180385. 6571.14   2
   2   6  -7 169419. 6560.45   1
   8  -2   7 166920. 6330.48   2
  -2  -6   8-198.320 467.263   1
  -6  -2   8-211.349 326.932   1
   8  -6   8 571.315 580.389   1
   8  -2   8-101.686 381.178   1
  -8   6  -8 275.484 302.853   1
   6   2  -8 172.646 498.070   1
   8  -6   8 633.374 620.260   2
   2   6  -8 116.634 528.078   1
   8  -2   8 935.471 480.122   2
  -8   2  -8 697.611 518.184   1
   8  -6   9 72064.5 4161.23   1
  -2  -6   9 75253.5 4209.51   1
  -8   6  -9 67150.4 3970.71   1
   8  -2   9 72714.2 4030.85   1
  -8   2  -9 79373.6 4224.45   1
   6   2  -9 70763.7 4032.99   1
   2   6  -9 70229.1 4092.05   1
   8  -6   9 74497.2 4216.89   2
  -6  -2   9 68801.7 4083.59   1
   8  -2   9 71544.0 4070.53   2
   8  -6  10 54714.2 3628.91   1
  -8   6 -10 62492.7 3765.76   1
   8  -2  10 54175.6 3491.06   1
  -2  -6  10 53849.9 3624.90   1
  -8   2 -10 55952.1 3611.62   1
   8  -6  10 55038.0 3560.97   2
   2   6 -10 55426.1 3678.32   1
   6   2 -10 46273.1 3226.08   1
   8  -2  10 49874.0 3456.07   2
  -6  -2  10 46157.1 3377.11   1
   8  -6  11 49559.9 3411.32   1
  -8   6 -11 45766.7 3356.38   1
   8  -2  11 51068.5 3495.38   1
  -2  -6  11 43898.2 3361.53   1
  -8   2 -11 47118.0 3353.05   1
   6   2 -11 42352.3 3192.09   1
   2   6 -11 45526.5 3340.33   1
   8  -6  11 50250.6 3450.99   2
   8  -2  11 47323.4 3328.70   2
  -6  -2  11 43724.8 3307.30   1
   8  -6  12 6876.13 1268.25   1
   8  -2  12 8356.79 1428.89   1
  -2  -6  12 7381.48 1292.46   1
  -8   6 -12 6657.82 1309.31   1
  -6  -2  12 6278.96 1325.60   1
  -8   2 -12 6565.03 1310.28   1
   8  -6  12 4846.23 1144.68   2
   6   2 -12 4637.10 1028.65   1
   8  -2  12 5184.65 1130.87   2
   2   6 -12 6500.85 1189.46   1
   8  -6  13 12787.0 1853.87   1
   8  -2  13 14132.8 1914.76   1
  -8   2 -13 12093.1 1681.10   1
  -2  -6  13 14133.2 1898.74   1
  -8   6 -13 13509.6 1845.57   1
   8  -2  13 13571.4 1894.62   2
   8  -6  13 11245.5 1683.17   2
   6   2 -13 11581.0 1670.27   1
  -6  -2  13 10688.4 1657.19   1
   2   6 -13 12952.4 1763.52   1
   8  -6  14 75607.9 4538.54   1
  -8   6 -14 77665.7 4579.67   1
   8  -2  14 84443.3 4655.42   1
  -8   2 -14 76725.1 4468.74   1
  -2  -6  14 78249.9 4628.49   1
   8  -2  14 70769.6 4287.64   2
   6   2 -14 67581.0 4315.89   1
   8  -6  14 80998.5 4590.50   2
   2   6 -14 73424.5 4456.77   1
  -6  -2  14 71017.3 4510.13   1
   8  -6  15 2058.42 862.740   1
   8  -2  15 2503.23 795.780   1
  -8   6 -15 3059.71 958.471   1
  -2  -6  15 2292.99 839.457   1
  -8   2 -15 1999.75 751.560   1
   8  -6  15 1257.42 762.979   2
   8  -2  15 792.981 642.320   2
   6   2 -15 951.623 757.785   1
  -6  -2  15 496.780 400.300   1
   2   6 -15 4179.99 1225.46   1
  -6  -2  16 34002.5 3089.23   1
   8  -6  16 29044.8 2919.03   1
  -8   6 -16 41726.9 3346.83   1
   8  -2  16 40056.3 3240.94   1
  -8   2 -16 39106.7 3075.42   1
  -2  -6  16 37138.6 3233.50   1
   6   2 -16 28198.2 2892.10   1
   8  -6  16 38361.7 3139.78   2
   2   6 -16 36729.5 3150.86   1
   8  -2  16 36500.8 3119.65   2
  -6  -2  17 13386.9 2057.31   1
   7  -8  16 108003. 5855.34   1
   1  -8  16 97754.7 5720.25   2
   7   1  16 116362. 5744.97   2
  -7   8 -16 115266. 5803.88   1
  -1   8 -15 1843.31 712.882   1
   7  -8  15 2895.82 891.820   1
  -7   8 -15 2633.65 835.913   1
   7   1  15 2059.89 820.526   1
   1  -8  15 1466.49 761.321   2
   7  -8  15 2886.87 934.374   2
  -7  -1 -15 1683.61 656.107   1
   7   1  15 1549.27 905.607   2
   1  -8  15 2215.02 734.941   1
  -1   8 -14 4935.65 1138.26   1
   7  -8  14 4209.77 1170.29   1
  -7   8 -14 3898.96 1040.62   1
   7   1  14 5305.33 1134.91   1
   1  -8  14 3716.55 1188.56   2
   7  -8  14 5358.67 1238.00   2
  -7  -1 -14 3934.54 998.326   1
   7   1  14 3383.17 1037.90   2
   1  -8  14 5585.93 1200.40   1
   1   7  14 1869.86 810.322   2
  -1   8 -13-69.1446 455.799   1
   7  -8  13 616.865 524.083   1
  -7   8 -13-418.288 456.406   1
   7   1  13 1306.66 728.047   1
   1  -8  13 51.9637 573.530   2
   7  -8  13 617.631 514.755   2
   1  -8  13 337.913 534.818   1
  -7  -1 -13-41.8642 370.962   1
   7   1  13-301.928 383.391   2
   1   7  13 1927.64 990.205   2
   7  -8  12 107560. 5623.94   1
   7   1  12 126721. 5699.92   1
  -7  -1 -12 125940. 5677.01   1
   1  -8  12 115650. 5848.15   2
   7  -8  12 123199. 5724.86   2
   1  -8  12 120608. 5731.67   1
  -1   8 -12 106283. 5464.54   1
   7   1  12 125253. 5690.95   2
  -7   8 -12 120712. 5763.08   1
  -7  -1 -11-410.231 475.283   1
  -1   8 -11 350.210 497.207   1
  -1  -7 -11 7.13710 461.559   1
   7  -8  11 214.330 545.149   1
  -7   8 -11-551.565 359.457   1
   7   1  11 487.246 475.480   1
   1   7  11 262.194 519.392   1
   1  -8  11-233.841 526.271   2
   7  -8  11-186.312 601.409   2
   1  -8  11 602.425 586.176   1
   7   1  11 136.090 499.009   2
  -7  -1 -10 9080.21 1438.69   1
   7  -8  10 10952.0 1643.35   1
  -1  -7 -10 8512.42 1336.97   1
  -7   8 -10 8669.01 1512.87   1
   7   1  10 7957.83 1368.51   1
   1   7  10 10151.8 1579.78   1
   1  -8  10 8443.16 1457.99   2
   1  -8  10 8641.24 1497.04   1
   7  -8  10 8523.08 1490.96   2
   7   1  10 9441.65 1407.17   2
  -1   8 -10 8167.12 1392.71   1
  -7  -1  -9 3949.70 951.836   1
   7  -8   9 3655.14 994.804   1
  -1  -7  -9 3065.87 857.134   1
  -7   8  -9 2602.61 892.757   1
   7   1   9 2523.04 847.589   1
   1   7   9 3300.38 913.347   1
   1  -8   9 4319.55 1065.73   1
   1  -8   9 2930.80 889.197   2
   7  -8   9 3499.02 872.745   2
   7   1   9 3872.16 977.868   2
  -1   8  -9 3971.82 1018.02   1
   7  -8   8 304119. 9619.88   1
   7   1   8 299355. 9489.96   1
   1   7   8 341384. 9927.15   1
   1  -8   8 292195. 9619.95   1
  -8   1   8 310321. 9553.70   1
   8  -1  -8 296482. 9349.43   1
   1  -8   8 299532. 9824.17   2
  -1   8  -8 287141. 9559.84   1
   7  -8   8 288858. 9440.46   2
  -7  -1  -8 290737. 9420.43   1
  -1  -7  -8 295416. 9412.94   1
   7   1   8 301840. 9421.37   2
  -7   8  -8 299887. 9622.82   1
   7  -8   7 5123.41 1122.98   1
  -7  -1  -7 5934.80 1173.03   1
  -7   8  -7 5598.51 1034.04   1
  -8   1   7 6259.23 1120.56   1
   1  -8   7 4549.43 1030.97   1
  -1  -7  -7 5887.45 1099.22   1
   7   1   7 6106.03 1049.42   1
   1   7   7 5307.89 1109.67   1
   1  -8   7 7020.09 1305.01   2
   8  -1  -7 5700.63 1028.12   1
   7  -8   7 5019.76 1094.40   2
  -1   8  -7 4638.41 1105.95   1
   7   1   7 6405.49 1114.84   2
   1  -8   6 57932.6 3602.39   1
   7   1   6 57030.2 3531.10   1
  -8   1   6 54001.3 3385.38   1
   1   7   6 57560.5 3447.31   1
   8  -1  -6 62891.7 3493.18   1
   7  -8   6 51549.9 3415.56   2
  -1   8  -6 63426.6 3752.47   1
  -7  -1  -6 61187.6 3666.15   1
   7   1   6 60932.1 3559.29   2
  -1  -7  -6 61781.3 3643.67   1
  -7   8  -6 56476.6 3471.68   1
   1  -8   5 1314.50 600.631   1
  -8   1   5 1583.20 557.548   1
  -7  -1  -5 1441.60 649.944   1
   7   1   5 1529.22 593.020   1
   1   7   5 1946.49 785.593   1
   8  -1  -5 1219.26 431.542   1
  -1  -7  -5 1445.98 599.153   1
   7  -8   5 1323.98 600.921   2
  -1   8  -5 496.167 408.652   1
   7   1   5 1247.79 415.406   2
  -1  -7  -4 528779. 13316.3   1
  -8   1   4 539483. 13419.6   1
   7   1   4 472462. 13025.8   1
   1   7   4 529613. 13305.8   1
   8  -1  -4 532320. 13052.2   1
  -1   8  -4 517500. 13442.8   1
  -7  -1  -4 479816. 13133.5   1
   7   1   4 468408. 12998.3   2
   7  -8   4 518594. 13357.6   2
   1  -8   4 483245. 13165.2   1
   7   1   3 13824.8 1634.71   1
   8  -1  -3 11814.7 1460.64   1
   1   7   3 9866.54 1394.59   1
   7  -8   3 12443.5 1570.39   2
   1  -8   3 12747.3 1499.71   1
   8  -1  -3 11166.3 1329.11   2
  -1   8  -3 12320.4 1578.01   1
  -8   1   3 11340.4 1489.49   1
  -7  -1  -3 13241.2 1645.74   1
  -1  -7  -3 12181.4 1469.69   1
   7   1   3 12286.5 1601.46   2
  -8   1   2 236610. 7833.83   1
  -1  -7  -2 223464. 7619.57   1
   7   1   2 223311. 7606.21   1
   8  -1  -2 223254. 7417.46   1
   1   7   2 226023. 7741.37   1
  -1   8  -2 248006. 7956.47   1
   7  -8   2 239116. 7777.80   2
   1  -8   2 247279. 7886.41   1
   8  -1  -2 233763. 7312.97   2
   7   1   2 253184. 7996.60   2
  -7  -1  -2 223931. 7695.95   1
  -1  -7  -1 1399.46 640.410   1
   8  -1  -1 359.664 373.179   1
   7   1   1 568.781 498.610   1
  -8   1   1-303.639 409.880   1
   1   7   1-336.155 511.213   1
  -7  -1  -1 881.318 629.638   1
   7  -8   1 429.197 526.137   2
   8  -7  -1 184.387 343.964   2
  -1   8  -1-106.425 286.919   1
   1  -8   1 999.674 591.709   1
   8  -1  -1 301.245 482.742   2
   7   1   1 1145.20 714.232   2
  -7  -1   0 130129. 5529.56   1
   8  -1   0 140190. 5427.29   1
   7   1   0 123687. 5265.85   1
  -1  -7   0 138399. 5600.48   1
   1   7   0 140127. 5666.76   1
   1  -8   0 139025. 5472.38   1
  -1   8   0 137626. 5535.76   1
   7  -8   0 138591. 5511.51   2
   8  -1   0 144244. 5409.55   2
   8  -7   0 134316. 5272.28   2
   7   1   0 144301. 5699.52   2
  -8   1   0 140013. 5623.56   1
   1  -8  -1 769.848 556.476   1
  -8   1  -1 508.943 443.218   1
   8  -1   1 147.139 452.009   1
   7   1  -1 503.054 530.412   1
  -1  -7   1 677.681 443.487   1
   7  -8  -1 133.499 345.269   2
  -1   8   1 406.602 333.922   1
   8  -7   1 748.834 420.580   2
   1   7  -1 1107.00 571.185   1
  -7  -1   1 916.702 572.730   1
   8  -1   1 493.992 370.854   2
   7   1  -1 304.478 312.152   2
  -1  -7   2 171989. 6406.99   1
  -7  -1   2 167998. 6419.65   1
   1  -8  -2 199363. 6538.19   1
   8  -1   2 158434. 6079.41   1
   7   1  -2 179248. 6409.89   1
   1   7  -2 172763. 6510.03   1
  -1   8   2 173761. 6308.06   1
   7  -8  -2 165957. 6148.41   2
   8  -7   2 176440. 6298.38   2
  -8   1  -2 185929. 6609.15   1
   8  -1   2 156766. 5973.20   2
   7   1  -2 147346. 5900.54   2
  -7  -1   3 4613.71 1002.47   1
  -1  -7   3 5502.10 1082.58   1
  -8   1  -3 5273.38 1056.73   1
   8  -1   3 4706.26 959.378   1
  -1   8   3 4380.37 883.224   1
   7   1  -3 4813.28 1009.56   1
   8  -7   3 4737.35 1010.34   2
   1   7  -3 4819.49 993.794   1
   8  -1   3 4882.46 986.340   2
   1  -8  -3 4411.51 906.104   1
   1  -8  -4 622665. 15466.3   1
   8  -1   4 644711. 15809.1   1
  -7  -1   4 703396. 16367.1   1
  -1   8   4 743829. 16045.6   1
   7   1  -4 619028. 15786.3   1
   1   7  -4 654961. 16201.4   1
   8  -7   4 672788. 16039.8   2
  -8   1  -4 668761. 16197.9   1
  -1  -7   4 533528. 15453.7   1
   8  -1   4 658501. 15745.5   2
  -8   1  -5 8946.27 1322.52   1
  -7  -1   5 7622.84 1210.96   1
   8  -1   5 6859.74 1134.77   1
  -1   8   5 6864.47 1156.78   1
  -1  -7   5 5842.43 1277.68   1
   1  -8  -5 8393.83 1274.26   1
   7   1  -5 6776.61 1186.28   1
   8  -7   5 5588.06 1098.56   2
   1   7  -5 7890.34 1310.29   1
   8  -1   5 7387.74 1251.53   2
  -8   1  -6-127.658 373.409   1
   8  -1   6 752.826 477.285   1
  -8   7  -6 741.066 432.215   1
  -7  -1   6 832.904 414.789   1
  -1   8   6 74.0237 442.703   1
   7   1  -6 569.358 522.396   1
   8  -7   6 1003.88 492.442   2
   1   7  -6 714.806 553.593   1
  -1  -7   6 1322.11 731.889   1
   8  -1   6 18.1486 466.508   2
  -1  -7   7-761.106 704.096   1
  -8   1  -7 398.725 500.206   1
   8  -7   7 44.6670 295.423   1
   8  -1   7-446.856 499.824   1
  -8   7  -7 315.243 531.643   1
  -7  -1   7 171.438 519.878   1
   7   1  -7 490.619 474.981   1
   8  -7   7 22.6843 497.758   2
   1   7  -7 69.2437 397.362   1
   8  -1   7 800.910 436.666   2
   8  -7   8 216563. 7664.52   1
  -8   7  -8 210456. 7615.50   1
  -1  -7   8 217118. 7742.98   1
   8  -1   8 221570. 7709.19   1
  -8   1  -8 216182. 7630.92   1
   7   1  -8 218887. 7676.65   1
  -7  -1   8 206723. 7633.37   1
   1   7  -8 214463. 7822.55   1
   8  -1   8 205962. 7445.41   2
   8  -7   8 207113. 7585.67   2
   8  -7   9 9480.32 1428.35   1
  -1  -7   9 8032.85 1354.50   1
   8  -1   9 8725.94 1396.37   1
  -8   7  -9 9407.93 1465.63   1
   8  -7   9 9928.10 1476.46   2
   7   1  -9 7139.61 1306.00   1
  -7  -1   9 8164.89 1400.25   1
   8  -1   9 10379.6 1542.08   2
   1   7  -9 7918.09 1375.19   1
  -8   1  -9 9448.50 1426.05   1
  -7  -1  10 10158.8 1563.23   1
   8  -7  10 11649.4 1651.57   1
  -1  -7  10 9545.10 1531.01   1
   8  -1  10 10700.2 1553.84   1
  -8   7 -10 10072.8 1612.79   1
   8  -7  10 9953.68 1547.87   2
   7   1 -10 10474.9 1557.99   1
   8  -1  10 11190.9 1659.86   2
   1   7 -10 12740.6 1721.12   1
  -8   1 -10 10962.0 1491.90   1
  -7  -1  11-828.758 539.677   1
   8  -7  11 536.329 527.392   1
   8  -1  11 297.234 498.591   1
  -1  -7  11 369.137 574.539   1
  -8   7 -11 312.090 580.691   1
   8  -7  11-470.660 460.761   2
   7   1 -11 1176.15 646.550   1
  -8   1 -11 865.914 619.292   1
   8  -1  11-120.319 490.874   2
   1   7 -11 341.017 639.971   1
   8  -7  12 141858. 6444.05   1
  -8   7 -12 128165. 6160.17   1
   8  -1  12 144793. 6233.56   1
  -1  -7  12 136313. 6237.86   1
  -8   1 -12 147569. 6288.17   1
   7   1 -12 122177. 5891.84   1
   8  -7  12 134869. 6065.50   2
   1   7 -12 128935. 6063.59   1
  -7  -1  12 131924. 6214.39   1
   8  -1  12 142441. 6129.03   2
   8  -7  13 657.835 716.353   1
   8  -1  13 1.26697 367.479   1
  -7  -1  13 477.279 425.970   1
  -8   7 -13-268.354 479.794   1
  -1  -7  13 72.4723 674.142   1
   8  -7  13-310.636 417.341   2
  -8   1 -13 310.816 364.851   1
   7   1 -13-298.622 477.996   1
   8  -1  13-221.633 432.701   2
   1   7 -13 604.506 671.861   1
   8  -7  14 4374.99 1049.11   1
   8  -1  14 5775.66 1230.62   1
  -8   7 -14 4888.01 1169.06   1
  -7  -1  14 4817.74 1204.56   1
  -1  -7  14 4123.90 1065.32   1
   8  -7  14 4168.40 999.102   2
  -8   1 -14 4024.79 964.004   1
   8  -1  14 4483.49 1075.58   2
   1   7 -14 4375.19 1069.91   1
   8  -7  15-853.697 588.869   1
   8  -1  15-161.327 428.729   1
  -8   7 -15-315.358 501.941   1
  -1  -7  15 417.146 678.190   1
  -8   1 -15-133.625 369.223   1
   8  -7  15-311.460 338.141   2
   8  -1  15-275.488 537.406   2
   1   7 -15-178.477 494.347   1
   8  -7  16 106120. 5798.67   1
  -8   7 -16 109671. 5705.16   1
   0  -8   0 2608.91 775.107   1
  -8   0   0 3519.93 949.985   1
   8  -8   0 3094.95 822.371   2
   0   8   0 3071.43 920.889   1
   8   0   0 3267.97 774.151   1
   8   0   0 2165.21 646.193   2
  -8   0   1 141142. 5782.91   1
   8   0   1 133656. 5493.85   1
   0  -8  -1 128629. 5487.44   1
   8   0  -1 136165. 5560.73   1
   0   8   1 130438. 5630.28   1
   0   8  -1 137318. 5703.86   1
   0  -8   1 148763. 5875.44   1
   8  -8  -1 135506. 5519.61   2
   8  -8   1 139123. 5634.56   2
   8   0   1 122860. 5365.94   2
   8   0  -1 140060. 5514.11   2
  -8   0  -1 142476. 5812.68   1
  -8   0   2 192216. 6984.29   1
   0  -8  -2 202386. 7060.94   1
   8   0   2 184722. 6775.49   1
   8   0  -2 187520. 6712.62   1
   0   8   2 192397. 6971.81   1
   0   8  -2 195829. 7078.57   1
   8  -8   2 198613. 7034.87   2
   0  -8   2 186174. 6892.77   1
   8   0   2 192884. 6832.72   2
   8   0  -2 175793. 6481.63   2
  -8   0  -2 180392. 6784.55   1
  -8   0   3 17243.3 1911.36   1
   0  -8  -3 19106.9 1963.36   1
   8   0   3 17783.5 1859.07   1
   8   0  -3 18585.2 1853.78   1
   0   8   3 16088.8 1788.01   1
   0   8  -3 14937.2 1791.03   1
   8  -8   3 17411.6 1925.64   2
   0  -8   3 16165.1 1830.88   1
  -8   0  -3 18432.1 1968.52   1
   8   0   3 16053.8 1706.67   2
   8   0  -3 14714.9 1653.33   2
   0  -8  -4 29959.0 2508.34   1
  -8   0   4 30267.9 2562.04   1
   8   0   4 30218.1 2524.76   1
   0   8   4 33288.7 2584.63   1
   8   0  -4 31858.2 2515.84   1
   0   8  -4 26390.5 2424.19   1
   8  -8   4 30268.8 2520.89   2
  -8   0  -4 33106.3 2642.60   1
   0  -8   4 27920.3 2445.31   1
   8   0   4 29054.7 2436.94   2
   0  -8  -5 56356.7 3523.96   1
  -8   0   5 55173.4 3540.39   1
   8   0   5 63595.8 3725.97   1
   0   8   5 57830.4 3537.02   1
   8   0  -5 58612.7 3569.67   1
   0   8  -5 60215.5 3713.26   1
  -8   0  -5 55082.0 3564.16   1
   8  -8   5 58987.2 3682.34   2
   8   0   5 59961.0 3510.37   2
   0  -8   5 56950.7 3618.82   1
   0  -8   6 195692. 7422.58   1
   8   0   6 220064. 7665.04   1
  -8   0   6 214161. 7611.90   1
   0   8   6 230350. 7710.87   1
   8   0  -6 211786. 7511.82   1
   8  -8   6 199467. 7465.12   2
   0   8  -6 194043. 7498.45   1
  -8   0  -6 205750. 7545.89   1
   8   0   6 207069. 7410.03   2
   0  -8  -6 228812. 7684.26   1
   0  -8   7 45072.8 3286.58   1
   8   0   7 47970.3 3303.81   1
   0   8   7 49712.8 3317.59   1
  -8   0   7 47231.7 3262.54   1
   8   0  -7 48309.3 3283.84   1
   8  -8   7 44376.2 3242.72   2
  -8   0  -7 47856.6 3304.16   1
   0   8  -7 47711.9 3353.66   1
   0  -8  -7 57689.0 3544.05   1
   8   0   7 48010.0 3228.92   2
   0  -8   8 40416.8 3110.40   1
   8   0   8 34468.3 2797.68   1
  -8   0   8 36876.6 2919.87   1
   8   0  -8 42330.2 3076.22   1
  -8   0  -8 39836.2 2996.11   1
   8  -8   8 40754.9 3025.16   2
   0   8  -8 40144.5 3074.37   1
   8   0   8 37206.0 2925.55   2
  -8   0  -9 5089.09 1107.97   1
   0  -8   9 5300.30 1218.37   1
  -8   8  -9 6054.18 1201.27   1
   8   0   9 4233.03 961.115   1
  -8   0   9 5667.04 1158.96   1
   8   0  -9 7312.76 1308.94   1
   8  -8   9 6532.80 1275.14   2
   8   0   9 5018.22 985.550   2
   0   8  -9 5484.23 1258.10   1
   8  -8  10 81800.2 4743.59   1
  -8   8 -10 81019.2 4599.77   1
   8   0  10 88863.0 4627.74   1
   0  -8  10 83968.7 4710.79   1
  -8   0  10 78992.1 4571.37   1
  -8   0 -10 83164.0 4538.06   1
   8  -8  10 78386.7 4537.87   2
   0   8 -10 83178.5 4575.14   1
   8   0  10 84607.7 4522.71   2
  -8   8 -11 52819.2 3791.60   1
   8  -8  11 53611.2 3858.75   1
   8   0  11 61445.6 3879.94   1
   0  -8  11 65751.1 4092.02   1
  -8   0 -11 57607.6 3745.30   1
   8  -8  11 55834.1 3791.48   2
   0   8 -11 56862.2 3861.37   1
   8   0  11 54356.5 3735.49   2
   8  -8  12 4044.98 1126.93   1
  -8   8 -12 5086.69 1226.96   1
   8   0  12 4431.26 1129.56   1
   0  -8  12 2888.00 826.363   1
   8  -8  12 3772.08 999.067   2
  -8   0 -12 3808.17 949.380   1
   8   0  12 3699.87 1045.55   2
   0   8 -12 4371.11 1105.36   1
  -8   8 -13 50233.5 3757.30   1
   8  -8  13 47383.1 3736.68   1
   8   0  13 57536.1 3812.67   1
   0  -8  13 56232.4 3858.90   1
  -8   0 -13 56127.5 3777.34   1
   8  -8  13 53265.6 3730.08   2
   0   8 -13 57250.5 3946.29   1
   8   0  13 53928.9 3751.38   2
  -8   8 -14 68873.6 4438.31   1
   8  -8  14 63006.8 4340.77   1
   8   0  14 83393.8 4673.69   1
  -8   0 -14 76794.6 4470.92   1
   0  -8  14 73106.6 4480.66   1
   8  -8  14 79876.9 4580.75   2
   0   8 -14 69664.0 4427.41   1
   8   0  14 74708.6 4526.85   2
   8  -8  15 8862.60 1565.77   1
  -8   8 -15 7831.96 1485.98   1
   4   5  16 9638.26 1635.40   1
  -4  -5 -16 6912.19 1396.49   1
   5   4  16 10548.9 1659.85   2
   4   5  16 8697.94 1526.72   2
   5  -9  15 3776.43 942.718   1
  -4   9 -15 5261.99 1201.31   1
  -5   9 -15 6533.36 1351.76   1
   4  -9  15 5257.66 1215.65   1
   5   4  15 6596.89 1308.07   1
   4   5  15 6240.27 1286.66   1
   4  -9  15 5405.98 1261.08   2
   5  -9  15 6882.65 1361.33   2
  -5  -4 -15 4288.40 1003.78   1
  -4  -5 -15 5088.79 1188.00   1
   5   4  15 5351.06 1155.04   2
   4   5  15 5299.08 1205.60   2
   5   4  14 134860. 6131.97   1
   4   5  14 122076. 5961.38   1
   4  -9  14 115727. 5992.96   1
  -5  -4 -14 129580. 6020.89   1
  -4  -5 -14 117975. 5755.55   1
   4  -9  14 115257. 5798.10   2
   5  -9  14 123754. 5985.51   2
   5  -9  14 105660. 5705.10   1
  -4   9 -14 118527. 5907.16   1
   5   4  14 118281. 5767.15   2
   4   5  14 102268. 5382.13   2
  -5   9 -14 127364. 6087.88   1
   5   4  13 90920.9 4901.81   1
   4   5  13 90711.1 4903.99   1
   4  -9  13 77222.2 4785.72   1
  -5  -4 -13 82784.4 4622.06   1
  -4  -5 -13 90560.2 4862.63   1
   4  -9  13 87172.3 4861.76   2
   5  -9  13 85570.5 4878.08   2
   5  -9  13 70200.6 4613.34   1
  -4   9 -13 89409.9 4968.10   1
   5   4  13 75819.2 4492.19   2
  -5   9 -13 82544.6 4846.87   1
   4   5  13 85005.5 4714.33   2
   5   4  12 21827.0 2307.55   1
   4   5  12 23459.7 2343.18   1
   4  -9  12 16568.0 2144.45   1
  -4  -5 -12 22059.5 2252.30   1
   4  -9  12 18975.0 2199.32   2
   5  -9  12 20894.7 2310.68   2
   5  -9  12 17463.4 2179.68   1
  -5  -4 -12 24076.3 2328.38   1
  -4   9 -12 20364.8 2269.03   1
  -5   9 -12 22603.1 2423.83   1
   5   4  12 20609.7 2217.74   2
   4   5  12 20052.6 2177.11   2
   4  -9  11 93129.7 5166.81   1
   5   4  11 96895.8 5009.00   1
   4   5  11 105211. 5189.92   1
   5  -9  11 95036.7 5178.50   1
   4  -9  11 90345.9 4935.72   2
   5  -9  11 93899.0 5047.29   2
  -5  -4 -11 95710.5 4959.01   1
  -4  -5 -11 99937.3 5042.81   1
  -4   9 -11 96611.5 5135.77   1
  -5   9 -11 99834.2 5159.03   1
   5   4  11 104459. 5126.62   2
   4   5  11 89467.5 4846.99   2
   4  -9  10 144930. 6603.54   1
   5   4  10 165469. 6621.33   1
   4   5  10 149557. 6432.66   1
   4  -9  10 143181. 6350.91   2
   5  -9  10 154786. 6594.49   2
   5  -9  10 161896. 6840.87   1
  -5  -4 -10 162465. 6585.89   1
  -4  -5 -10 163533. 6570.15   1
  -4   9 -10 147797. 6530.43   1
  -5   9 -10 166138. 6846.15   1
   5   4  10 159008. 6474.44   2
   4   5  10 156506. 6647.19   2
   4  -9   9 18895.7 2135.53   1
   5   4   9 17125.3 1918.41   1
   4   5   9 16106.4 1839.39   1
   5  -9   9 17555.6 2042.20   1
   4  -9   9 18132.3 2004.74   2
   5  -9   9 17428.1 2034.93   2
  -5  -4  -9 17130.5 2015.31   1
  -4  -5  -9 16026.2 1824.87   1
  -4   9  -9 19190.9 2144.33   1
  -5   9  -9 19227.9 2113.63   1
   5   4   9 17826.5 1960.89   2
   4   5   9 18931.0 2045.04   2
  -4   9  -8 5844.04 1286.54   1
  -5   9  -8 5668.48 1226.05   1
   4  -9   8 4484.66 1089.25   1
  -5  -4  -8 7276.20 1184.85   1
  -4  -5  -8 5233.73 1067.25   1
   5   4   8 5362.24 998.341   1
   4   5   8 6653.32 1216.86   1
   4  -9   8 4901.38 1151.91   2
   5  -9   8 4766.00 1092.45   2
   5  -9   8 4022.65 953.230   1
   5   4   8 5714.50 1081.36   2
  -4   9  -7 1953.44 759.755   1
   4  -9   7 3974.18 912.945   1
  -5   9  -7 2996.89 754.138   1
   5  -9   7 5538.15 1174.28   1
  -5  -4  -7 1929.64 656.101   1
  -4  -5  -7 3146.23 818.295   1
   5   4   7 3521.70 923.220   1
   4   5   7 3020.63 884.676   1
   4  -9   7 2268.17 806.308   2
   5  -9   7 1904.99 577.169   2
   5   4   7 2229.65 682.642   2
   5   4   6 54702.4 3505.40   1
   4   5   6 52854.7 3416.24   1
   4  -9   6 58086.6 3598.93   2
   4  -9   6 56368.4 3608.29   1
   5  -9   6 51429.1 3443.47   2
  -4   9  -6 59325.0 3668.40   1
  -5   9  -6 54200.9 3468.39   1
  -5  -4  -6 50689.5 3389.91   1
  -4  -5  -6 54097.1 3457.08   1
   5  -9   6 58513.1 3600.50   1
  -5   9  -5 7576.40 1181.27   1
   5  -9   5 7272.79 1182.18   1
   4   5   5 7291.56 1211.10   1
  -5  -4  -5 6077.47 957.776   1
   5   4   5 6115.74 1073.45   1
  -4  -5  -5 5962.36 1069.20   1
   4  -9   5 4939.60 1100.61   2
   4  -9   5 5776.98 1075.31   1
   5  -9   5 8223.05 1366.95   2
  -4   9  -5 8237.27 1331.96   1
  -4  -5  -4 42281.9 2949.78   1
   4  -9   4 42449.2 2898.99   1
   5   4   4 41161.7 2863.89   1
   4   5   4 37071.3 2786.23   1
   4  -9   4 34449.4 2865.98   2
   5  -9   4 38317.2 2893.86   2
  -4   9  -4 44085.9 2970.53   1
  -5  -4  -4 41298.9 2931.29   1
  -5  -4  -3 95252.5 4670.14   1
  -4  -5  -3 90247.8 4553.35   1
   5   4   3 86829.3 4377.36   1
   4   5   3 90323.4 4384.47   1
   5  -9   3 83014.3 4405.42   2
   4  -9   3 92100.0 4714.91   2
  -4   9  -3 96612.6 4482.51   1
  -5  -4  -2 273278. 8516.83   1
  -4  -5  -2 255682. 8330.38   1
   5   4   2 241073. 8003.51   1
   4   5   2 243536. 8051.45   1
   4  -9   2 221015. 8107.04   2
   5  -9   2 253136. 8368.92   2
  -5  -4  -1 187522. 6926.79   1
  -4  -5  -1 177900. 6755.30   1
   5   4   1 177485. 6621.89   1
   4   5   1 199539. 6969.13   1
   4  -9   1 191893. 7109.73   2
   5  -9   1 181491. 6881.06   2
  -5  -4   0 13459.0 1670.04   1
  -4  -5   0 16832.8 1830.35   1
   5   4   0 17075.2 1878.42   1
   4   5   0 17370.3 1851.72   1
   5  -9   0 16167.4 1853.62   2
   9  -5   0 16976.3 1666.03   2
   9  -4   0 17074.9 1699.09   2
   9  -4   1 55296.2 3287.53   2
   9  -4   1 63272.2 3327.40   1
  -5  -4   1 56819.1 3453.53   1
  -4  -5   1 62488.3 3672.00   1
   5   4  -1 57482.8 3471.00   1
   4   5  -1 61201.9 3589.84   1
  -9   4  -1 57124.7 3306.66   1
   5  -9  -1 60742.0 3692.88   2
   9  -5   1 64937.7 3519.06   2
  -5  -4   2 421016. 11620.9   1
  -4  -5   2 408401. 11593.1   1
   5   4  -2 379051. 11388.3   1
   4   5  -2 393980. 11523.7   1
  -9   4  -2 409235. 11153.1   1
   9  -5   2 435931. 11466.6   2
   9  -4   2 404392. 11267.2   2
   9  -4   3 42653.3 2820.07   1
  -9   5  -3 50988.3 3095.90   1
  -5  -4   3 45165.4 3114.92   1
  -4  -5   3 50072.6 3194.25   1
  -9   4  -3 44963.0 2989.63   1
   5   4  -3 45442.3 3044.69   1
   4   5  -3 46333.3 3115.88   1
   9  -5   3 44280.7 3000.34   2
   9  -4   3 46122.2 3019.62   2
   9  -5   4 35000.1 2620.98   1
   9  -4   4 41062.7 2739.33   1
  -9   5  -4 31588.5 2477.77   1
  -9   4  -4 36860.8 2694.77   1
  -5  -4   4 39935.1 2899.85   1
   5   4  -4 33714.9 2682.22   1
   4   5  -4 40233.3 2839.19   1
  -4  -5   4 36818.2 2748.51   1
   9  -5   4 34644.7 2614.02   2
   9  -4   4 32107.1 2587.68   2
   9  -5   5 46869.6 3145.51   1
   9  -4   5 43389.1 2985.20   1
  -9   5  -5 45834.2 3040.37   1
  -9   4  -5 47521.7 3157.98   1
   4   5  -5 46724.9 3195.28   1
   5   4  -5 44914.0 3099.73   1
  -5  -4   5 40140.6 2980.95   1
  -4  -5   5 44482.5 3099.27   1
   9  -5   5 44036.3 3037.35   2
   9  -4   5 43624.9 3055.64   2
   9  -5   6 38655.7 2833.23   1
   9  -4   6 45961.2 3085.89   1
  -9   5  -6 48980.7 3166.46   1
  -9   4  -6 44748.4 3053.82   1
   5   4  -6 44498.9 3119.57   1
   4   5  -6 37674.6 2910.11   1
  -5  -4   6 39042.1 2990.40   1
  -4  -5   6 39507.4 3013.63   1
   9  -5   6 45842.4 3096.46   2
   9  -4   6 37607.5 2906.74   2
  -5  -4   7-892.494 597.681   1
  -4  -5   7-201.957 546.907   1
   9  -5   7 1311.60 680.556   1
   9  -4   7-182.468 591.901   1
  -9   5  -7 35.1099 410.428   1
   5   4  -7 1328.51 684.220   1
   4   5  -7 576.750 401.592   1
  -9   4  -7 651.194 462.221   1
   9  -5   7-212.015 318.391   2
   9  -4   7 1691.15 741.219   2
  -5  -4   8 5949.37 1133.00   1
   9  -5   8 7966.93 1299.18   1
   9  -4   8 8484.42 1339.71   1
  -4  -5   8 6873.99 1344.35   1
  -9   5  -8 8736.19 1443.03   1
  -9   4  -8 8378.24 1361.51   1
   5   4  -8 7553.56 1411.82   1
   4   5  -8 7081.34 1277.28   1
   9  -5   8 8106.45 1265.99   2
   9  -4   8 8459.33 1427.82   2
   9  -5   9 19077.9 2113.03   1
   9  -4   9 21174.7 2259.39   1
  -9   5  -9 22006.8 2178.95   1
  -9   4  -9 18788.2 2053.91   1
   5   4  -9 19371.8 2082.16   1
   4   5  -9 18766.3 2095.93   1
   9  -5   9 20181.4 2144.38   2
   9  -4   9 20243.1 2121.70   2
  -5  -4   9 20570.9 2207.38   1
  -4  -5   9 17853.8 2155.91   1
   9  -5  10 120641. 5709.62   1
   9  -4  10 128508. 5917.89   1
  -9   5 -10 128051. 5839.80   1
  -9   4 -10 117061. 5635.06   1
   4   5 -10 126796. 5739.14   1
   5   4 -10 124225. 5744.46   1
   9  -5  10 126351. 5653.24   2
   9  -4  10 125938. 5627.30   2
  -5  -4  10 122665. 5819.44   1
  -4  -5  10 136510. 6038.57   1
   9  -5  11 121437. 5871.70   1
   9  -4  11 123235. 5813.76   1
  -9   5 -11 120565. 5767.49   1
   4   5 -11 116717. 5670.33   1
  -9   4 -11 126177. 5828.00   1
   5   4 -11 132789. 5983.36   1
   9  -5  11 125130. 5705.31   2
   9  -4  11 122287. 5736.41   2
  -5  -4  11 122822. 5904.81   1
  -4  -5  11 119643. 5795.28   1
  -4  -5  12 24911.9 2515.32   1
   9  -5  12 19600.8 2298.46   1
   9  -4  12 26835.3 2518.57   1
  -9   5 -12 23970.1 2441.78   1
  -9   4 -12 21033.9 2302.96   1
   5   4 -12 22061.7 2379.81   1
   4   5 -12 21513.2 2326.05   1
   9  -5  12 26996.4 2469.37   2
   9  -4  12 27332.0 2495.51   2
  -5  -4  12 23384.4 2472.19   1
  -4  -5  13 48873.7 3540.02   1
   9  -5  13 46105.1 3562.51   1
   9  -4  13 52696.4 3696.66   1
  -9   5 -13 48323.5 3499.49   1
  -9   4 -13 53943.4 3725.69   1
   5   4 -13 51597.8 3659.30   1
   4   5 -13 48488.9 3535.80   1
   9  -5  13 54267.3 3559.33   2
   9  -4  13 51546.6 3642.41   2
  -5  -4  13 45650.6 3522.17   1
  -5  -4  14 162974. 7121.81   1
   9  -5  14 160874. 7128.56   1
  -4  -5  14 170685. 7283.73   1
   9  -4  14 167365. 7252.77   1
  -9   5 -14 167909. 7195.80   1
  -9   4 -14 170739. 7122.57   1
   5   4 -14 156359. 6968.36   1
   4   5 -14 177083. 7287.51   1
   9  -5  14 168138. 6992.78   2
   9  -4  14 186203. 7264.98   2
  -4  -5  15 9021.17 1600.41   1
   9  -5  15 9258.07 1600.36   1
   9  -4  15 5885.35 1385.25   1
  -9   5 -15 7014.68 1335.93   1
  -9   4 -15 8447.63 1437.54   1
   9  -5  15 9309.52 1525.27   2
   9  -4  15 11256.6 1691.66   2
   5   4 -15 9235.83 1536.12   1
   4   5 -15 6422.72 1212.28   1
  -5  -4  15 10941.3 1706.18   1
  -3   9 -15 4267.49 1108.01   1
   6  -9  15 5155.38 1340.51   1
  -6   9 -15 4896.28 1224.24   1
   6   3  15 6773.98 1274.76   1
   3   6  15 5914.77 1288.74   1
   3  -9  15 7031.75 1401.40   1
   3  -9  15 5995.05 1425.49   2
   6  -9  15 6140.61 1279.69   2
  -6  -3 -15 5193.03 1183.81   1
  -3  -6 -15 5001.85 1184.69   1
   6   3  15 4917.10 1052.05   2
   3   6  15 3634.86 1044.35   2
  -3   9 -14 8819.15 1530.61   1
   6  -9  14 6593.31 1276.77   1
  -6   9 -14 7935.24 1525.05   1
   6   3  14 7729.45 1418.56   1
   3   6  14 8060.64 1564.70   1
   3  -9  14 6829.12 1419.44   1
   3  -9  14 6085.93 1289.97   2
   6  -9  14 8822.71 1488.43   2
  -6  -3 -14 8395.09 1486.07   1
   6   3  14 7936.53 1444.59   2
  -3  -6 -14 6852.57 1337.08   1
   3   6  14 6096.54 1254.72   2
  -3  -6 -13 2658.51 801.032   1
  -3   9 -13 2812.90 968.499   1
   6  -9  13 4317.80 1178.94   1
  -6   9 -13 3905.56 1199.67   1
   3  -9  13 2206.69 918.330   1
   6   3  13 4048.62 1025.47   1
   3   6  13 3693.17 970.921   1
   3  -9  13 2757.40 959.001   2
   6  -9  13 2845.31 812.264   2
   6   3  13 3762.89 1049.62   2
   3   6  13 2322.03 813.985   2
  -6  -3 -13 3611.60 929.295   1
   6   3  12 214918. 7835.22   1
   3   6  12 210542. 8041.16   1
  -3  -6 -12 204750. 7793.73   1
  -6  -3 -12 240915. 8265.24   1
   3  -9  12 206380. 7928.44   2
   6  -9  12 212692. 8077.71   2
  -3   9 -12 209968. 8089.53   1
   6   3  12 217359. 7900.87   2
   3  -9  12 192190. 7921.90   1
  -6   9 -12 217684. 8288.57   1
   3   6  12 155066. 7180.10   2
   6  -9  12 185957. 7933.03   1
  -3   9 -11 2098.23 838.562   1
   6  -9  11 508.462 375.167   1
  -6  -3 -11 273.205 471.788   1
  -3  -6 -11 2814.60 820.985   1
  -6   9 -11 1750.18 653.000   1
   3  -9  11 1363.46 670.277   1
   6   3  11 1785.74 695.258   1
   3   6  11 2586.99 792.766   1
   3  -9  11 2031.19 795.067   2
   6  -9  11 1557.66 452.912   2
   6   3  11 740.252 453.229   2
   3   6  11 1072.29 499.787   2
   6   3  10 14343.3 1822.32   1
   3   6  10 13697.5 1761.56   1
   6  -9  10 15633.1 1926.44   2
  -6  -3 -10 13786.0 1793.40   1
   3  -9  10 13793.0 1836.35   2
  -3  -6 -10 14853.3 1893.57   1
   3  -9  10 15952.8 2006.89   1
  -3   9 -10 15930.9 2002.99   1
   6   3  10 16331.5 1897.63   2
  -6   9 -10 15121.3 1926.73   1
   3   6  10 11836.3 1640.03   2
   6  -9  10 15975.6 1968.36   1
  -3   9  -9 2213.37 788.131   1
  -6   9  -9 1063.48 513.905   1
  -6  -3  -9 2064.92 776.765   1
  -3  -6  -9 1764.23 744.641   1
   6   3   9 1352.54 581.700   1
   3   6   9 2348.65 793.278   1
   3  -9   9 2061.70 789.017   2
   6  -9   9 980.796 484.192   2
   3  -9   9 1422.85 759.056   1
   6   3   9 1310.78 569.440   2
   6   3   8 296147. 9218.50   1
   3   6   8 263750. 8976.00   1
   3  -9   8 257884. 9048.53   2
   6  -9   8 260076. 9077.82   2
   3  -9   8 287269. 9478.30   1
  -6  -3  -8 266730. 9020.90   1
  -3   9  -8 275868. 9296.01   1
  -3  -6  -8 271082. 9044.73   1
   6  -9   8 281548. 9330.37   1
  -6   9  -8 296299. 9426.66   1
   6   3   8 252188. 8818.16   2
   6   3   7 24569.3 2334.47   1
   3   6   7 26704.6 2408.39   1
   3  -9   7 25000.7 2377.12   1
   3  -9   7 22493.5 2300.77   2
  -3   9  -7 25224.1 2435.69   1
  -6  -3  -7 26306.8 2439.40   1
  -3  -6  -7 27038.6 2401.20   1
  -6   9  -7 23001.5 2242.48   1
   6   3   7 24715.1 2322.22   2
   6  -9   7 22370.1 2368.21   2
  -6  -3  -6-126.371 549.422   1
   3  -9   6-286.553 470.771   1
   6   3   6 364.049 584.032   1
  -3  -6  -6 53.5178 505.574   1
   3   6   6-67.5869 374.706   1
   3  -9   6 931.841 685.708   2
   6  -9   6 122.863 482.159   2
   6   3   6 331.605 464.127   2
  -3   9  -6-714.190 676.855   1
   3  -9   5 1449.44 726.121   1
   3  -9   5 1361.85 615.894   2
   3   6   5 1423.06 628.109   1
  -6  -3  -5 1858.94 762.236   1
   6   3   5 1245.37 495.529   1
  -3  -6  -5 534.823 492.512   1
   6  -9   5 2410.97 876.601   2
  -3   9  -5 1619.75 664.258   1
   6   3   5 641.572 415.349   2
  -3  -6  -4 192946. 7023.69   1
   3  -9   4 188050. 6854.28   1
   6   3   4 191058. 6965.23   1
   3   6   4 178672. 6847.64   1
   3  -9   4 183163. 7270.90   2
   6  -9   4 190246. 7147.63   2
  -3   9  -4 201868. 7192.45   1
  -6  -3  -4 179726. 6917.84   1
   6   3   4 186541. 7021.06   2
  -6  -3  -3 15530.9 1809.88   1
  -3  -6  -3 17000.0 1880.39   1
   6   3   3 15057.4 1725.05   1
   3   6   3 15746.7 1849.21   1
   3  -9   3 13926.8 1810.01   2
   6  -9   3 14859.7 1848.45   2
  -3   9  -3 15897.6 1789.27   1
   3  -9   3 17835.2 1822.79   1
  -9   3   2 7216.76 1202.07   1
   3  -9   2 6933.82 1072.83   1
   3   6   2 5664.89 1061.99   1
   6  -9   2 6886.76 1201.48   2
  -6  -3  -2 7945.27 1344.14   1
   6   3   2 8398.63 1260.17   1
  -3   9  -2 7099.26 1141.33   1
  -3  -6  -2 6101.81 1118.15   1
  -3  -6  -1 6172.79 1096.75   1
   3  -9   1 6960.72 1099.91   1
   3   6   1 6591.20 1193.04   1
  -9   3   1 8678.55 1285.44   1
   9  -3  -1 7361.90 1113.16   1
   6   3   1 8161.85 1286.03   1
   6  -9   1 7687.82 1340.36   2
  -3   9  -1 6691.33 1103.27   1
  -6  -3  -1 7889.33 1306.16   1
   9  -3  -1 5703.24 1072.96   2
  -6  -3   0 400628. 11753.5   1
   9  -3   0 472590. 11691.1   1
  -3  -6   0 405543. 11693.7   1
   6   3   0 413780. 11649.5   1
   3   6   0 441521. 12058.3   1
   6  -9   0 434423. 11973.8   2
   9  -6   0 420707. 11349.4   2
  -9   3   0 461557. 11914.5   1
   9  -3   0 406483. 11470.3   2
  -6  -3   1 791.496 583.368   1
  -9   3  -1 1145.24 535.887   1
  -3  -6   1 1757.97 831.380   1
   9  -3   1 1989.81 756.198   1
   6  -9  -1 979.825 596.349   2
   6   3  -1 820.954 530.621   1
   3   6  -1 1260.15 619.701   1
   9  -6   1 1281.14 591.076   2
   9  -3   1 538.555 346.044   2
  -9   3  -2 5667.52 999.674   1
  -6  -3   2 6079.45 1200.67   1
   9  -3   2 5394.92 927.284   1
  -3  -6   2 5546.68 1115.58   1
   6  -9  -2 6041.69 1189.94   2
   6   3  -2 5525.37 1057.19   1
   3   6  -2 6212.72 1223.36   1
   9  -6   2 7035.78 1177.89   2
   9  -3   2 6053.20 1075.62   2
  -9   3  -3 918.437 584.150   1
  -6  -3   3 402.865 461.063   1
   9  -3   3 360.606 334.304   1
   6   3  -3 119.301 381.898   1
   3   6  -3 346.401 485.699   1
   9  -6   3-72.6421 562.516   2
   9  -3   3-40.3079 401.122   2
  -3  -6   3 85.2803 404.067   1
   9  -3   4 402058. 11110.6   1
  -6  -3   4 376814. 11251.7   1
   6   3  -4 367844. 11085.9   1
   3   6  -4 375219. 11221.8   1
  -9   3  -4 417661. 11372.1   1
  -3  -6   4 409568. 11492.0   1
   9  -6   4 409933. 11258.6   2
   9  -3   4 408233. 11259.6   2
   9  -3   5 27401.6 2284.10   1
  -6  -3   5 26278.9 2391.16   1
   6   3  -5 25806.3 2329.25   1
  -9   3  -5 29657.1 2531.33   1
   3   6  -5 30141.4 2505.39   1
  -3  -6   5 27994.4 2432.31   1
   9  -6   5 28033.3 2363.37   2
   9  -3   5 25760.2 2380.73   2
   9  -6   6 3465.37 846.037   1
  -3  -6   6 4786.76 1151.73   1
   9  -3   6 2201.24 632.031   1
  -9   6  -6 4707.24 999.694   1
  -6  -3   6 4098.95 1083.80   1
   6   3  -6 3186.10 949.610   1
   9  -6   6 3185.06 893.314   2
   3   6  -6 3417.72 1009.91   1
   9  -3   6 3497.32 964.855   2
  -9   3  -6 3394.49 901.662   1
   9  -6   7 4505.98 976.539   1
   9  -3   7 3937.45 995.297   1
  -3  -6   7 4984.67 1028.69   1
  -9   6  -7 4731.34 911.273   1
   6   3  -7 5261.15 1132.34   1
  -6  -3   7 4035.10 983.985   1
   9  -6   7 3837.10 1008.53   2
   3   6  -7 5393.55 1224.43   1
   9  -3   7 5037.77 1187.96   2
  -9   3  -7 5183.55 1152.50   1
   9  -6   8 193728. 7443.00   1
   9  -3   8 185950. 7261.96   1
  -9   6  -8 219650. 7736.35   1
  -9   3  -8 208770. 7610.70   1
   6   3  -8 195173. 7380.55   1
   3   6  -8 182581. 7235.21   1
  -6  -3   8 199052. 7552.22   1
   9  -6   8 195524. 7324.51   2
   9  -3   8 203780. 7427.32   2
  -3  -6   8 219983. 7818.70   1
  -6  -3   9 12827.6 1753.50   1
   9  -3   9 11919.7 1677.78   1
   9  -6   9 10008.8 1539.14   1
  -9   3  -9 13082.7 1848.73   1
  -9   6  -9 9529.14 1536.69   1
   9  -6   9 14053.5 1809.92   2
   6   3  -9 9305.63 1547.62   1
  -3  -6   9 10375.4 1642.64   1
   3   6  -9 11067.4 1638.36   1
   9  -3   9 12913.4 1589.95   2
   9  -6  10 12756.9 1785.23   1
  -9   6 -10 16234.6 1882.82   1
  -6  -3  10 13841.9 1895.65   1
   9  -3  10 14188.9 1818.47   1
  -9   3 -10 14436.0 1821.26   1
   3   6 -10 14722.6 1834.05   1
   9  -6  10 13604.5 1803.58   2
   6   3 -10 13425.2 1818.94   1
   9  -3  10 12902.0 1762.15   2
  -3  -6  10 12856.0 1721.67   1
  -3  -6  11 2510.42 868.107   1
   9  -6  11 3689.21 1014.57   1
   9  -3  11 3388.69 944.471   1
  -6  -3  11 3260.96 916.766   1
  -9   6 -11 3415.08 931.111   1
  -9   3 -11 2852.00 993.292   1
   9  -6  11 3821.27 995.329   2
   6   3 -11 3548.84 945.541   1
   9  -3  11 2550.20 852.421   2
   3   6 -11 2541.24 777.559   1
   9  -6  12 116328. 5835.92   1
  -3  -6  12 138340. 6204.57   1
   9  -3  12 132752. 6135.29   1
  -9   6 -12 131857. 6082.36   1
  -9   3 -12 121636. 5802.16   1
   6   3 -12 125196. 5979.68   1
   3   6 -12 137158. 6122.75   1
   9  -6  12 133650. 5948.28   2
   9  -3  12 127177. 5986.02   2
  -6  -3  12 124240. 6028.30   1
  -3  -6  13-481.374 445.516   1
   9  -6  13 297.723 484.615   1
   9  -3  13-1527.74 748.216   1
  -9   6 -13-489.455 588.474   1
  -6  -3  13-154.051 460.677   1
  -9   3 -13-594.087 465.545   1
   9  -6  13-100.086 423.452   2
   6   3 -13 540.635 438.784   1
   9  -3  13-1119.03 727.073   2
   3   6 -13-252.906 498.644   1
   9  -3  14 22246.8 2352.54   1
  -9   6 -14 19826.0 2226.69   1
  -3  -6  14 21403.1 2412.93   1
   9  -6  14 15723.1 2047.28   1
  -9   3 -14 18797.8 2220.55   1
   6   3 -14 16350.5 2130.53   1
   3   6 -14 19098.0 2261.99   1
   9  -6  14 20229.7 2311.89   2
   9  -3  14 21800.3 2353.81   2
  -6  -3  14 18600.5 2321.00   1
  -3  -6  15 611.145 545.540   1
   9  -6  15 454.905 469.409   1
   9  -3  15 241.358 390.639   1
  -9   6 -15 1814.53 737.699   1
  -9   3 -15 887.047 566.754   1
  -6  -3  15-19.5775 401.699   1
   6   3 -15-59.3186 349.963   1
   3   6 -15 1348.91 784.588   1
   6   3 -16 137778. 6570.02   1
  -6  -3  16 127525. 6489.75   1
   7  -9  15 8196.51 1581.35   1
  -7   9 -15 9305.63 1662.56   1
   2  -9  15 7853.36 1566.01   2
   7   2  14 39018.4 3189.19   1
  -7  -2 -14 39966.3 3182.36   1
   2  -9  14 37729.2 3354.02   2
   7  -9  14 36832.5 3099.19   2
   2  -9  14 36834.5 3251.66   1
  -2   9 -14 40525.4 3236.58   1
   7   2  14 36942.9 3153.60   2
  -7   9 -14 34307.1 3144.37   1
   7  -9  14 28416.0 2883.43   1
   7   2  13 22230.2 2362.70   1
   2   7  13 22017.8 2418.99   1
  -7  -2 -13 23814.3 2382.95   1
   2  -9  13 19460.7 2349.80   2
   7  -9  13 21506.7 2287.53   2
   2  -9  13 20619.5 2421.74   1
  -2   9 -13 23465.7 2502.20   1
   7   2  13 21862.4 2386.97   2
  -7   9 -13 21387.4 2370.31   1
   7  -9  13 17093.4 2239.23   1
  -2   9 -12 7964.81 1433.54   1
  -2  -7 -12 8545.19 1491.83   1
   7  -9  12 7952.44 1500.65   1
  -7   9 -12 10572.4 1609.25   1
   7   2  12 9813.62 1602.03   1
   2   7  12 9265.00 1515.22   1
   2  -9  12 8449.77 1552.02   2
   7  -9  12 8335.28 1470.86   2
   2  -9  12 7609.89 1406.93   1
   7   2  12 8300.16 1367.74   2
   2   7  12 3973.77 1046.75   2
  -7  -2 -12 12597.1 1739.95   1
   7   2  11 50965.6 3565.38   1
   2   7  11 53779.2 3746.72   1
  -2  -7 -11 54262.0 3701.81   1
   2  -9  11 49556.5 3627.68   1
  -7  -2 -11 54199.9 3633.42   1
   2  -9  11 48229.6 3751.15   2
   7  -9  11 57944.4 3853.02   2
  -2   9 -11 54424.6 3806.57   1
   7   2  11 57761.2 3677.05   2
  -7   9 -11 54197.6 3795.61   1
   7  -9  11 53525.6 3820.22   1
   7   2  10 161911. 6444.21   1
   2   7  10 158303. 6670.24   1
   2  -9  10 138433. 6404.03   1
  -7  -2 -10 161435. 6489.08   1
   7  -9  10 138504. 6342.17   2
   2  -9  10 122457. 6092.25   2
  -2  -7 -10 149857. 6493.27   1
  -2   9 -10 157549. 6718.06   1
   7   2  10 155220. 6365.80   2
  -7   9 -10 151873. 6604.72   1
   7  -9  10 146478. 6627.73   1
   7   2   9 21734.1 2278.58   1
   2   7   9 23083.1 2275.49   1
   2  -9   9 19711.9 2230.72   1
   2  -9   9 16920.9 2030.38   2
   7  -9   9 21687.7 2298.35   2
  -7  -2  -9 23564.8 2312.90   1
  -2   9  -9 19431.7 2151.63   1
  -2  -7  -9 23823.6 2381.21   1
   7   2   9 20626.9 2133.75   2
  -7   9  -9 21608.4 2303.69   1
   7   2   8 52454.1 3502.29   1
   2   7   8 49287.2 3416.38   1
   2  -9   8 49219.3 3491.95   1
   2  -9   8 44466.8 3365.98   2
   7  -9   8 39310.0 3193.05   2
  -7  -2  -8 54765.1 3554.66   1
  -2   9  -8 46228.7 3428.60   1
  -2  -7  -8 59356.9 3701.93   1
   7   2   8 52247.3 3436.31   2
  -7  -2  -7 9964.66 1462.93   1
   2  -9   7 9578.27 1581.54   1
  -2  -7  -7 7881.82 1369.40   1
   7   2   7 9554.72 1503.24   1
   2   7   7 9826.76 1492.16   1
   2  -9   7 9577.33 1593.18   2
   7  -9   7 10876.7 1599.68   2
  -2   9  -7 8562.30 1449.59   1
   7   2   7 8428.96 1313.64   2
   2  -9   6 226097. 7983.10   1
   7   2   6 214815. 7758.37   1
   2   7   6 214458. 7762.80   1
   2  -9   6 198572. 7837.81   2
   7  -9   6 215894. 7869.54   2
  -2   9  -6 226291. 8098.15   1
  -7  -2  -6 203335. 7688.67   1
   7   2   6 221353. 7775.77   2
  -2  -7  -6 241497. 8068.18   1
  -2  -7  -5 115727. 5298.18   1
   2  -9   5 114937. 5316.60   1
   7   2   5 109171. 5118.56   1
   2   7   5 102489. 5009.28   1
   7  -9   5 106469. 5116.37   2
  -2   9  -5 122581. 5464.37   1
  -7  -2  -5 110334. 5230.66   1
   7   2   5 118092. 5295.03   2
  -9   2   4 15177.0 1798.82   1
  -2  -7  -4 15176.8 1811.96   1
   7   2   4 15472.6 1811.19   1
   2   7   4 12892.1 1639.63   1
   7  -9   4 14017.7 1763.01   2
  -2   9  -4 14828.8 1816.98   1
  -7  -2  -4 14162.0 1788.88   1
   2  -9   4 16052.1 1768.10   1
   7   2   4 13547.0 1649.99   2
  -2  -7  -3 172186. 6548.49   1
   7   2   3 158246. 6304.26   1
   9  -2  -3 165385. 6187.84   1
   2   7   3 154253. 6266.17   1
   7  -9   3 162332. 6572.21   2
  -2   9  -3 175967. 6639.69   1
   2  -9   3 184808. 6793.33   1
   7   2   3 160060. 6439.58   2
  -7  -2  -3 152828. 6316.32   1
  -9   2   3 167694. 6402.06   1
  -7  -2  -2 48874.5 3319.00   1
  -2  -7  -2 51929.6 3366.26   1
  -2   9  -2 53234.8 3412.72   1
   9  -2  -2 56497.1 3277.10   1
   7   2   2 49732.4 3257.81   1
   2   7   2 48169.4 3247.49   1
   7  -9   2 54308.3 3420.26   2
   2  -9   2 59629.8 3534.29   1
   7   2   2 46500.3 3314.20   2
  -9   2   2 48224.4 3218.63   1
  -2  -7  -1 3195.37 806.501   1
  -9   2   1 4285.27 1037.75   1
   9  -2  -1 3350.78 846.548   1
   7   2   1 4405.84 1000.24   1
   7  -9   1 3766.84 934.547   2
   2   7   1 3660.08 847.168   1
  -7  -2  -1 4398.52 1070.35   1
  -2   9  -1 4044.34 908.004   1
   2  -9   1 2696.09 693.587   1
   9  -2  -1 3915.11 981.739   2
   7   2   1 3548.24 1017.21   2
  -2  -7   0 1503.62 648.138   1
  -9   2   0 1227.81 511.204   1
   9  -2   0 1653.94 554.819   1
   2  -9   0 1207.42 644.981   1
   7   2   0 1383.60 669.867   1
   7  -9   0 1268.10 537.070   2
   2   7   0 65.9833 635.391   1
  -2   9   0 898.731 449.126   1
  -7  -2   0 1487.86 733.061   1
   9  -2   0 1136.92 692.590   2
  -9   2  -1 1402.63 656.625   1
  -2  -7   1 1352.88 612.879   1
   9  -2   1 266.187 397.969   1
   7   2  -1 1800.38 797.857   1
   7  -9  -1 1193.55 652.773   2
  -2   9   1 882.746 590.828   1
   2   7  -1 941.001 423.994   1
   9  -7   1 1630.90 580.297   2
  -7  -2   1 1303.63 597.453   1
   9  -2   1 1231.57 606.851   2
  -7  -2   2 278137. 9038.94   1
   9  -2   2 275401. 8797.62   1
   7   2  -2 295516. 9048.15   1
  -2  -7   2 261326. 8840.81   1
   2   7  -2 269178. 8947.91   1
   7  -9  -2 277143. 8924.42   2
   9  -7   2 300513. 8998.91   2
  -9   2  -2 287929. 9089.71   1
   9  -2   2 281782. 8868.78   2
  -7  -2   3 95737.6 4800.05   1
   9  -2   3 106022. 4867.14   1
   7   2  -3 107633. 4942.39   1
   2   7  -3 102340. 4908.63   1
  -2  -7   3 99203.4 4881.06   1
   9  -7   3 114449. 5064.21   2
  -9   2  -3 98918.3 4883.47   1
   9  -2   3 97529.5 4720.90   2
   9  -2   4 162214. 6320.94   1
  -7  -2   4 156306. 6324.11   1
   7   2  -4 148309. 6155.74   1
   2   7  -4 157652. 6371.53   1
  -9   2  -4 146937. 6155.99   1
   9  -7   4 159173. 6239.13   2
  -2  -7   4 152854. 6236.17   1
   9  -2   4 150432. 6065.02   2
   9  -2   5 111407. 5136.48   1
  -7  -2   5 103604. 5082.23   1
   7   2  -5 117398. 5321.65   1
   2   7  -5 115992. 5347.99   1
  -9   2  -5 114544. 5277.45   1
   9  -7   5 106008. 5021.73   2
  -2  -7   5 105282. 5140.49   1
   9  -2   5 107744. 4992.87   2
   9  -2   6 274779. 8829.26   1
   9  -7   6 254155. 8639.95   2
  -7  -2   6 245286. 8648.33   1
   7   2  -6 255403. 8619.78   1
  -9   2  -6 261556. 8699.70   1
   2   7  -6 277593. 9051.36   1
  -2  -7   6 254608. 8778.64   1
   9  -2   6 270662. 8743.84   2
   9  -2   7 38697.3 2959.40   1
  -7  -2   7 38442.5 2971.60   1
   7   2  -7 39822.2 3060.61   1
  -9   2  -7 38593.6 2981.24   1
   2   7  -7 38773.8 3026.00   1
   9  -7   7 41254.6 3061.67   2
   9  -2   7 36964.5 2816.98   2
  -2  -7   7 38478.6 3014.20   1
   9  -2   8 1196.21 638.084   1
  -9   7  -8 1334.76 661.641   1
  -7  -2   8 919.490 652.620   1
   7   2  -8 1136.33 592.370   1
  -2  -7   8 2330.36 826.958   1
   9  -7   8 838.430 500.262   2
   2   7  -8 2221.76 751.738   1
  -9   2  -8 710.570 490.832   1
  -2  -7   9 40044.0 3041.94   1
   9  -7   9 38310.9 3120.99   1
  -9   7  -9 40593.0 3132.64   1
   9  -2   9 41010.4 3139.23   1
  -9   2  -9 37782.3 2955.29   1
   7   2  -9 35708.6 2953.09   1
  -7  -2   9 33474.2 2965.50   1
   2   7  -9 40313.6 3088.90   1
   9  -7   9 39434.0 3050.50   2
   9  -2   9 37616.1 3025.71   2
  -2  -7  10 28649.4 2712.18   1
   9  -7  10 26728.4 2594.24   1
  -9   7 -10 30775.9 2774.04   1
   9  -2  10 29815.3 2722.05   1
  -9   2 -10 28339.2 2584.71   1
   7   2 -10 25150.4 2491.79   1
  -7  -2  10 28121.3 2633.69   1
   2   7 -10 28848.3 2662.48   1
   9  -7  10 29918.2 2683.12   2
   9  -2  10 26267.9 2541.55   2
   9  -7  11 34335.1 3005.42   1
  -2  -7  11 31918.5 2925.70   1
  -9   7 -11 32457.4 2952.29   1
   9  -2  11 31451.2 2836.06   1
  -9   2 -11 34160.7 2926.56   1
   7   2 -11 31670.3 2866.79   1
   9  -7  11 36629.0 3034.33   2
   2   7 -11 35892.7 2966.22   1
  -7  -2  11 32366.1 2958.78   1
   9  -2  11 31997.3 2869.13   2
  -7  -2  12 9992.94 1776.59   1
  -2  -7  12 12727.1 1804.11   1
   9  -2  12 15841.2 2010.13   1
   9  -7  12 12926.9 1801.44   1
  -9   7 -12 11557.8 1744.52   1
   9  -2  12 13382.0 1947.73   2
   9  -7  12 13832.5 1879.22   2
   7   2 -12 10169.4 1668.38   1
  -9   2 -12 13896.6 1847.10   1
   2   7 -12 14283.1 1894.96   1
  -2  -7  13 10329.0 1642.21   1
   9  -7  13 6175.15 1328.92   1
  -7  -2  13 7295.36 1408.47   1
   9  -2  13 9272.00 1595.16   1
  -9   7 -13 8328.16 1437.54   1
  -9   2 -13 10243.4 1645.02   1
   9  -7  13 9415.32 1562.51   2
   7   2 -13 6198.70 1277.41   1
   9  -2  13 8367.59 1573.82   2
   2   7 -13 9346.83 1554.63   1
   9  -7  14 80778.3 5002.14   1
  -9   7 -14 85898.9 5108.20   1
   9  -2  14 101850. 5391.03   1
  -2  -7  14 101037. 5358.91   1
  -9   2 -14 109028. 5348.71   1
   7   2 -14 80987.2 4953.79   1
   9  -7  14 100536. 5237.79   2
   2   7 -14 100059. 5239.55   1
   9  -2  14 93246.8 5137.14   2
  -7  -2  14 87134.3 5197.08   1
   9  -7  15 3838.37 1121.46   1
  -7  -2  15 3314.26 1079.41   1
  -9   7 -15 4878.52 1173.06   1
   8  -9  14 62853.7 4389.67   1
   1  -9  14 59001.0 4262.34   2
  -8   9 -14 66563.3 4428.95   1
  -8   9 -13 7108.72 1452.50   1
   8   1  13 7247.05 1365.33   1
   1  -9  13 7420.53 1474.30   1
   1  -9  13 5988.48 1281.11   2
   8  -9  13 8347.63 1486.29   2
  -8  -1 -13 7030.29 1328.68   1
   8   1  13 6638.21 1364.62   2
   1   8  13 2207.04 754.513   2
  -1   9 -13 7236.04 1368.89   1
  -8   9 -12 1183.46 613.833   1
   8   1  12 521.157 471.116   1
   1  -9  12 1836.22 724.983   1
   8  -9  12 305.177 502.742   2
   8   1  12 45.7706 531.921   2
  -1   9 -12 296.364 538.270   1
  -8  -1 -12 1415.71 585.562   1
   1   8  12 729.060 746.060   2
   8   1  11 41798.5 3192.30   1
   1  -9  11 41927.4 3448.52   1
  -8  -1 -11 44753.2 3321.18   1
  -1   9 -11 43969.7 3392.80   1
   8   1  11 44173.4 3292.52   2
   8  -9  11 45625.4 3436.04   2
   8   1  10 103816. 5140.64   1
   1  -9  10 105536. 5461.87   1
  -8  -1 -10 101950. 5170.70   1
   8  -9  10 99543.4 5219.71   2
  -1   9 -10 105845. 5499.73   1
   8   1  10 104519. 5094.15   2
   1  -9   9 81603.6 4670.96   1
   8   1   9 85935.3 4575.03   1
   1   8   9 82813.5 4684.13   1
  -8  -1  -9 77709.1 4462.33   1
   8  -9   9 78247.7 4573.63   2
  -1   9  -9 82716.1 4738.95   1
   8   1   9 83703.6 4472.79   2
   1  -9   8 70582.9 4277.07   1
   8   1   8 81154.0 4406.73   1
   1   8   8 74180.3 4324.20   1
   8  -9   8 72485.5 4304.13   2
  -8  -1  -8 77678.5 4388.26   1
  -1   9  -8 68633.2 4226.06   1
  -1  -8  -8 69314.3 4245.33   1
   8   1   8 73039.6 4161.95   2
   1  -9   7 6971.87 1344.69   1
  -8  -1  -7 7767.76 1337.17   1
  -1  -8  -7 7884.23 1347.08   1
   8   1   7 6155.13 1167.74   1
   1   8   7 8049.16 1375.17   1
   8  -9   7 8091.02 1394.58   2
  -1   9  -7 7968.16 1382.38   1
   8   1   7 8167.22 1344.25   2
  -9   1   6 125799. 5672.01   1
   8   1   6 119517. 5525.92   1
   1   8   6 118195. 5503.85   1
   9  -1  -6 122634. 5449.48   1
   8  -9   6 121152. 5622.70   2
  -1   9  -6 116313. 5565.24   1
  -8  -1  -6 127020. 5738.96   1
   8   1   6 124836. 5521.00   2
  -1  -8  -6 133680. 5731.35   1
   1  -9   6 109472. 5503.10   1
  -1  -8  -5 15431.2 1876.38   1
  -9   1   5 17227.0 1999.46   1
   8   1   5 12515.8 1695.08   1
   1   8   5 17026.2 1926.93   1
   9  -1  -5 15150.6 1812.83   1
  -1   9  -5 16624.9 1942.50   1
   1  -9   5 12009.2 1699.18   1
   8  -9   5 13580.0 1779.14   2
  -8  -1  -5 15732.0 1913.33   1
   8   1   5 13759.7 1705.99   2
   1  -9   4 2638.35 852.897   1
  -8  -1  -4 1975.61 796.986   1
   8   1   4 2242.95 799.104   1
   1   8   4 3199.68 793.360   1
   9  -1  -4 1778.99 619.342   1
   8  -9   4 1595.91 679.420   2
  -1  -8  -4 2013.99 618.627   1
  -9   1   4 1839.92 717.102   1
  -1   9  -4 2665.27 647.960   1
   8   1   4 2822.50 856.699   2
  -9   1   3 75650.1 4207.05   1
  -1  -8  -3 70171.1 4045.12   1
   8   1   3 66306.1 3867.56   1
   9  -1  -3 60775.1 3653.16   1
   1   8   3 68676.7 3985.23   1
  -1   9  -3 71117.3 4127.81   1
   8  -9   3 69168.7 4062.39   2
   1  -9   3 80147.7 4231.03   1
  -8  -1  -3 63970.3 3883.64   1
   8   1   3 71110.7 3987.20   2
  -9   1   2 123910. 5597.70   1
  -1  -8  -2 128448. 5703.59   1
   8   1   2 122289. 5461.87   1
   9  -1  -2 119331. 5330.41   1
   1   8   2 136275. 5761.79   1
  -1   9  -2 134805. 5841.91   1
   8  -9   2 131219. 5763.51   2
   1  -9   2 139661. 5878.80   1
   8   1   2 140559. 5744.29   2
  -8  -1  -2 117960. 5427.90   1
  -1  -8  -1 58061.1 3673.02   1
   9  -1  -1 69718.2 3794.00   1
   8   1   1 56786.2 3556.06   1
   1   8   1 58735.0 3668.71   1
   1  -9   1 62511.5 3728.03   1
  -1   9  -1 71623.5 3940.81   1
   8  -9   1 53188.2 3694.14   2
   9  -1  -1 52987.9 3349.13   2
   8   1   1 52400.3 3430.39   2
  -9   1   1 64416.7 3850.73   1
  -8  -1  -1 55665.5 3600.60   1
  -1  -8   0 9065.30 1436.12   1
   1  -9   0 9965.53 1484.46   1
  -9   1   0 9451.78 1419.35   1
   9  -1   0 10237.7 1425.06   1
   8   1   0 9099.45 1370.65   1
   8  -9   0 6870.79 1329.55   2
  -8  -1   0 9107.86 1464.99   1
   1   8   0 9506.21 1440.53   1
  -1   9   0 9781.66 1428.58   1
   9  -1   0 8718.39 1357.96   2
   8   1   0 9526.94 1474.52   2
  -8  -1   1 66792.1 3977.51   1
   9  -1   1 69215.7 3954.55   1
   1  -9  -1 75464.6 4055.75   1
   8   1  -1 78574.2 4145.06   1
  -1  -8   1 58035.3 3778.01   1
  -1   9   1 74653.8 4133.82   1
   1   8  -1 70999.4 4056.39   1
   9  -8   1 69465.2 3930.17   2
   9  -1   1 69410.1 3820.63   2
  -9   1  -1 84967.7 4392.71   1
   8   1  -1 60508.9 3682.15   2
  -8  -1   2 219061. 7907.26   1
   1  -9  -2 208558. 7588.57   1
   9  -1   2 213957. 7706.23   1
   8   1  -2 225429. 7710.10   1
  -1   9   2 206572. 7602.06   1
   1   8  -2 235153. 8063.48   1
  -1  -8   2 223936. 7954.98   1
   9  -8   2 239921. 8020.32   2
  -9   1  -2 248636. 8242.68   1
   9  -1   2 221395. 7651.79   2
   8   1  -2 204280. 7673.43   2
  -8  -1   3 41319.2 3125.83   1
   9  -1   3 39195.1 2974.96   1
  -1   9   3 46339.6 3103.65   1
   8   1  -3 45917.8 3145.15   1
   1   8  -3 43210.2 3166.30   1
  -1  -8   3 46587.4 3284.88   1
   9  -8   3 46740.2 3236.37   2
  -9   1  -3 45491.7 3229.10   1
   9  -1   3 49379.7 3216.34   2
   8   1  -3 32442.1 2671.31   2
  -8  -1   4 70405.6 4102.57   1
   1   8  -4 64699.0 4032.10   1
   9  -1   4 71834.2 4100.14   1
   8   1  -4 79922.7 4250.88   1
   9  -8   4 76360.0 4217.97   2
  -1  -8   4 73132.8 4235.16   1
  -9   1  -4 73789.1 4200.60   1
   9  -1   4 76167.9 4091.25   2
   9  -1   5 17516.4 2032.03   1
  -8  -1   5 19646.5 2087.36   1
   8   1  -5 22418.6 2244.78   1
   1   8  -5 20751.7 2183.60   1
   9  -8   5 19905.3 2095.16   2
  -9   1  -5 19757.9 2128.19   1
  -1  -8   5 17981.3 2072.31   1
   9  -1   5 17926.1 1955.37   2
   9  -1   6 98915.1 4848.55   1
  -8  -1   6 100728. 5018.06   1
   8   1  -6 94218.8 4863.35   1
   1   8  -6 91599.6 4816.45   1
  -9   1  -6 91246.1 4775.79   1
   9  -8   6 94566.6 4782.01   2
   9  -1   6 94609.4 4755.71   2
  -1  -8   6 88096.3 4757.21   1
   9  -1   7 44435.2 3229.49   1
  -8  -1   7 47776.7 3407.06   1
   8   1  -7 48856.8 3424.24   1
  -9   1  -7 47775.9 3371.07   1
   1   8  -7 48632.3 3488.47   1
   9  -8   7 42927.6 3254.33   2
   9  -1   7 49279.3 3377.18   2
  -1  -8   7 46416.7 3362.90   1
  -9   1  -8 3525.63 988.200   1
   9  -1   8 3519.45 960.581   1
  -8  -1   8 2731.30 793.816   1
   8   1  -8 3839.93 1007.80   1
   9  -8   8 3059.42 930.456   2
   1   8  -8 2797.61 886.018   1
  -1  -8   8 3427.90 905.439   1
   9  -1   8 3284.72 929.963   2
  -1  -8   9 25715.7 2543.11   1
   9  -1   9 24753.4 2450.40   1
  -8  -1   9 24581.8 2511.92   1
  -9   1  -9 22823.0 2287.06   1
   8   1  -9 21731.0 2288.88   1
   9  -8   9 25821.6 2522.28   2
   1   8  -9 23354.7 2347.59   1
   9  -1   9 25587.6 2503.78   2
  -1  -8  10 92040.3 5068.32   1
   9  -1  10 98235.9 5084.23   1
  -9   1 -10 95972.4 4915.18   1
  -8  -1  10 90811.2 5059.27   1
   8   1 -10 90837.4 4927.07   1
   9  -8  10 99125.7 5075.54   2
   1   8 -10 97088.9 5089.28   1
   9  -1  10 98729.5 5132.27   2
  -1  -8  11 9000.73 1501.12   1
   9  -1  11 9165.49 1484.75   1
  -8  -1  11 7746.18 1459.01   1
   8   1 -11 8163.05 1413.81   1
   9  -8  11 7867.34 1482.16   2
   1   8 -11 8935.26 1539.94   1
  -9   1 -11 8892.15 1494.38   1
   9  -1  11 6909.92 1399.46   2
  -1  -8  12 8502.04 1531.37   1
   9  -1  12 7800.36 1353.43   1
  -9   8 -12 5674.47 1280.69   1
   9  -8  12 7852.48 1427.47   2
  -8  -1  12 7316.59 1441.83   1
  -9   1 -12 8025.78 1387.58   1
   9  -1  12 7000.00 1388.20   2
   1   8 -12 6721.49 1387.40   1
   9  -8  13 40137.8 3473.30   1
  -9   8 -13 45128.4 3582.88   1
   9  -1  13 55315.8 3775.08   1
  -1  -8  13 58962.3 3973.88   1
  -9   1 -13 57950.4 3846.86   1
   9  -8  13 53066.0 3743.93   2
   1   8 -13 55907.0 3842.94   1
   9  -1  13 58408.3 3863.60   2
   9  -8  14 45748.7 3745.81   1
  -9   8 -14 50871.4 3841.72   1
  -9   8 -15 32972.3 3069.92   1
   9   0   0 918367. 21665.5   1
   0  -9   0 964886. 22067.7   1
   0   9   0 976003. 22263.0   1
   9   0   0 904136. 21453.2   2
  -9   0   0 943731. 22055.3   1
   0  -9  -1 255.722 479.748   1
  -9   0  -1 672.799 562.782   1
   0  -9   1 430.902 354.857   1
   9   0   1 861.194 541.733   1
   9   0  -1 503.616 382.984   1
  -9   0   1 286.071 540.023   1
   0   9   1 1338.12 770.272   1
   9  -9   1 752.259 527.920   2
   0   9  -1 1410.32 697.327   1
   9   0   1 999.647 640.678   2
   9   0  -1 513.335 361.269   2
   0  -9  -2 679.666 341.944   1
  -9   0  -2 841.782 631.237   1
   9   0   2 603.511 456.169   1
   9   0  -2 1411.89 591.433   1
   0   9   2 1520.73 718.059   1
   0  -9   2 601.347 498.386   1
   9  -9   2 362.285 487.038   2
  -9   0   2 590.374 588.074   1
   0   9  -2 265.859 359.208   1
   9   0   2 352.410 358.306   2
  -9   0  -3 2666.20 863.949   1
   9   0   3 1910.50 658.167   1
   9   0  -3 404.449 406.365   1
   0   9   3 2024.92 751.498   1
   9  -9   3 1693.65 662.780   2
   0   9  -3 969.149 617.221   1
  -9   0   3 1065.35 551.745   1
   0  -9   3 1192.43 684.775   1
   0  -9  -3 1638.36 622.354   1
   9   0   3 1663.44 770.350   2
   0  -9  -4 32320.7 2742.29   1
  -9   0   4 33891.0 2864.13   1
   9   0   4 38330.6 2967.98   1
   0   9   4 28279.3 2549.19   1
   9   0  -4 31249.4 2664.12   1
   0   9  -4 31771.3 2734.81   1
   9  -9   4 33495.5 2869.31   2
   0  -9   4 31718.3 2727.80   1
  -9   0  -4 31077.5 2719.10   1
   9   0   4 34901.9 2754.30   2
  -9   0  -5-381.538 473.893   1
   0  -9   5-10.1532 481.967   1
   9   0   5 868.701 573.903   1
   0   9   5-7.22300 346.657   1
   9   0  -5-176.902 291.140   1
   9  -9   5 23.5069 431.180   2
   0   9  -5 835.199 615.243   1
   9   0   5 290.774 355.406   2
  -9   0   5-277.698 534.198   1
  -9   0   6 6204.30 1192.21   1
  -9   0  -6 7423.30 1336.16   1
   9   0   6 4987.82 1077.75   1
   0  -9   6 6781.21 1317.27   1
   9   0  -6 5261.59 1094.74   1
   9  -9   6 5194.25 1142.78   2
   0   9  -6 4919.09 1144.99   1
   9   0   6 6007.40 1213.09   2
  -9   0   7 1529.75 717.587   1
  -9   0  -7 203.275 418.589   1
   9   0   7 912.623 432.914   1
   0  -9   7 124.476 431.053   1
   9   0  -7 1012.16 537.260   1
   9  -9   7 1628.58 851.713   2
   0   9  -7 689.916 591.978   1
   9   0   7 601.955 399.739   2
   9   0   8 166339. 6770.71   1
  -9   0   8 156052. 6854.30   1
  -9   0  -8 172053. 6882.90   1
   9  -9   8 149295. 6662.39   2
   0   9  -8 165293. 6964.51   1
   9   0   8 172853. 6823.69   2
   0  -9   8 155027. 6813.54   1
  -9   0  -9 1509.72 538.353   1
   9   0   9 1235.71 697.859   1
   9  -9   9 991.864 649.332   2
   0   9  -9 737.093 640.821   1
   9   0   9 1936.77 831.756   2
   0  -9   9 618.302 446.542   1
  -9   0 -10 800.280 505.905   1
   0  -9  10 723.560 740.994   1
   9   0  10 56.1066 563.345   1
   9  -9  10 1393.57 650.544   2
   0   9 -10 789.163 736.822   1
   9   0  10 849.925 455.162   2
   0  -9  11-186.070 617.331   1
   9   0  11-326.916 393.835   1
   9  -9  11 1092.12 734.498   2
   0   9 -11-22.1310 578.344   1
   9   0  11 210.121 464.536   2
  -9   0 -11-894.349 805.435   1
   0  -9  12 195238. 7969.81   1
   9   0  12 209457. 7838.68   1
  -9   0 -12 193554. 7600.22   1
   9  -9  12 189181. 7717.39   2
   0   9 -12 186866. 7684.93   1
   9   0  12 182767. 7472.06   2
   5 -10  14 26315.2 2897.78   1
   5   5  14 34619.9 3025.08   1
  -5  -5 -14 36163.8 3037.52   1
  -5  10 -14 32740.8 3155.17   1
  -5  -5 -13 4.00146 395.219   1
  -5  10 -13 123.865 460.708   1
   5   5  13 41.2648 476.977   1
   5 -10  13-48.7907 633.645   2
   5 -10  13 574.013 679.895   1
   5   5  13 585.006 667.235   2
   5   5  12 318170. 10185.6   1
  -5  -5 -12 318020. 10195.6   1
   5 -10  12 314774. 10294.9   2
  -5  10 -12 285276. 10261.5   1
   5   5  12 288935. 9834.96   2
  -5  10 -11 1172.61 630.442   1
  -5  -5 -11 35.7754 421.435   1
   5   5  11 86.0872 670.457   1
   5 -10  11-136.644 449.539   1
   5 -10  11 207.359 391.593   2
   5   5  11 214.923 445.138   2
   5   5  10 16129.0 1967.62   1
   5 -10  10 19074.3 2148.39   2
  -5  -5 -10 21460.1 2172.43   1
  -5  10 -10 17562.1 2170.67   1
   5   5  10 18075.9 2016.72   2
   5 -10  10 16778.6 2140.28   1
  -5  10  -9 70.9141 431.480   1
   5 -10   9 763.360 665.215   1
  -5  -5  -9 288.702 637.014   1
   5   5   9 626.255 665.699   1
   5 -10   9 338.162 445.179   2
   5   5   9-276.696 433.643   2
   5   5   8 84973.2 4598.04   1
   5 -10   8 84790.4 4692.14   2
  -5  -5  -8 80029.6 4551.79   1
  -5  10  -8 78770.1 4622.28   1
   5   5   8 82290.8 4637.79   2
  -5  -5  -7-474.570 606.965   1
   5   5   7 256.528 445.794   1
   5 -10   7-410.033 524.203   2
   5   5   7 288.548 329.533   2
  -5  -5  -6 7807.10 1354.63   1
   5   5   6 7836.79 1330.31   1
   5 -10   6 5045.59 1118.11   2
   5   5   5-268.011 494.636   1
  -5  -5  -5-9.30637 289.138   1
   5 -10   5 813.720 632.123   2
   5   5   4 160696. 6394.17   1
   5 -10   4 149109. 6450.84   2
  -5  -5  -4 158952. 6487.51   1
   5   5   3-66.7917 307.173   1
  -5  -5  -3-24.2854 491.758   1
   5   5   2 10493.6 1479.06   1
   5 -10   2 11279.7 1710.93   2
  -5  -5  -2 13966.6 1706.94   1
   5 -10   1-38.4988 663.556   2
   5   5   1 9.85751 407.612   1
  -5  -5  -1 1135.61 548.776   1
  -5  -5   0 740304. 18070.5   1
   5   5   0 731945. 17889.3   1
  -5  -5   1-293.641 459.530   1
   5   5  -1 811.831 571.584   1
  -5  -5   2 29230.4 2606.76   1
   5   5  -2 26072.8 2451.33   1
  10  -5   2 26109.0 2394.26   2
  -5  -5   3-722.379 680.008   1
   5   5  -3 307.337 628.808   1
  10  -5   3 919.008 635.823   2
  -5  -5   4 170647. 6930.34   1
   5   5  -4 178108. 6950.94   1
  -5  -5   5-377.573 407.429   1
   5   5  -5 600.286 549.964   1
 -10   5  -5 480.823 452.000   1
  10  -5   5 978.850 623.509   2
  10  -5   6 29059.8 2553.54   1
 -10   5  -6 28913.8 2509.42   1
   5   5  -6 25900.5 2482.23   1
  -5  -5   6 25424.3 2483.26   1
  10  -5   6 27300.2 2451.32   2
  10  -5   7 107.376 473.868   1
 -10   5  -7 1220.28 727.138   1
   5   5  -7-206.003 419.030   1
  10  -5   7 273.116 288.190   2
  -5  -5   7 883.249 564.273   1
  10  -5   8 43119.1 3336.38   1
 -10   5  -8 45166.8 3360.50   1
   5   5  -8 49017.5 3428.08   1
  -5  -5   8 44806.1 3384.63   1
  10  -5   8 50517.2 3540.65   2
  -5  -5   9 1511.50 745.841   1
  10  -5   9 397.457 521.102   1
 -10   5  -9 24.3459 409.991   1
   5   5  -9-743.867 507.817   1
  10  -5   9 804.372 600.709   2
  -5  -5  10 4637.86 1115.61   1
  10  -5  10 3706.98 1028.74   1
 -10   5 -10 7480.12 1420.51   1
   5   5 -10 5282.41 1199.50   1
  10  -5  10 4875.95 1133.16   2
  10  -5  11 301.317 444.340   1
  -5  -5  11 219.877 482.606   1
 -10   5 -11-202.489 428.088   1
   5   5 -11-42.3032 316.526   1
  10  -5  12 437512. 13707.8   1
 -10   5 -12 462997. 13854.4   1
   5   5 -12 511568. 14220.4   1
  10  -5  12 478183. 13717.6   2
  -5  -5  12 548482. 14558.3   1
  10  -5  13 66.0744 433.929   1
  -5  -5  13-249.225 481.776   1
 -10   5 -13 952.773 638.512   1
  10  -5  13 432.204 515.808   2
   5   5 -13 952.464 696.552   1
  10  -5  14 1139.07 633.301   1
 -10   5 -14 8.39698 509.950   1
   4   6  14 78730.7 4776.61   1
  -4  -6 -14 77229.5 4718.40   1
   6 -10  14 67146.3 4749.71   1
  -4  10 -14 87464.2 5126.33   1
   4 -10  14 72065.2 4822.73   1
  -6  10 -14 81859.5 4921.92   1
   4   6  14 73441.5 4505.96   2
  -4  -6 -13 31.5044 467.848   1
  -4  10 -13 393.221 371.202   1
  -6  10 -13 460.453 339.004   1
   4 -10  13 326.384 539.671   1
   6   4  13 893.093 657.321   1
   4   6  13 314.885 391.392   1
   6 -10  13 128.652 391.651   1
   4 -10  13-1058.91 751.820   2
   6 -10  13 63.7452 415.920   2
   6   4  13 201.361 497.984   2
   4   6  13 280.358 442.212   2
  -6  -4 -13 564.346 501.587   1
  -4  10 -12 13552.8 1935.18   1
  -4  -6 -12 13682.1 1823.54   1
   4 -10  12 12015.8 1914.49   1
   6   4  12 17701.1 2097.98   1
   4   6  12 16544.1 2025.88   1
   6 -10  12 11974.5 1855.22   1
  -6  -4 -12 17490.0 2073.35   1
   4 -10  12 16636.4 2112.28   2
   6 -10  12 14393.1 1883.17   2
  -6  10 -12 17235.3 2136.20   1
   6   4  12 15553.9 1992.98   2
   4   6  12 15122.0 1954.81   2
   6   4  11 81303.6 4542.88   1
   4   6  11 77876.1 4595.43   1
   4 -10  11 71650.4 4437.64   2
   6 -10  11 77718.5 4552.80   2
  -6  -4 -11 78085.4 4498.64   1
  -4  -6 -11 76426.3 4491.19   1
  -4  10 -11 74873.8 4572.57   1
  -6  10 -11 69841.6 4500.37   1
   6   4  11 77337.3 4402.35   2
   4   6  11 66066.5 4268.54   2
   6   4  10 112362. 5378.81   1
   4   6  10 113929. 5525.61   1
   4 -10  10 93501.1 5090.76   2
   6 -10  10 95240.2 5122.75   2
  -6  -4 -10 104219. 5248.15   1
   4 -10  10 92827.1 5277.68   1
  -4  -6 -10 106955. 5360.22   1
  -4  10 -10 109221. 5657.81   1
  -6  10 -10 104976. 5522.55   1
   6   4  10 107377. 5282.52   2
   4   6  10 87508.8 4874.43   2
   6   4   9 112462. 5364.95   1
   4   6   9 111161. 5397.88   1
   6 -10   9 110921. 5404.52   2
   4 -10   9 106433. 5366.05   2
   4 -10   9 97453.9 5378.92   1
  -6  -4  -9 116043. 5566.50   1
  -4  -6  -9 99599.5 5187.31   1
  -4  10  -9 105064. 5477.56   1
   6   4   9 115367. 5448.41   2
   4   6   9 88128.0 5052.19   2
  -6  -4  -8 12427.5 1753.11   1
  -4  -6  -8 12031.2 1666.23   1
   6   4   8 11875.0 1686.25   1
   4 -10   8 14640.7 1922.83   1
   4   6   8 10366.8 1597.64   1
   4 -10   8 12310.9 1729.18   2
   6 -10   8 10744.0 1646.40   2
   6   4   8 12230.6 1637.40   2
  -4  10  -8 11855.2 1689.31   1
  -6  -4  -7 6268.85 1259.49   1
  -4  -6  -7 9022.23 1450.28   1
   6   4   7 7824.43 1376.81   1
   4 -10   7 7586.22 1412.35   1
   4   6   7 7095.61 1338.09   1
   4 -10   7 6808.77 1347.71   2
   6 -10   7 5962.18 1141.24   2
   6   4   7 6602.99 1272.13   2
  -4  10  -7 7785.27 1412.94   1
   6   4   6 71164.2 4181.73   1
   4   6   6 76274.3 4285.43   1
   4 -10   6 76017.9 4484.09   2
   6 -10   6 78214.6 4401.59   2
  -4  10  -6 81352.2 4549.28   1
  -6  -4  -6 75640.7 4301.45   1
  -4  -6  -6 74797.8 4280.82   1
   6   4   6 73243.9 4282.68   2
   6   4   5 13808.4 1784.90   1
   4   6   5 11643.9 1668.68   1
  -4  -6  -5 15145.7 1794.46   1
   4 -10   5 11372.1 1709.83   2
   6 -10   5 12374.1 1698.08   2
  -4  10  -5 16881.7 1979.56   1
  -6  -4  -5 15519.9 1894.17   1
   6   4   5 12314.6 1586.38   2
   6   4   4 2076.45 805.544   1
  -6  -4  -4 3272.16 858.157   1
   4   6   4 2251.22 741.740   1
   4 -10   4 1905.76 849.118   2
   6 -10   4 2963.60 913.171   2
  -4  -6  -4 1246.38 470.898   1
  -6  -4  -3 26421.3 2457.49   1
  -4  -6  -3 26138.4 2443.62   1
   6   4   3 28161.7 2519.78   1
   4   6   3 23519.6 2260.94   1
   4 -10   3 22049.8 2283.09   2
   6 -10   3 28374.9 2545.39   2
  -6  -4  -2 182794. 7010.27   1
  -4  -6  -2 178635. 6926.63   1
   6   4   2 181441. 6862.51   1
   4   6   2 165535. 6635.05   1
   6 -10   2 175550. 6985.62   2
  -6  -4  -1 32612.3 2704.86   1
  -4  -6  -1 32844.1 2732.16   1
   6   4   1 31146.3 2578.85   1
   4   6   1 30752.8 2638.73   1
   6 -10   1 30987.7 2793.54   2
  -6  -4   0 66986.2 3942.00   1
  -4  -6   0 63158.4 3857.27   1
   6   4   0 61776.0 3745.85   1
   4   6   0 63267.4 3843.72   1
   6 -10   0 65761.6 3997.22   2
  -6  -4   1 83370.2 4567.72   1
  -4  -6   1 84664.1 4488.09   1
   6   4  -1 87285.7 4534.07   1
   4   6  -1 89400.2 4603.42   1
   6 -10  -1 82863.8 4655.49   2
  10  -4   1 88120.9 4434.06   2
  -6  -4   2 240348. 8510.28   1
  -4  -6   2 244359. 8554.83   1
   6   4  -2 274929. 8870.27   1
   4   6  -2 263209. 8751.42   1
  10  -6   2 250024. 8447.66   2
  10  -4   2 259742. 8478.79   2
  -6  -4   3 35948.4 2873.45   1
  -4  -6   3 37976.2 2953.63   1
   6   4  -3 36168.5 2860.10   1
   4   6  -3 32600.5 2752.11   1
 -10   4  -3 37139.9 2809.16   1
  10  -6   3 31938.1 2684.50   2
  10  -4   3 33208.6 2708.88   2
  -6  -4   4 6197.59 1159.32   1
  10  -4   4 6645.09 1198.31   1
  -4  -6   4 6670.24 1244.65   1
   6   4  -4 7970.51 1391.76   1
   4   6  -4 6680.88 1259.22   1
  10  -6   4 6630.64 1197.41   2
  10  -4   4 6662.99 1269.76   2
 -10   4  -4 8113.06 1373.12   1
  10  -4   5 24883.0 2328.53   1
  -6  -4   5 22309.0 2269.83   1
 -10   4  -5 22512.1 2250.37   1
   6   4  -5 21055.7 2192.52   1
   4   6  -5 25571.1 2406.11   1
  -4  -6   5 22111.4 2301.39   1
  10  -6   5 22885.9 2290.15   2
  10  -4   5 19845.3 2131.60   2
  10  -4   6 44664.7 3240.14   1
 -10   4  -6 52167.8 3530.08   1
  -6  -4   6 47053.9 3334.96   1
   6   4  -6 41110.0 3100.39   1
   4   6  -6 46912.4 3334.34   1
  -4  -6   6 50919.1 3428.65   1
  10  -6   6 43844.6 3214.82   2
  10  -4   6 45440.7 3270.58   2
  10  -4   7 72977.6 4161.69   1
 -10   4  -7 67763.7 4118.22   1
   6   4  -7 56605.6 3736.11   1
  -6  -4   7 63007.2 4020.91   1
   4   6  -7 63190.7 3931.05   1
  -4  -6   7 58785.0 3871.82   1
  10  -6   7 59024.3 3841.77   2
  10  -4   7 65573.5 3948.90   2
  -4  -6   8 46.9455 448.267   1
  10  -4   8 1856.77 840.245   1
 -10   6  -8 776.388 471.150   1
   6   4  -8 114.668 527.738   1
  -6  -4   8-6.40735 410.624   1
   4   6  -8 504.995 414.256   1
 -10   4  -8 639.444 571.619   1
  10  -6   8 710.582 543.335   2
  10  -4   8 863.281 370.509   2
  -4  -6   9 5330.47 1172.86   1
  10  -4   9 8351.14 1511.44   1
 -10   6  -9 7309.70 1381.94   1
 -10   4  -9 7781.12 1387.09   1
   6   4  -9 5598.28 1186.70   1
  10  -6   9 9681.07 1546.89   2
   4   6  -9 5899.67 1175.94   1
  10  -4   9 6961.67 1372.06   2
  -6  -4   9 5939.48 1260.03   1
  10  -6  10 135157. 6540.25   1
  -6  -4  10 160896. 6895.63   1
  10  -4  10 133170. 6428.98   1
 -10   6 -10 158490. 6855.50   1
 -10   4 -10 153724. 6675.62   1
   6   4 -10 160326. 6742.51   1
   4   6 -10 162450. 6830.88   1
  10  -6  10 154295. 6583.75   2
  10  -4  10 178578. 7047.46   2
  -4  -6  10 157812. 6786.02   1
  -6  -4  11 7318.16 1444.43   1
  10  -6  11 6489.04 1387.51   1
  10  -4  11 6573.15 1359.59   1
  -4  -6  11 10141.1 1593.07   1
 -10   6 -11 6877.00 1400.74   1
 -10   4 -11 8545.96 1497.48   1
   6   4 -11 7675.44 1406.82   1
  10  -6  11 8627.13 1394.83   2
   4   6 -11 6669.36 1292.89   1
  10  -4  11 8044.65 1472.43   2
  10  -6  12 43243.9 3594.05   1
  10  -4  12 45718.7 3621.09   1
 -10   6 -12 50117.3 3718.02   1
 -10   4 -12 49867.4 3666.49   1
   6   4 -12 54454.9 3848.10   1
   4   6 -12 53909.2 3753.37   1
  10  -6  12 56175.5 3799.37   2
  10  -4  12 54080.3 3703.25   2
  -6  -4  12 55570.3 3954.85   1
  -4  -6  12 51037.8 3786.22   1
  10  -6  13 67920.9 4545.23   1
  10  -4  13 81475.4 4877.12   1
 -10   6 -13 75494.3 4643.38   1
 -10   4 -13 84463.9 4866.01   1
   6   4 -13 82763.7 4833.74   1
   4   6 -13 91751.0 5002.20   1
  10  -6  13 82790.7 4719.73   2
  10  -4  13 97336.3 5044.33   2
  -6  -4  13 81381.0 4874.53   1
  -4  -6  13 77527.5 4797.64   1
  10  -6  14 51635.2 3878.35   1
 -10   6 -14 50958.5 3777.73   1
   6   4 -14 51734.6 3818.39   1
  -6  -4  14 53128.5 3930.67   1
   3   7  14 7907.93 1367.30   2
   3   7  13 36274.7 3183.61   1
   3 -10  13 33835.4 3054.16   2
   3 -10  13 31824.5 3017.58   1
  -3  10 -13 33427.7 3013.05   1
  -3  10 -12 6474.15 1375.00   1
  -7  -3 -12 8402.47 1462.26   1
  -3  -7 -12 6795.53 1291.43   1
   7   3  12 6053.42 1151.63   1
   3   7  12 7630.64 1336.83   1
   3 -10  12 6578.71 1446.13   2
   7 -10  12 6112.55 1290.65   2
   3 -10  12 4063.88 1111.69   1
   7   3  12 7189.90 1377.62   2
   3   7  12 4414.38 1145.81   2
  -7  -3 -11 5003.00 1035.76   1
  -3  -7 -11 5408.34 1272.04   1
   7   3  11 7221.47 1309.51   1
   3   7  11 6274.41 1328.38   1
   3 -10  11 7011.80 1383.55   2
   3 -10  11 4549.36 1154.68   1
   7 -10  11 5208.43 1160.88   2
   7   3  11 5650.65 1191.28   2
   3   7  11 3203.99 984.205   2
  -3  10 -11 5964.81 1320.60   1
   7   3  10 177105. 6929.62   1
   3   7  10 165347. 6913.36   1
   3 -10  10 135948. 6542.05   1
   3 -10  10 150335. 6785.54   2
   7 -10  10 163494. 6896.47   2
  -7  -3 -10 195504. 7187.04   1
  -3  -7 -10 143914. 6465.51   1
  -3  10 -10 159435. 6908.47   1
   7   3  10 173438. 6776.74   2
   7   3   9 31898.0 2784.24   1
   3   7   9 32756.4 2907.09   1
   3 -10   9 31077.8 2853.89   1
   3 -10   9 35861.1 3008.86   2
   7 -10   9 33237.3 2960.32   2
  -7  -3  -9 37648.8 3069.89   1
  -3  10  -9 34707.8 3047.47   1
  -3  -7  -9 34385.3 2973.26   1
   7   3   9 40839.4 2994.52   2
  -7  -3  -8 10090.6 1531.57   1
  -3  -7  -8 5840.57 1289.34   1
   3 -10   8 8547.24 1503.87   1
   7   3   8 7791.40 1407.14   1
   3   7   8 7652.27 1335.65   1
   3 -10   8 9473.66 1581.19   2
   7 -10   8 7615.15 1485.01   2
  -3  10  -8 10066.4 1619.06   1
   7   3   8 9170.55 1439.45   2
   3 -10   7 178161. 7191.53   1
   7   3   7 167881. 6812.43   1
   3   7   7 159291. 6750.30   1
   7 -10   7 152250. 6733.28   2
  -3  10  -7 167839. 7052.63   1
  -7  -3  -7 172767. 6964.45   1
  -3  -7  -7 170212. 6896.94   1
   7   3   7 174445. 6878.82   2
   3 -10   7 155248. 6865.60   2
   3 -10   6 99250.0 5182.69   1
   7   3   6 104532. 5153.86   1
   3   7   6 98859.1 5077.99   1
   3 -10   6 96069.2 5110.67   2
   7 -10   6 100121. 5178.29   2
  -3  10  -6 102973. 5338.04   1
  -7  -3  -6 104915. 5213.90   1
   7   3   6 98154.3 5028.48   2
  -3  -7  -6 95536.3 4930.30   1
   3 -10   5 44629.0 3241.68   1
   7   3   5 39644.9 3024.28   1
   3   7   5 40209.5 3093.06   1
   7 -10   5 37074.1 3016.52   2
  -3  10  -5 46096.8 3374.04   1
  -7  -3  -5 37503.9 2988.44   1
   7   3   5 40265.2 3104.27   2
  -3  -7  -5 41046.5 3006.26   1
  -3  -7  -4 26382.6 2396.17   1
   7   3   4 23793.4 2278.21   1
   3   7   4 21974.5 2207.66   1
   7 -10   4 22281.8 2419.90   2
  -3  10  -4 29077.0 2638.81   1
   3 -10   4 23991.6 2414.09   1
  -7  -3  -4 22437.5 2163.72   1
   7   3   4 22886.7 2304.93   2
   7   3   3 1419.80 625.404   1
  -7  -3  -3 2451.51 883.715   1
   3   7   3 1697.38 821.835   1
   7 -10   3 968.318 454.247   2
  -3  -7  -3 1044.80 596.211   1
  -3  10  -3 607.927 588.012   1
   7   3   3 1834.99 757.564   2
  -7  -3  -2 127168. 5577.06   1
  -3  -7  -2 117369. 5438.30   1
   7   3   2 109909. 5228.61   1
   3   7   2 113648. 5358.45   1
   7 -10   2 123617. 5622.31   2
   7   3   2 99556.7 5137.84   2
  -3  -7  -1 8621.57 1383.64   1
   7   3   1 10760.9 1466.72   1
   7 -10   1 10965.3 1585.87   2
   3   7   1 12912.6 1744.66   1
  -7  -3  -1 11778.4 1626.57   1
  -7  -3   0 29649.4 2553.95   1
  -3  -7   0 26999.4 2491.04   1
   7   3   0 31934.2 2564.34   1
   3   7   0 31108.4 2661.97   1
   7 -10   0 32083.7 2697.93   2
 -10   3   0 29637.1 2619.65   1
  -7  -3   1 55260.3 3594.44   1
  10  -3   1 58416.3 3584.12   1
  -3  -7   1 53710.2 3573.92   1
   7   3  -1 53817.6 3488.62   1
   3   7  -1 57662.3 3717.85   1
   7 -10  -1 59013.1 3880.51   2
 -10   3  -1 56913.8 3579.65   1
  10  -3   1 52664.8 3454.52   2
  -7  -3   2 134195. 6014.14   1
  10  -3   2 156090. 6157.19   1
  -3  -7   2 133351. 5913.94   1
   7   3  -2 135132. 5849.99   1
   3   7  -2 125860. 5818.74   1
 -10   3  -2 141810. 6034.08   1
  10  -7   2 139529. 5906.38   2
  10  -3   2 137549. 5947.20   2
  10  -3   3 81926.9 4319.11   1
  -7  -3   3 70316.7 4121.79   1
   7   3  -3 75702.0 4269.35   1
  -3  -7   3 78204.0 4423.54   1
   3   7  -3 67753.4 4102.38   1
 -10   3  -3 80195.7 4359.48   1
  10  -7   3 82059.7 4369.68   2
  10  -3   3 77010.1 4305.40   2
 -10   3  -4 1048.10 557.745   1
  -7  -3   4 906.588 489.314   1
  10  -3   4 1955.92 697.965   1
   7   3  -4 1670.02 739.982   1
  -3  -7   4-782.237 655.765   1
   3   7  -4 1246.77 533.987   1
  10  -7   4 634.550 444.625   2
  10  -3   4 69.7160 352.992   2
  10  -3   5 63021.3 3815.50   1
  -7  -3   5 60472.6 3814.00   1
   7   3  -5 56681.1 3757.96   1
 -10   3  -5 62141.1 3889.77   1
   3   7  -5 61957.7 3910.61   1
  -3  -7   5 62725.2 3926.06   1
  10  -7   5 63546.3 3950.52   2
  10  -3   5 63282.5 3872.53   2
  10  -3   6 191976. 7283.20   1
  -7  -3   6 174509. 7022.19   1
   7   3  -6 162950. 6864.60   1
 -10   3  -6 175291. 7018.08   1
   3   7  -6 171050. 7015.38   1
  -3  -7   6 193102. 7288.02   1
  10  -7   6 179150. 7098.78   2
  10  -3   6 187053. 7162.64   2
  10  -3   7 28840.4 2622.12   1
  -7  -3   7 32003.9 2809.93   1
 -10   3  -7 33912.3 2855.86   1
   7   3  -7 28127.6 2576.23   1
   3   7  -7 34103.3 2865.07   1
  10  -7   7 32596.3 2794.10   2
  -3  -7   7 32678.9 2861.74   1
  10  -3   7 30182.1 2655.81   2
  10  -3   8 36520.5 3006.14   1
 -10   3  -8 43050.7 3231.72   1
  -7  -3   8 38889.7 3119.58   1
   7   3  -8 38328.8 3082.96   1
   3   7  -8 36962.2 3061.51   1
  10  -7   8 38246.4 3028.24   2
  -3  -7   8 40723.9 3157.98   1
  10  -3   8 35307.8 2908.14   2
  10  -3   9 46928.4 3365.64   1
 -10   3  -9 36647.6 3071.88   1
   7   3  -9 38500.5 3098.68   1
  -7  -3   9 35761.1 2974.08   1
   3   7  -9 40429.5 3185.24   1
  10  -7   9 36567.2 3004.84   2
  10  -3   9 36620.6 3027.56   2
  -3  -7   9 36850.9 3088.38   1
  10  -3  10 47114.8 3510.76   1
 -10   3 -10 52614.1 3627.72   1
   7   3 -10 46197.2 3490.61   1
  -7  -3  10 44304.8 3450.91   1
   3   7 -10 55723.4 3721.89   1
  10  -7  10 50735.7 3630.21   2
  10  -3  10 49132.2 3567.90   2
  -3  -7  10 49961.8 3606.15   1
  10  -3  11 7350.85 1451.47   1
  -3  -7  11 8505.62 1531.64   1
   7   3 -11 6657.62 1314.57   1
  10  -7  11 13488.9 1808.61   2
 -10   3 -11 9924.26 1553.27   1
   3   7 -11 10792.7 1649.78   1
  -7  -3  11 8888.58 1528.32   1
  10  -3  11 9164.38 1566.09   2
  10  -3  12 8063.46 1456.91   1
 -10   7 -12 8251.92 1468.84   1
 -10   3 -12 9957.60 1574.82   1
   7   3 -12 8323.81 1449.18   1
  10  -7  12 8837.83 1494.39   2
  -3  -7  12 7270.38 1365.59   1
   3   7 -12 10136.3 1677.53   1
  10  -3  12 11211.2 1658.12   2
  -7  -3  12 7308.34 1446.30   1
  -7  -3  13 67.0971 534.240   1
  10  -7  13 509.063 705.209   1
  10  -3  13-1330.42 848.795   1
 -10   7 -13 463.168 570.579   1
 -10   3 -13-618.309 675.782   1
   7   3 -13-43.1310 463.297   1
 -10   7 -14 71803.5 4680.70   1
   7   3 -14 67287.1 4452.89   1
  -7  -3  14 65786.6 4488.75   1
   2   8  13-472.034 578.211   2
   8   2  12 137721. 6025.25   1
   2 -10  12 112743. 5917.30   1
  -8  -2 -12 136364. 6041.96   1
   2 -10  12 111106. 5756.31   2
   8 -10  12 127230. 6048.70   2
  -2  10 -12 121021. 6026.84   1
   8   2  12 128918. 5749.12   2
  -8  -2 -11 215.852 431.693   1
   2 -10  11 224.855 557.305   1
   8   2  11 1138.78 623.116   1
   2 -10  11 1316.16 657.746   2
   8 -10  11 928.203 663.545   2
   8   2  11 899.209 418.857   2
  -2  10 -11 105.557 358.591   1
   2   8  11 132.340 393.524   2
  -8  -2 -10 1740.56 787.110   1
   2 -10  10 751.892 549.745   1
   8   2  10 1149.09 622.275   1
   2   8  10 1822.82 916.847   1
   8 -10  10 943.868 743.127   2
  -2  10 -10 1525.49 841.208   1
   8   2  10 1264.39 478.763   2
  -8  -2  -9 3669.70 984.869   1
   2 -10   9 2976.10 911.360   1
  -2  -8  -9 3130.41 963.959   1
   8   2   9 3558.90 976.166   1
   2   8   9 3553.15 995.658   1
   8 -10   9 4686.83 1146.07   2
  -2  10  -9 4662.94 1162.12   1
   8   2   9 2786.57 887.119   2
   8   2   8 202569. 7661.94   1
   2   8   8 202137. 7790.02   1
   8 -10   8 191389. 7663.63   2
  -2  10  -8 193336. 7832.90   1
  -8  -2  -8 201426. 7728.78   1
  -2  -8  -8 203080. 7864.37   1
   8   2   8 217011. 7723.43   2
  -8  -2  -7 4872.59 1142.94   1
  -2  -8  -7 3716.80 1015.49   1
   8   2   7 4689.17 1065.34   1
   2   8   7 3071.44 926.111   1
   8 -10   7 5228.08 1175.12   2
  -2  10  -7 5253.09 1182.56   1
   8   2   7 1910.25 654.266   2
   2 -10   7 5195.22 1293.78   1
  -8  -2  -6-411.997 448.049   1
   8   2   6-85.4208 348.378   1
  -2  -8  -6 294.276 400.587   1
   2   8   6-1202.76 676.136   1
   8 -10   6 805.643 522.151   2
  -2  10  -6 344.159 328.011   1
   2 -10   6-81.4617 459.016   1
   8   2   6 421.528 484.341   2
   8   2   5 10919.4 1572.85   1
   2 -10   5 8039.02 1473.38   1
   2   8   5 8886.26 1385.30   1
  -2  -8  -5 8015.71 1375.61   1
   8 -10   5 8150.91 1466.96   2
  -8  -2  -5 10601.0 1630.89   1
  -2  10  -5 13301.8 1817.14   1
   8   2   5 7540.66 1318.67   2
  -2  -8  -4 212204. 7794.45   1
   8   2   4 198111. 7410.84   1
   2   8   4 204188. 7590.82   1
   8 -10   4 178820. 7416.18   2
  -2  10  -4 188216. 7524.37   1
   2 -10   4 187254. 7445.10   1
  -8  -2  -4 189173. 7389.24   1
   8   2   4 188809. 7282.65   2
   2 -10   3 1419.15 731.021   1
  -8  -2  -3 151.525 325.736   1
   8   2   3 382.627 444.321   1
   2   8   3 372.410 406.876   1
   8 -10   3-177.187 305.478   2
  -2  10  -3 107.460 528.184   1
  -2  -8  -3-384.380 453.054   1
   8   2   3 231.959 505.662   2
  -2  -8  -2 21586.5 2242.55   1
   8   2   2 21036.9 2204.64   1
   2   8   2 21861.5 2277.13   1
  -2  10  -2 22398.0 2339.05   1
   8 -10   2 20972.0 2245.29   2
 -10   2   2 22222.5 2288.08   1
   8   2   2 19972.4 2127.95   2
  -8  -2  -2 21225.1 2281.55   1
  -2  -8  -1 1936.57 695.661   1
 -10   2   1 1666.37 652.858   1
  10  -2  -1 2361.72 819.747   1
   8   2   1 1718.77 702.475   1
  -8  -2  -1 2136.96 785.607   1
   2   8   1 624.672 402.395   1
   8 -10   1 2965.23 955.812   2
   8   2   1 1122.80 494.825   2
  -8  -2   0 190691. 7322.79   1
  10  -2   0 185262. 7076.74   1
  -2  -8   0 191279. 7295.57   1
   8   2   0 176323. 6895.62   1
   2   8   0 187011. 7253.81   1
   8 -10   0 187724. 7359.61   2
 -10   2   0 203344. 7587.12   1
 -10   2  -1 559.116 351.805   1
  -2  -8   1-173.131 389.436   1
  10  -2   1 390.105 317.796   1
   8   2  -1-1121.22 681.166   1
   2   8  -1 604.328 614.650   1
  -8  -2   1 477.728 506.590   1
  10  -2   1-76.5492 473.464   2
   8   2  -1 313.949 481.509   2
  -8  -2   2 19064.9 2191.33   1
  10  -2   2 19539.8 2108.14   1
   8   2  -2 16554.9 1897.07   1
  -2  -8   2 19360.5 2139.00   1
   2   8  -2 18642.8 2099.49   1
 -10   2  -2 18827.9 2081.55   1
  10  -2   2 18506.9 2045.89   2
 -10   2  -3 7097.16 1337.08   1
  10  -2   3 6151.08 1160.16   1
  -2  -8   3 5354.86 1183.68   1
   8   2  -3 4778.84 1044.62   1
   2   8  -3 6202.81 1269.31   1
  10  -8   3 6614.07 1264.92   2
  10  -2   3 4943.46 1106.96   2
   8   2  -3 1725.59 667.515   2
  -8  -2   3 5759.03 1265.62   1
  -8  -2   4 299764. 9851.36   1
  10  -2   4 277534. 9479.35   1
   8   2  -4 316401. 9920.94   1
   2   8  -4 307194. 9879.01   1
  -2  -8   4 294740. 9833.46   1
 -10   2  -4 312805. 10005.8   1
  10  -8   4 302536. 9867.63   2
  10  -2   4 294647. 9698.77   2
 -10   2  -5-150.692 357.973   1
  -8  -2   5-130.688 347.069   1
  10  -2   5-222.165 550.331   1
   8   2  -5 176.204 398.281   1
  10  -8   5 466.558 493.803   2
   2   8  -5 136.011 400.368   1
  -2  -8   5-347.940 652.775   1
  10  -2   5-172.464 382.336   2
  -2  -8   6 3150.44 906.849   1
 -10   2  -6 4087.35 1028.10   1
  -8  -2   6 2921.90 850.971   1
  10  -2   6 2909.05 789.993   1
   8   2  -6 3671.72 929.355   1
  10  -8   6 3222.19 910.823   2
   2   8  -6 5000.74 1132.33   1
  10  -2   6 2511.60 807.688   2
 -10   2  -7 11710.0 1711.62   1
  -2  -8   7 11615.8 1716.71   1
  -8  -2   7 11883.1 1760.50   1
  10  -2   7 12020.4 1686.69   1
   8   2  -7 10313.0 1608.22   1
  10  -8   7 13016.0 1750.60   2
   2   8  -7 13646.4 1819.31   1
  10  -2   7 11614.1 1734.47   2
  10  -2   8 126550. 5834.93   1
  -8  -2   8 121722. 5948.34   1
   8   2  -8 129674. 6037.46   1
 -10   2  -8 124131. 5864.17   1
   2   8  -8 123111. 5855.61   1
  10  -8   8 128619. 5929.19   2
  -2  -8   8 139970. 6242.28   1
  10  -2   8 120827. 5867.90   2
  10  -2   9 600.476 396.651   1
  -8  -2   9 157.107 384.105   1
  -2  -8   9 660.736 634.700   1
   8   2  -9 9.27391 328.483   1
  10  -8   9-63.2935 364.882   2
   2   8  -9 630.248 459.176   1
  10  -2   9-4.98794 483.854   2
 -10   2  -9 774.503 577.272   1
  10  -2  10 1479.58 817.862   1
  -8  -2  10 1513.52 549.718   1
  -2  -8  10 835.289 527.415   1
   8   2 -10 979.094 694.847   1
  10  -8  10 777.588 586.719   2
   2   8 -10 661.522 541.100   1
 -10   2 -10 2019.94 825.785   1
  10  -2  10 1038.74 571.511   2
  10  -2  11 2177.88 774.409   1
  -8  -2  11 1418.82 671.340   1
   8   2 -11 1872.27 874.811   1
  10  -8  11 3300.11 1016.91   2
  -2  -8  11 1862.23 760.490   1
 -10   2 -11 2951.66 912.875   1
   2   8 -11 1210.15 561.558   1
  10  -2  11 2155.59 989.436   2
  10  -2  12 98469.3 5356.04   1
 -10   2 -12 112810. 5677.86   1
   8   2 -12 86216.1 5133.84   1
  -8  -2  12 90053.5 5303.60   1
   2   8 -12 106725. 5484.16   1
  10  -8  12 106424. 5449.17   2
  10  -2  12 110275. 5560.61   2
  -2  -8  12 105661. 5590.16   1
  -8  -2  13 1073.58 828.741   1
   1   9  12 777.298 545.543   2
   1 -10  11 1114.62 567.632   1
   9 -10  11 3473.57 1027.58   2
  -1  10 -11 2892.76 784.327   1
   1 -10  10 117400. 6000.86   1
   9   1  10 126586. 5870.61   1
  -9  -1 -10 132770. 6063.58   1
   9 -10  10 124723. 6069.46   2
  -1  10 -10 125512. 6167.65   1
   9   1  10 131704. 5999.02   2
   1 -10   9 16657.4 2180.92   1
   9   1   9 21192.6 2291.98   1
  -9  -1  -9 21256.0 2311.87   1
   9 -10   9 19895.0 2246.19   2
  -1  10  -9 18159.4 2194.95   1
   9   1   9 18896.8 2109.77   2
  -9  -1  -8 2206.79 751.827   1
   9   1   8 2431.52 815.596   1
   9 -10   8 1241.00 604.428   2
  -1  10  -8 1316.67 458.458   1
   1 -10   8 867.575 538.613   1
   9   1   8 1578.10 576.529   2
   9   1   7 70471.0 4220.38   1
   9 -10   7 61540.3 4175.93   2
  -1  10  -7 69812.9 4350.13   1
  -9  -1  -7 79979.3 4473.64   1
   9   1   7 69568.2 4201.00   2
   1 -10   7 59262.5 4125.18   1
   9   1   6 26015.7 2474.05   1
   1   9   6 28180.9 2663.51   1
   9 -10   6 22086.9 2433.97   2
  -1  10  -6 24588.8 2576.47   1
  -9  -1  -6 25376.2 2544.38   1
   1 -10   6 25136.5 2569.86   1
   9   1   6 26124.8 2507.14   2
   1 -10   5 4465.62 1146.74   1
  -9  -1  -5 5273.01 1174.57   1
   9   1   5 6479.36 1236.18   1
   1   9   5 5434.96 1210.02   1
  -1  -9  -5 5199.22 1109.64   1
   9 -10   5 4571.80 1119.96   2
  -1  10  -5 4950.69 1156.74   1
   9   1   5 5543.71 1221.40   2
 -10   1   4 27224.7 2627.01   1
  -1  -9  -4 25320.0 2453.64   1
   9   1   4 24542.6 2415.42   1
   1   9   4 27644.1 2611.38   1
  -1  10  -4 28115.6 2647.42   1
   9 -10   4 23610.3 2435.75   2
   1 -10   4 27968.4 2634.22   1
  -9  -1  -4 28019.9 2620.56   1
   9   1   4 23198.5 2320.95   2
  -1  -9  -3 19024.5 2150.96   1
   9   1   3 19113.0 2140.39   1
  10  -1  -3 18511.0 2060.92   1
   1   9   3 15962.7 1974.64   1
  -1  10  -3 20243.8 2249.41   1
   9 -10   3 19730.2 2193.43   2
   1 -10   3 22582.4 2316.64   1
  -9  -1  -3 18258.0 2124.14   1
   9   1   3 16918.2 1924.83   2
 -10   1   3 18060.2 2140.56   1
  -1  -9  -2 163971. 6934.33   1
   9   1   2 163537. 6678.46   1
  10  -1  -2 160111. 6660.88   1
   1   9   2 175940. 7063.47   1
   1 -10   2 183027. 7248.61   1
  -1  10  -2 163644. 6896.42   1
   9 -10   2 168285. 7162.87   2
   9   1   2 167722. 6788.19   2
  -9  -1  -2 174810. 6981.05   1
 -10   1   2 155225. 6753.09   1
  -1  -9  -1 80408.1 4572.77   1
  10  -1  -1 75611.4 4328.87   1
   9   1   1 85063.2 4515.09   1
   1 -10   1 84180.7 4647.11   1
   1   9   1 79726.1 4584.74   1
  -1  10  -1 84142.4 4668.70   1
   9   1   1 69192.1 4154.02   2
 -10   1   1 81057.4 4515.13   1
  -9  -1  -1 80198.5 4482.21   1
  -1  -9   0 32923.7 2821.22   1
  10  -1   0 32112.0 2703.88   1
   9   1   0 29446.1 2635.30   1
   1   9   0 29679.4 2765.11   1
  -1  10   0 32638.8 2851.75   1
 -10   1   0 30746.5 2751.34   1
   9   1   0 23499.6 2343.82   2
  -9  -1   0 29680.2 2708.94   1
  -9  -1   1 38752.1 3098.03   1
  10  -1   1 34915.7 2875.40   1
  -1  -9   1 37426.1 2998.84   1
   9   1  -1 37771.5 2979.46   1
   1   9  -1 42621.4 3253.93   1
 -10   1  -1 42551.9 3225.69   1
  10  -1   1 33578.6 2801.59   2
   9   1  -1 30028.6 2681.74   2
  -9  -1   2 180599. 7225.43   1
  10  -1   2 180921. 7187.29   1
   9   1  -2 165196. 6871.67   1
  -1  -9   2 182841. 7280.63   1
   1   9  -2 191861. 7369.52   1
 -10   1  -2 179142. 7190.47   1
  10  -1   2 177299. 7017.28   2
  -9  -1   3 35182.1 2938.23   1
  10  -1   3 28934.2 2666.83   1
   9   1  -3 32267.2 2755.18   1
  -1  -9   3 33341.2 2874.19   1
   1   9  -3 35129.0 2954.97   1
  10  -9   3 39365.5 3124.94   2
 -10   1  -3 33992.7 2943.60   1
  10  -1   3 32442.8 2810.38   2
 -10   1  -4 1817.50 684.934   1
  10  -1   4 2427.34 781.219   1
   9   1  -4 2211.65 679.760   1
  10  -9   4 1333.48 612.084   2
  -1  -9   4 1406.89 656.918   1
   1   9  -4 1329.53 680.704   1
  -9  -1   4 1548.53 878.256   1
  10  -1   4 645.848 547.908   2
 -10   1  -5 11940.2 1729.35   1
  -9  -1   5 14576.2 1934.07   1
  10  -1   5 14408.8 1846.22   1
   9   1  -5 12813.5 1740.45   1
  10  -9   5 14006.7 1858.97   2
   1   9  -5 10753.2 1668.94   1
  10  -1   5 11423.6 1687.33   2
  -1  -9   5 11792.9 1780.89   1
  -9  -1   6 28660.4 2700.34   1
  10  -1   6 26751.3 2570.49   1
   9   1  -6 29888.8 2704.99   1
   1   9  -6 29900.6 2721.04   1
 -10   1  -6 26613.2 2616.50   1
  10  -9   6 28849.7 2699.37   2
  -1  -9   6 25130.6 2587.13   1
  10  -1   6 26186.2 2631.22   2
 -10   1  -7 5074.57 1196.59   1
  -9  -1   7 3280.45 969.017   1
  -1  -9   7 7195.83 1383.83   1
  10  -1   7 4752.66 1130.78   1
   9   1  -7 4796.21 1127.51   1
  10  -9   7 4131.70 1037.93   2
   1   9  -7 4680.41 1167.87   1
  10  -1   7 4246.91 1062.08   2
  10  -1   8 29378.1 2678.30   1
  -9  -1   8 22980.5 2480.35   1
   9   1  -8 21018.2 2342.17   1
 -10   1  -8 30136.5 2746.35   1
   1   9  -8 25585.0 2547.39   1
  10  -9   8 23240.0 2466.05   2
  10  -1   8 22933.3 2484.33   2
  -1  -9   8 27995.0 2683.12   1
  10  -1   9 71238.0 4249.71   1
  -9  -1   9 55498.4 3998.10   1
   9   1  -9 58697.2 4027.21   1
 -10   1  -9 71604.9 4342.23   1
   1   9  -9 64237.7 4171.92   1
  10  -9   9 63905.0 4130.32   2
  10  -1   9 57110.7 4022.77   2
  -1  -9   9 75826.7 4528.78   1
  10  -1  10 100608. 5231.30   1
  -9  -1  10 77671.0 4906.18   1
 -10   1 -10 99853.2 5172.60   1
   1   9 -10 94982.5 5174.58   1
  10  -9  10 95081.4 5173.03   2
  10  -1  10 88862.8 5016.11   2
  -1  -9  10 100418. 5439.27   1
  10  -1  11 43273.5 3308.93   1
 -10   1 -11 45219.1 3440.98   1
   1   9 -11 46109.0 3521.29   1
  10  -9  11 43584.9 3382.14   2
  10  -1  11 40499.2 3419.77   2
  -1  -9  11 48487.0 3690.55   1
   0 -10   0 46012.0 3435.94   1
  10   0   0 42691.2 3245.93   1
   0  10   0 43125.1 3317.47   1
 -10   0   0 39329.1 3167.37   1
   0 -10  -1 49785.6 3681.72   1
  10   0   1 54890.9 3729.93   1
  10   0  -1 49400.0 3559.90   1
   0 -10   1 54853.5 3730.43   1
   0  10   1 56222.8 3893.50   1
   0  10  -1 55244.9 3900.89   1
  10   0   1 53437.1 3619.76   2
 -10   0  -1 59956.8 3952.15   1
 -10   0   1 58597.8 3917.88   1
  10   0   2 173436. 7033.17   1
  10   0  -2 163196. 6891.90   1
   0  10   2 170553. 7081.36   1
   0 -10   2 171552. 7199.91   1
   0  10  -2 180065. 7312.61   1
 -10   0  -2 189711. 7439.51   1
  10   0   2 152664. 6633.78   2
 -10   0   2 170665. 7187.95   1
 -10   0   3 17701.5 2112.05   1
  10   0   3 22097.1 2301.88   1
  10   0  -3 14324.7 1872.29   1
   0 -10   3 18639.3 2201.43   1
   0  10  -3 20891.3 2259.53   1
 -10   0  -3 20560.0 2274.76   1
  10   0   3 17056.2 2003.56   2
 -10   0  -4 3337.05 1008.62   1
  10   0   4 4060.90 1025.49   1
  10   0  -4 4078.61 987.644   1
  10 -10   4 4060.45 1031.28   2
 -10   0   4 5250.58 1160.60   1
   0 -10   4 5101.42 1179.80   1
   0  10  -4 3096.63 951.313   1
  10   0   4 4665.96 1154.36   2
  10   0   5 13426.7 1808.79   1
  10   0  -5 9926.34 1590.87   1
 -10   0  -5 14264.6 1932.55   1
  10 -10   5 12253.6 1797.90   2
   0  10  -5 14139.6 1855.31   1
 -10   0   5 11839.2 1760.47   1
   0 -10   5 12326.4 1827.93   1
  10   0   5 11091.2 1721.57   2
   0 -10   6 12540.6 1775.83   1
 -10   0  -6 14557.2 1897.05   1
  10   0   6 12802.3 1818.73   1
  10 -10   6 9937.04 1655.72   2
   0  10  -6 11387.5 1744.28   1
 -10   0   6 11304.4 1757.40   1
  10   0   6 10923.1 1763.01   2
  10   0   7 27091.0 2550.78   1
   0  10  -7 24702.0 2596.87   1
  10 -10   7 24285.0 2589.25   2
 -10   0  -7 26482.0 2621.10   1
   0 -10   7 20107.7 2344.45   1
  10   0   7 24907.5 2564.30   2
 -10   0  -8 5893.17 1243.87   1
   0 -10   8 3770.45 1090.08   1
  10   0   8 3490.37 1003.81   1
  10 -10   8 3103.88 1001.30   2
   0  10  -8 4579.77 1107.43   1
  10   0   8 3439.80 991.687   2
  10   0   9 27064.6 2611.98   1
 -10   0  -9 31794.7 2785.49   1
   0  10  -9 35303.2 3064.88   1
  10 -10   9 28321.1 2817.11   2
  10   0   9 28480.7 2729.81   2
   0 -10   9 23977.8 2618.24   1
   0  10 -10 107417. 5667.19   1
   0 -10  10 104079. 5671.73   1
  -6  -5 -11 4876.61 1101.83   1
  -5  -6 -11 3269.26 966.039   1
   6   5  11 5030.55 1168.18   1
   5   6  11 3423.49 908.419   1
   6   5  11 5656.02 1257.46   2
   5   6  11 3773.42 973.769   2
   6   5  10 88248.1 4867.31   1
   5   6  10 93612.5 4971.81   1
   5 -11  10 74771.1 4612.48   2
   6 -11  10 81443.3 4801.69   2
  -6  -5 -10 85847.2 4866.92   1
  -5  -6 -10 84093.4 4816.64   1
   6   5  10 77249.2 4486.46   2
   5   6  10 71289.5 4454.64   2
   6   5   9 25674.3 2431.68   1
   5   6   9 26617.3 2558.62   1
   5 -11   9 21128.2 2330.09   2
   6 -11   9 23760.6 2432.89   2
  -6  -5  -9 28366.2 2736.58   1
  -5  -6  -9 25357.2 2559.23   1
   6   5   9 23356.3 2389.28   2
   5   6   9 18097.7 2116.41   2
  -6  -5  -8 666.943 591.508   1
  -5  -6  -8 1777.07 900.171   1
   6   5   8 520.166 469.794   1
   5   6   8 474.315 453.805   1
   5 -11   8-527.637 544.615   2
   6 -11   8-358.357 466.406   2
   6   5   8 747.841 575.036   2
   5   6   8-542.514 599.449   2
   6   5   7 35636.3 2900.07   1
   5   6   7 40331.5 3163.35   1
   5 -11   7 35041.7 3032.80   2
   6 -11   7 32639.3 2893.76   2
  -6  -5  -7 36571.0 2998.21   1
  -5  -6  -7 34853.6 2952.31   1
   6   5   7 25423.1 2436.04   2
   6   5   6 64218.9 3979.23   1
   5   6   6 62811.8 3946.64   1
   5 -11   6 56385.1 3892.95   2
   6 -11   6 60307.3 4025.57   2
  -6  -5  -6 67165.6 4135.62   1
  -5  -6  -6 59114.5 3845.93   1
   6   5   6 53570.2 3774.97   2
   6   5   5 30200.2 2715.99   1
   5   6   5 30356.1 2689.12   1
   5 -11   5 31208.2 2890.90   2
   6 -11   5 28901.6 2771.13   2
  -6  -5  -5 34223.0 2892.65   1
  -5  -6  -5 40723.0 3109.08   1
   6   5   4 16648.5 1997.11   1
   5   6   4 17859.9 2072.38   1
   5 -11   4 15496.9 1973.01   2
   6 -11   4 12882.4 1827.94   2
  -6  -5  -4 17044.2 2007.47   1
  -5  -6  -4 17083.5 2053.07   1
  -6  -5  -3 71417.8 4283.99   1
  -5  -6  -3 76588.6 4403.83   1
   6   5   3 73999.7 4244.62   1
   5   6   3 70456.5 4143.92   1
   5 -11   3 62567.7 4158.85   2
   6 -11   3 60254.3 4084.18   2
  -6  -5  -2 193823. 7451.48   1
  -5  -6  -2 206314. 7574.08   1
   6   5   2 191894. 7236.46   1
   5   6   2 175600. 7008.56   1
   6 -11   2 161773. 7201.69   2
  -6  -5  -1 20683.9 2222.24   1
  -5  -6  -1 19893.2 2223.74   1
   6   5   1 18395.6 2030.85   1
   5   6   1 18158.5 2043.00   1
   6 -11   1 14875.3 1862.92   2
  -6  -5   0 21046.3 2243.08   1
  -5  -6   0 18953.1 2173.65   1
   6   5   0 20293.9 2171.53   1
   5   6   0 20884.5 2124.69   1
  -6  -5   1 533.306 322.754   1
  -5  -6   1 313.277 460.624   1
   6   5  -1-2.36101 369.814   1
   5   6  -1 286.525 481.690   1
  -6  -5   2 141590. 6173.01   1
  -5  -6   2 134140. 6080.91   1
   6   5  -2 142630. 6190.04   1
   5   6  -2 136336. 6083.42   1
  -6  -5   3 34041.1 2905.57   1
  -5  -6   3 37646.9 3053.94   1
   6   5  -3 35014.5 2847.55   1
   5   6  -3 34307.0 2842.25   1
  11  -5   3 32428.5 2817.62   2
  -6  -5   4 12124.0 1583.02   1
  -5  -6   4 14417.4 1902.16   1
   5   6  -4 12794.7 1781.15   1
   6   5  -4 14300.8 1884.92   1
  11  -6   4 11193.8 1703.35   2
  11  -5   4 12165.7 1742.90   2
  -6  -5   5 40813.9 3171.83   1
  -5  -6   5 39591.0 3111.25   1
   6   5  -5 38098.9 3072.76   1
   5   6  -5 35974.2 2964.51   1
  11  -6   5 34886.5 2955.09   2
  11  -5   5 38460.8 3085.42   2
  -6  -5   6 42892.8 3324.40   1
  -5  -6   6 45996.1 3466.66   1
   6   5  -6 45924.5 3377.48   1
   5   6  -6 46797.9 3381.55   1
  11  -6   6 41558.4 3290.60   2
  11  -5   6 38721.3 3264.33   2
  -6  -5   7 15536.1 2006.35   1
   6   5  -7 13926.8 1874.03   1
  -5  -6   7 15113.8 1977.34   1
   5   6  -7 13073.3 1778.46   1
  11  -6   7 10740.9 1649.29   2
  11  -5   7 13212.2 1841.27   2
  -6  -5   8 6400.71 1323.18   1
   6   5  -8 7399.35 1373.52   1
   5   6  -8 5461.73 1269.99   1
  -5  -6   8 5770.27 1271.66   1
  11  -6   8 5504.60 1203.22   2
  11  -5   8 6522.56 1324.04   2
 -11   5  -9 42580.7 3377.32   1
   6   5  -9 46820.7 3460.14   1
   5   6  -9 47206.9 3518.13   1
  -6  -5   9 45390.8 3458.98   1
  -5  -6   9 47545.0 3567.05   1
  11  -6   9 45912.8 3438.36   2
  11  -5   9 40322.6 3346.88   2
  11  -5  10 126720. 6394.59   1
 -11   5 -10 144777. 6654.40   1
   6   5 -10 154610. 6662.63   1
   5   6 -10 156190. 6724.96   1
  -6  -5  10 138199. 6501.95   1
  -5  -6  10 151524. 6686.45   1
  11  -6  10 144659. 6490.39   2
  11  -5  10 133350. 6317.30   2
  11  -5  11 28121.2 2848.82   1
 -11   5 -11 32638.0 3009.49   1
   6   5 -11 39113.9 3205.94   1
   5   6 -11 32798.2 2844.39   1
  -6  -5  11 37826.5 3180.95   1
  11  -6  11 38623.9 3106.06   2
  -5  -6  11 37019.5 3172.78   1
  11  -5  11 34210.9 2984.28   2
 -11   5 -12 12104.4 1834.60   1
  11  -5  12 12440.7 1874.70   1
   4   7  12 38183.9 3263.16   1
  -4  -7 -12 40248.7 3317.53   1
  -4  11 -12 36437.8 3343.39   1
  -4  -7 -11 2696.01 872.034   1
   4   7  11 3940.89 1021.30   1
   4 -11  11 1720.49 881.615   1
   4   7  11 1002.72 557.455   2
  -4  11 -11 2736.15 972.255   1
  -7  -4 -10 381.213 517.032   1
  -4  -7 -10 532.275 475.189   1
   7   4  10-226.427 381.718   1
   4   7  10 597.246 482.708   1
   4 -11  10 1142.10 910.805   2
   7 -11  10 1068.95 611.565   2
   7   4  10-228.815 462.854   2
  -4  11 -10 700.653 727.544   1
   4   7  10-1146.46 825.912   2
  -7  -4  -9 7284.10 1411.86   1
  -4  -7  -9 5481.22 1211.34   1
   7   4   9 9288.73 1492.96   1
   4   7   9 5831.39 1219.80   1
   4 -11   9 5739.80 1266.96   2
   7 -11   9 6875.30 1352.02   2
  -4  11  -9 6093.73 1334.63   1
   7   4   9 7890.74 1401.08   2
   4   7   9 3756.11 1067.90   2
   4   7   8 268315. 9361.93   1
   4 -11   8 259069. 9473.95   2
   7 -11   8 246083. 9200.92   2
  -7  -4  -8 259466. 9223.72   1
  -4  -7  -8 227530. 8855.83   1
   7   4   8 262320. 9055.05   2
  -7  -4  -7 698.008 449.041   1
  -4  -7  -7 402.216 411.537   1
   7   4   7 1654.28 789.490   1
   4   7   7 498.891 525.949   1
   4 -11   7 1407.99 581.067   2
   7 -11   7 2382.09 974.163   2
   7   4   7 287.048 387.273   2
  -7  -4  -6 4810.02 1176.55   1
  -4  -7  -6 3401.32 1017.86   1
   7   4   6 4566.46 1013.58   1
   4   7   6 4108.08 1077.28   1
   4 -11   6 2908.61 911.300   2
   7 -11   6 5293.93 1284.17   2
   7   4   6 3315.32 863.536   2
   7   4   5 21718.9 2241.16   1
   4   7   5 23319.5 2407.93   1
   7 -11   5 16898.8 2078.15   2
  -7  -4  -5 19923.5 2227.84   1
   7   4   5 19612.8 2158.42   2
  -4  -7  -5 23881.4 2481.19   1
  -4  -7  -4 135343. 5996.69   1
   7   4   4 143915. 6010.18   1
   4   7   4 118644. 5689.85   1
   7 -11   4 114493. 5670.77   2
  -7  -4  -4 129316. 5844.10   1
   7   4   3 715.973 608.898   1
  -7  -4  -3-135.704 532.381   1
   4   7   3-31.7108 386.957   1
   7 -11   3 860.749 596.587   2
  -4  -7  -3-754.969 671.331   1
   7   4   3 855.655 692.236   2
  -7  -4  -2 26466.8 2455.21   1
  -4  -7  -2 22895.0 2395.54   1
   7   4   2 26192.7 2418.74   1
   4   7   2 23321.7 2348.45   1
   7 -11   2 24968.4 2506.65   2
   7   4   1 4333.45 1009.14   1
   7 -11   1 5272.73 1163.06   2
   4   7   1 4851.03 1059.23   1
  -7  -4  -1 4749.60 1199.26   1
  -4  -7  -1 5122.10 1186.64   1
  -7  -4   0 286946. 9486.82   1
  -4  -7   0 282329. 9481.65   1
   7   4   0 261884. 8955.64   1
   4   7   0 292532. 9509.84   1
   7 -11   0 261535. 9577.04   2
  -4  -7   1 942.399 452.998   1
   7   4  -1 1610.83 776.444   1
   4   7  -1 2486.97 906.277   1
  -7  -4   1 542.457 475.641   1
  -4  -7   2 12154.6 1697.68   1
   7   4  -2 10810.1 1535.78   1
   4   7  -2 12724.4 1768.34   1
  -7  -4   2 13526.1 1786.05   1
  -7  -4   3 3988.10 1123.34   1
  -4  -7   3 5932.39 1310.77   1
   7   4  -3 4216.63 1018.77   1
   4   7  -3 3494.45 970.006   1
  11  -4   3 3707.70 1042.79   2
  -7  -4   4 130168. 5891.50   1
  -4  -7   4 127593. 5912.43   1
   7   4  -4 125096. 5777.28   1
   4   7  -4 129346. 5916.40   1
  11  -7   4 126941. 5937.67   2
  11  -4   4 108885. 5586.93   2
  -7  -4   5 432.382 602.335   1
  -4  -7   5 1011.43 641.013   1
   7   4  -5 607.625 451.864   1
   4   7  -5 293.968 423.892   1
  11  -7   5-183.476 503.780   2
  11  -4   5-18.8585 327.258   2
  -7  -4   6 3947.05 1027.17   1
  -4  -7   6 4588.18 1024.89   1
   7   4  -6 3881.42 970.898   1
   4   7  -6 6269.08 1282.19   1
  11  -7   6 4807.28 1035.63   2
  11  -4   6 2666.41 934.656   2
 -11   4  -6 4783.22 1123.07   1
  11  -4   7 13448.9 1900.67   1
  -7  -4   7 13596.3 1864.32   1
   7   4  -7 14975.7 1927.03   1
  -4  -7   7 16471.3 2128.70   1
  11  -7   7 13526.7 1935.61   2
   4   7  -7 14154.0 1881.96   1
 -11   4  -7 12032.6 1778.30   1
  11  -4   7 11713.2 1707.36   2
  11  -4   8 220243. 8694.48   1
 -11   4  -8 243480. 8957.40   1
  -7  -4   8 239901. 8888.45   1
   7   4  -8 231593. 8665.02   1
   4   7  -8 268832. 9142.80   1
  -4  -7   8 269591. 9242.40   1
  11  -7   8 238554. 8846.82   2
  11  -4   8 243056. 8798.61   2
  -4  -7   9 2934.90 997.531   1
  11  -4   9 2070.41 918.781   1
  -7  -4   9 3491.94 1069.98   1
   7   4  -9 2154.15 806.292   1
 -11   4  -9 1253.19 503.374   1
   4   7  -9 2079.39 753.870   1
  11  -7   9 2379.23 1012.10   2
  11  -4   9 1486.42 814.367   2
  11  -4  10 27822.9 2697.73   1
 -11   4 -10 22997.7 2524.23   1
   7   4 -10 29248.9 2749.06   1
  -7  -4  10 30469.1 2864.22   1
   4   7 -10 30767.4 2810.32   1
  11  -7  10 28140.7 2788.75   2
  -4  -7  10 34258.2 3021.15   1
  11  -4  10 32413.8 2911.13   2
  11  -4  11 5864.56 1252.15   1
 -11   4 -11 6113.56 1328.64   1
  -7  -4  11 6707.13 1393.89   1
   7   4 -11 5397.14 1184.27   1
  11  -7  11 5413.56 1230.45   2
   3 -11  11 9749.17 1823.99   1
  -3  11 -11 10663.7 1785.90   1
   3 -11  10 33841.9 3249.80   1
   3   8  10 35022.7 3120.89   1
   8 -11  10 37417.8 3205.63   2
  -3  -8 -10 33137.2 3099.47   1
  -3  11 -10 33245.4 3092.20   1
   3 -11   9 39162.8 3428.93   1
   8   3   9 63040.5 3932.54   1
   3   8   9 44618.4 3568.06   1
   8 -11   9 50196.1 3724.02   2
  -8  -3  -9 57847.6 3796.11   1
  -3  11  -9 44281.5 3640.48   1
  -3  -8  -9 44452.6 3535.54   1
   8   3   9 50480.6 3542.03   2
   3 -11   8 712.869 569.040   1
  -8  -3  -8-18.2440 410.592   1
  -3  -8  -8 724.992 401.000   1
   8   3   8 1129.33 537.743   1
   3   8   8 1067.23 554.156   1
   8 -11   8 2210.73 969.356   2
  -3  11  -8 434.998 394.622   1
   8   3   8 2482.87 803.682   2
   8   3   7 75281.2 4394.14   1
   3   8   7 67031.1 4238.55   1
   8 -11   7 60443.3 4105.46   2
  -3  11  -7 67891.5 4437.74   1
  -8  -3  -7 70862.3 4349.00   1
  -3  -8  -7 58502.1 3951.27   1
   8   3   7 70145.8 4187.41   2
   8   3   6 159311. 6667.01   1
   3   8   6 152190. 6641.23   1
   8 -11   6 133649. 6425.86   2
  -8  -3  -6 156816. 6703.31   1
   8   3   6 158849. 6562.11   2
  -3  -8  -6 133362. 6280.62   1
   8   3   5 27713.4 2602.51   1
   3   8   5 25373.5 2542.53   1
   8 -11   5 19638.3 2252.32   2
  -8  -3  -5 26281.9 2592.37   1
   8   3   5 23626.0 2403.26   2
  -3  -8  -5 21476.2 2349.03   1
  -3  -8  -4 70521.8 4298.15   1
   8   3   4 71105.6 4177.59   1
   3   8   4 67911.3 4156.48   1
   8 -11   4 57514.6 3920.68   2
  -8  -3  -4 67776.4 4158.73   1
   8   3   4 57601.3 3870.51   2
  -8  -3  -3 6294.84 1304.74   1
   8   3   3 5660.71 1160.19   1
   3   8   3 5975.08 1142.09   1
   8 -11   3 6703.95 1288.42   2
  -3  -8  -3 6055.30 1310.71   1
   8   3   3 5070.25 1216.95   2
  -3  -8  -2 100123. 5120.45   1
   8   3   2 102660. 5041.50   1
   3   8   2 101074. 5127.09   1
   8 -11   2 92401.6 5076.07   2
  -8  -3  -2 99297.1 5130.48   1
   8   3   1 1334.93 494.248   1
   3   8   1 2092.38 774.472   1
   8 -11   1 1774.84 719.974   2
  -8  -3  -1 2659.90 850.843   1
  -3  -8  -1 1883.92 724.442   1
   8   3   1 1946.83 914.383   2
  -3  -8   0 5226.73 1141.33   1
   8   3   0 6471.96 1212.67   1
   3   8   0 7818.59 1443.85   1
  -8  -3   0 7073.07 1333.15   1
   8   3   0 3550.09 948.935   2
  -8  -3   1 17298.9 2020.90   1
  -3  -8   1 17746.2 2033.02   1
   8   3  -1 19443.5 2129.29   1
   3   8  -1 18444.2 2072.97   1
  -8  -3   2 62869.1 4021.32   1
  -3  -8   2 63537.4 4045.22   1
   8   3  -2 58527.1 3808.88   1
   3   8  -2 68278.9 4195.39   1
  -8  -3   3 76768.3 4428.34   1
  -3  -8   3 78529.8 4481.86   1
   8   3  -3 70390.8 4220.84   1
   3   8  -3 74684.4 4432.19   1
 -11   3  -3 77144.8 4552.48   1
  11  -3   3 71208.6 4459.73   2
 -11   3  -4 2003.52 815.001   1
  -8  -3   4 2389.81 806.806   1
  11  -3   4 1428.46 597.375   1
  -3  -8   4 2630.53 985.588   1
   8   3  -4 1310.15 604.489   1
   3   8  -4 1468.01 636.383   1
  11  -3   4 1846.57 809.510   2
  11  -3   5 70917.3 4284.87   1
  -8  -3   5 69235.7 4345.50   1
   8   3  -5 71033.5 4384.09   1
  -3  -8   5 77092.3 4536.50   1
 -11   3  -5 78187.9 4593.34   1
   3   8  -5 79236.3 4499.42   1
  11  -8   5 73658.5 4426.96   2
  11  -3   5 68804.3 4277.03   2
  11  -3   6 119687. 5859.61   1
  -8  -3   6 132117. 6051.26   1
   8   3  -6 126260. 5955.80   1
 -11   3  -6 106389. 5571.35   1
   3   8  -6 143305. 6250.97   1
  -3  -8   6 149980. 6451.23   1
  11  -8   6 109715. 5675.90   2
  11  -3   6 116997. 5845.70   2
  11  -3   7 27512.1 2731.58   1
  -8  -3   7 32623.6 2937.14   1
 -11   3  -7 26250.1 2627.45   1
   8   3  -7 27448.5 2686.75   1
   3   8  -7 34016.0 2945.20   1
  -3  -8   7 31413.8 2832.61   1
  11  -8   7 25870.9 2600.73   2
  11  -3   7 24488.1 2553.21   2
  11  -3   8 50326.4 3690.11   1
  -8  -3   8 58826.3 4040.22   1
 -11   3  -8 60557.9 4058.49   1
   8   3  -8 59208.2 3999.97   1
   3   8  -8 62779.9 4088.59   1
  11  -8   8 53881.5 3838.47   2
  -3  -8   8 70099.5 4287.18   1
  11  -3   8 60142.3 4010.70   2
  -3  -8   9 6388.81 1310.83   1
  11  -3   9 5372.04 1282.22   1
  -8  -3   9 4811.61 1197.74   1
   8   3  -9 5888.62 1282.16   1
  11  -8   9 6663.18 1343.24   2
   3   8  -9 4577.09 1065.62   1
 -11   3  -9 6330.03 1346.92   1
  11  -3   9 3567.59 1174.02   2
  11  -3  10 75337.0 4645.06   1
 -11   3 -10 84769.9 4848.69   1
  -8  -3  10 78843.0 4785.66   1
   8   3 -10 72486.6 4604.78   1
  11  -8  10 85313.3 4905.95   2
  11  -3  10 82799.8 4765.21   2
  11  -3  11 738.453 498.988   1
  -8  -3  11 1283.56 701.913   1
   8   3 -11 322.497 431.866   1
 -11   3 -11 666.944 483.597   1
  -2  11 -10 20834.1 2448.51   1
   2 -11  10 14784.2 2114.96   1
   9 -11   9 10742.1 1697.74   2
  -2  11  -9 9208.87 1641.17   1
   2 -11   9 7739.40 1649.04   1
  -9  -2  -8 288.642 468.360   1
   9   2   8-251.618 463.279   1
   9 -11   8 332.198 472.380   2
   2 -11   8 391.005 506.133   1
  -2  11  -8 794.517 673.956   1
   9   2   8 1038.81 414.105   2
  -9  -2  -7 6206.96 1320.59   1
   9   2   7 5000.80 1119.35   1
   2   9   7 3535.66 1012.60   1
   2 -11   7 3371.20 969.376   1
   9 -11   7 4516.97 1175.75   2
  -2  11  -7 4617.52 1138.70   1
   9   2   7 4292.36 1108.49   2
   9   2   6 136799. 6121.62   1
   2   9   6 115623. 5862.95   1
   9 -11   6 99861.8 5683.71   2
  -2  11  -6 125050. 6158.28   1
  -9  -2  -6 131471. 6081.71   1
   2 -11   6 115125. 5983.55   1
   9   2   6 128118. 5895.65   2
  -2  -9  -6 109173. 5674.24   1
   9   2   5 140423. 6070.38   1
   2   9   5 127270. 6055.27   1
  -2  11  -5 110831. 5805.62   1
   9 -11   5 97468.6 5495.23   2
  -9  -2  -5 129967. 6050.37   1
   9   2   5 117100. 5614.85   2
  -2  -9  -5 120057. 5939.23   1
  -2  -9  -4 36602.8 3142.16   1
   9   2   4 39896.5 3081.19   1
   2   9   4 38656.3 3239.29   1
   9 -11   4 33175.1 2923.34   2
  -9  -2  -4 36356.3 3114.64   1
   9   2   4 33594.5 2922.78   2
  -2  -9  -3 27334.9 2650.85   1
   9   2   3 26413.5 2570.62   1
   2   9   3 26693.0 2637.68   1
   9 -11   3 26842.6 2658.17   2
  -9  -2  -3 30238.7 2767.88   1
   9   2   3 24034.8 2432.53   2
  -2  -9  -2 114325. 5837.09   1
   9   2   2 144562. 6183.25   1
   2   9   2 140542. 6268.52   1
   9   2   2 106480. 5609.39   2
  -9  -2  -2 140851. 6236.33   1
   9   2   1 1034.55 652.302   1
  -9  -2  -1-336.902 516.284   1
   2   9   1-752.704 743.599   1
   9   2   1 196.802 337.547   2
  -2  -9  -1 996.557 665.322   1
  -2  -9   0 5615.43 1221.56   1
   9   2   0 5646.46 1167.91   1
  -9  -2   0 6172.19 1281.18   1
   2   9   0 7145.19 1418.24   1
   9   2   0 3335.54 884.159   2
  -9  -2   1 32531.3 2868.07   1
  -2  -9   1 29836.0 2731.81   1
   9   2  -1 28844.8 2685.11   1
   2   9  -1 34108.7 2977.34   1
 -11   2  -1 35057.4 3000.67   1
  -9  -2   2 38227.1 3137.20   1
  11  -2   2 41439.6 3258.79   1
  -2  -9   2 35666.8 3056.19   1
   9   2  -2 39225.3 3169.61   1
   2   9  -2 41584.8 3266.26   1
 -11   2  -2 46643.4 3511.45   1
  -9  -2   3 50219.6 3631.92   1
  11  -2   3 48203.2 3545.45   1
   9   2  -3 51773.3 3549.27   1
  -2  -9   3 51654.9 3666.28   1
   2   9  -3 53615.7 3772.48   1
 -11   2  -3 49286.1 3577.02   1
  11  -2   3 45309.1 3432.21   2
 -11   2  -4 6589.23 1312.28   1
  11  -2   4 7057.47 1302.69   1
  -2  -9   4 7229.98 1378.13   1
   9   2  -4 7731.65 1380.16   1
   2   9  -4 8569.19 1483.75   1
  -9  -2   4 8204.39 1440.27   1
  11  -2   4 7801.44 1367.14   2
  -9  -2   5 33868.3 3027.75   1
  11  -2   5 29538.5 2795.74   1
   9   2  -5 37704.5 3055.33   1
   2   9  -5 42407.0 3252.83   1
  -2  -9   5 42046.8 3321.18   1
 -11   2  -5 34937.9 3013.26   1
  11  -9   5 33724.1 3012.71   2
  11  -2   5 29717.0 2849.73   2
  11  -2   6 109259. 5414.06   1
  -9  -2   6 104499. 5500.01   1
   9   2  -6 99639.9 5241.36   1
 -11   2  -6 96162.1 5241.28   1
   2   9  -6 108586. 5607.23   1
  11  -9   6 93947.2 5226.91   2
  11  -2   6 92629.9 5239.22   2
  11  -2   7 17766.9 2144.71   1
  -9  -2   7 18053.9 2203.75   1
   9   2  -7 19290.2 2197.55   1
 -11   2  -7 18602.1 2174.81   1
   2   9  -7 18631.1 2233.29   1
  11  -9   7 18750.9 2190.31   2
  -2  -9   7 20252.0 2347.08   1
  11  -2   7 16932.7 2230.22   2
  -2  -9   8 6261.98 1311.38   1
  -9  -2   8 3117.13 926.156   1
  11  -2   8 7069.81 1406.17   1
   9   2  -8 6542.97 1342.33   1
  11  -9   8 6456.16 1419.35   2
   2   9  -8 8050.73 1466.22   1
  11  -2   8 4243.28 1221.23   2
 -11   2  -8 6298.30 1218.35   1
  -9  -2   9 3903.77 1168.06   1
  11  -2   9 2713.21 817.445   1
   9   2  -9 2618.11 891.319   1
  11  -9   9 2775.37 933.386   2
  11  -2   9 1797.12 788.686   2
 -11   2  -9 3100.33 919.059   1
  -9  -2  10 63458.1 4394.54   1
  10 -11   8 50385.7 3820.67   2
  -1  11  -8 48697.5 3749.29   1
   1 -11   8 47715.2 3829.67   1
 -10  -1  -7 6164.31 1253.37   1
   1 -11   7 5374.00 1285.45   1
  10   1   7 6608.37 1301.23   1
  10 -11   7 4692.56 1101.30   2
  -1  11  -7 5066.89 1211.05   1
  10   1   7 5438.56 1228.61   2
 -10  -1  -6 4878.65 1239.83   1
  10   1   6 4265.21 1088.61   1
  10 -11   6 3567.41 1051.14   2
  -1  11  -6 3653.64 1116.04   1
  10   1   6 1844.95 794.914   2
   1 -11   6 3289.31 996.537   1
 -10  -1  -5 4448.54 1055.32   1
  10 -11   5 2157.29 864.934   2
  -1  11  -5 2479.55 954.682   1
   1 -11   5 2999.67 988.210   1
  10   1   5 3189.23 1029.36   2
  10   1   4 163184. 6920.55   1
  -1  11  -4 171123. 7349.12   1
   1 -11   4 135720. 6678.35   1
  10 -11   4 142226. 6887.02   2
  10   1   4 151245. 6735.24   2
 -10  -1  -3 963.168 625.754   1
  10   1   3 226.102 333.010   1
   1  10   3-23.6326 389.646   1
  -1  11  -3-564.267 607.282   1
  10   1   3 180.674 496.856   2
 -10  -1  -2 1676.59 729.818   1
  10   1   2 922.801 526.185   1
   1  10   2 1083.85 677.353   1
  -1 -10  -2 2031.13 787.616   1
  10   1   2 786.705 479.041   2
 -11   1   1 2771.04 846.378   1
 -10  -1  -1 1927.57 759.559   1
  10   1   1 2375.86 778.907   1
   1  10   1 1142.62 699.013   1
  10   1   1 1609.60 711.063   2
  -1 -10  -1 3050.11 977.776   1
  -1 -10   0 164615. 7250.38   1
  11  -1   0 175485. 7306.27   1
  10   1   0 185929. 7431.51   1
   1  10   0 176270. 7487.09   1
 -11   1   0 182849. 7592.44   1
 -10  -1   0 190950. 7568.47   1
  -1 -10   1 2412.60 834.153   1
 -11   1  -1 1790.12 805.234   1
  11  -1   1 2315.47 804.891   1
  10   1  -1 3842.57 1038.91   1
 -10  -1   1 2169.79 609.609   1
   1  10  -1 2761.38 960.047   1
 -11   1  -2 4345.53 1145.38   1
  -1 -10   2 2447.74 699.794   1
  11  -1   2 5058.99 1131.29   1
  10   1  -2 3656.08 968.072   1
 -10  -1   2 6046.19 1310.06   1
   1  10  -2 4247.62 1091.75   1
 -11   1  -3 3870.58 1074.91   1
  -1 -10   3 4152.97 1165.65   1
  11  -1   3 3067.47 942.734   1
  10   1  -3 2463.81 858.935   1
 -10  -1   3 3675.35 1214.70   1
   1  10  -3 3442.61 938.003   1
  11  -1   3 2450.56 798.672   2
 -10  -1   4 73392.1 4573.08   1
  11  -1   4 73616.8 4450.87   1
  10   1  -4 70599.7 4339.75   1
  -1 -10   4 74476.2 4620.65   1
   1  10  -4 80654.1 4739.36   1
 -11   1  -4 74039.6 4535.40   1
  11  -1   4 67556.0 4386.12   2
 -11   1  -5 4045.83 1038.08   1
  11  -1   5 4476.39 1131.17   1
  10   1  -5 2498.24 829.326   1
  -1 -10   5 3322.22 1021.15   1
   1  10  -5 3357.86 994.501   1
 -10  -1   5 3430.88 1007.22   1
  11  -1   5 2643.24 910.001   2
 -11   1  -6 869.633 743.652   1
  11  -1   6 859.129 684.070   1
  10   1  -6 232.560 435.898   1
  11 -10   6-683.491 617.140   2
   1  10  -6 415.071 668.703   1
  -1 -10   6 832.175 642.014   1
 -10  -1   6 141.409 493.181   1
  11  -1   6-25.2412 322.757   2
 -11   1  -7 5792.78 1233.28   1
  11  -1   7 6487.33 1269.83   1
  11 -10   7 4690.52 1105.70   2
   1  10  -7 6682.12 1358.02   1
  11  -1   7 4635.51 1272.08   2
  -1 -10   7 5365.62 1258.66   1
 -10  -1   7 3853.97 1115.21   1
  11  -1   8 94680.4 5187.72   1
 -11   1  -8 103053. 5359.42   1
  11 -10   8 85649.4 5195.53   2
  11   0   0 16569.5 2110.97   1
 -11   0   0 17339.2 2208.20   1
 -11   0  -1 3217.75 955.981   1
 -11   0   1 2428.69 815.151   1
  11   0   1 3813.99 1034.96   1
  11   0  -1 3684.88 982.428   1
  11   0   2 62123.0 4186.77   1
   0  11  -2 64050.4 4387.41   1
 -11   0  -2 59461.0 4053.85   1
 -11   0   2 56192.2 4036.77   1
  11   0   3 33213.1 2984.01   1
   0 -11   3 31324.4 3033.75   1
   0  11  -3 37756.4 3330.31   1
 -11   0  -3 39147.8 3286.43   1
  11   0   3 28303.7 2801.52   2
 -11   0   3 37870.9 3280.83   1
 -11   0  -4 13832.5 1980.60   1
  11   0   4 13545.3 1884.90   1
   0 -11   4 10060.8 1714.15   1
   0  11  -4 12665.0 1942.77   1
  11   0   4 10377.6 1665.48   2
  11   0   5 47219.5 3551.84   1
   0 -11   5 40980.7 3483.09   1
   0  11  -5 40380.1 3483.14   1
 -11   0  -5 45285.2 3540.17   1
  11   0   5 40093.4 3349.96   2
   0  11  -6 55273.0 4035.15   1
   0 -11   6 54003.7 4046.34   1
  -6  -6  -7-152.588 580.130   1
   6   6   7 81.8986 452.177   1
   6 -12   7 428.138 619.960   2
   6   6   7 150.963 780.367   2
   6   6   6 27197.8 2490.49   1
   6 -12   6 20301.4 2383.32   2
  -6  -6  -6 21980.9 2366.51   1
  -6  -6  -5-368.617 555.683   1
   6   6   5 1337.82 628.437   1
   6 -12   5-55.1866 493.654   2
   6   6   4 327364. 10439.0   1
  -6  -6  -4 363852. 10941.0   1
   6   6   3 44.0456 393.262   1
  -6  -6  -3-700.497 584.887   1
   6   6   2 509.210 435.184   1
  -6  -6  -2 18.3312 514.783   1
   6   6   1 913.292 673.240   1
  -6  -6  -1-32.5768 338.706   1
  -6  -6   0 100508. 5199.79   1
   6   6   0 90773.5 4800.77   1
   6   6  -1-230.058 396.452   1
  -6  -6   1 621.846 588.679   1
  -6  -6   2 684.948 642.148   1
   6   6  -2-464.595 624.746   1
  -6  -6   3 1023.01 844.368   1
   6   6  -3 65.5859 380.789   1
  -6  -6   4 153374. 6640.31   1
   6   6  -4 147859. 6468.76   1
  -6  -6   5-136.632 490.150   1
   6   6  -5 344.357 517.985   1
  -6  -6   6 8502.74 1463.20   1
   6   6  -6 11395.8 1708.33   1
  12  -6   6 8634.31 1526.91   2
  -6  -6   7 733.225 643.014   1
   6   6  -7-385.884 502.390   1
  12  -6   7 440.141 483.087   2
  12  -6   8 181320. 7547.36   2
  12  -6   9 576.147 519.942   2
  -5  -7  -8 12318.5 1753.62   1
   5   7   8 13070.1 1775.59   1
   7   5   7 43820.2 3317.75   1
   5   7   7 37192.1 3131.63   1
   5 -12   7 41068.2 3345.01   2
   7 -12   7 38422.8 3233.71   2
  -7  -5  -7 40493.0 3275.41   1
  -5  -7  -7 33857.3 3097.87   1
   7   5   7 34423.8 2985.94   2
   7   5   6 122481. 5739.67   1
   5   7   6 118263. 5759.93   1
   5 -12   6 104399. 5679.32   2
   7 -12   6 108578. 5693.39   2
  -7  -5  -6 125892. 5900.64   1
  -5  -7  -6 122415. 5841.83   1
   7   5   5 82177.2 4616.49   1
   5   7   5 91851.5 4933.68   1
   7 -12   5 77169.1 4817.25   2
  -7  -5  -5 88834.3 4809.01   1
  -5  -7  -5 86628.9 4854.92   1
  -7  -5  -4 5247.55 1236.27   1
   7   5   4 4522.62 1140.73   1
   5   7   4 4789.71 1109.39   1
  -5  -7  -4 4545.37 1093.03   1
   7 -12   4 5140.22 1282.77   2
   7   5   4 2697.52 774.682   2
   7   5   3 1630.39 667.167   1
   5   7   3 1053.34 414.618   1
  -7  -5  -3 1619.16 835.136   1
   7 -12   3 2259.70 802.805   2
  -5  -7  -3 1827.08 741.128   1
  -7  -5  -2 108573. 5400.80   1
  -5  -7  -2 102964. 5317.14   1
   7   5   2 106576. 5264.06   1
   5   7   2 96254.3 5087.03   1
  -7  -5  -1 16432.9 2051.60   1
   7   5   1 16920.8 1997.21   1
   5   7   1 18722.7 2131.98   1
  -5  -7  -1 15125.5 1927.42   1
  -7  -5   0 17532.9 2087.30   1
   7   5   0 18112.8 2033.68   1
   5   7   0 15847.5 1919.57   1
  -5  -7   0 14959.7 1926.34   1
  -7  -5   1 59481.0 3999.74   1
  -5  -7   1 57359.1 3932.92   1
   7   5  -1 62069.8 3873.64   1
   5   7  -1 66926.5 4104.87   1
  -7  -5   2 40963.5 3205.50   1
  -5  -7   2 45128.1 3332.79   1
   7   5  -2 40470.6 3173.01   1
   5   7  -2 42270.5 3279.70   1
  -7  -5   3 3221.55 1071.26   1
  -5  -7   3 2231.37 788.854   1
   7   5  -3 2131.37 659.995   1
   5   7  -3 1935.26 795.532   1
  -5  -7   4 4530.54 992.751   1
   7   5  -4 5212.50 1166.37   1
   5   7  -4 5091.74 1189.48   1
  -7  -5   5 6372.15 1345.40   1
  -5  -7   5 9056.27 1540.04   1
   7   5  -5 6232.15 1279.96   1
   5   7  -5 6206.15 1336.39   1
  -7  -5   6 177010. 7363.27   1
  -5  -7   6 177283. 7330.22   1
   7   5  -6 184468. 7357.23   1
   5   7  -6 185475. 7363.01   1
  12  -7   6 155748. 7076.37   2
  -7  -5   7 41818.2 3398.07   1
  -5  -7   7 50753.5 3603.08   1
   7   5  -7 45573.4 3404.89   1
   5   7  -7 41286.3 3230.33   1
  12  -7   7 34034.8 3117.27   2
  12  -5   7 37808.6 3238.94   2
  12  -7   8 16261.0 2120.21   2
  12  -5   8 19982.5 2285.67   2
  -4  -8  -8 11650.1 1806.31   1
   4   8   8 10529.5 1726.07   1
   4   8   7 24650.9 2542.24   1
   8 -12   7 20739.8 2434.56   2
  -4  -8  -7 24362.2 2592.88   1
   8   4   6 149908. 6513.50   1
   4   8   6 143049. 6408.58   1
  -8  -4  -6 145296. 6569.53   1
  -4  -8  -6 133006. 6299.68   1
   8   4   6 133729. 6149.27   2
  -8  -4  -5 2035.08 758.599   1
   8   4   5 2026.10 782.753   1
  -4  -8  -5 2605.67 976.532   1
   4   8   5 1919.00 806.946   1
   8 -12   5 469.093 400.426   2
   8   4   5 1216.26 578.243   2
   8   4   4 36140.8 3026.96   1
   4   8   4 34549.8 2982.95   1
   8 -12   4 26000.9 2731.56   2
  -8  -4  -4 36771.7 3068.38   1
   8   4   4 31033.2 2746.86   2
  -4  -8  -4 35023.1 3032.86   1
  -4  -8  -3 41003.2 3299.87   1
   8   4   3 40462.7 3139.15   1
   4   8   3 36901.8 3098.29   1
   8 -12   3 28957.5 2892.19   2
   8   4   3 29415.2 2737.08   2
  -8  -4  -3 43537.7 3331.94   1
  -4  -8  -2 91416.0 4924.49   1
   8   4   2 85409.7 4619.43   1
   4   8   2 82791.6 4616.85   1
   8 -12   2 48110.4 3876.05   2
  -8  -4  -2 79090.2 4581.09   1
  -8  -4  -1 29055.9 2726.97   1
  -4  -8  -1 34446.6 3015.85   1
   8   4   1 26833.9 2558.81   1
   4   8   1 28519.3 2678.18   1
   8   4   0 756.516 657.855   1
   4   8   0 148.777 537.705   1
  -8  -4   0 1268.05 786.284   1
  -4  -8   0 461.321 471.238   1
   8   4   0 127.185 578.153   2
  -4  -8   1 4988.57 1096.13   1
   8   4  -1 4374.97 1104.00   1
   4   8  -1 4335.92 1110.00   1
  -8  -4   1 3209.40 940.733   1
  -8  -4   2 71974.5 4431.50   1
  -4  -8   2 73331.1 4478.18   1
   8   4  -2 71628.3 4233.19   1
   4   8  -2 67418.9 4243.06   1
  -8  -4   3 35114.3 3064.49   1
  -4  -8   3 36937.8 3080.32   1
   8   4  -3 30546.0 2732.92   1
   4   8  -3 33275.7 2911.43   1
  -8  -4   4 1517.02 746.402   1
  -4  -8   4 3235.10 1052.35   1
   8   4  -4 1747.10 755.913   1
   4   8  -4 2189.35 599.983   1
  -8  -4   5 53507.8 3869.51   1
  -4  -8   5 52744.8 3770.56   1
   8   4  -5 54795.6 3777.87   1
   4   8  -5 54658.0 3832.59   1
  -8  -4   6 74134.3 4574.85   1
   8   4  -6 74997.5 4439.85   1
  -4  -8   6 71050.8 4458.68   1
   4   8  -6 73300.9 4434.67   1
  -8  -4   7 25787.2 2579.10   1
   8   4  -7 22329.3 2405.56   1
  12  -8   7 19273.9 2316.18   2
  12  -4   7 16039.6 2192.54   2
  12  -8   8 43729.9 3561.84   2
  12  -4   8 51487.7 3706.91   2
   3   9   7 708.152 587.562   1
  -3  -9  -6 9041.86 1579.11   1
   3   9   6 8672.93 1560.16   1
   9 -12   6 7224.94 1473.47   2
  -3  -9  -5 2524.62 931.523   1
   3   9   5 2958.90 869.551   1
   9 -12   5 1529.45 728.765   2
   9   3   5 2564.83 793.333   2
   9   3   4 243081. 8581.59   1
   3   9   4 211558. 8305.73   1
   9 -12   4 170141. 7749.90   2
  -9  -3  -4 256713. 8865.83   1
   9   3   4 189374. 7866.13   2
  -3  -9  -4 215674. 8462.70   1
  -9  -3  -3 5873.12 1264.68   1
   9   3   3 5269.63 1159.65   1
   3   9   3 5786.20 1244.69   1
   9 -12   3 3225.16 957.003   2
  -3  -9  -3 5493.39 1199.40   1
   9   3   3 4651.05 1168.41   2
  -9  -3  -2-643.449 595.444   1
   9   3   2-836.651 494.671   1
   3   9   2-26.7905 455.530   1
  -3  -9  -2-113.046 449.353   1
   9   3   2-813.622 661.563   2
   9   3   1 2707.88 984.733   1
  -9  -3  -1 2278.80 935.859   1
   3   9   1 2298.42 785.395   1
  -3  -9  -1 3351.52 1042.37   1
   9   3   1 947.871 738.540   2
  -3  -9   0 81736.9 4743.84   1
   9   3   0 87869.3 4733.91   1
   3   9   0 93800.7 4929.66   1
  -9  -3   0 88786.4 4872.54   1
  -3  -9   1 149.225 438.284   1
   9   3  -1 515.499 450.254   1
   3   9  -1 127.326 499.379   1
  -9  -3   1 114.878 686.886   1
   9   3  -1-133.431 511.464   2
  -3  -9   2 3813.15 1139.17   1
   9   3  -2 3696.78 1028.26   1
   3   9  -2 3830.25 998.005   1
  -9  -3   2 3745.26 1030.18   1
  -3  -9   3 774.872 641.456   1
   9   3  -3 229.266 512.520   1
   3   9  -3 566.844 611.707   1
  -9  -3   3-214.765 464.781   1
  -9  -3   4 133335. 6310.56   1
  -3  -9   4 138561. 6374.20   1
   3   9  -4 139478. 6423.08   1
  -3  -9   5 2110.92 903.634   1
   9   3  -5 2725.08 942.306   1
   3   9  -5 1090.05 545.318   1
  12  -3   5 1530.82 814.385   2
  -9  -3   5 965.195 683.239   1
  -9  -3   6 525.994 416.629   1
   9   3  -6 798.311 355.462   1
  12  -3   6 427.092 570.880   2
  12  -3   7 2721.62 917.220   2
   2  10   4 5716.20 1301.66   1
  10   2   4 3374.27 988.928   2
  -2 -10  -3 60906.2 4256.21   1
   2  10   3 53500.8 3936.16   1
  -2 -10  -2 78387.6 4745.91   1
  10   2   2 77031.2 4591.62   1
   2  10   2 66158.0 4321.97   1
 -10  -2  -2 81259.9 4721.03   1
  -2 -10  -1 24050.8 2543.25   1
  10   2   1 24648.8 2520.07   1
   2  10   1 25611.4 2629.31   1
 -10  -2  -1 25225.3 2629.49   1
 -10  -2   0 8450.88 1504.41   1
  10   2   0 7894.90 1375.16   1
   2  10   0 10241.8 1651.94   1
  -2 -10   0 9633.55 1640.84   1
  -2 -10   1 917.102 614.316   1
  10   2  -1-59.1600 403.976   1
 -10  -2   1 905.108 567.873   1
   2  10  -1 407.138 466.775   1
 -10  -2   2 46027.6 3613.11   1
  -2 -10   2 43512.0 3499.17   1
  10   2  -2 45048.2 3416.08   1
   2  10  -2 47023.8 3613.67   1
  -2 -10   3 6300.38 1277.53   1
  10   2  -3 7473.13 1457.53   1
   2  10  -3 9389.08 1559.41   1
 -10  -2   3 9041.21 1566.53   1
 -10  -2   4 15332.0 2092.38   1
   2  10  -4 16697.4 2180.03   1
  10   2  -4 13102.4 1861.13   1
 -10  -2   5 27346.1 2787.88   1
  10   2  -5 26563.5 2654.58   1
   0   0   0    0.00    0.00   0


;
_shelx_hkl_checksum              70072
loop_
_space_group_symop_operation_xyz
'x, y, z'
'-y, x-y, z'
'-x+y, -x, z'
'-y, -x, -z+1/2'
'-x+y, y, -z+1/2'
'x, x-y, -z+1/2'
'-x, -y, -z'
'y, -x+y, -z'
'x-y, x, -z'
'y, x, z-1/2'
'x-y, -y, z-1/2'
'-x, -x+y, z-1/2'
loop_
_atom_site_label
_atom_site_type_symbol
_atom_site_fract_x
_atom_site_fract_y
_atom_site_fract_z
_atom_site_U_iso_or_equiv
_atom_site_adp_type
_atom_site_occupancy
_atom_site_site_symmetry_order
_atom_site_calc_flag
_atom_site_refinement_flags_posn
_atom_site_refinement_flags_adp
_atom_site_refinement_flags_occupancy
Mn2 Mn 0.6667 0.3333 0.2500 0.01150(11) Uani 1 6 d S T P
Fe1 Fe 1.0000 0.0000 0.0000 0.01090(11) Uani 1 6 d S T P
O1 O 0.88926(14) 0.34252(14) 0.16593(8) 0.0258(2) Uani 1 1 d . . .
O2 O 1.01604(12) 0.20795(13) 0.08174(7) 0.01883(18) Uani 1 1 d . . .
C1 C 0.87844(17) 0.21152(18) 0.11806(8) 0.0192(2) Uani 1 1 d . . .
H1 H 0.7606 0.1085 0.1082 0.041(6) Uiso 1 1 calc R . .
C2 C 1.3333 0.6667 0.1600(11) 0.203(7) Uani 1 3 d S T P
N1 N 1.2790(5) 0.5580(10) 0.2500 0.136(8) Uani 0.3333 2 d S T P
loop_
_atom_site_aniso_label
_atom_site_aniso_U_11
_atom_site_aniso_U_22
_atom_site_aniso_U_33
_atom_site_aniso_U_23
_atom_site_aniso_U_13
_atom_site_aniso_U_12
Mn2 0.01016(13) 0.01016(13) 0.01419(17) 0.000 0.000 0.00508(6)
Fe1 0.00964(13) 0.00964(13) 0.01341(17) 0.000 0.000 0.00482(6)
O1 0.0210(4) 0.0198(4) 0.0351(5) -0.0077(4) 0.0073(4) 0.0091(3)
O2 0.0165(4) 0.0170(4) 0.0239(4) -0.0035(3) 0.0017(3) 0.0091(3)
C1 0.0169(5) 0.0192(5) 0.0230(5) -0.0050(4) -0.0001(4) 0.0101(4)
C2 0.0278(13) 0.0278(13) 0.55(2) 0.000 0.000 0.0139(6)
N1 0.029(3) 0.013(3) 0.36(2) 0.000 -0.068(7) 0.0066(14)
loop_
_atom_type_symbol
_atom_type_description
_atom_type_scat_dispersion_real
_atom_type_scat_dispersion_imag
_atom_type_scat_source
C C 0.0030 0.0010 'International Tables Vol C Tables 4.2.6.8 and 6.1.1.4'
H H 0.0000 0.0000 'International Tables Vol C Tables 4.2.6.8 and 6.1.1.4'
N N 0.0050 0.0030 'International Tables Vol C Tables 4.2.6.8 and 6.1.1.4'
O O 0.0090 0.0050 'International Tables Vol C Tables 4.2.6.8 and 6.1.1.4'
Fe Fe 0.3380 0.7620 'International Tables Vol C Tables 4.2.6.8 and 6.1.1.4'
Mn Mn 0.3240 0.6570 'International Tables Vol C Tables 4.2.6.8 and 6.1.1.4'
loop_
_geom_angle_atom_site_label_1
_geom_angle_atom_site_label_2
_geom_angle_atom_site_label_3
_geom_angle
_geom_angle_site_symmetry_1
_geom_angle_site_symmetry_3
O1 Mn2 O1 93.28(4) 4_665 6
O1 Mn2 O1 84.21(5) 4_665 3_665
O1 Mn2 O1 176.49(5) 6 3_665
O1 Mn2 O1 93.28(4) 4_665 5_655
O1 Mn2 O1 93.28(4) 6 5_655
O1 Mn2 O1 89.32(6) 3_665 5_655
O1 Mn2 O1 176.49(5) 4_665 2_655
O1 Mn2 O1 89.32(6) 6 2_655
O1 Mn2 O1 93.28(4) 3_665 2_655
O1 Mn2 O1 84.21(5) 5_655 2_655
O1 Mn2 O1 89.32(6) 4_665 .
O1 Mn2 O1 84.21(5) 6 .
O1 Mn2 O1 93.28(4) 3_665 .
O1 Mn2 O1 176.49(5) 5_655 .
O1 Mn2 O1 93.28(4) 2_655 .
O2 Fe1 O2 91.21(4) 7_755 9_545
O2 Fe1 O2 88.79(4) 7_755 3_765
O2 Fe1 O2 180.00(6) 9_545 3_765
O2 Fe1 O2 88.79(4) 7_755 2_645
O2 Fe1 O2 88.79(4) 9_545 2_645
O2 Fe1 O2 91.21(4) 3_765 2_645
O2 Fe1 O2 91.21(4) 7_755 8_665
O2 Fe1 O2 91.21(4) 9_545 8_665
O2 Fe1 O2 88.79(4) 3_765 8_665
O2 Fe1 O2 180.00(7) 2_645 8_665
O2 Fe1 O2 180.0 7_755 .
O2 Fe1 O2 88.79(4) 9_545 .
O2 Fe1 O2 91.21(4) 3_765 .
O2 Fe1 O2 91.21(4) 2_645 .
O2 Fe1 O2 88.79(4) 8_665 .
C1 O1 Mn2 125.17(9) . .
C1 O2 Fe1 124.96(8) . .
O1 C1 O2 124.48(12) . .
N1 C2 N1 54.5(7) 2_755 .
N1 C2 N1 54.5(7) 2_755 3_775
N1 C2 N1 54.5(7) . 3_775
N1 N1 N1 60.0 2_755 3_775
N1 N1 C2 62.7(3) 2_755 4_775
N1 N1 C2 62.7(3) 3_775 4_775
N1 N1 C2 62.7(3) 2_755 .
N1 N1 C2 62.7(3) 3_775 .
C2 N1 C2 116.2(8) 4_775 .
loop_
_geom_bond_atom_site_label_1
_geom_bond_atom_site_label_2
_geom_bond_distance
_geom_bond_site_symmetry_2
Mn2 O1 2.1502(10) 4_665
Mn2 O1 2.1502(10) 6
Mn2 O1 2.1502(10) 3_665
Mn2 O1 2.1502(10) 5_655
Mn2 O1 2.1502(10) 2_655
Mn2 O1 2.1502(10) .
Fe1 O2 2.0101(9) 7_755
Fe1 O2 2.0101(9) 9_545
Fe1 O2 2.0101(9) 3_765
Fe1 O2 2.0101(9) 2_645
Fe1 O2 2.0101(9) 8_665
Fe1 O2 2.0102(9) .
O1 C1 1.2363(14) .
O2 C1 1.2593(14) .
C2 N1 1.473(14) 2_755
C2 N1 1.473(14) .
C2 N1 1.473(14) 3_775
N1 N1 1.349(13) 2_755
N1 N1 1.349(13) 3_775
N1 C2 1.473(14) 4_775
