#------------------------------------------------------------------------------
#$Date: 2019-11-23 02:09:49 +0200 (Sat, 23 Nov 2019) $
#$Revision: 231838 $
#$URL: file:///home/coder/svn-repositories/cod/cif/4/34/65/4346560.cif $
#------------------------------------------------------------------------------
#
# This file is available in the Crystallography Open Database (COD),
# http://www.crystallography.net/
#
# All data on this site have been placed in the public domain by the
# contributors.
#
data_4346560
loop_
_publ_author_name
'North, Andrea J.'
'Hayne, David J.'
'Schieber, Christine'
'Price, Katherine'
'White, Anthony R.'
'Crouch, Peter J.'
'Rigopoulos, Angela'
'O'Keefe, Graeme J'
'Tochon-Danguy, Henri'
'Scott, Andrew M.'
'White, Jonathan M.'
'Ackermann, Uwe'
'Donnelly, Paul S.'
_publ_section_title
;
 Toward hypoxia-selective rhenium and technetium tricarbonyl complexes.
;
_journal_issue                   19
_journal_name_full               'Inorganic chemistry'
_journal_page_first              9594
_journal_page_last               9610
_journal_paper_doi               10.1021/acs.inorgchem.5b01691
_journal_volume                  54
_journal_year                    2015
_chemical_formula_sum            'C15 H10 Br N4 O5 Re'
_chemical_formula_weight         592.38
_space_group_crystal_system      triclinic
_space_group_IT_number           2
_space_group_name_Hall           '-P 1'
_space_group_name_H-M_alt        'P -1'
_atom_sites_solution_hydrogens   geom
_audit_creation_method           SHELXL-2014/7
_cell_angle_alpha                98.322(18)
_cell_angle_beta                 98.896(19)
_cell_angle_gamma                101.067(19)
_cell_formula_units_Z            2
_cell_length_a                   6.7204(16)
_cell_length_b                   10.010(2)
_cell_length_c                   13.421(3)
_cell_measurement_temperature    130.0(2)
_cell_measurement_theta_max      72.6037
_cell_measurement_theta_min      4.5701
_cell_volume                     861.1(3)
_computing_cell_refinement
;
CrysAlis RED, Oxford Diffraction Ltd.,
Version 1.171.32.15 (release 10-01-2008 CrysAlis171 .NET)
(compiled Jan 10 2008,16:37:18)
;
_computing_data_collection
;
CrysAlis CCD, Oxford Diffraction Ltd.,
Version 1.171.32.15 (release 10-01-2008 CrysAlis171 .NET)
(compiled Jan 10 2008,16:37:18)
;
_computing_data_reduction
;
CrysAlis RED, Oxford Diffraction Ltd.,
Version 1.171.32.15 (release 10-01-2008 CrysAlis171 .NET)
(compiled Jan 10 2008,16:37:18)
;
_computing_structure_refinement  'SHELXL-2014/7 (Sheldrick, 2014)'
_diffrn_ambient_temperature      130.0(2)
_diffrn_measured_fraction_theta_full 0.983
_diffrn_measured_fraction_theta_max 0.983
_diffrn_measurement_device_type  'Oxford XCalibur CCD diffractometer'
_diffrn_measurement_method       'phi and omega scans'
_diffrn_radiation_monochromator  graphite
_diffrn_radiation_source         'Enhance (Cu) X-ray Source'
_diffrn_radiation_type           'Cu K\a'
_diffrn_radiation_wavelength     1.5418
_diffrn_reflns_av_R_equivalents  0.0494
_diffrn_reflns_av_unetI/netI     0.0599
_diffrn_reflns_Laue_measured_fraction_full 0.983
_diffrn_reflns_Laue_measured_fraction_max 0.983
_diffrn_reflns_limit_h_max       8
_diffrn_reflns_limit_h_min       -7
_diffrn_reflns_limit_k_max       9
_diffrn_reflns_limit_k_min       -11
_diffrn_reflns_limit_l_max       16
_diffrn_reflns_limit_l_min       -15
_diffrn_reflns_number            4564
_diffrn_reflns_point_group_measured_fraction_full 0.983
_diffrn_reflns_point_group_measured_fraction_max 0.983
_diffrn_reflns_theta_full        67.486
_diffrn_reflns_theta_max         67.486
_diffrn_reflns_theta_min         4.576
_exptl_absorpt_coefficient_mu    16.854
_exptl_absorpt_correction_T_max  1.00000
_exptl_absorpt_correction_T_min  0.61620
_exptl_absorpt_correction_type   multi-scan
_exptl_absorpt_process_details
;
CrysAlis RED, Oxford Diffraction Ltd.,
Version 1.171.32.15 (release 10-01-2008 CrysAlis171 .NET)
(compiled Jan 10 2008,16:37:18)
Empirical absorption correction using spherical harmonics,
 implemented in SCALE3 ABSPACK scaling algorithm.
;
_exptl_crystal_colour            colourless
_exptl_crystal_density_diffrn    2.285
_exptl_crystal_description       rod
_exptl_crystal_F_000             556
_refine_diff_density_max         2.471
_refine_diff_density_min         -1.849
_refine_diff_density_rms         0.237
_refine_ls_extinction_method     none
_refine_ls_goodness_of_fit_ref   1.037
_refine_ls_hydrogen_treatment    constr
_refine_ls_matrix_type           full
_refine_ls_number_parameters     235
_refine_ls_number_reflns         3022
_refine_ls_number_restraints     0
_refine_ls_restrained_S_all      1.037
_refine_ls_R_factor_all          0.0534
_refine_ls_R_factor_gt           0.0430
_refine_ls_shift/su_max          0.001
_refine_ls_shift/su_mean         0.000
_refine_ls_structure_factor_coef Fsqd
_refine_ls_weighting_details
'w=1/[\s^2^(Fo^2^)+(0.0695P)^2^] where P=(Fo^2^+2Fc^2^)/3'
_refine_ls_weighting_scheme      calc
_refine_ls_wR_factor_gt          0.1060
_refine_ls_wR_factor_ref         0.1123
_reflns_Friedel_coverage         0.000
_reflns_number_gt                2597
_reflns_number_total             3022
_reflns_threshold_expression     'I > 2\s(I)'
_cod_data_source_file            ic5b01691_si_002.cif
_cod_data_source_block           shelx
_cod_database_code               4346560
_shelx_shelxl_version_number     2014/7
_shelx_space_group_comment
;
The symmetry employed for this shelxl refinement is uniquely defined
by the following loop, which should always be used as a source of
symmetry information in preference to the above space-group names.
They are only intended as comments.
;
_shelx_res_file
;

    shelx.res created by SHELXL-2014/7

TITL JMWPD74 in P-1
CELL  1.54184   6.7204  10.0101  13.4206   98.322   98.896  101.067
ZERR     2.00   0.0016   0.0022   0.0029    0.018    0.019    0.019
LATT   1
SFAC  C    H    N    O    BR   RE
UNIT  30 20 8 10 2 2
MERG   2
OMIT     0.00 135.00
OMIT     3  -6  13
OMIT    -7   1  10
FMAP   2
PLAN   10
ACTA
BOND   $H
CONF
L.S.  12
WGHT    0.069500
FVAR       4.15195
C4    1    1.086584    1.382116    0.912116    11.00000    0.03529    0.01644 =
         0.02434    0.00411    0.01020   -0.00428
AFIX  43
H2    2    1.184234    1.465016    0.933219    11.00000   -1.20000
AFIX   0
C15   1    0.762156    0.903021    0.562229    11.00000    0.03809    0.01483 =
         0.02883    0.00568    0.01933   -0.00476
O3    4    0.690063    0.942506    0.492769    11.00000    0.05203    0.03754 =
         0.02931    0.01335    0.00775    0.00605
MOLE    1
C1    1    0.795690    1.131247    0.850321    11.00000    0.02154    0.01364 =
         0.02049    0.00149    0.00707    0.00124
C2    1    0.992925    1.132528    0.901165    11.00000    0.02110    0.01508 =
         0.02585    0.00205    0.00835    0.00333
AFIX  43
H8    2    1.029329    1.050780    0.914166    11.00000   -1.20000
AFIX   0
C3    1    1.132858    1.256857    0.931792    11.00000    0.01294    0.02178 =
         0.01924    0.00372    0.00255    0.00160
C5    1    0.888706    1.378193    0.859707    11.00000    0.02789    0.02003 =
         0.03706    0.00423    0.00086    0.00702
AFIX  43
H4    2    0.853615    1.459211    0.844051    11.00000   -1.20000
AFIX   0
C6    1    0.743892    1.253466    0.830839    11.00000    0.01896    0.02730 =
         0.03072    0.00422   -0.00006    0.00070
AFIX  43
H5    2    0.610861    1.252173    0.798103    11.00000   -1.20000
AFIX   0
C7    1    0.638389    1.002013    0.820778    11.00000    0.01868    0.02467 =
         0.02064    0.00141    0.00574    0.00615
AFIX  43
H7    2    0.512570    1.001249    0.841653    11.00000   -1.20000
AFIX   0
C8    1    0.511847    0.651016    0.706413    11.00000    0.01238    0.02018 =
         0.02576    0.00155    0.00257    0.00407
C9    1    0.357494    0.532261    0.703245    11.00000    0.01313    0.02154 =
         0.03368    0.00244    0.00517    0.00624
AFIX  43
H9    2    0.245050    0.538028    0.734978    11.00000   -1.20000
AFIX   0
C10   1    0.377313    0.409859    0.652874    11.00000    0.02836    0.01583 =
         0.02599   -0.00192    0.00115   -0.01142
AFIX  43
H10   2    0.275362    0.330756    0.648315    11.00000   -1.20000
AFIX   0
C11   1    0.549074    0.400699    0.607568    11.00000    0.02190    0.02191 =
         0.02232   -0.00279   -0.00079    0.00339
AFIX  43
H11   2    0.566244    0.316068    0.575347    11.00000   -1.20000
AFIX   0
C12   1    0.690142    0.519508    0.612146    11.00000    0.01727    0.01989 =
         0.02574    0.00299    0.00174    0.00439
AFIX  43
H12   2    0.803148    0.514719    0.580666    11.00000   -1.20000
AFIX   0
C13   1    1.097201    1.011881    0.705795    11.00000    0.03188    0.02323 =
         0.02276    0.00196    0.01435    0.00867
C14   1    1.062632    0.768905    0.589100    11.00000    0.02461    0.02252 =
         0.02904    0.01294    0.01233    0.00061
N1    3    0.660468    0.889558    0.768280    11.00000    0.01411    0.01188 =
         0.02610   -0.00128    0.00062   -0.00361
N2    3    0.498350    0.776458    0.756196    11.00000    0.01705    0.01616 =
         0.03691    0.00253    0.01364   -0.00317
AFIX  43
H2A   2    0.389152    0.785432    0.780126    11.00000   -1.20000
AFIX   0
N3    3    0.674123    0.646843    0.661142    11.00000    0.01926    0.01065 =
         0.02443    0.00074    0.00679   -0.00141
N4    3    1.334406    1.261373    0.993873    11.00000    0.02452    0.03009 =
         0.02629   -0.00222    0.00685   -0.00111
O1    4    1.223909    1.110501    0.720517    11.00000    0.03090    0.01504 =
         0.03706    0.00189    0.00819   -0.01081
O2    4    1.154772    0.723670    0.534304    11.00000    0.04317    0.03368 =
         0.03741   -0.00128    0.02596    0.00644
O4    4    1.389327    1.150373    0.993663    11.00000    0.02644    0.03396 =
         0.03752    0.00062    0.00178    0.00579
O5    4    1.439000    1.371717    1.042309    11.00000    0.02710    0.03096 =
         0.04780   -0.00036   -0.00479   -0.01034
BR1   5    1.060455    0.763478    0.843720    11.00000    0.01855    0.01958 =
         0.02248    0.00247    0.00468    0.00281
RE1   6    0.893910    0.840272    0.677637    11.00000    0.01738    0.01402 =
         0.01891    0.00038    0.00499    0.00033
HKLF    4

REM  JMWPD74 in P-1
REM R1 =  0.0430 for    2597 Fo > 4sig(Fo)  and  0.0534 for all    3022 data
REM    235 parameters refined using      0 restraints

END

WGHT      0.0692      0.0000

REM Highest difference peak  2.471,  deepest hole -1.849,  1-sigma level  0.237
Q1    1   0.9013  0.9201  0.6407  11.00000  0.05    2.47
Q2    1   0.8918  0.7594  0.7129  11.00000  0.05    2.21
Q3    1   1.0663  0.8377  0.8200  11.00000  0.05    1.73
Q4    1   0.9595  0.8904  0.7347  11.00000  0.05    1.27
Q5    1   0.7989  0.8837  0.7176  11.00000  0.05    1.23
Q6    1   1.0291  0.6780  0.8694  11.00000  0.05    1.20
Q7    1   0.8401  0.7673  0.6266  11.00000  0.05    1.16
Q8    1   0.7301  0.8973  0.6197  11.00000  0.05    1.14
Q9    1   1.0420  0.9334  0.7006  11.00000  0.05    1.08
Q10   1   0.9374  0.6633  0.6854  11.00000  0.05    1.07
;
_shelx_res_checksum              47117
_shelx_hkl_file
;
   0   0   2 199707. 2644.62   0
   0   0   3 140459. 2795.77   0
   0   0   4 49934.7 2039.93   0
   0   0  -5 122436. 2722.22   4
   0   0   5 122381. 3459.74   0
   0   0  -6 399334. 5330.64   4
   0   0   6 392489. 6828.21   0
   0   0   7 40897.1 2591.78   0
   0   0  -7 38730.0 2007.11   4
   0   0   8 100111. 4294.56   0
   0   0  -8 92723.1 3194.20   4
   0   0   9 11751.6 1860.01   0
   0   0  -9 12456.5 1529.05   4
   0   0  10 2284.30 1943.94   0
   0   0  11 80776.9 4663.75   7
   0   0  11 74737.3 4079.31   9
   0   0  11 76816.1 4345.81  11
   0   0  12 78397.1 4212.51  11
   0   0  12 91150.1 5039.80   7
   0   0  13 48873.8 3314.87  11
   0   0  13 43641.5 3680.20   7
   0   0  14 18790.7 2530.70   7
   0   0  15 2072.14 1530.50   7
   0   0  16-161.248 1091.66   7
   0  -1  16 23430.8 1972.55   7
   0  -1  15 4723.41 1641.82   7
   0  -1  14 1774.61 1759.49  11
   0  -1  14 1118.75 1595.27   7
   0  -1  13 53710.3 4082.31   7
   0  -1  13 64964.4 3802.68  11
   0  -1  12 14633.1 2567.51   7
   0  -1  12 22038.4 2808.85  11
   0  -1  11 118124. 5577.11   7
   0  -1  11 101442. 4765.03  11
   0  -1  10 85348.4 4697.76   0
   0  -1   9 4679.35 1587.01   0
   0   1  -8 34405.2 2092.59   4
   0  -1   8 31251.9 2617.95   0
   0   1  -7 245821. 4728.17   4
   0  -1   7 251646. 6254.65   0
   0  -1   6 1389.06 1053.47   0
   0   1  -6 1592.91 931.513   4
   0   1  -5 292292. 4264.19   4
   0  -1   5 304716. 5616.33   0
   0  -1   4 87362.5 2800.49   0
   0  -1   3 11729.2 1208.42   0
   0  -1   2 324051. 4060.18   0
   0   1  -1 297966. 3562.68   1
   0   1   0 127886. 1848.59   1
   0   1   1 501495. 3884.05   1
   0   1   2 22298.0 1108.12   0
   0   1   3 39621.6 1686.18   0
   0   1   4 7291.87 1109.09   0
   0  -1  -5 16506.9 1260.81   4
   0   1   5 13880.8 1494.24   0
   0   1   6 203812. 5086.45   0
   0  -1  -6 207932. 4047.95   4
   0   1   7 154626. 4887.63   0
   0  -1  -7 156054. 3915.08   4
   0   1   8 12587.5 1774.94   0
   0  -1  -8 16120.1 1621.64   4
   0  -1  -9 41742.7 2531.41   4
   0   1   9 42729.9 3143.09   0
   0   1  10 42874.0 3262.79   0
   0   1  11 3383.35 1898.78   9
   0   1  11 4024.37 2726.02  11
   0   1  12 131055. 5391.94   9
   0   1  12 138054. 5113.51  11
   0   1  13 20908.4 2749.57   7
   0   1  14 16442.8 2381.29   7
   0   1  15 12234.5 1850.81   7
   0  -2  16 24199.2 2022.33   7
   0  -2  15 29404.8 2829.47   7
   0  -2  14 5435.79 2013.23   7
   0  -2  14 5992.91 1892.07  11
   0  -2  13 3685.90 1973.98  11
   0  -2  13 868.108 1973.91   7
   0  -2  12 150890. 6570.16   7
   0  -2  12 164732. 5797.70  11
   0  -2  11 240.836 2185.70   7
   0  -2  11 1209.73 2236.09  11
   0  -2  10 172371. 6729.83   0
   0  -2   9 55732.8 3720.08   0
   0  -2   8 5508.38 1463.35   0
   0   2  -8 4623.12 1111.22   4
   0   2  -7 15963.9 1541.65   4
   0  -2   7 15693.4 1963.76   0
   0  -2   6 168511. 5036.87   0
   0   2  -6 166602. 3807.32   4
   0  -2   5 98179.8 3590.49   0
   0   2  -5 99387.3 2811.45   4
   0  -2   4 133594. 3886.17   0
   0   2  -3 1264.67 1180.06   1
   0   2  -2 60583.4 2485.40   1
   0   2  -1 76772.0 2388.63   1
   0   2   0 270188. 3906.71   1
   0   2   1 352465. 4416.83   1
   0   2   2 207522. 3673.85   1
   0  -2  -3 2434.11 794.906   4
   0   2   3 3637.93 959.065   0
   0  -2  -4 10846.3 1139.98   4
   0   2   4 10409.2 1320.52   0
   0  -2  -5 114543. 3064.12   4
   0   2   5 116245. 3743.31   0
   0   2   6 46672.2 2687.55   0
   0  -2  -6 47374.3 2235.38   4
   0   2   7 163095. 5220.89   0
   0  -2  -7 162411. 4242.82   4
   0  -2  -8 90092.3 3465.75   4
   0   2   8 92756.8 4332.76   0
   0  -2  -9 11167.2 1601.29   4
   0   2   9 11056.0 1872.50   0
   0   2  10 19154.9 2645.75   9
   0   2  11 61087.8 3983.23   9
   0   2  12 889.629 1645.72   9
   0  -2 -12 331.094 1656.23  10
   0   2  13 108824. 5015.29   7
   0   2  14 1990.02 1440.11   7
   0   2  15 12394.8 1735.90   7
   0  -3  16 3814.06 1355.80   7
   0  -3  15 30991.6 2752.19   7
   0  -3  14 17498.3 2698.45   7
   0  -3  14 21529.0 2329.00  11
   0  -3  13 26078.1 2728.04  11
   0  -3  13 19222.8 2812.13   7
   0  -3  12 20971.1 2568.49  11
   0  -3  12 25312.6 3119.34   7
   0  -3  11 126303. 4983.41  11
   0  -3  11 136049. 6226.52   7
   0   3 -10 7268.82 2631.92   1
   0   3  -9 168056. 6442.93   1
   0   3  -8 7223.91 1402.79   4
   0   3  -8 8021.80 1867.06   1
   0   3  -7 1642.01 999.498   4
   0   3  -7 1879.23 1251.94   1
   0   3  -6 35704.9 2742.17   1
   0   3  -6 35601.5 2111.98   4
   0   3  -5 170481. 3997.13   4
   0   3  -5 173262. 5301.65   1
   0   3  -4 129286. 3357.22   4
   0   3  -4 131495. 4420.96   1
   0   3  -3 268007. 5884.94   1
   0   3  -2 16741.2 1765.56   1
   0   3  -1 4364.99 1139.87   1
   0   3   0 260280. 4745.33   1
   0   3   1 118332. 3221.35   1
   0   3   2 287608. 5142.06   1
   0   3   3 99012.7 3278.30   1
   0   3   4 8926.01 1330.68   0
   0   3   5 3937.44 1135.36   0
   0   3   6 180892. 5445.44   0
   0   3   7 8333.00 1557.44   0
   0   3   8 130566. 5298.84   0
   0   3   9 15591.1 2222.58   0
   0   3  10 21290.9 2690.85   9
   0   3  11 29610.6 3093.25   9
   0  -3 -12 60368.4 3371.61  10
   0   3  12 49434.8 3579.67   9
   0   3  13 9377.91 2011.01   9
   0   3  13 14359.6 2195.14   7
   0  -3 -13 10401.3 1628.52  10
   0   3  14 53031.4 3116.37   7
   0  -4  16 26923.9 2005.20   7
   0  -4  15-283.329 1553.61   7
   0  -4  14 12911.8 2345.01   7
   0  -4  14 19415.2 2059.26  11
   0  -4  13 15621.1 2612.36   7
   0  -4  13 12656.2 2206.26  11
   0  -4  12 27599.9 3252.53   7
   0  -4  12 22670.2 2542.94  11
   0  -4  11 54891.6 4243.87   7
   0  -4  11 55944.0 3414.75  11
   0   4 -10 87284.1 4944.92   1
   0   4  -9 40038.6 3497.99   1
   0   4  -8 35628.5 3127.31   1
   0   4  -8 36673.0 2422.37   4
   0   4  -7 22218.5 1887.35   4
   0   4  -7 22275.0 2531.52   1
   0   4  -6 7616.83 1684.29   1
   0   4  -6 8153.97 1343.14   4
   0   4  -5 290804. 5659.89   4
   0   4  -5 280247. 7066.14   1
   0   4  -4 82351.9 3857.86   1
   0   4  -3 183574. 5366.36   1
   0   4  -2 85897.9 3636.72   1
   0   4  -1 47592.7 2640.37   1
   0   4   0 35515.3 2246.55   1
   0   4   1 266279. 5637.02   1
   0   4   2 6471.25 1268.82   1
   0   4   3 367185. 7041.76   1
   0   4   4 62374.4 3220.27   0
   0   4   5 4058.46 1369.69   0
   0   4   6 36214.0 2851.39   0
   0   4   7 131728. 5345.48   0
   0   4   8 10931.2 1837.66   0
   0   4   9 168019. 6271.81   9
   0   4  10 6711.80 2131.79   9
   0   4  11 4062.07 1948.34   9
   0   4  12 31474.9 2993.33   9
   0  -4 -12 39534.8 2777.96  10
   0  -4 -13 38071.3 2370.14  10
   0   4  13 38431.5 2897.41   7
   0   4  14 16627.4 1767.55   7
   0  -5  15 42661.5 2890.61   7
   0  -5  14 2510.11 1662.16   7
   0  -5  14 2513.67 1392.69  11
   0  -5  13 11408.7 2406.88   7
   0  -5  13 18221.2 2069.68  11
   0  -5  12 35054.0 2761.50  11
   0  -5  12 30572.9 3322.65   7
   0  -5  11 12545.9 2054.57  11
   0  -5  11 8341.56 2456.54   7
   0  -5  10 107757. 4185.35  11
   0  -5  10 94763.8 5443.37   7
   0   5  -9 74838.3 4589.61   1
   0   5  -8 38706.7 2515.19   4
   0   5  -8 38611.9 3361.01   1
   0   5  -7 106220. 3908.38   4
   0   5  -7 103242. 4963.44   1
   0   5  -6 39444.8 3214.14   1
   0   5  -6 46122.5 2624.03   4
   0   5  -5 2571.77 1399.61   1
   0   5  -5 1861.97 1145.03   4
   0   5  -4 468444. 9503.63   1
   0   5  -3 46976.0 3124.77   1
   0   5  -2 105487. 4392.58   1
   0   5  -1 24711.3 2364.35   1
   0   5   0 37382.8 2639.95   1
   0   5   1 60316.1 3248.85   1
   0   5   2 303655. 7093.66   1
   0   5   3 5244.70 1399.93   1
   0   5   4 124274. 4920.41   0
   0   5   5 18069.2 2134.97   0
   0   5   6 18620.9 2272.19   0
   0   5   7 94518.4 4879.72   0
   0   5   8 102874. 5049.32   9
   0   5   9 37793.3 3467.17   9
   0   5  10 48698.2 3799.26   9
   0   5  11 6104.34 2034.81   9
   0  -5 -12 1231.34 1120.63  10
   0   5  12 1372.78 1504.81   9
   0   5  13 34205.7 2391.67   7
   0  -5 -13 28831.0 1896.62  10
   0  -6  15 27956.4 2214.56   7
   0  -6  14 37238.1 2945.34   7
   0  -6  13 1491.94 1708.16   7
   0  -6  13 651.665 1479.44  11
   0  -6  12 10816.8 2337.31   7
   0  -6  11 57023.7 4339.76   7
   0  -6  10 7991.53 2898.84  13
   0  -6  10 6375.26 2309.20   7
   0  -6   9 131498. 6274.97   7
   0   6  -8 17140.0 2840.08   1
   0   6  -7 13286.9 2391.35   1
   0   6  -7 13599.1 1713.37   4
   0   6  -6 70284.5 4331.87   1
   0   6  -6 68420.2 3333.07   4
   0   6  -5 99351.1 4921.00   1
   0   6  -5 102601. 3992.39   4
   0   6  -4 8963.80 2153.64   1
   0   6  -3 292130. 8079.30   1
   0   6  -2 1000.02 1586.22   1
   0   6  -1 42616.9 3219.98   1
   0   6   0 25146.5 2584.68   1
   0   6   1 39878.8 3055.29   1
   0   6   2 139438. 5461.26   1
   0   6   3 219074. 6882.42   1
   0   6   4 2396.59 1484.92   0
   0   6   5 67843.1 4261.58   0
   0   6   6 30968.5 3079.91   9
   0  -6  -6 31175.2 2532.85  14
   0   6   7 1022.07 2114.71   9
   0  -6  -7 3899.51 1524.19  14
   0   6   8 113643. 5423.88   9
   0  -6  -8 129765. 4531.53  14
   0   6   9 30526.7 3169.54   9
   0   6  10 38368.8 3312.80   9
   0   6  11 16863.0 2261.56   9
   0  -6 -12 431.265 1044.54  10
   0  -7  14 41926.8 2826.35   7
   0  -7  13 18803.1 2448.69   7
   0  -7  12 1310.76 1807.94   7
   0  -7  11 3447.45 2122.61  13
   0  -7  11 613.839 1890.60   7
   0  -7  10 54272.9 4220.60  13
   0  -7  10 53709.9 4211.91   7
   0  -7   9 610.748 2088.91   7
   0  -7   8 109855. 5800.02   7
   0   7  -7 8564.02 1662.03   4
   0  -7   7 9480.81 1960.72   6
   0  -7   7 5177.25 2201.71   7
   0   7  -6 14490.7 1880.10   4
   0   7  -6 16160.8 2672.78   1
   0   7  -5 81118.2 3802.27   4
   0   7  -5 75668.0 4729.04   1
   0   7  -4 120105. 5753.28   1
   0   7  -3 59588.2 4234.60   1
   0   7  -2 137821. 6033.71   1
   0   7  -1 5367.90 1976.61   1
   0   7   0 24728.8 2801.05   1
   0   7   1 74152.3 4495.35   1
   0   7   2 24277.4 2759.24   1
   0   7   3 97919.1 5214.79   1
   0   7   3 97295.9 5165.95   0
   0  -7  -4 100424. 4463.83  14
   0  -7  -5 5236.66 1516.59  14
   0  -7  -6 47206.0 3091.03  14
   0   7   6 39750.1 3342.17   9
   0   7   7 20471.2 2707.17   9
   0  -7  -7 21661.8 2222.88  14
   0  -7  -8 1182.51 1341.89  14
   0   7   8 1841.13 1759.27   9
   0   7   9 107556. 4871.23   9
   0   7  10 2041.52 1571.33   9
   0  -7 -11 14953.0 1650.32  10
   0  -8  14-185.918 1039.64   7
   0  -8  13 50592.7 3085.88   7
   0  -8  12 3768.62 1757.98   7
   0  -8  11 932.111 1768.31  13
   0  -8  11 1997.31 1784.09   7
   0  -8  10 18946.0 2867.14   7
   0  -8  10 19174.1 2846.31  13
   0  -8   9 66533.0 4640.48   7
   0  -8   8 28077.4 3346.05   7
   0  -8   8 30409.6 2358.31   6
   0  -8   7 117430. 6152.62   7
   0  -8   7 128257. 4645.69   6
   0  -8   6 7502.55 1802.65   6
   0   8  -6 9490.05 1794.32   4
   0  -8   6 5299.31 2299.80   7
   0  -8   5 2064.53 1562.91   6
   0  -8   5 3619.73 2448.22   7
   0   8  -5 2080.99 1546.93   4
   0  -8   4 59727.1 4868.07   7
   0  -8   4 55764.6 3352.32   6
   0  -8   3 51764.6 3360.36   6
   0  -8   2 87178.0 4257.34   6
   0  -8   1 57942.8 3613.81   6
   0  -8   1 76905.0 4121.76  14
   0  -8   0 48159.3 3435.27  14
   0  -8   0 46999.3 3192.32   6
   0  -8  -1 3773.08 2076.47   6
   0  -8  -1 3800.55 1765.97  14
   0  -8  -2 51994.0 3488.84  14
   0  -8  -3 983.998 1378.66  14
   0  -8  -4 104958. 4749.70  14
   0  -8  -5 24487.1 2620.22  14
   0  -8  -6 12000.3 1933.31  14
   0  -8  -7 16673.7 1994.39  14
   0   8   8 38866.8 2987.52   9
   0  -8  -8 35984.2 2340.97  14
   0   8   9 886.690 1673.21   9
   0  -9  13 1858.60 1011.69   7
   0  -9  12 28629.0 2462.69   7
   0  -9  11 8467.66 1811.04  13
   0  -9  11 9138.47 2102.24   7
   0  -9  10 1481.65 1739.77  13
   0  -9  10 1988.59 1762.75   7
   0  -9   9 48434.7 3892.20   7
   0  -9   9 47520.8 2520.37   6
   0  -9   9 52813.9 4026.68  13
   0  -9   8 34694.3 3590.61   7
   0  -9   8 36094.0 2405.62   6
   0  -9   7 53519.6 4465.34   7
   0  -9   7 54404.1 3053.14   6
   0  -9   6 49371.3 4323.69   7
   0  -9   6 53707.6 3160.42   6
   0   9  -6 55376.3 3316.95   4
   0  -9   5 1851.57 1452.72   6
   0   9  -5 3476.61 2019.98   4
   0  -9   5 1992.60 2430.97   7
   0  -9   4 8907.74 1834.53   6
   0  -9   3 110374. 4638.56   6
   0  -9   3 128915. 4963.02  14
   0  -9   2 5411.91 1793.29  14
   0  -9   2 5832.80 1712.81   6
   0  -9   1 88349.4 4295.13   6
   0  -9   1 98358.9 4619.48  14
   0  -9   0 27494.6 2785.62  14
   0  -9   0 20269.6 2389.74   6
   0  -9  -1 2692.52 1482.71  14
   0  -9  -1 845.115 1803.24   6
   0  -9  -2 16381.6 2275.08  14
   0  -9  -3 72810.8 4016.16  14
   0  -9  -4 1625.14 1590.86  14
   0  -9  -5 84124.4 3992.51  14
   0  -9  -6 14908.4 1878.45  14
   0  -9  -7 1678.16 1024.36  14
   0  -9  -8 12110.9 1387.10  14
   0 -10  11 5660.30 1213.25  13
   0 -10  10 9528.92 1769.11  13
   0 -10   9 447.112 1087.27   6
   0 -10   9-427.821 1578.26  13
   0 -10   8 68979.2 2908.04   6
   0 -10   8 60213.7 4045.78  13
   0 -10   7 26756.8 2120.35   6
   0 -10   6 47496.1 2873.03   6
   0 -10   5 35173.6 2592.36   6
   0 -10   4 19612.7 2202.67   6
   0 -10   3 12817.5 1977.09   6
   0 -10   3 17420.4 2010.09  14
   0 -10   2 99468.5 4233.91   6
   0 -10   2 112110. 4464.85  14
   0 -10   1 5483.90 1647.92  14
   0 -10   1 5464.09 1657.25   6
   0 -10   0 64115.5 3400.05   6
   0 -10   0 77856.0 3896.99  14
   0 -10  -1 10629.8 1796.48   6
   0 -10  -1 11193.8 1958.72  14
   0 -10  -2 5719.22 1662.53  14
   0 -10  -3 31215.0 2594.07  14
   0 -10  -4 66367.8 3289.30  14
   0 -10  -5 9937.93 1558.20  14
   0 -10  -6 65079.3 2635.01  14
   0 -11   9 14349.4 1708.87  13
   0 -11   8 1808.46 1560.32  13
   0 -11   8 1237.38 836.422   6
   0 -11   7 47126.2 3244.71  13
   0 -11   7 63553.2 2538.51   6
   0 -11   6 11087.2 1430.52   6
   0 -11   5 32276.1 2162.71   6
   0 -11   4 15847.8 1764.96   6
   0 -11   3 14723.0 1753.31   6
   0 -11   3 15367.2 1553.30  14
   0 -11   2 22545.7 2065.09   6
   0 -11   2 25132.5 1997.55  14
   0 -11   1 80792.3 3254.87   6
   0 -11   1 88229.5 3428.19  14
   0 -11   0 1754.17 1197.68  14
   0 -11   0 3109.46 1216.22   6
   0 -11  -1 49777.7 2683.15  14
   0 -11  -2 11881.2 1545.27  14
   0 -11  -3 1178.26 1081.15  14
   0 -11  -4 54374.5 2205.88  14
   0 -12   5 990.804 803.044   6
   0 -12   5 360.208 1150.94  13
   0 -12   4 11167.4 1522.15  13
   0 -12   4 14308.4 1217.02   6
   0 -12   3 29714.7 1619.59   6
   0 -12   2 9010.98 1025.23   6
   1 -12   3 5264.56 1119.98   6
   1 -12   4 21872.7 1346.16   8
   1 -12   4 22471.7 2013.91  13
   1 -12   4 25742.3 1674.44   6
   1 -12   5 10742.5 1020.97   8
   1 -12   5 11291.4 1196.67   6
   1 -12   5 10336.5 1524.93  13
   1 -12   6 23437.3 1306.51   8
   1 -12   6 24898.5 1810.23  13
   1 -11  -5 2841.62 943.005  14
   1 -11  -4 28295.6 2001.80  14
   1 -11  -3 11929.2 1572.36  14
   1 -11  -2 370.564 1098.26  14
   1 -11  -1 68184.1 3034.22  14
   1 -11   0 28467.3 2133.45  14
   1 -11   0 26911.1 2226.20   6
   1 -11   1 71092.8 3010.50  14
   1 -11   1 56836.1 3025.20   6
   1 -11   2 17407.1 1996.58   6
   1 -11   2 17321.7 1715.49   8
   1 -11   3 5049.73 1434.78   6
   1 -11   4 2199.58 1239.33   6
   1 -11   5 79957.1 3252.20   6
   1 -11   5 73500.5 4121.03  13
   1 -11   6 10528.2 1419.70   6
   1 -11   6 10881.9 2025.86  13
   1 -11   7 49212.7 3265.06  13
   1 -11   7 55954.5 2349.98   6
   1 -11   8-442.330 1023.14   6
   1 -11   8 13023.4 1897.77  13
   1 -11   9 419.410 1098.55  13
   1 -10  -7 2569.90 1075.85  14
   1 -10  -6 42977.3 2568.37  14
   1 -10  -5 33513.5 2513.38  14
   1 -10  -4 19992.9 2236.43  14
   1 -10  -3 20501.3 2303.58  14
   1 -10  -2 17557.1 2206.59  14
   1 -10  -2 17555.9 2134.87   6
   1 -10  -1-473.933 1345.42  14
   1 -10  -1 703.132 1452.01   6
   1 -10   0 100743. 4343.90   6
   1 -10   0 116403. 4565.40  14
   1 -10   1 11764.3 2029.68   6
   1 -10   1 13229.9 1853.36  14
   1 -10   2 27338.0 2426.39   6
   1 -10   3 12217.6 1873.26   6
   1 -10   4 35563.7 2740.43   6
   1 -10   5 793.033 1324.64   6
   1 -10   6 70897.4 3292.09   6
   1 -10   7 784.409 1867.24  13
   1 -10   7 2034.71 1185.91   6
   1 -10   8 47673.2 3678.02  13
   1 -10   8 54717.9 2440.57   6
   1 -10   9 8801.32 2007.70  13
   1 -10   9 6674.76 1981.15   7
   1 -10  10 264.757 1304.73  13
   1 -10  11 14302.0 1592.38  13
   1  -9  -9 1845.44 1134.05  10
   1  -9  -8 6236.31 1360.96  14
   1  -9  -7 36892.8 2594.32  14
   1  -9  -6 1927.29 1394.97  14
   1  -9  -5 109434. 4665.93  14
   1  -9  -4 12352.4 2082.52  14
   1  -9  -3 832.314 1515.18  14
   1  -9  -2 49144.3 3183.56   6
   1  -9  -2 52325.8 3436.91  14
   1  -9  -1 26083.3 2619.27  14
   1  -9  -1 21852.6 2461.08   6
   1  -9   0 11384.9 1933.62  14
   1  -9   0 8633.86 1844.04   6
   1  -9   1 89980.2 4242.50   6
   1  -9   1 114393. 4647.47  14
   1  -9   2 3762.96 1576.09   6
   1  -9   3 25248.5 2462.36   6
   1  -9   4 20366.1 2246.51   6
   1  -9   5 12443.9 1806.71   6
   1  -9   5 8796.72 2548.45   7
   1  -9   6 31967.7 3724.64   7
   1  -9   6 41212.2 2837.30   6
   1  -9   7 75688.2 4999.80   7
   1  -9   7 71698.4 3335.26   6
   1  -9   8 22567.4 3061.05   7
   1  -9   8 23121.4 3080.28  13
   1  -9   9 38980.6 3673.03  13
   1  -9   9 31857.7 3294.99   7
   1  -9  10 19166.3 2634.20   7
   1  -9  10 20960.9 2676.80  13
   1  -9  11 550.561 1592.21   7
   1  -9  11 1234.67 1499.29  13
   1  -9  12 28541.7 2024.79  13
   1  -9  12 35756.6 2563.87   7
   1  -8 -10 32038.4 1907.89  14
   1  -8  -9 19850.6 1857.28  14
   1  -8  -8 1143.23 1194.57  14
   1  -8  -7 14216.5 2051.18  14
   1  -8  -6 69372.8 3829.74  14
   1  -8  -5 4393.08 1737.32  14
   1  -8  -4 172097. 6033.19  14
   1  -8  -3 12107.8 2017.82  14
   1  -8  -2 31891.5 2807.25  14
   1  -8  -2 33431.5 2784.69   6
   1  -8  -1 29402.2 2737.76  14
   1  -8  -1 32179.4 2792.45   6
  -1   8   0 54956.4 4132.83   1
  -1   8  -1 66559.9 4686.59   1
  -1   8  -2 170106. 7136.77   1
  -1   8  -3 5223.71 2592.80   1
   1  -8   4 43083.5 4239.57   7
   1  -8   4 33669.4 2799.24   6
   1  -8   5 46574.7 3079.93   6
   1  -8   5 50142.3 4413.20   7
   1  -8   6 24390.5 3353.29   7
   1  -8   6 16666.7 1994.15   6
   1  -8   7 89247.4 3770.87   6
   1  -8   7 83097.0 5336.22   7
   1  -8   8 57870.7 4486.48   7
   1  -8   8 58839.1 4675.28  13
   1  -8   9 16816.1 2940.57   7
   1  -8   9 17664.0 3009.46  13
   1  -8  10 26352.2 3088.41  13
   1  -8  10 26660.3 2989.09   7
   1  -8  11 11171.3 2296.00   7
   1  -8  11 10700.0 2157.98  13
   1  -8  12 2156.74 1437.67  13
   1  -8  12 1404.05 1617.36   7
   1  -8  13 49980.0 2950.88   7
   1  -7 -12 2940.13 1042.26  10
   1  -7 -11 70821.4 3341.75  10
   1  -7 -10 1699.01 1228.89  14
  -1   7  10 381.753 1722.39   9
  -1   7   9 40753.3 3416.69   9
   1  -7  -9 44593.9 2786.98  14
  -1   7   8 5839.96 2256.91   9
   1  -7  -8 6397.77 1648.70  14
   1  -7  -7 951.757 1311.75  14
   1  -7  -6 49862.4 3296.42  14
   1  -7  -5 165431. 5760.96  14
   1  -7  -4 48818.2 3291.38  14
  -1   7   4 50574.6 3708.56   0
  -1   7   3 80806.0 4450.85   1
  -1   7   2 4122.83 1703.14   1
  -1   7   1 15690.9 2284.90   1
  -1   7   0 92813.9 4827.80   1
  -1   7  -1 71950.5 4389.43   1
  -1   7  -2 95366.6 5068.73   1
  -1   7  -3 82864.0 4860.28   1
  -1   7  -4 6549.73 2010.30   1
  -1   7  -5 16838.1 2550.62   1
  -1   7  -6 97212.6 5400.18   1
   1  -7   7 10586.7 2451.03   7
   1  -7   8 143243. 6510.34   7
   1  -7   8 163879. 7411.07  13
   1  -7   9 17619.0 2905.96   7
   1  -7   9 24474.5 3497.35  13
   1  -7  10 16157.9 2763.64   7
   1  -7  10 16389.2 2831.54  13
   1  -7  11 27694.3 3059.32  13
   1  -7  11 24936.4 2997.22   7
   1  -7  12 25805.5 2892.80   7
   1  -7  12 25526.9 2541.25  13
   1  -7  13 1836.58 1568.79   7
   1  -7  14 62238.6 3116.29   7
   1  -6 -12 6559.25 1472.13  10
  -1   6  11 28931.8 2903.20   9
  -1   6  10 70769.6 4390.35   9
   1  -6 -10 75465.9 3524.60  14
  -1   6   9 16085.2 2814.07   9
   1  -6  -9 14102.5 1924.35  14
  -1   6   8 68104.7 4370.81   9
   1  -6  -8 67854.5 3558.52  14
   1  -6  -7 14195.6 1995.15  14
  -1   6   7 12034.6 2516.44   9
  -1   6   6-246.768 1946.95   0
   1  -6  -6-267.166 1464.35  14
  -1   6   5 127397. 5243.89   0
  -1   6   4 134296. 5174.06   1
  -1   6   4 133064. 5298.98   0
  -1   6   3 82881.3 4050.07   1
  -1   6   2 98834.3 4384.55   1
  -1   6   1 1855.53 1371.75   1
  -1   6   0 2592.87 1431.70   1
  -1   6  -1 245161. 7173.47   1
  -1   6  -2 29571.6 2709.93   1
  -1   6  -3 135302. 5583.92   1
  -1   6  -4 82524.7 4597.51   1
  -1   6  -5 12767.1 2373.56   1
  -1   6  -6 35509.8 3296.76   1
  -1   6  -7 210321. 7479.54   1
   1  -6   9 119188. 6214.97  13
   1  -6   9 101765. 5569.00   7
   1  -6  10 6775.23 2153.68   7
   1  -6  10 5468.48 2648.25  13
   1  -6  11 7039.36 2218.49   7
   1  -6  11 11366.9 2450.28  13
   1  -6  12 18068.9 2730.77   7
   1  -6  13 33228.4 3061.13   7
   1  -6  14 9083.40 1826.85   7
   1  -6  15 22642.4 1871.09   7
   1  -5 -13 22963.6 2073.77  10
  -1   5  13 22338.2 2118.90   7
   1  -5 -12 19848.6 2230.38  10
  -1   5  11 8144.66 2293.44   9
  -1   5  10 63461.8 4368.33   9
   1  -5  -9 91773.0 4006.25  14
  -1   5   9 92659.3 5029.54   9
  -1   5   8 9293.52 2339.62   9
   1  -5  -8 13865.6 1896.32  14
  -1   5   7 72214.0 3986.78   0
  -1   5   6 34737.3 2777.19   0
  -1   5   5-605.816 1115.75   0
  -1   5   4 235633. 6126.51   1
  -1   5   3 134299. 4540.65   1
  -1   5   2 82573.0 3585.99   1
  -1   5   1 41851.1 2694.37   1
  -1   5   0 43639.7 2793.08   1
  -1   5  -1 4265.57 1368.91   1
  -1   5  -2 323817. 7714.09   1
  -1   5  -3-644.848 1380.19   1
  -1   5  -4 226857. 6996.66   1
  -1   5  -5 9990.86 2000.18   1
  -1   5  -6 900.908 1494.83   1
  -1   5  -7 51949.4 3785.02   1
  -1   5  -8 150881. 6420.46   1
  -1   5  -9 14430.7 2588.43   1
   1  -5  10 53923.4 4306.83  13
   1  -5  10 56494.6 3213.76  11
   1  -5  10 53730.2 4270.07   7
   1  -5  11 712.944 1820.13  11
   1  -5  11 210.757 2050.40   7
   1  -5  12 324.324 1806.11   7
   1  -5  13 20062.5 2666.84   7
   1  -5  14 41123.9 3057.21   7
   1  -5  15 28776.8 1704.73  12
   1  -5  15 25696.9 2262.22   7
   1  -4 -14 50140.6 2540.94  10
  -1   4  14 55421.7 2764.68   7
   1  -4 -13 2601.90 1392.29  10
  -1   4  13 2140.52 1564.83   7
  -1   4  12 7151.49 2169.45   9
   1  -4 -12 10158.2 1945.15  10
  -1   4  11 26867.6 3180.00   9
  -1   4  10 15778.3 2807.74   9
  -1   4   9 200323. 7042.61   9
   1  -4  -9 194827. 5545.67  14
  -1   4   8 62286.9 3659.71   0
  -1   4   7 30683.4 2562.98   0
  -1   4   6 22127.6 2074.21   0
  -1   4   5 32569.5 2323.17   0
  -1   4   4 28199.5 2049.71   1
  -1   4   3 288404. 5732.88   1
  -1   4   2 12136.5 1434.42   1
  -1   4   1 55382.9 2587.04   1
  -1   4   0 10968.3 1520.00   1
  -1   4  -1 21498.8 1980.70   1
  -1   4  -2 115159. 4249.40   1
  -1   4  -3 192631. 5734.69   1
  -1   4  -4 2565.80 1451.14   1
  -1   4  -5 189618. 6255.28   1
  -1   4  -6 37141.2 3141.83   1
  -1   4  -7 9286.90 1900.50   1
  -1   4  -8 62915.9 4205.21   1
  -1   4  -9 98672.8 5471.30   1
   1  -4  10 32049.3 3404.96   7
   1  -4  10 28133.7 2809.87  11
   1  -4  11 24507.5 3144.57   7
   1  -4  11 24257.4 2571.39  11
   1  -4  12 7794.10 2414.96   7
   1  -4  12 9186.04 2036.78  11
   1  -4  13 3895.43 1922.51   7
   1  -4  14 62193.3 3874.17   7
   1  -4  15 7033.58 1653.48   7
   1  -3 -14 46271.1 2665.92  10
  -1   3  14 53766.6 3144.37   7
   1  -3 -13 25889.7 2442.80  10
  -1   3  13 29121.4 2791.21   7
  -1   3  12 1263.65 1727.32   9
   1  -3 -12 1412.05 1458.39  10
  -1   3  11 22057.9 2903.10   9
  -1   3  10 86443.6 4825.01   9
   1  -3  -9 108.618 1162.96   4
  -1   3   8 285261. 7139.53   0
   1  -3  -8 258941. 6087.83   4
   1  -3  -7 11801.2 1534.27   4
  -1   3   7 11208.2 1544.63   0
   1  -3  -6 58580.4 2644.60   4
  -1   3   6 61728.5 3014.46   0
  -1   3   5 48511.4 2476.81   0
   1  -3  -5 49242.7 2287.72   4
   1  -3  -4 33296.7 1765.89   4
  -1   3   4 36166.8 2033.49   0
  -1   3   4 36696.9 2033.27   1
  -1   3   3 74640.1 2588.32   1
   1  -3  -3 77246.5 2360.38   4
  -1   3   2 486328. 6064.21   1
   1  -3  -2 488925. 5252.66   4
  -1   3   1 1493.71 854.458   1
  -1   3   0 17963.3 1518.61   1
  -1   3  -1 4646.01 1249.53   1
  -1   3  -2 132291. 4264.35   1
  -1   3  -3 256834. 6234.57   1
  -1   3  -4 306258. 7046.52   1
   1  -3   5 40066.4 2913.89   0
   1  -3   6 60002.3 3729.73   0
   1  -3   7 13974.0 2183.71   0
   1  -3   8 4728.49 1862.06   0
   1  -3   9 94641.4 5445.55   0
   1  -3  10 24747.9 2951.13   0
  -1   3 -10 30212.8 3275.04   1
   1  -3  11 62826.0 4497.15   7
   1  -3  11 53947.0 3443.78  11
   1  -3  12 36735.8 3025.95  11
   1  -3  12 37904.9 3678.15   7
   1  -3  13 7388.83 2240.75   7
   1  -3  14 3808.58 1944.82   7
   1  -3  15 56430.9 3282.38   7
  -1   2  15 32616.1 2364.13   7
   1  -2 -14-298.738 1326.58  10
  -1   2  14 2362.58 1577.30   7
  -1   2  13 62712.2 3979.53   7
   1  -2 -13 58596.2 3561.53  10
  -1   2  12 8872.20 2242.58   9
   1  -2 -12 11771.6 2094.77  10
  -1   2  12 14319.3 2400.69   7
   1  -2 -11 1699.58 1618.67  10
  -1   2  11 1072.48 1731.93   9
   1  -2 -11 552.974 1709.70   4
  -1   2  10 22250.0 2977.22   9
   1  -2 -10 23363.7 2314.72   4
   1  -2  -9 182589. 5307.84   4
   1  -2  -8 17958.3 1802.74   4
  -1   2   8 16440.8 1932.85   0
  -1   2   7 236385. 5740.25   0
   1  -2  -7 224885. 5057.30   4
   1  -2  -6 7274.86 1206.08   4
  -1   2   6 7878.83 1279.66   0
  -1   2   5 26166.3 1759.46   0
   1  -2  -5 24467.2 1568.44   4
  -1   2   4 74159.4 2486.01   0
   1  -2  -4 71518.4 2289.18   4
  -1   2   3 284282. 4096.28   1
   1  -2  -3 289686. 3909.78   4
  -1   2   2 108217. 2350.89   1
  -1   2   1 322527. 3942.87   1
  -1   2   0 6327.87 1032.50   1
  -1   2  -1 72001.0 2689.35   1
   1  -2   2 185933. 4446.95   0
   1  -2   2 183992. 3267.70   2
   1  -2   3 20784.7 1240.34   2
   1  -2   3 24324.1 2064.45   0
   1  -2   4 964512. 9113.42   3
   1  -2   4 933881. 11004.2   0
   1  -2   5 159380. 4952.40   0
   1  -2   6 117136. 4691.75   0
   1  -2   7 147256. 5567.13   0
   1  -2   8 20080.4 2500.28   0
   1  -2   9 397.915 1634.49   0
   1  -2  10 177340. 7260.19   0
   1  -2  11 5968.05 2073.90   7
   1  -2  11 4905.64 2183.43  11
   1  -2  12 36652.5 3643.50   7
   1  -2  12 45138.3 3324.17  11
   1  -2  13 12442.8 2471.41   7
   1  -2  14 10087.8 2100.50   7
   1  -2  15 7054.55 1726.00   7
  -1   1  15 8319.11 1841.74   7
  -1   1  14 39724.0 3230.07   7
   1  -1 -14 38754.1 2680.06  10
   1  -1 -13 6686.80 1701.49  10
  -1   1  13 7154.15 2111.00   7
  -1   1  13 6583.99 2225.91  11
  -1   1  12 76515.0 4623.08   7
   1  -1 -12 82516.6 4374.06  10
  -1   1  12 67645.2 3966.61  11
  -1   1  11 26785.1 3063.07  11
   1  -1 -11 27837.4 2562.33   4
   1  -1 -11 32261.8 2862.11  10
   1  -1 -10 8633.78 1589.44   4
   1  -1  -9 77246.7 3460.79   4
  -1   1   8 232871. 5938.34   0
   1  -1  -8 209876. 5131.09   4
  -1   1   7 96450.0 3548.23   0
   1  -1  -7 89377.4 3115.54   4
   1  -1  -6 156435. 3739.42   4
  -1   1   6 170881. 4198.83   0
  -1   1   5 3331.11 914.323   0
   1  -1  -5 3592.85 928.463   4
  -1   1   4 5033.30 851.680   0
   1  -1  -4 3930.32 903.701   4
  -1   1   3 738818. 5642.87   0
  -1   1   2 10786.0 692.265   1
  -1   1   1 238037. 2273.11   1
   1  -1   0 425941. 4394.34   2
  -1   1   0 386609. 4021.98   1
   1  -1   1 7091.26 1002.35   0
   1  -1   1 7134.77 919.643   2
   1  -1   2 203905. 3172.80   2
   1  -1   2 190289. 3732.04   0
   1  -1   3 996736. 9259.93   0
   1  -1   3 999999. 6938.87   2
   1  -1   4 9559.57 1510.31   0
   1  -1   4 9367.86 1239.64   3
   1  -1   5 502451. 6897.16   3
   1  -1   5 516774. 8108.08   0
   1  -1   6 22691.8 2198.03   0
   1  -1   7 21763.6 2368.39   0
   1  -1   8 23117.4 2523.51   0
   1  -1   9 101693. 5167.13   0
   1  -1  10 23784.6 2867.35   0
   1  -1  11 89514.1 4972.74   7
   1  -1  11 81786.9 4339.62  11
   1  -1  12 1551.74 2019.67  11
   1  -1  12 1079.77 2081.87   7
   1  -1  13 16449.1 2704.44   7
   1  -1  14 16472.6 2507.67   7
   1  -1  15 9859.60 1862.03   7
   1  -1  15 12238.1 1559.18  12
  -1   0  16 7203.83 1416.79   7
  -1   0  15 12267.3 1984.38   7
  -1   0  14 18996.7 2624.80   7
  -1   0  14 24681.7 2503.48  11
  -1   0  13 95601.6 4449.67  11
  -1   0  13 83628.9 4860.81   7
  -1   0  12 10563.6 2351.53  11
   1   0 -12 9475.47 1978.19  10
  -1   0  12 13616.6 2498.90   7
  -1   0  11 97293.4 4934.33   7
  -1   0  11 91795.6 4552.15  11
   1   0 -11 87622.5 4008.74   4
   1   0 -11 98604.7 4686.64  10
   1   0 -10 36767.7 2602.75   4
   1   0  -9 1024.95 1123.59   4
  -1   0   8 231942. 5824.86   0
   1   0  -8 209290. 5102.05   4
   1   0  -7 115217. 3525.31   4
  -1   0   7 119655. 3824.28   0
  -1   0   6 170019. 4019.28   0
   1   0  -6 164148. 3793.29   4
  -1   0   5 468900. 5808.53   0
   1   0  -5 465798. 5725.01   4
   1   0  -4 86416.0 2039.77   2
  -1   0   4 84827.4 2142.71   0
   1   0  -3 3217.31 790.252   2
  -1   0   3 2938.90 588.152   0
   1   0  -2 321165. 3596.51   2
   1   0  -1 76471.5 1898.11   2
   1   0   0 287768. 3694.35   2
   1   0   1 118130. 2613.40   2
   1   0   1 115677. 2176.69   0
   1   0   2 1020.07 772.069   0
   1   0   3 2306.65 949.670   0
   1   0   4 315192. 4411.91   3
   1   0   4 307485. 5518.62   0
   1   0   5 18400.2 1580.28   3
   1   0   5 17684.2 1732.05   0
   1   0   6 110716. 3662.54   3
   1   0   6 119850. 4294.96   0
   1   0   7 3577.00 1327.42   0
   1   0   8 21701.9 2437.70   0
   1   0   9 42124.3 3359.84   0
   1   0  10 86708.5 5018.85   0
   1   0  11 19206.6 2647.00  11
   1   0  11 25803.4 3047.44   7
   1   0  12 78954.9 4796.61   7
   1   0  13 2607.84 1716.98   7
   1   0  14 7527.96 2045.72   7
   1   0  15 16437.6 1488.92  12
   1   0  15 30623.3 2550.46   7
  -1  -1  16 5573.51 1473.37   7
  -1  -1  15 22529.4 2606.09   7
  -1  -1  15 24420.6 2178.12  11
  -1  -1  14 4532.64 1975.11   7
  -1  -1  14 4722.96 1927.80  11
  -1  -1  13 92248.0 4431.65  11
  -1  -1  13 81400.7 4925.26   7
  -1  -1  12 93053.5 5229.13   7
  -1  -1  12 89644.4 4558.10  11
  -1  -1  11 35820.3 4100.47  11
   1   1 -11 43357.3 2916.08   4
   1   1 -10 48788.0 2995.14   4
   1   1  -9 84188.1 3585.10   4
   1   1  -8 6488.43 1309.22   4
  -1  -1   7 450269. 7553.19   0
   1   1  -7 431603. 6869.47   4
  -1  -1   6 47613.1 2364.81   0
   1   1  -6 42469.8 2172.22   4
   1   1  -5 275063. 4739.54   4
  -1  -1   5 267630. 4723.50   0
   1   1  -4 17565.5 1059.02   2
  -1  -1   4 16328.8 1268.53   0
   1   1  -4 16293.1 1394.05   4
   1   1  -3 51327.7 1898.76   1
   1   1  -3 57948.0 1745.11   2
   1   1  -2 185261. 2624.84   1
   1   1  -2 181577. 3126.69   2
   1   1  -1 244279. 2568.62   1
   1   1   0 966.837 535.520   1
   1   1   1 348953. 3943.76   0
   1   1   2 34310.3 1609.34   0
   1   1   3 28771.7 1725.06   0
   1   1   4 114605. 2590.92   3
   1   1   4 112715. 3498.98   0
   1   1   5 244243. 4383.96   3
   1   1   5 237936. 5511.57   0
   1   1   6 57086.2 2620.46   3
   1   1   6 51600.6 2985.24   0
   1   1   7 137908. 5050.06   0
   1   1   8 1043.10 1285.45   0
   1   1   9 1771.71 1554.45   0
   1   1  10 95414.6 4442.35   9
   1   1  11 32704.9 2913.25   9
   1   1  12 29904.5 2824.01   9
   1   1  12 29245.1 3148.26   7
   1   1  13 31806.5 3099.51   7
   1   1  14 1508.35 1611.38   7
   1   1  15 2649.45 1234.26   7
  -1  -2  16 2518.06 1289.35   7
  -1  -2  15 11458.0 1981.11   7
  -1  -2  15 12135.6 1865.28  11
  -1  -2  14 35125.0 3327.58   7
  -1  -2  14 39304.9 2959.07  11
  -1  -2  13 2638.17 1936.35   7
  -1  -2  13 4948.01 2132.73  11
  -1  -2  12 126391. 5178.47  11
  -1  -2  12 121736. 5875.18   7
   1   2 -11 34587.0 2670.22   4
  -1  -2  11 36902.8 3585.62   7
   1   2 -10 15942.2 1869.52   4
   1   2  -9 16485.4 1851.30   4
   1   2  -8 99075.3 3757.49   4
   1   2  -7 20029.1 1900.45   4
   1   2  -7 21807.5 2190.11   1
  -1  -2   7 26008.4 2153.76   0
  -1  -2   6 282517. 5833.51   0
   1   2  -6 268635. 5372.59   4
   1   2  -5 15240.4 1657.78   1
   1   2  -5 13653.0 1549.77   4
   1   2  -4 84396.6 2998.60   1
   1   2  -4 84832.7 2885.70   4
   1   2  -3 2748.26 1204.85   4
   1   2  -3 2850.50 1070.77   1
   1   2  -2 62934.7 2204.61   1
   1   2  -1 294986. 4154.19   1
   1   2   0 580876. 5861.67   1
   1   2   1 2148.27 830.720   1
   1   2   2 95843.0 2830.68   0
   1   2   3 48620.4 2328.16   0
   1   2   4 643.526 969.232   0
   1   2   4 243.255 643.521   3
   1   2   5 166062. 4912.48   0
   1   2   6 109212. 4330.53   0
   1   2   7 130457. 5124.81   0
   1   2   8 47291.4 3339.87   0
   1   2   9 1028.60 1921.24   0
   1   2  10 6195.68 1944.75   9
   1   2  11 100633. 4670.00   9
   1   2  12 2701.89 1677.16   9
   1   2  13 46194.9 3422.09   7
   1   2  13 46308.2 3019.35   9
   1   2  14 11025.7 1881.48   7
  -1  -3  16 5335.84 1381.83   7
  -1  -3  15 573.568 1479.11   7
  -1  -3  15 1113.52 1404.61  11
  -1  -3  14 10196.1 1991.99  11
  -1  -3  14 8225.56 2107.14   7
  -1  -3  13 29959.8 3411.67   7
  -1  -3  13 35327.4 2892.16  11
  -1  -3  12 1197.89 2185.73   7
  -1  -3  12 909.689 1864.14  11
  -1  -3  11 135189. 6095.91   7
   1   3 -11 112354. 4367.99   4
   1   3 -10 6308.45 1390.89   4
   1   3  -9 10337.5 1705.17   4
   1   3  -8 74715.7 3383.46   4
   1   3  -7 77373.5 3744.84   1
   1   3  -7 65714.3 3087.62   4
   1   3  -6 61192.6 3219.62   1
   1   3  -6 48522.6 2634.78   4
   1   3  -5 279909. 5666.85   4
   1   3  -5 303894. 6346.32   1
   1   3  -4 14089.4 1703.63   1
   1   3  -4 14326.2 1613.71   4
   1   3  -3 90029.6 3310.61   1
   1   3  -2 73608.6 2860.79   1
   1   3  -1 14904.2 1491.30   1
   1   3   0 527250. 6998.19   1
   1   3   1 397399. 6288.19   1
   1   3   2 87075.4 2075.40   3
   1   3   2 86002.3 3162.70   1
   1   3   2 90503.1 3229.35   0
   1   3   3 19050.7 1765.37   0
   1   3   4 48138.6 2776.87   0
   1   3   5 1885.06 1123.13   0
   1   3   6 285527. 7472.87   0
   1   3   7 38560.4 3062.83   0
   1   3   8 89499.9 4763.42   0
   1   3   9 22246.1 2695.05   9
   1   3  10 19426.5 2524.98   9
   1   3  11 12057.9 2089.48   9
   1   3  12 101641. 4441.76   9
   1   3  13 1472.02 1523.43   7
   1   3  13 2295.81 1334.93   9
   1   3  14 50437.0 2736.98   7
  -1  -4  16 36891.3 2152.49   7
  -1  -4  15 5042.91 1659.14   7
  -1  -4  15 9120.98 1504.03  11
  -1  -4  14 718.660 1561.24   7
  -1  -4  14 1222.98 1573.28  11
  -1  -4  13 11725.2 2368.40   7
  -1  -4  13 14576.6 2233.33  11
  -1  -4  12 79102.7 3901.77  11
  -1  -4  12 69451.3 4578.42   7
   1   4 -11 18762.1 2137.99   4
  -1  -4  11 18029.8 2883.74   7
   1   4 -10 193643. 5661.13   4
   1   4  -9 332.778 1057.56   4
   1   4  -8 3650.12 1281.59   4
   1   4  -7 138371. 5240.43   1
   1   4  -7 126906. 4332.54   4
   1   4  -6 104467. 4340.26   1
   1   4  -6 92936.0 3686.16   4
   1   4  -5 236659. 6194.43   1
   1   4  -5 217824. 5390.43   4
   1   4  -4 190109. 5486.52   1
   1   4  -3 935.567 1249.77   1
   1   4  -2 96014.2 3784.35   1
   1   4  -1 238748. 5699.62   1
   1   4   0 11372.0 1589.24   1
   1   4   1 375093. 4675.66   3
   1   4   1 352058. 6975.70   1
   1   4   2 51535.4 2875.70   0
   1   4   2 53493.1 2960.27   1
   1   4   3 2030.25 1277.00   0
   1   4   4 59302.0 3418.15   0
   1   4   5 42292.1 3140.22   0
   1   4   6 6463.01 1556.24   0
   1   4   7 201690. 7028.82   0
   1   4   8 5622.67 1747.65   9
   1   4   9 30125.6 2997.36   9
   1   4  10 29249.5 3085.84   9
   1   4  11 21300.7 2489.15   9
   1   4  12 39063.2 2879.72   9
   1   4  13 49772.8 2945.60   7
  -1  -5  15 28371.0 2321.04   7
  -1  -5  15 31775.1 1959.51  11
  -1  -5  14 12166.8 1728.14  11
  -1  -5  14 10384.0 2141.13   7
  -1  -5  13 2489.30 1676.03   7
  -1  -5  13 2105.10 1502.50  11
  -1  -5  12 60014.9 3320.34  11
  -1  -5  12 57395.7 4143.33   7
  -1  -5  11 35178.0 3575.32   7
  -1  -5  11 34929.4 2725.45  11
   1   5 -10 56068.1 3223.05   4
  -1  -5  10 50536.0 4166.96   7
   1   5  -9 105444. 4250.58   4
   1   5  -8 4997.81 1317.37   4
   1   5  -7 2710.88 1184.75   4
   1   5  -6 125577. 4495.61   4
   1   5  -6 133367. 5300.41   1
   1   5  -5 43636.4 3210.46   1
   1   5  -5 38902.1 2614.44   4
   1   5  -4 151801. 5459.94   1
   1   5  -3 116263. 4747.52   1
   1   5  -2 620.685 1480.22   1
   1   5  -1 24573.8 2485.48   1
   1   5   0 199577. 5985.13   1
   1   5   1 446.908 1291.41   1
   1   5   2 345037. 8149.07   1
   1   5   2 347405. 8158.67   0
   1   5   3 14830.7 2045.58   0
   1   5   4 10323.3 2024.90   0
   1   5   5 50783.4 3711.39   0
   1   5   6 101793. 5277.31   0
   1   5   7 26527.9 2890.09   9
   1   5   8 132956. 5663.57   9
   1   5   9 1134.63 1743.45   9
   1   5  10 23830.2 2733.65   9
   1   5  11 31103.3 2746.21   9
   1   5  12 5419.20 1624.63   9
  -1  -6  15 10315.3 1644.47   7
  -1  -6  14 28903.8 1884.69  11
  -1  -6  14 29680.0 2663.02   7
  -1  -6  13 17268.2 1857.42  11
  -1  -6  13 17592.0 2378.89   7
  -1  -6  12 2157.59 1876.19   7
  -1  -6  11 84132.4 4974.96   7
  -1  -6  10 16233.4 2802.88   7
   1   6 -10 21733.8 2097.81   4
  -1  -6   9 61205.7 4482.38   7
   1   6  -9 71967.5 3586.19   4
   1   6  -8 26829.1 2387.02   4
   1   6  -7 8055.85 1569.29   4
   1   6  -6 3157.49 1252.89   4
   1   6  -6 5018.49 2355.37   1
   1   6  -5 181104. 6550.34   1
   1   6  -5 189606. 5781.03   4
   1   6  -4 5019.85 2153.91   1
   1   6  -3 205939. 6829.98   1
   1   6  -2 62642.1 4033.34   1
   1   6  -1 2381.32 1589.20   1
   1   6   0 42440.1 3305.46   1
   1   6   1 177770. 6493.12   1
   1   6   2 23774.9 2616.39   0
   1   6   2 27119.0 2853.34   1
   1   6   3 144762. 6101.77   0
   1   6   4 4319.00 1985.41   0
  -1  -6  -5 763.965 1646.05  14
   1   6   5 1910.16 1997.60   9
  -1  -6  -6 32308.6 2504.62  14
   1   6   6 37763.0 3309.52   9
   1   6   7 31421.0 3023.20   9
   1   6   8 29378.5 2987.96   9
   1   6   9 68759.6 4102.68   9
   1   6  10 2618.10 1679.17   9
   1   6  11 8129.75 1804.65   9
  -1  -7  14 5820.90 1565.24   7
  -1  -7  13 18018.8 2336.77   7
  -1  -7  12 30034.9 3052.84   7
  -1  -7  11 2706.33 1912.64   7
  -1  -7  10 96600.2 5413.30   7
  -1  -7   9 4049.77 1723.96   6
   1   7  -9 2947.32 1598.50   4
  -1  -7   9 1837.32 2184.72   7
  -1  -7   8 78053.4 3704.69   6
   1   7  -8 78767.3 3844.12   4
   1   7  -7 17963.9 2098.71   4
  -1  -7   7 17884.3 3171.20   7
  -1  -7   7 17460.1 2333.61   6
   1   7  -6 42230.1 3011.60   4
  -1  -7   6 46655.8 4055.92   7
  -1  -7   6 37622.6 2934.56   6
   1   7  -5 72948.9 4822.73   1
   1   7  -5 68990.2 3796.34   4
   1   7  -4 235259. 7800.72   1
   1   7  -3 14017.5 2878.78   1
   1   7  -2 50801.0 3865.60   1
   1   7  -1 15687.6 2536.14   1
   1   7   0-742.301 2179.40   1
   1   7   1 76474.8 4701.44   1
   1   7   1 71005.6 4524.79   0
  -1  -7  -2 22783.2 2578.35  14
  -1  -7  -3 79092.1 4177.47  14
  -1  -7  -4 29465.5 2723.10  14
   1   7   4 32635.7 3093.21   9
   1   7   5-215.686 2100.19   9
  -1  -7  -5 1625.71 1382.95  14
   1   7   6 1531.18 1756.69   9
  -1  -7  -6 888.348 1351.53  14
   1   7   7 66762.1 4115.84   9
   1   7   8 15137.8 2401.07   9
   1   7   9 62897.4 3571.94   9
   1   7  10 23704.1 2293.11   9
  -1  -8  13 12154.9 1786.07   7
  -1  -8  12 22700.8 2516.83   7
  -1  -8  11 30674.6 3103.84   7
  -1  -8  10 12716.0 2304.78  13
  -1  -8  10 8344.76 2249.49   7
  -1  -8   9 77620.5 3520.35   6
  -1  -8   9 65934.4 4713.24   7
  -1  -8   8 1432.16 1987.45   7
   1   8  -8 1359.25 1936.83   4
  -1  -8   8 262.304 1386.12   6
   1   8  -7 41688.7 2922.08   4
  -1  -8   7 40465.0 2884.03   6
  -1  -8   7 36563.5 3903.31   7
  -1  -8   6 37376.7 2938.03   6
  -1  -8   6 34473.7 3906.41   7
   1   8  -6 38311.1 2983.82   4
  -1  -8   5 3156.40 1663.25   6
   1   8  -5 6841.83 1691.75   4
  -1  -8   5 6575.23 2525.84   7
  -1  -8   4 33337.2 2897.32   6
  -1  -8   3 172144. 5883.37   6
  -1  -8   2 26308.1 2666.57   6
  -1  -8   1 66410.2 3804.10   6
  -1  -8   0 14328.0 2285.46  14
  -1  -8   0 14470.8 2294.27   6
  -1  -8  -1 7074.59 1865.82  14
  -1  -8  -2 121801. 5242.71  14
  -1  -8  -3 42159.0 3197.53  14
  -1  -8  -4 43128.0 3121.35  14
   1   8   5 30928.4 2886.43   9
  -1  -8  -5 28233.6 2465.28  14
   1   8   6 24070.9 2604.71   9
  -1  -8  -6 21380.8 2052.47  14
   1   8   7 6599.87 1760.62   9
  -1  -8  -7 7833.37 1488.94  14
   1   8   8 77776.4 3575.35   9
  -1  -9  12 3389.00 1541.12   7
  -1  -9  11 12004.9 2064.27   7
  -1  -9  10 17654.7 2291.20  13
  -1  -9  10 24923.9 1839.58   6
  -1  -9  10 20743.2 2681.50   7
  -1  -9   9 36616.0 2288.23   6
  -1  -9   9 30228.1 3056.22   7
  -1  -9   8 40696.1 3730.10   7
  -1  -9   8 46464.2 2808.61   6
  -1  -9   7 14238.5 2820.27   7
  -1  -9   7 11730.5 1799.89   6
  -1  -9   6 6258.12 1685.04   6
  -1  -9   5 51856.7 3305.01   6
   1   9  -5 51526.8 3354.87   4
  -1  -9   4 40978.5 3031.10   6
   1   9  -4 45601.6 3275.28   4
  -1  -9   3 112811. 4764.91   6
  -1  -9   2 64587.9 3939.61  14
  -1  -9   2 58078.7 3534.42   6
  -1  -9   1 4080.01 1749.95   6
  -1  -9   1 5797.10 1901.38  14
  -1  -9   0 27317.6 2772.15  14
  -1  -9   0 24220.1 2471.22   6
  -1  -9  -1 43170.7 3267.05  14
  -1  -9  -2 1524.70 1654.44  14
  -1  -9  -3 111202. 4655.44  14
  -1  -9  -4 13872.5 1878.08  14
  -1  -9  -5 30533.5 2314.16  14
  -1  -9  -6 13353.7 1565.11  14
  -1 -10  10-63.2776 1000.06   6
  -1 -10  10 20269.5 1993.88  13
  -1 -10   9 11786.3 1319.38   6
  -1 -10   9 7177.15 1816.45  13
  -1 -10   8 62053.0 2730.84   6
  -1 -10   7 27676.4 2115.65   6
  -1 -10   6 614.675 1214.34   6
  -1 -10   5 13793.7 1730.83  14
  -1 -10   5 13705.4 1801.38   6
  -1 -10   4 66944.2 3375.91  14
  -1 -10   4 59502.9 3274.03   6
  -1 -10   3 12158.8 1875.16  14
  -1 -10   3 10791.5 1796.80   6
  -1 -10   2 120750. 4445.25   6
  -1 -10   2 142885. 5054.79  14
  -1 -10   1 13745.2 1890.08   6
  -1 -10   1 12780.4 1939.04  14
  -1 -10   0 9002.86 1806.71  14
  -1 -10  -1 29348.4 2564.85  14
  -1 -10  -2 23097.6 2189.40  14
  -1 -10  -3 13553.1 1791.31  14
  -1 -10  -4 86652.4 3229.08  14
  -1 -10  -5 978.553 916.488  14
  -1 -11   8 1667.26 831.707   6
  -1 -11   8 706.926 1210.71  13
  -1 -11   7 46778.1 2107.15   6
  -1 -11   6 28843.4 1886.11   6
  -1 -11   5 1566.31 993.546   6
  -1 -11   4 16924.9 1677.21   6
  -1 -11   4 14079.4 1444.37  14
  -1 -11   3 66397.3 2826.59   6
  -1 -11   3 72347.7 2866.93  14
  -1 -11   2 1557.77 1027.15  14
  -1 -11   2 2674.24 1096.58   6
  -1 -11   1 89781.4 3258.95  14
  -1 -11   1 87354.6 2828.05   6
  -1 -11   0 3767.66 1132.27  14
  -1 -11  -1 4900.12 1176.69  14
  -1 -11  -2 9788.91 1219.78  14
   2 -12   2 19841.8 1428.29   8
   2 -12   3 6307.43 1027.73   8
   2 -12   4 35855.9 1763.35   8
   2 -12   5 20974.8 1365.19   8
   2 -12   6 5677.42 854.252   8
   2 -11  -5-477.027 866.208  14
   2 -11  -4 2009.93 1117.81  14
   2 -11  -3 17653.0 1711.14  14
   2 -11  -2 24267.0 1962.13  14
   2 -11  -1 47678.7 2517.50  14
   2 -11   0 58854.6 2792.79   8
   2 -11   1 1005.26 1179.80   6
   2 -11   1 1987.75 1232.96   8
   2 -11   2 12336.7 1719.65   6
   2 -11   2 13638.4 1715.21   8
   2 -11   3 26509.9 2115.89   8
   2 -11   3 28415.4 2265.46   6
   2 -11   4 10471.5 1610.12   6
   2 -11   4 8684.24 2030.80  13
   2 -11   5 52594.5 2547.97   6
   2 -11   5 47610.6 3245.72  13
   2 -11   6 7988.72 1268.21   6
   2 -11   6 5141.38 1712.06  13
   2 -11   7 2342.49 1403.76  13
   2 -11   8 3413.18 1452.33  13
   2 -11   9 13379.6 1460.03  13
   2 -11   9 11930.8 985.831   8
   2 -10  -7 27428.6 2084.33  14
   2 -10  -6 10169.3 1662.02  14
   2 -10  -5 37869.8 2631.18  14
   2 -10  -4-4.38996 1250.44  14
   2 -10  -3 1858.60 1345.07  14
   2 -10  -2 86052.3 3912.98  14
   2 -10  -1 25660.9 2281.95   8
   2 -10  -1 25576.8 2472.99   6
   2 -10  -1 29780.2 2491.65  14
   2 -10   0 70106.6 3546.50   8
   2 -10   0 64009.9 3595.21   6
   2 -10   1 40625.3 2829.53   8
   2 -10   1 42874.6 3058.29   6
   2 -10   2 1802.49 1501.85   6
   2 -10   3 20728.1 2258.24   6
   2 -10   3 18488.6 2828.35  13
   2 -10   4 41834.9 3794.17  13
   2 -10   4 48457.1 3012.99   6
   2 -10   5 1120.23 1300.26   6
   2 -10   5 646.811 2036.85  13
   2 -10   6 59691.3 4157.85  13
   2 -10   6 62710.6 2938.23   6
   2 -10   7 3916.14 1827.98  13
   2 -10   8 17675.6 2304.15  13
   2 -10   9 15203.2 2108.98  13
   2 -10  10 16368.6 1870.96  13
   2 -10  11 8556.71 1211.45  13
   2  -9  -9 5679.24 1295.96  14
   2  -9  -9 8765.87 1496.47  10
   2  -9  -8 4804.49 1398.98  14
   2  -9  -7 95241.9 4097.97  14
   2  -9  -6 17432.2 2224.51  14
   2  -9  -5 31939.4 2834.68  14
   2  -9  -4 14065.2 2176.23  14
   2  -9  -3 7194.96 1723.69  14
   2  -9  -2 3742.95 1741.14   6
   2  -9  -2 3547.11 1495.25   8
   2  -9  -2 2835.94 1547.59  14
   2  -9  -1 129314. 5102.08   6
   2  -9  -1 144198. 5030.61   8
   2  -9   0 273.661 1520.58   6
   2  -9   1 92009.9 4362.59   6
   2  -9   2 19524.1 2279.29   6
   2  -9   3 1090.88 1543.02   6
   2  -9   4 21892.9 2407.91   6
   2  -9   5 120883. 4584.57   6
   2  -9   5 120764. 6180.43   7
   2  -9   5 117259. 6215.13  13
   2  -9   6 11501.1 2635.48   7
   2  -9   6 13817.3 1883.58   6
   2  -9   6 10721.0 2660.39  13
   2  -9   7 72349.0 4762.80   7
   2  -9   7 64971.4 4666.02  13
   2  -9   8 1340.89 2137.37   7
   2  -9   8 152.866 1954.23  13
   2  -9   9 2221.66 1651.58  13
   2  -9   9 3589.61 1957.63   7
   2  -9  10 31722.9 2818.57  13
   2  -9  10 36612.1 3005.45   7
   2  -9  11 25743.9 2261.50   7
   2  -9  11 23358.3 2291.79  13
   2  -9  12 16718.0 1532.02  13
   2  -8 -10 6694.47 1620.10  10
   2  -8 -10 6523.31 1382.41  14
   2  -8  -9 25353.6 2308.99  14
   2  -8  -8 18164.7 2205.85  14
   2  -8  -7 10187.1 1917.51  14
   2  -8  -6 58426.8 3617.60  14
   2  -8  -5 11135.3 2035.39  14
   2  -8  -4 64207.0 3847.41  14
   2  -8  -3 19880.0 2401.94  14
   2  -8  -3 19223.0 2187.16   6
   2  -8  -2 11919.8 2039.19   6
   2  -8  -2 12946.2 1794.50   8
   2  -8  -2 11290.8 2097.95  14
   2  -8  -1 32313.2 2706.28  14
   2  -8  -1 29093.4 2623.10   6
   2  -8   0 110791. 4611.67   6
   2  -8   1 3127.71 1636.74   6
  -2   8  -1 4179.34 2573.79   1
   2  -8   2 74174.2 3951.95   6
   2  -8   3 18008.6 2373.47   6
   2  -8   4 3950.86 1979.70   6
   2  -8   5 74890.0 5030.59   7
   2  -8   5 66877.7 3616.68   6
   2  -8   6 70672.9 4877.80   7
   2  -8   6 68518.1 5048.40  13
   2  -8   7 31730.7 3448.22   7
   2  -8   7 27417.9 3545.17  13
   2  -8   8 72721.9 4737.78   7
   2  -8   8 65601.8 4805.30  13
   2  -8   9 387.134 2108.86   7
   2  -8   9 1763.75 2009.07  13
   2  -8  10-1117.90 2005.75   7
   2  -8  10 2200.72 1962.48  13
   2  -8  11 64212.2 3752.80   7
   2  -8  11 62378.9 3708.36  13
   2  -8  12 9267.72 1718.16   7
   2  -8  12 9936.40 1660.39  13
   2  -7 -12 259.001 1098.08  10
   2  -7 -11 97027.1 4105.82  10
   2  -7 -11 88795.7 3341.26  14
   2  -7 -10 15323.9 1938.99  14
   2  -7 -10 17711.9 2283.58  10
   2  -7  -9 33250.6 2803.92  14
   2  -7  -8 9297.20 1889.96  14
   2  -7  -7 40548.4 3119.93  14
   2  -7  -6 33901.7 2978.22  14
   2  -7  -5 163736. 5831.20  14
  -2   7   4 2719.97 2079.68   0
   2  -7  -4 1635.12 1690.56  14
  -2   7   3 54435.2 3590.74   1
  -2   7   2 40614.9 3201.05   1
  -2   7   1 27814.6 2764.98   1
  -2   7   0 86525.7 4597.29   1
  -2   7  -1 179458. 6630.85   1
  -2   7  -2 21258.3 2776.49   1
  -2   7  -3 64295.5 4380.59   1
  -2   7  -4 45231.7 3887.99   1
  -2   7  -5 5854.32 2270.48   1
   2  -7   6 123790. 6674.93  13
   2  -7   7 45041.2 4046.29   7
   2  -7   7 43714.5 4190.63  13
   2  -7   8 67455.4 4965.40  13
   2  -7   8 63998.2 4644.49   7
   2  -7   9 37930.2 3819.36  13
   2  -7   9 34311.9 3414.57   7
   2  -7  10 6537.39 2035.01   7
   2  -7  10 5437.81 2286.65  13
   2  -7  11 1961.67 1852.36  13
   2  -7  11 1417.38 1826.40   7
   2  -7  12 53700.6 3460.68   7
   2  -7  12 49038.9 3150.85  13
   2  -7  13 3650.24 1456.24   7
   2  -6 -13 18658.2 1704.37  10
   2  -6 -12 70940.1 3521.05  10
   2  -6 -11 245.664 1585.76  10
   2  -6 -11-536.477 1291.62  14
   2  -6 -10 99566.4 4312.39  14
  -2   6   9 537.738 2378.63   9
   2  -6  -9 1047.30 1410.31  14
   2  -6  -8 5441.92 1655.37  14
   2  -6  -7 48628.1 3334.54  14
   2  -6  -6 68581.2 3802.26  14
  -2   6   5 67309.7 3755.87   0
  -2   6   4 219784. 6249.92   1
  -2   6   3 3085.00 1426.12   1
  -2   6   2 11911.6 1809.27   1
  -2   6   1 77391.0 3847.09   1
  -2   6   0 13314.7 2022.82   1
  -2   6  -1 114961. 4999.91   1
  -2   6  -2 87904.3 4603.51   1
  -2   6  -3 23178.0 2663.06   1
  -2   6  -4 17333.4 2468.12   1
  -2   6  -5 57360.0 4115.85   1
  -2   6  -6 963.152 1989.72   1
  -2   6  -7 138683. 6460.70   1
   2  -6   8 9728.30 2917.16   7
   2  -6   8 8374.64 2894.10  13
   2  -6   9 61322.1 4757.83  13
   2  -6   9 63232.3 4517.23   7
   2  -6  10 8248.04 2333.99   7
   2  -6  10 9941.39 2631.01  13
   2  -6  11 24115.9 3078.39  13
   2  -6  11 25409.2 3066.63   7
   2  -6  12 14895.0 1717.88  12
   2  -6  12 15094.5 2286.88   7
   2  -6  12 14160.8 2185.21  13
   2  -6  13 37374.5 2082.65  12
   2  -6  13 35178.8 2752.01   7
   2  -6  14 450.228 957.179  12
   2  -6  14-588.449 1251.59   7
   2  -5 -14 7898.75 1236.75  10
   2  -5 -13 979.452 1227.56  10
   2  -5 -12 49481.1 3395.24  10
   2  -5 -11 57664.2 3329.88  14
   2  -5 -11 69416.7 4211.34  10
  -2   5  10 16863.0 2869.42   9
   2  -5 -10 19683.0 2376.53  14
  -2   5   9 70368.3 4652.66   9
   2  -5  -9 82972.5 4090.35  14
  -2   5   8 2807.33 2902.40   9
   2  -5  -8 68.3165 1438.71  14
  -2   5   5 72005.1 3491.73   0
  -2   5   4 185750. 5093.12   1
  -2   5   3 86606.1 3501.08   1
  -2   5   2 38866.9 2424.72   1
  -2   5   1 34845.9 2388.18   1
  -2   5   0 26326.4 2238.90   1
  -2   5  -1 16980.8 2085.53   1
  -2   5  -2 255061. 7123.08   1
   2  -5   3 7266.09 1686.62   2
  -2   5  -3 7290.42 1775.46   1
  -2   5  -4 27853.3 2887.47   1
  -2   5  -5 38185.8 3440.06   1
  -2   5  -6 98735.7 5312.67   1
  -2   5  -7 3579.11 1895.80   1
  -2   5  -8 163059. 7132.29   1
   2  -5   9 7667.93 2617.01   7
   2  -5   9 5835.31 2592.74  13
   2  -5  10 43165.5 3894.02   7
   2  -5  10 42418.1 3931.80  13
   2  -5  11 11292.0 2326.07   7
   2  -5  11 8322.86 2325.88  13
   2  -5  12 8457.29 1987.47  13
   2  -5  12 13143.0 2382.40   7
   2  -5  13 10154.0 1546.96  12
   2  -5  13 6474.86 1945.07   7
   2  -5  14 51951.6 2359.89  12
   2  -5  14 43189.4 2759.67   7
   2  -4 -14 45841.8 2651.57  10
   2  -4 -13 11455.2 1972.72  10
   2  -4 -12 3267.48 1688.04  10
   2  -4 -11 57124.3 3900.46  10
   2  -4 -11 50293.5 3250.75  14
   2  -4 -10 54899.0 3407.92  14
  -2   4  10 57516.5 4325.30   9
  -2   4   9 55610.1 4223.05   9
   2  -4  -9 54398.1 3292.03  14
   2  -4  -9 46519.7 3066.91   4
   2  -4  -8 44081.3 2869.58   4
   2  -4  -7 1850.10 1164.75   4
   2  -4  -6 5901.11 1263.26   4
  -2   4   5 311957. 6332.90   0
   2  -4  -5 316373. 6038.18   4
  -2   4   4 15644.4 1481.73   1
   2  -4  -4 14892.1 1467.37   4
  -2   4   3 274909. 5224.41   1
  -2   4   2 12921.3 1401.18   1
  -2   4   1 336.319 896.980   1
  -2   4   0 73366.9 3114.41   1
  -2   4  -1 255250. 6136.10   1
   2  -4   2 2653.80 1433.56   2
  -2   4  -2-37.0026 1377.17   1
  -2   4  -3 228068. 6813.29   1
   2  -4   3 233031. 5700.51   2
  -2   4  -4 2740.84 1533.70   1
  -2   4  -5 11332.4 2114.63   1
  -2   4  -6 108396. 5483.60   1
  -2   4  -7 141706. 6458.36   1
  -2   4  -8 86610.1 5276.03   1
   2  -4   9 111525. 5829.91  13
   2  -4   9 129663. 6203.41   7
   2  -4  10 20787.9 2882.50  13
   2  -4  10 30586.0 3240.92   7
   2  -4  11 14587.3 2625.02  13
   2  -4  11 14190.5 2652.57   7
   2  -4  12 28230.3 3141.14   7
   2  -4  13 5202.74 1840.97   7
   2  -4  14 44515.0 2960.31   7
   2  -4  14 49091.9 2623.90  12
   2  -4  15 13292.3 1477.25   7
   2  -4  15 17157.9 1370.22  12
   2  -3 -15 19284.3 1619.99  10
   2  -3 -14 15239.4 1944.65  10
   2  -3 -13 10383.4 1877.97  10
   2  -3 -12 6194.79 1869.94  10
   2  -3 -11 1319.84 1632.39  10
   2  -3 -11 1201.54 1644.16  14
   2  -3 -11 1200.10 1646.16   4
  -2   3  10 84597.6 5072.87   9
   2  -3 -10 79600.1 3990.07   4
   2  -3 -10 81021.1 3933.02  14
   2  -3  -9 12665.0 1832.84   4
   2  -3  -8 64786.0 3262.84   4
   2  -3  -7 49303.9 2699.65   4
   2  -3  -6 19994.5 1735.28   4
  -2   3   5 25634.0 1704.80   0
   2  -3  -5 23354.6 1783.63   4
  -2   3   4 468033. 6005.28   1
   2  -3  -4 467821. 6196.12   4
  -2   3   3 5670.46 944.776   1
   2  -3  -3 7018.42 1039.38   4
   2  -3  -2 247064. 3784.70   4
  -2   3   2 231318. 3964.89   1
  -2   3   1 52153.4 2088.80   1
   2  -3   0 3294.18 1385.66   2
  -2   3   0 4841.45 1149.92   1
  -2   3  -1 86669.2 3462.22   1
   2  -3   1 76999.8 3223.88   2
   2  -3   2 263699. 5638.86   2
   2  -3   2 276415. 4741.20   3
  -2   3  -2 268546. 6561.15   1
  -2   3  -3 59422.3 3407.76   1
   2  -3   3 61181.3 2819.05   2
   2  -3   3 61051.7 2572.43   3
   2  -3   4 308251. 6073.44   3
   2  -3   4 323240. 8111.14   0
   2  -3   5 1074.21 1478.36   0
   2  -3   6 30615.4 3073.74   0
   2  -3   7 287015. 8980.78   0
   2  -3   8 61325.4 4289.25   0
   2  -3   9 105526. 5989.40   0
   2  -3  10 67398.9 4634.52  13
   2  -3  10 81595.6 4863.60   7
   2  -3  11 7761.72 2382.31   7
   2  -3  12 13580.3 2542.01   7
   2  -3  13 39134.1 3424.86   7
   2  -3  14 3727.98 1383.60  12
   2  -3  14 3374.83 1675.18   7
   2  -3  15 29035.7 2054.61   7
   2  -3  15 43810.3 2105.62  12
   2  -2 -15 61858.2 2862.90  10
   2  -2 -14 20213.2 2256.27  10
   2  -2 -13 32204.2 2879.81  10
   2  -2 -12 13465.9 2197.39  10
   2  -2 -12 17625.1 2208.53   4
   2  -2 -11 37349.4 3181.00  10
   2  -2 -11 31582.0 2743.44   4
   2  -2 -10 14563.1 2269.74  10
   2  -2 -10 15193.1 2024.48   4
   2  -2  -9 213254. 5930.36   4
   2  -2  -8 36465.0 2440.04   4
   2  -2  -7 60261.5 2833.08   4
   2  -2  -6 87762.1 3091.56   4
   2  -2  -6 98372.0 3738.84   2
   2  -2  -5 21780.1 1588.40   4
   2  -2  -5 25300.2 2142.79   2
   2  -2  -4 159875. 3491.31   4
   2  -2  -4 157666. 4584.30   2
  -2   2   4 152085. 3140.43   0
   2  -2  -3 587152. 5802.87   4
  -2   2   3 582679. 4956.77   1
  -2   2   2 33158.0 1240.70   1
   2  -2  -2 32428.6 2211.98   2
  -2   2   1 201399. 3134.30   1
   2  -2  -1 201667. 4688.44   2
  -2   2   0 12706.4 1251.08   1
   2  -2   0 13466.5 1516.00   2
   2  -2   1 575.032 1053.19   2
  -2   2  -1 517.468 1099.65   1
   2  -2   2 292949. 4227.03   3
   2  -2   2 283660. 5453.83   2
   2  -2   3 155472. 3516.79   3
   2  -2   3 155912. 4123.96   2
   2  -2   3 147218. 4808.19   0
   2  -2   4 50685.9 2431.99   3
   2  -2   4 56190.5 2531.00   2
   2  -2   4 57661.0 3279.31   0
   2  -2   5 200011. 4926.99   3
   2  -2   5 214974. 6422.08   0
   2  -2   6 41898.5 3311.19   0
   2  -2   6 42598.6 2740.50   3
   2  -2   7 1550.54 1469.36   0
   2  -2   8 143080. 6174.59   0
   2  -2   9 19583.5 2847.55   0
   2  -2  10 60375.0 4180.69   7
   2  -2  11 11693.2 2575.31   7
   2  -2  12 1279.06 1892.52   7
   2  -2  13 9385.39 2138.86   7
   2  -2  14 52906.0 2895.16  12
   2  -2  14 38146.8 2992.30   7
   2  -2  15-463.454 1192.48   7
   2  -2  15 110.590 942.647  12
   2  -1 -15 687.017 1181.21  10
  -2   1  14 91745.8 3683.98  11
   2  -1 -14 95893.7 4341.36  10
   2  -1 -13 8588.43 1996.62  10
  -2   1  13 12401.0 2355.59  11
  -2   1  12 11437.5 2520.69  11
   2  -1 -12 13833.6 2265.71  10
   2  -1 -12 11465.4 2077.80   4
   2  -1 -11 22364.3 2742.81  10
   2  -1 -11 22397.3 2327.27   4
   2  -1 -10 90867.5 4142.04   4
   2  -1  -9 37540.5 2600.57   4
   2  -1  -8 429738. 7704.97   4
   2  -1  -7 24198.2 1914.74   4
   2  -1  -6 34732.6 2088.08   4
   2  -1  -5 114147. 3454.18   2
   2  -1  -5 106698. 3071.97   4
   2  -1  -4 9460.68 1135.35   4
   2  -1  -4 12063.0 1469.00   2
   2  -1  -3 645992. 5862.29   4
   2  -1  -3 609636. 7551.77   2
   2  -1  -2 448442. 6338.76   2
  -2   1   1 188369. 2304.55   1
   2  -1  -1 210130. 4421.16   2
   2  -1   0 3768.54 1230.56   2
   2  -1   1 3804.71 1129.44   0
   2  -1   1 3237.28 1300.17   2
   2  -1   2 406.462 711.855   3
   2  -1   2 779.995 1233.06   2
   2  -1   2 576.366 1046.54   0
   2  -1   3 159253. 3321.72   3
   2  -1   3 162498. 4304.45   2
   2  -1   3 165157. 4546.92   0
   2  -1   4 148215. 4687.05   0
   2  -1   4 149105. 3580.39   3
   2  -1   5 185272. 4521.00   3
   2  -1   5 181642. 5556.09   0
   2  -1   6 6811.63 1688.66   0
   2  -1   6 6412.82 1491.23   3
   2  -1   7 24132.4 2386.15   3
   2  -1   7 26182.0 2699.03   0
   2  -1   8 4902.64 1650.83   0
   2  -1   9 129039. 6179.09   0
   2  -1  10 1263.16 2052.67   7
   2  -1  11 67103.9 4437.06   7
   2  -1  12 7737.83 2198.96   7
   2  -1  13 3841.54 1566.50  12
   2  -1  13 1739.85 1652.07   7
   2  -1  14 23943.7 2153.70  12
   2  -1  14 19404.1 2290.58   7
   2  -1  15 20178.6 1819.54   7
  -2   0  15 40775.4 2378.66  11
   2   0 -15 33193.5 2391.25  10
  -2   0  14 13124.9 2167.62  11
   2   0 -14 13102.0 2057.56  10
   2   0 -13 75488.5 4232.13  10
  -2   0  13 69869.1 3918.10  11
   2   0 -12 1138.34 1705.25   4
   2   0 -12 551.567 1603.28  10
   2   0 -11 12415.7 2245.99  10
   2   0 -11 11023.3 1849.47   4
   2   0 -10 112719. 4553.86   4
   2   0  -9 40832.9 2742.81   4
   2   0  -8 109780. 3982.98   4
   2   0  -7 157804. 4451.41   4
   2   0  -6 6283.90 1245.82   4
   2   0  -5 123166. 3362.17   2
   2   0  -5 113363. 3305.08   4
   2   0  -4 145480. 3630.31   2
   2   0  -4 141490. 3366.02   4
   2   0  -3 26023.7 1782.81   2
   2   0  -2 422381. 6114.07   2
   2   0  -1 114598. 3381.79   2
   2   0   0 54047.8 1668.98   0
   2   0   0 56978.8 2607.61   2
   2   0   1 2854.00 786.678   3
   2   0   1 2561.79 897.786   0
   2   0   1 2511.15 1234.05   2
   2   0   2 119952. 3863.86   2
   2   0   2 122326. 2657.92   3
   2   0   2 129667. 3465.93   0
   2   0   3 47990.7 2440.49   0
   2   0   3 44605.2 1828.53   3
   2   0   4 384300. 5513.55   3
   2   0   4 390498. 7071.30   0
   2   0   5 31550.1 1966.37   3
   2   0   5 28865.8 2313.82   0
   2   0   6 56346.1 2897.94   3
   2   0   6 59381.2 3411.66   0
   2   0   7 38210.6 2701.70   3
   2   0   7 43022.6 3210.37   0
   2   0   8 21426.2 2476.98   0
   2   0   9 21423.3 2747.62   0
   2   0  11 12349.1 2271.53   7
   2   0  12 23963.0 2633.94  12
   2   0  12 27447.4 3005.71   7
   2   0  13 5214.12 1668.01  12
   2   0  13 7785.94 2000.56   7
   2   0  14-15.2096 1429.64   7
   2   0  14 937.747 1230.33  12
  -2  -1  16 433.841 1140.15  11
  -2  -1  15 22845.6 2101.52  11
  -2  -1  14 31648.0 2710.20  11
   2   1 -14 27768.2 2567.03  10
  -2  -1  13 40690.9 3240.21  11
   2   1 -13 41887.3 3276.80  10
   2   1 -12 58065.0 3863.86  10
   2   1 -12 63010.7 3551.20   4
  -2  -1  11 2415.93 3355.43  11
   2   1 -11 1071.04 1955.31  10
   2   1 -11 1924.93 1450.67   4
   2   1 -10 1116.93 1240.62   4
   2   1  -9 48462.1 2982.90   4
   2   1  -8 115995. 4217.90   4
   2   1  -7 222361. 5448.42   4
   2   1  -6 17540.5 1707.98   4
   2   1  -5 4942.11 1120.06   2
   2   1  -5 6300.61 1264.48   4
   2   1  -4 44493.4 2222.69   4
   2   1  -4 51415.6 2361.79   2
   2   1  -3 171830. 4166.68   2
   2   1  -3 173891. 3744.20   4
   2   1  -2 12399.0 1602.59   2
   2   1  -1 504434. 4077.80   0
   2   1  -1 497601. 7325.07   2
   2   1   0 5821.35 862.176   3
   2   1   0 5926.44 733.104   0
   2   1   1 29327.7 1585.79   0
   2   1   1 29568.9 1408.44   3
   2   1   2 94997.7 2999.65   0
   2   1   2 92505.5 2420.96   3
   2   1   3 135635. 3915.98   0
   2   1   3 136217. 3074.82   3
   2   1   4 59479.3 2898.80   0
   2   1   4 60969.3 2302.47   3
   2   1   5 300863. 5363.63   3
   2   1   5 275320. 6673.25   0
   2   1   6 6382.40 1423.64   0
   2   1   6 4024.42 1231.93   3
   2   1   7 31461.4 2788.63   0
   2   1   7 30965.3 2444.46   3
   2   1   8 31494.2 3052.09   0
   2   1   9 10826.1 1919.71   9
   2   1  10 60596.2 3566.38   9
   2   1  11 58888.0 3535.21  12
   2   1  11 71378.2 3766.99   9
   2   1  12 16682.9 2151.43  12
   2   1  12 25682.6 2837.74   7
   2   1  13 18374.2 2483.96   7
   2   1  14 8734.50 1771.86   7
  -2  -2  16 3199.50 1241.11  11
  -2  -2  15 310.658 1378.52  11
  -2  -2  14 41542.4 2907.31  11
  -2  -2  13 9591.63 2274.71  11
   2   2 -13 12406.5 2192.15  10
   2   2 -12 63347.8 3991.76  10
   2   2 -12 72694.4 3784.42   4
   2   2 -11 44568.6 3421.29  10
   2   2 -11 38055.9 2912.55   4
   2   2 -10 3354.52 1416.48   4
   2   2  -9 1692.34 1231.59   4
   2   2  -8 185633. 5426.85   4
   2   2  -7 2139.52 1210.80   4
   2   2  -6 250336. 5696.56   4
   2   2  -5 49969.1 2614.22   4
   2   2  -4 125.900 1202.62   4
   2   2  -3 83583.0 3091.64   4
   2   2  -2 281706. 3893.12   1
   2   2  -1 126056. 2616.42   0
   2   2  -1 129887. 2852.97   1
   2   2   0 388719. 5118.01   0
   2   2   1 18248.7 1423.10   0
   2   2   1 19703.2 1302.66   3
   2   2   2 47511.8 1885.10   3
   2   2   2 51444.7 2450.18   0
   2   2   3 160138. 3482.49   3
   2   2   3 156141. 4498.61   0
   2   2   4 129514. 4467.43   0
   2   2   4 130202. 3371.56   3
   2   2   5 147540. 3823.30   3
   2   2   5 136797. 4951.94   0
   2   2   6 103483. 3656.01   3
   2   2   6 91556.6 4431.65   0
   2   2   7-284.293 1583.24   0
   2   2   8 20316.1 2448.69   9
   2   2   9 63925.9 3671.58   9
   2   2  10 28095.7 2747.97   9
   2   2  11 98160.3 4403.08   9
   2   2  12 10120.9 1853.74   9
   2   2  12 11449.5 2208.65   7
   2   2  13 2473.79 1639.67   7
  -2  -3  16 7942.81 1266.67  11
  -2  -3  15 13309.9 1702.20  11
  -2  -3  14 1108.35 1576.55  11
  -2  -3  14-1091.29 1855.27   7
  -2  -3  13 86152.8 4168.19  11
  -2  -3  13 118954. 5583.41   7
   2   3 -12 392.405 1904.10  10
  -2  -3  12 1593.08 2479.44   7
   2   3 -12 2097.48 1724.24   4
   2   3 -11 46052.7 3440.30  10
  -2  -3  11 38791.8 3921.42  11
   2   3 -11 46961.7 3100.25   4
   2   3 -10 44956.1 3029.10   4
   2   3  -9 17038.8 2056.83   4
   2   3  -8 32412.7 2533.64   4
   2   3  -7 265702. 6423.82   4
   2   3  -6 7411.03 1468.44   4
   2   3  -5 154412. 4702.30   4
   2   3  -4 33027.2 2347.42   4
   2   3  -3 701.817 950.028   1
   2   3  -3 408.123 1303.75   4
   2   3  -2 97689.9 3087.11   1
   2   3  -1 329542. 5610.96   1
   2   3   0 45550.3 2361.37   1
   2   3   0 51388.3 2370.83   0
   2   3   1 363422. 6388.49   0
   2   3   1 353780. 5254.84   3
   2   3   2 15868.2 1673.80   0
   2   3   2 14638.2 1288.64   3
   2   3   3 316.834 1065.01   0
   2   3   3 525.667 741.098   3
   2   3   4 139972. 5031.67   0
   2   3   4 146454. 3672.86   3
   2   3   5 46975.1 3207.04   0
   2   3   6 109175. 5065.40   0
   2   3   7 52513.7 3734.19   0
   2   3   8 341.808 1660.24   9
   2   3   9 34789.6 2908.67   9
   2   3  10 46079.1 3281.37   9
   2   3  11 2235.62 1593.40   9
   2   3  12 70252.2 3386.88   9
   2   3  12 85892.8 4222.77   7
   2   3  13 11718.6 1901.47   7
  -2  -4  16 8272.04 1151.90  11
  -2  -4  15 10991.5 1586.60  11
  -2  -4  14 15499.1 1956.95  11
  -2  -4  14 19116.3 2301.97   7
  -2  -4  13 8311.03 1912.44  11
  -2  -4  13 9289.92 2202.56   7
   2   4 -12 118837. 4461.51   4
  -2  -4  12 113778. 5551.40   7
  -2  -4  11 1456.20 2604.64   7
   2   4 -11-617.877 1441.02   4
  -2  -4  10 49032.0 4185.90  11
   2   4 -10 53894.1 3783.51  10
   2   4 -10 57593.4 3399.95   4
  -2  -4  10 59182.3 4277.27   7
   2   4  -9 32824.8 2666.02   4
   2   4  -8 25535.8 2366.21   4
   2   4  -7 110792. 4416.16   4
   2   4  -6 192569. 5632.58   4
   2   4  -5 26904.6 2366.06   4
   2   4  -4 17715.7 2015.22   4
   2   4  -3 5991.32 1528.55   1
   2   4  -2 34923.4 2347.60   1
   2   4  -1 368736. 7143.78   1
   2   4   0 105352. 4058.07   1
   2   4   0 103364. 3833.12   0
   2   4   0 108954. 3320.89   3
   2   4   1 68824.3 3311.15   0
   2   4   1 67682.5 2586.34   3
   2   4   2 109689. 3168.58   3
   2   4   2 109804. 4395.74   0
   2   4   3 10696.2 1861.24   0
   2   4   4 5726.75 1572.94   0
   2   4   5 239593. 7538.76   0
   2   4   6 1555.10 2140.91   0
   2   4   6 1663.84 1802.53   9
   2   4   7 115132. 5022.14   9
   2   4   8 18248.4 2448.02   9
   2   4   9 1920.97 1600.88   9
   2   4  10 7170.49 1906.63   9
   2   4  11 85145.3 3891.50   9
   2   4  12 3568.15 1583.82   7
   2   4  12 2424.21 1347.67   9
  -2  -5  15 4357.32 1230.56  11
  -2  -5  14 23268.2 1997.67  11
  -2  -5  14 27154.0 2474.87   7
  -2  -5  13 42290.5 3427.09   7
  -2  -5  13 39137.5 2621.39  11
  -2  -5  12 21660.7 2464.37  11
  -2  -5  12 34188.2 3308.19   7
   2   5 -11 110929. 4411.20   4
  -2  -5  11 113806. 5707.37   7
   2   5 -10 834.137 1364.97   4
  -2  -5  10 1030.67 2691.57   7
   2   5  -9 30635.2 3016.48  10
   2   5  -9 32642.9 2682.53   4
  -2  -5   9 34687.1 3611.97   7
  -2  -5   9 33944.8 2851.53   6
   2   5  -8 77790.0 3862.44   4
   2   5  -7 16646.0 2094.88   4
   2   5  -6 142428. 5120.15   4
   2   5  -5 85809.1 3971.94   4
   2   5  -4 51785.5 3243.94   4
   2   5  -2 46864.0 3138.37   1
   2   5  -1 10356.3 1712.34   1
   2   5   0 370309. 6598.91   3
   2   5   0 370280. 8516.14   1
   2   5   0 359690. 8186.75   0
   2   5   1 62011.2 3627.53   0
   2   5   2 72136.3 4088.48   0
   2   5   3 30041.0 2897.31   0
   2   5   4 8203.73 2214.89   0
   2   5   5 11913.9 2208.62   9
   2   5   6 98401.3 4802.88   9
   2   5   7 5365.25 1946.39   9
   2   5   8 19073.5 2604.70   9
   2   5   9 2720.83 1720.39   9
   2   5  10 1367.21 1568.18   9
   2   5  11 14738.6 1984.36   9
  -2  -6  14 470.523 1563.09   7
  -2  -6  13 23542.3 2553.86   7
  -2  -6  12 36406.9 3357.30   7
  -2  -6  11 64495.8 4316.98   7
   2   6 -10 59047.2 3302.63   4
  -2  -6  10 64316.1 3425.05   6
  -2  -6  10 57804.8 4326.25   7
  -2  -6   9-889.045 1799.02   6
  -2  -6   9-1736.94 2612.06   7
   2   6  -9 1646.01 1458.62   4
   2   6  -8 34524.3 2722.87   4
  -2  -6   8 40288.4 3964.04   7
  -2  -6   8 38956.0 3112.69   6
   2   6  -7 90075.5 4255.62   4
  -2  -6   7 89885.7 5381.30   7
  -2  -6   7 94052.6 4454.40   6
   2   6  -6 821.465 1426.28   4
   2   6  -5 171723. 5869.03   4
   2   6  -4 38089.1 3009.89   4
   2   6  -1 80382.1 4550.69   1
   2   6  -1 76748.3 3464.23   3
   2   6   0 22241.3 2758.11   1
   2   6   1 190520. 6933.64   0
   2   6   2 746.921 2422.77   0
   2   6   3 40548.5 3384.91   9
  -2  -6  -3 38758.7 2917.02  14
  -2  -6  -4 16306.6 2289.60  14
   2   6   4 17813.1 2458.28   9
   2   6   5 454.250 1851.35   9
   2   6   6 53871.2 3805.72   9
   2   6   7 50239.8 3617.49   9
   2   6   8 12635.2 2191.57   9
   2   6   9 22596.2 2416.21   9
   2   6  10 15161.6 2033.84   9
  -2  -7  13 1048.88 1512.19   7
  -2  -7  12 45936.0 3346.76   7
  -2  -7  11 11019.2 2449.44   7
  -2  -7  10 143759. 4679.93   6
  -2  -7  10 133257. 6075.49   7
  -2  -7   9 27964.8 2538.23   6
   2   7  -9 27748.1 2420.08   4
  -2  -7   9 25976.9 3209.97   7
  -2  -7   8 7238.32 2473.71   7
   2   7  -8 5749.95 1465.74   4
  -2  -7   8 5128.05 1635.01   6
   2   7  -7 4973.42 1509.22   4
  -2  -7   7 5186.95 2463.07   7
  -2  -7   7 4206.31 1594.29   6
  -2  -7   6 97190.7 4564.25   6
   2   7  -6 102714. 4673.46   4
  -2  -7   6 100389. 5791.76   7
   2   7  -5 8791.89 1731.32   4
  -2  -7   5 5845.17 2763.08   7
  -2  -7   5 8261.42 2010.47   6
   2   7  -4 150260. 5761.76   4
  -2  -7   4 151913. 5688.92   6
  -2  -7   3 2112.34 1935.38   6
  -2  -7   2 5585.38 2139.71   6
  -2  -7   1 30765.0 2887.75   6
   2   7   1 49190.4 3646.24   9
   2   7   2 186625. 6587.42   9
  -2  -7  -2 173795. 6133.93  14
   2   7   3-812.128 1897.65   9
  -2  -7  -3-1265.35 1512.27  14
   2   7   4 37452.3 3341.64   9
  -2  -7  -4 36943.4 2810.33  14
   2   7   5 31990.1 3107.53   9
  -2  -7  -5 36564.8 2625.59  14
   2   7   6 23563.5 2610.43   9
   2   7   7 74913.5 3940.49   9
   2   7   8 48465.9 3091.00   9
   2   7   9 5850.50 1546.09   9
  -2  -8  12 4192.01 1504.13   7
  -2  -8  11 64452.8 3767.51   7
  -2  -8  11 80840.1 2897.26   6
  -2  -8  10 5324.11 2015.88   7
  -2  -8  10 3841.53 1334.11   6
  -2  -8   9 39966.9 2678.53   6
  -2  -8   9 41613.7 3615.86   7
  -2  -8   8 12150.5 2019.96   6
  -2  -8   8 15269.6 2699.79   7
  -2  -8   7-581.684 1420.38   6
  -2  -8   7 1251.20 2206.24   7
   2   8  -7 842.082 1680.47   4
  -2  -8   6 35452.4 2950.00   6
   2   8  -6 32246.5 2775.14   4
  -2  -8   5 45466.1 3235.77   6
   2   8  -5 41336.1 3152.41   4
   2   8  -4 23876.3 2543.11   4
  -2  -8   4 21980.9 2523.35   6
   2   8  -3 93315.4 4658.96   4
  -2  -8   3 89535.7 4314.80   6
  -2  -8   2 11730.9 2094.84   6
  -2  -8   1-1137.69 1965.56   6
  -2  -8  -1 74433.3 4269.89  14
  -2  -8  -2 87416.0 4391.19  14
   2   8   2 103767. 4746.62   9
   2   8   3 70108.3 4032.59   9
  -2  -8  -3 59217.0 3515.95  14
   2   8   4 2006.75 1635.72   9
  -2  -8  -4 834.892 1234.99  14
   2   8   5 15178.4 2114.18   9
  -2  -8  -5 17264.9 1806.40  14
   2   8   6 35657.8 2655.62   9
   2   8   7 2690.52 1531.69   9
  -2  -9  11 98.4422 1045.13   6
  -2  -9  10 71630.6 2672.45   6
  -2  -9   9 2754.39 1168.87   6
  -2  -9   8 72790.3 3283.25   6
  -2  -9   7 4893.34 1415.07   6
  -2  -9   6 4320.99 1506.30   6
  -2  -9   5 97490.0 4235.20   6
  -2  -9   4 57462.6 3419.99   6
  -2  -9   3 32457.4 2669.50   6
  -2  -9   2 66564.7 3962.26  14
  -2  -9   2 72959.3 3598.08   6
  -2  -9   1 5051.51 1813.17  14
  -2  -9   0 1823.89 1657.78  14
  -2  -9  -1 86928.7 4170.37  14
  -2  -9  -2 6746.39 1556.40  14
  -2  -9  -3 85749.8 3665.81  14
  -2  -9  -4 25318.4 2001.38  14
  -2 -10   9 45540.2 2006.74   6
  -2 -10   9 28715.2 2162.11  13
  -2 -10   8 10958.4 1372.95   6
  -2 -10   7 38266.0 2248.70   6
  -2 -10   6 14491.3 1655.57  14
  -2 -10   6 16681.5 1724.45   6
  -2 -10   5 966.642 1084.08  14
  -2 -10   5 420.554 1124.57   6
  -2 -10   4 93112.2 3790.27  14
  -2 -10   4 97884.3 3633.72   6
  -2 -10   3 21092.2 1965.41   6
  -2 -10   3 21942.4 2094.36  14
  -2 -10   2 25697.9 2026.50   6
  -2 -10   2 25503.6 2290.16  14
  -2 -10   1 17376.1 1941.83  14
  -2 -10   0 5976.74 1439.78  14
  -2 -10  -1 5511.28 1339.25  14
  -2 -10  -2 66113.2 2835.34  14
  -2 -10  -3 939.145 870.759  14
  -2 -11   6 14845.3 1227.03   6
  -2 -11   5 17751.5 1297.82   6
  -2 -11   4 2971.69 834.857  14
  -2 -11   4 2850.04 883.273   6
  -2 -11   3 52080.0 2116.74  14
  -2 -11   2 3650.86 915.584  14
  -2 -11   1 30820.1 1671.33  14
   3 -12   1 876.607 775.056   8
   3 -12   2 25811.1 1516.95   8
   3 -12   3 44459.8 1883.75   8
   3 -12   4 14249.6 1166.47   8
   3 -11  -4 5455.25 1169.81  14
   3 -11  -2 56917.3 2502.63   8
   3 -11  -1 6675.70 1236.14   8
   3 -11   0 38681.2 2352.00   8
   3 -11   1 15167.3 1737.45   8
   3 -11   2 5222.37 1251.87   8
   3 -11   3 55761.8 2788.51   8
   3 -11   4 25499.2 1939.18   8
   3 -11   5 37470.6 2171.44   8
   3 -11   5 31291.0 2412.13  13
   3 -11   6 21327.0 2023.28  13
   3 -11   6 25845.5 1693.24   8
   3 -11   7-20.3894 766.799   8
   3 -11   7 602.539 1175.76  13
   3 -11   8 1318.79 933.236  13
   3 -10  -7 58445.1 2736.08  14
   3 -10  -6 171.694 1186.78  14
   3 -10  -5 9514.09 1708.98  14
   3 -10  -4 21632.0 2130.50  14
   3 -10  -3 4020.76 1261.28   8
   3 -10  -3 5167.79 1549.11  14
   3 -10  -2 48044.1 2927.09   8
   3 -10  -1 29698.3 2448.99   8
   3 -10   0 17884.3 2063.51   8
   3 -10   1 11479.1 1846.83   8
   3 -10   2 33561.3 2611.45   8
   3 -10   2 36357.4 2746.53   6
   3 -10   3 2394.64 1185.23   8
   3 -10   3 61.8775 1346.62   6
   3 -10   4 74175.4 4373.68  13
   3 -10   4 75695.2 3468.35   6
   3 -10   5 7804.04 2064.25  13
   3 -10   6 33128.2 3040.43  13
   3 -10   7 17047.6 2248.44  13
   3 -10   8 8374.54 1741.67  13
   3 -10   8 8754.28 1165.28   8
   3 -10   9-206.215 858.644   8
   3 -10   9 5583.85 1482.42  13
   3 -10  10 35208.7 2032.74  13
   3  -9  -9 22407.2 1895.33  14
   3  -9  -8 36841.5 2641.34  14
   3  -9  -7 47061.7 3027.25  14
   3  -9  -6 43956.7 3049.95  14
   3  -9  -5 6034.75 1702.60  14
   3  -9  -4 9956.21 1708.43   8
   3  -9  -4 10791.6 1965.44  14
   3  -9  -3 32244.8 2531.08   8
   3  -9  -3 36401.9 2986.27  14
   3  -9  -2-264.134 1281.82   8
   3  -9  -2 437.398 1703.67  14
   3  -9  -1 91205.1 4233.04   8
   3  -9   0 23345.4 2382.70   8
   3  -9   0 25907.8 2665.76   6
   3  -9   1 21662.9 2370.01   8
   3  -9   1 23919.5 2575.94   6
   3  -9   2 23827.0 2525.73   6
   3  -9   3 38229.2 3153.16   6
   3  -9   3 37039.6 3901.75  13
   3  -9   4 3784.53 1581.61   6
   3  -9   4 2739.93 2362.28  13
   3  -9   5 104867. 5812.22  13
   3  -9   5 111821. 4279.95   6
   3  -9   6 1128.41 2027.83  13
   3  -9   7 21575.5 2806.85  13
   3  -9   8 13072.1 2405.84  13
   3  -9   9 11974.5 2183.93  13
   3  -9  10 18483.7 2097.89  13
   3  -9  11 37016.3 2235.44  13
   3  -8 -10 2511.04 1373.74  10
   3  -8 -10 4428.52 1360.12  14
   3  -8  -9 14456.9 1961.91  10
   3  -8  -9 15519.7 2076.20  14
   3  -8  -8 80417.2 4072.34  10
   3  -8  -8 82690.4 4131.89  14
   3  -8  -7 16460.9 2420.97  14
   3  -8  -6 74205.8 4127.51  14
   3  -8  -5 17726.2 1969.18   8
   3  -8  -5 15823.8 2269.50  14
   3  -8  -4 382.179 1383.11   8
   3  -8  -4 1805.43 1562.54  14
   3  -8  -3 26988.3 2402.03   8
   3  -8  -3 24355.3 2707.43  14
   3  -8  -2 95545.1 4200.73   8
   3  -8  -2 86606.6 4379.59  14
   3  -8  -1 2.44625 1307.19   8
   3  -8  -1-323.501 1635.42   6
   3  -8   0 150865. 5306.90   8
   3  -8   0 135794. 5325.63   6
   3  -8   1 6492.99 1819.73   6
   3  -8   2 8165.93 2144.68   6
   3  -8   3 43252.1 3391.12   6
   3  -8   3 51868.4 4687.61  13
   3  -8   4 60179.5 3615.64   6
   3  -8   4 67474.6 5087.27  13
   3  -8   5 11932.9 2845.60  13
   3  -8   6 84780.9 5317.83  13
   3  -8   7 1805.21 2046.75  13
   3  -8   8 9967.28 2416.38  13
   3  -8   9 25286.0 3029.73  13
   3  -8  10 8765.63 2093.74  13
   3  -8  11 30142.4 2530.54  13
   3  -8  12 22555.0 1823.15  13
   3  -7 -11 36526.0 2682.66  10
   3  -7 -10 29947.0 2772.22  10
   3  -7 -10 27630.6 2535.57  14
   3  -7  -9 3863.64 1799.51  10
   3  -7  -9 6096.43 1852.39  14
   3  -7  -8 6977.85 1871.23  14
   3  -7  -7 122041. 5320.86  14
   3  -7  -6 408.883 1526.29  14
   3  -7  -5 82607.1 3673.96   8
   3  -7  -5 80893.3 4389.21  14
   3  -7  -4 16427.4 1780.75   8
   3  -7  -4 13729.2 2281.11  14
   3  -7  -3-959.606 1364.14   8
   3  -7  -3 498.408 2126.96  14
   3  -7  -2 48979.7 4737.59   2
   3  -7  -1 125473. 6707.97   2
   3  -7   0 28047.4 3445.40   2
  -3   7  -1 103913. 5137.11   1
   3  -7   1 99883.0 5528.90   2
  -3   7  -2 672.374 2555.51   1
  -3   7  -3 7080.90 2661.60   1
  -3   7  -4 39285.6 3733.23   1
   3  -7   5 49664.7 4431.51  13
   3  -7   6 44902.3 4383.17  13
   3  -7   7 17606.1 2956.38  13
   3  -7   8 2420.49 2108.12  13
   3  -7   9 18032.8 2910.04  13
   3  -7  10 24869.6 2984.77  13
   3  -7  11 8445.37 1940.12  13
   3  -7  12 42452.4 2639.90  13
   3  -6 -13 1009.60 1059.33  10
   3  -6 -12 100912. 4213.44  10
   3  -6 -11 1622.49 1566.41  10
   3  -6 -11 2203.13 1387.85  14
   3  -6 -10 40472.9 3451.13  10
   3  -6 -10 37611.3 3059.61  14
   3  -6  -9 25154.7 3036.07  10
   3  -6  -9 26648.3 2777.62  14
   3  -6  -8 8005.64 1950.98  14
   3  -6  -7 28014.5 2821.11  14
   3  -6  -6 153297. 4726.43   8
   3  -6  -6 165393. 5983.32  14
   3  -6  -5 12158.6 3421.55   2
   3  -6  -4 62758.7 5148.71   2
   3  -6  -3 11287.4 3495.34   2
   3  -6  -2 4200.06 2356.00   2
   3  -6  -1 103275. 5766.44   2
  -3   6   0 84399.4 4163.62   1
   3  -6   0 73226.9 4740.55   2
  -3   6  -1 109004. 4966.64   1
   3  -6   1 109386. 5420.26   2
  -3   6  -2 72006.9 4305.80   1
   3  -6   2 70606.8 4415.12   2
  -3   6  -3 820.822 2061.59   1
  -3   6  -4 2793.38 2247.21   1
  -3   6  -5 100593. 5688.99   1
   3  -6   6 47263.3 4293.34  13
   3  -6   7 113797. 6333.92  13
   3  -6   8 10972.5 2757.79  13
   3  -6   9 2163.84 2140.25  13
   3  -6  10 7702.67 2305.35  13
   3  -6  11 72240.7 4237.85  13
   3  -6  12 83.4574 1148.17  12
   3  -6  12-1348.57 1381.31  13
   3  -6  13-169.137 1220.88  13
   3  -5 -13 23873.9 2311.48  10
   3  -5 -12 19257.4 2399.83  10
   3  -5 -11 105678. 5154.62  10
   3  -5 -11 104596. 4566.41  14
   3  -5 -10-172.776 1703.57  10
   3  -5 -10 1979.70 1441.80  14
   3  -5  -9 15414.0 2436.77  10
   3  -5  -9 13477.6 2220.82  14
   3  -5  -8 7963.16 1908.68  14
   3  -5  -7 13086.6 1987.89  14
   3  -5  -6 75563.2 4921.04   2
   3  -5  -5 94790.2 5557.25   2
   3  -5  -4 1602.72 2067.40   2
   3  -5  -3 67892.7 5013.80   2
   3  -5  -2 19382.0 3003.74   2
   3  -5  -1 3856.12 1768.20   2
  -3   5   0 289321. 6826.83   1
   3  -5   0 234425. 7534.36   2
  -3   5  -1 49295.2 3246.29   1
   3  -5   1 44028.9 3440.33   2
  -3   5  -2 81067.8 4263.98   1
   3  -5   2 80318.8 4437.23   2
  -3   5  -3 100367. 5044.65   1
  -3   5  -4 32022.4 3228.61   1
  -3   5  -5 6622.11 2183.94   1
  -3   5  -6 164879. 7073.50   1
  -3   5  -7 371.960 2738.24   1
   3  -5   7 1888.46 2181.71  13
   3  -5   8 52572.9 5197.20  15
   3  -5   8 57873.9 4664.41  13
   3  -5   9 33546.3 4725.94  15
   3  -5   9 41386.4 3074.42  12
   3  -5   9 30489.7 3517.77  13
   3  -5  10 2140.78 1615.29  12
   3  -5  10 990.602 2110.23  13
   3  -5  11 40408.8 2793.86  12
   3  -5  11 33090.8 3335.49  13
   3  -5  12 49280.6 2719.85  12
   3  -5  12 34655.0 3136.50  13
   3  -5  13 15119.6 1582.21  12
   3  -4 -14 5930.49 1557.73  10
   3  -4 -13 20490.5 2400.79  10
   3  -4 -12 24782.4 2753.45  10
   3  -4 -11 47709.3 3712.68  10
   3  -4 -11 45402.0 3288.23  14
   3  -4 -10 62286.6 4235.33  10
   3  -4 -10 67153.0 3747.35   4
   3  -4 -10 57613.5 3707.40  14
   3  -4  -9 32132.7 3146.66  10
   3  -4  -9 27454.8 2828.76  14
   3  -4  -9 30866.1 2654.40   4
   3  -4  -8 12982.2 2398.06  10
   3  -4  -8 10091.1 1744.72   4
   3  -4  -8 9734.52 2114.27  14
   3  -4  -7 22967.8 2146.54   4
   3  -4  -6 14445.1 2516.04   2
   3  -4  -6 14385.2 1751.13   4
   3  -4  -5 253733. 8073.33   2
   3  -4  -5 243192. 5418.12   4
   3  -4  -4 169545. 6750.72   2
   3  -4  -4 161692. 4130.69   4
   3  -4  -3 27359.6 3028.41   2
   3  -4  -3 32974.1 1892.42   4
   3  -4  -2 32931.1 3081.67   2
   3  -4  -1 97725.3 4734.89   2
  -3   4   0 5135.54 1206.06   1
   3  -4   0 4660.51 1652.58   2
  -3   4  -1 423531. 8210.42   1
   3  -4   1 385832. 8812.06   2
   3  -4   2 17969.3 1818.47   3
  -3   4  -2 20374.6 2263.89   1
   3  -4   2 17424.4 2371.98   2
  -3   4  -3 126933. 5428.29   1
   3  -4   3 129195. 5159.49   2
   3  -4   4 33904.1 2587.77   3
  -3   4  -4 33544.5 3203.93   1
  -3   4  -5 14079.3 2361.40   1
  -3   4  -6 23491.5 2986.88   1
  -3   4  -7 234017. 8575.52   1
   3  -4   8 5402.36 3478.49  15
   3  -4   8 7916.57 2399.74  13
   3  -4   9 76853.5 5694.44  15
   3  -4   9 97292.0 5730.13  13
   3  -4  10 24844.3 2624.35  12
   3  -4  10 19245.8 2944.90  13
   3  -4  11 5687.38 1635.30  12
   3  -4  11 4000.12 1952.35  13
   3  -4  12 45376.9 3345.65  13
   3  -4  12 51749.5 3051.06  12
   3  -4  13 38595.8 2381.85  12
   3  -4  14 10121.8 1240.12  12
   3  -3 -15 31357.2 1974.43  10
   3  -3 -14 2019.94 1463.62  10
   3  -3 -13 7848.18 1925.20  10
   3  -3 -12 95982.8 4962.99  10
   3  -3 -11 29699.3 3235.25  10
   3  -3 -11 36989.7 3006.37   4
   3  -3 -10 135231. 5984.19  10
   3  -3 -10 127285. 5073.90   4
   3  -3  -9 68616.5 3371.79   8
   3  -3  -9 60307.5 3497.11   4
   3  -3  -9 58904.4 3659.00  14
   3  -3  -8 9897.48 1688.68   4
   3  -3  -7 34208.6 2388.69   4
   3  -3  -6 257191. 7251.92   2
   3  -3  -6 230523. 5424.97   4
   3  -3  -5 1283.86 1523.13   2
   3  -3  -5 1594.14 1035.36   4
   3  -3  -4 326413. 8319.30   2
   3  -3  -4 323057. 5448.77   4
   3  -3  -3 79855.6 4131.40   2
   3  -3  -3 88138.0 2655.95   4
   3  -3  -2 49995.8 3280.42   2
   3  -3  -1 74250.3 3797.18   2
   3  -3   0 102023. 2685.58   3
   3  -3   0 82647.8 3928.71   2
   3  -3   1 88977.1 2766.04   3
  -3   3  -1 87505.1 3700.50   1
   3  -3   2 377344. 6002.40   3
  -3   3  -2 361576. 8134.36   1
   3  -3   2 351796. 7970.07   2
   3  -3   3 17165.1 1774.18   3
   3  -3   3 22601.3 2411.28   2
  -3   3  -3 21467.1 2507.91   1
   3  -3   4 48145.6 2828.54   3
  -3   3  -4 54092.4 3684.88   1
   3  -3   5 23786.2 2399.19   3
   3  -3   5 20221.2 2846.08   0
   3  -3   6 32539.9 2831.67   3
   3  -3   6 28044.8 3306.73   0
   3  -3   7 30941.0 3527.33   0
   3  -3   8 125135. 6135.09  13
   3  -3   9 2071.41 3684.33  15
   3  -3   9 7918.74 2432.49  13
   3  -3  10 14693.4 2355.67  12
   3  -3  10 9519.44 2504.71  13
   3  -3  10 5644.15 3805.42  15
   3  -3  11 12449.8 2060.96  12
   3  -3  11 14145.3 2292.80   7
   3  -3  11 7241.86 2547.09  13
   3  -3  12 4180.81 1919.40   7
   3  -3  12 3401.83 1548.15  12
   3  -3  13 44061.1 2655.90  12
   3  -3  13 18881.5 2125.72   7
   3  -3  14 9743.68 1307.86  12
   3  -2 -15 24726.6 2045.92  10
   3  -2 -14 39621.2 2906.04  10
   3  -2 -13 24036.7 2633.23  10
   3  -2 -12 4662.73 1918.49  10
   3  -2 -11 147694. 6245.84  10
   3  -2 -11 144578. 5418.81   4
   3  -2 -10 694.536 1740.67  10
   3  -2 -10 1790.89 1744.25   8
   3  -2 -10 2781.26 1556.48   4
   3  -2  -9 114869. 4601.31   4
   3  -2  -8 24357.0 2224.88   4
   3  -2  -7 3452.19 1153.37   4
   3  -2  -6 95408.3 4124.67   2
   3  -2  -6 87787.8 3287.89   4
   3  -2  -5 268875. 6766.41   2
   3  -2  -5 260530. 5150.06   4
   3  -2  -4 31727.2 2565.25   2
   3  -2  -4 34201.0 1858.54   4
   3  -2  -3 321879. 7190.00   2
   3  -2  -3 347053. 4810.34   4
   3  -2  -2 5530.00 1555.68   2
   3  -2  -1 34793.0 1555.60   3
   3  -2  -1 34362.1 2595.36   2
   3  -2   0 161579. 5103.30   2
   3  -2   0 162441. 3301.47   3
  -3   2  -1 189591. 5140.60   1
   3  -2   1 186731. 5573.59   2
   3  -2   1 187121. 3775.09   3
   3  -2   2 194804. 4111.49   3
   3  -2   2 198211. 5850.12   2
   3  -2   2 185690. 5680.00   0
   3  -2   3 75942.5 2875.25   3
   3  -2   3 70851.6 3883.24   0
   3  -2   3 81128.9 3877.67   2
   3  -2   4 13836.3 1672.83   3
   3  -2   4 13461.3 1909.15   2
   3  -2   4 12403.0 2063.73   0
   3  -2   5 16509.7 1990.86   3
   3  -2   5 13717.6 2299.15   0
   3  -2   6 67928.5 3679.23   3
   3  -2   6 61095.0 4416.26   0
   3  -2   7 23417.1 2617.64   3
   3  -2   7 19487.3 2727.22   0
   3  -2   8 80874.1 5078.13   0
   3  -2   9 37638.7 3400.21  15
   3  -2   9 38994.3 3865.86  13
   3  -2  10 16209.8 2492.57  12
   3  -2  10 13624.5 2983.23  13
   3  -2  11 16760.9 2562.52   7
   3  -2  11 13199.9 2263.20  12
   3  -2  11 18916.3 2969.80  13
   3  -2  12 18962.8 2272.19  12
   3  -2  12 17803.8 2485.68   7
   3  -2  13 365.472 1391.55  12
   3  -2  13-83.2170 1676.15   7
   3  -2  14 49905.0 2342.56  12
   3  -1 -15 8951.06 1542.52  10
  -3   1  14 30346.6 2416.48  11
   3  -1 -14 34871.4 2840.04  10
  -3   1  13 28555.6 2699.78  11
   3  -1 -13 36500.8 3176.11  10
   3  -1 -12-1271.10 1633.54  10
   3  -1 -12 1538.75 1767.42   4
  -3   1  11 12976.1 3923.53  11
   3  -1 -11 8001.37 2116.54  10
   3  -1 -11 7227.86 1674.29   8
   3  -1 -11 8819.80 1918.59   4
   3  -1 -10 142928. 6062.08  10
   3  -1 -10 130859. 4704.94   8
   3  -1 -10 130601. 5035.47   4
   3  -1  -9 5717.78 1683.53   4
   3  -1  -8 191990. 5538.92   4
   3  -1  -7 9405.00 1508.19   4
   3  -1  -6 2694.15 1080.48   4
   3  -1  -6 2020.31 1360.20   2
   3  -1  -5 76642.4 3471.62   2
   3  -1  -5 69074.1 2781.77   4
   3  -1  -4 336174. 7041.90   2
   3  -1  -4 347540. 5323.25   4
   3  -1  -3 38219.0 2525.99   2
   3  -1  -3 39786.8 1782.04   4
   3  -1  -3 34452.8 1558.63   3
   3  -1  -2 131230. 4414.35   2
   3  -1  -2 140164. 2941.88   3
   3  -1  -1 54117.7 3019.21   2
   3  -1  -1 57508.1 1986.40   3
   3  -1   0 17008.1 1959.41   2
   3  -1   0 17842.3 1266.93   3
   3  -1   1 57994.6 3288.16   2
   3  -1   1 57601.2 2749.37   0
   3  -1   1 60451.7 2221.81   3
   3  -1   2 158099. 5246.58   2
   3  -1   2 153806. 4715.57   0
   3  -1   2 149765. 3578.20   3
   3  -1   3 178871. 5540.23   0
   3  -1   3 178238. 4212.89   3
   3  -1   3 187600. 5841.79   2
   3  -1   4 63593.4 2760.39   3
   3  -1   4 63761.5 3698.14   0
   3  -1   5 6241.43 1765.51   0
   3  -1   5 6214.36 1410.37   3
   3  -1   6 29405.7 2989.35   0
   3  -1   6 36151.0 2680.50   3
   3  -1   7 122964. 5906.19   0
   3  -1   7 121346. 4916.23   3
   3  -1   8 5860.10 2093.12  12
   3  -1   8 10498.0 2394.91  15
   3  -1   8 9509.88 2470.25  13
   3  -1   9 127916. 5515.52  15
   3  -1   9 125426. 5711.10  13
   3  -1  10 3423.34 1751.53  12
   3  -1  10 6019.00 2193.40  15
   3  -1  10 4264.21 2268.36   7
   3  -1  10 8541.30 2602.78  13
   3  -1  11 9930.88 2052.56  12
   3  -1  11 11017.2 2306.36   7
   3  -1  12 11321.6 1910.81  12
   3  -1  12 10356.5 2250.98   7
   3  -1  13 32521.4 2378.84  12
   3  -1  13 30512.4 2517.42   7
   3  -1  14 5004.72 1101.28  12
  -3   0  15 68716.4 2746.52  11
   3   0 -15 75130.1 3369.89  10
  -3   0  14-448.535 1639.86  11
   3   0 -14 635.787 1417.54  10
  -3   0  13 4662.91 2778.97  11
   3   0 -13 20518.0 2561.99  10
   3   0 -12 6280.69 1952.61  10
   3   0 -12 9464.75 1905.07   4
  -3   0  12 9808.69 3218.66  11
   3   0 -11 25018.4 2409.81   8
   3   0 -11 29400.7 2724.26   4
   3   0 -11 30186.2 3049.97  10
   3   0 -10 93049.7 4854.67  10
   3   0 -10 86823.9 3968.80   8
   3   0 -10 90082.7 4300.89   4
   3   0  -9 85488.4 3993.43   4
   3   0  -8 8542.33 1580.09   4
   3   0  -7 55816.8 2998.13   4
   3   0  -6 3029.92 1160.15   4
   3   0  -5 20944.9 2038.37   2
   3   0  -5 19912.7 1724.59   4
   3   0  -4 265916. 6142.87   2
   3   0  -4 259214. 4880.95   4
   3   0  -3 133797. 4443.65   2
   3   0  -3 150789. 3421.83   4
   3   0  -2 122367. 4315.29   2
   3   0  -2 129871. 2868.52   4
   3   0  -2 123994. 2998.21   3
   3   0  -1 94433.3 3935.90   2
   3   0  -1 90185.2 2580.11   3
   3   0   0 1706.11 756.356   3
   3   0   0 1588.99 1248.62   2
   3   0   1 2210.21 894.743   3
   3   0   1 3426.59 895.548   0
   3   0   1 2065.61 1338.16   2
   3   0   2 268287. 5813.73   0
   3   0   2 274476. 4901.41   3
   3   0   3 628.345 845.760   3
   3   0   3 23.0824 1203.48   0
   3   0   4 204357. 6075.11   0
   3   0   4 205518. 4773.48   3
   3   0   5 46902.9 2609.42   3
   3   0   5 47258.4 3245.91   0
   3   0   6 2253.17 1451.19   3
   3   0   6 2284.59 1508.57   0
   3   0   7 35821.2 2851.35   3
   3   0   7 31424.8 3055.66   0
   3   0   8 115708. 5090.04  12
   3   0   8 113602. 5015.84   3
   3   0   8 150280. 6067.66  13
   3   0   8 138795. 5566.38  15
   3   0   9 6268.92 1942.85  12
   3   0   9 5582.16 2145.91  15
   3   0  10 71727.1 4357.20   7
   3   0  10 79440.5 4364.10  15
   3   0  11 2461.67 1538.26  12
   3   0  11 2479.60 1930.76   7
   3   0  12 9113.98 1790.14  12
   3   0  12 9798.81 2019.39   7
   3   0  13 19537.1 1840.82  12
   3   0  13 21073.4 2143.31   7
  -3  -1  16 11754.2 1263.93  11
  -3  -1  15 13720.6 1779.59  11
   3   1 -15 17347.5 1904.82  10
   3   1 -14 38508.7 2980.82  10
  -3  -1  14 32463.3 2550.39  11
   3   1 -13-468.627 1526.69  10
  -3  -1  12 26092.6 3425.83  11
   3   1 -12 26100.2 2879.87  10
   3   1 -12 20093.6 2382.36   4
   3   1 -11 18772.3 2645.75  10
   3   1 -11 14886.8 2163.89   4
   3   1 -10 13675.0 2373.85  10
   3   1 -10 12738.1 1948.55   8
   3   1 -10 11495.2 1926.21   4
   3   1  -9 153344. 5314.80   4
   3   1  -8 104398. 4270.12   4
   3   1  -7 32151.6 2429.67   4
   3   1  -6 65739.1 3156.80   4
   3   1  -5 29702.3 2325.84   2
   3   1  -5 23374.6 1951.32   4
   3   1  -4 4752.57 1384.69   2
   3   1  -4 4468.64 1240.92   4
   3   1  -3 569954. 9296.13   2
   3   1  -3 584131. 7290.05   4
   3   1  -2 56552.3 3170.53   2
   3   1  -2 54149.0 2276.46   4
   3   1  -1 99792.9 2938.64   3
   3   1   0 46690.9 2094.26   3
   3   1   1 6402.88 1047.28   3
   3   1   2 44071.8 2485.44   0
   3   1   2 36364.5 1965.92   3
   3   1   3 351509. 7297.47   0
   3   1   3 331575. 5837.13   3
   3   1   4 1018.04 904.007   3
   3   1   4-187.570 1245.59   0
   3   1   5 173535. 4739.03   3
   3   1   5 173437. 6030.07   0
   3   1   6 37867.5 2645.87   3
   3   1   6 38644.7 3172.08   0
   3   1   7 6756.76 1895.84   3
   3   1   7 5730.18 2113.30   0
   3   1   8 72998.9 3909.78  12
   3   1   8 74322.4 4101.47   3
   3   1   9 61701.3 3676.03  12
   3   1   9 81382.7 4533.50  15
   3   1  10 7985.89 1893.34  12
   3   1  10 7789.04 2176.77  15
   3   1  11 47897.9 3016.73  12
   3   1  11 54013.3 3549.96   7
   3   1  12 1365.19 1665.83   7
   3   1  13-1334.01 1640.88   7
  -3  -2  16 20867.6 1477.87  11
  -3  -2  15 10160.5 1599.19  11
   3   2 -15 12809.0 1662.64  10
  -3  -2  14 26369.9 2399.32  11
   3   2 -14 34138.2 2735.78  10
  -3  -2  13 28994.8 3294.01  11
   3   2 -13 47465.6 3373.03  10
   3   2 -12 8999.07 2008.24  10
   3   2 -12 7610.43 1858.47   4
   3   2 -11 13354.1 2350.18  10
   3   2 -11 14778.7 2114.29   4
   3   2 -10 99756.4 5026.61  10
   3   2 -10 87507.2 4190.84   4
   3   2  -9 1602.13 1303.93   4
   3   2  -8 179489. 5669.28   4
   3   2  -7 66173.3 3428.27   4
   3   2  -6 62649.2 3201.26   4
   3   2  -5 17017.4 1901.43   4
   3   2  -4 89297.6 3507.91   4
   3   2  -3 37147.2 2282.25   4
   3   2  -2 377182. 6390.95   4
   3   2  -1 7814.62 1156.86   3
   3   2  -1 8358.40 1321.38   4
   3   2   0 29328.4 1872.88   3
   3   2   1 11145.9 1271.08   3
   3   2   2 80318.4 3412.92   0
   3   2   2 77130.7 2904.47   3
   3   2   3 75860.8 3002.05   3
   3   2   3 78566.0 3696.37   0
   3   2   4 266488. 5685.05   3
   3   2   4 279040. 7214.36   0
   3   2   5 1928.75 977.543   3
   3   2   5-488.901 1658.81   0
   3   2   6 104382. 4990.96   0
   3   2   6 109298. 4206.23   3
   3   2   7 2367.17 1851.68   9
   3   2   8 18057.9 2293.77   9
   3   2   9 105391. 4479.33   9
   3   2  10 40550.0 2916.05   9
   3   2  10 42475.1 3244.98  15
   3   2  11 36037.1 2575.98   9
   3   2  11 41155.6 3267.63   7
   3   2  12 24552.0 2356.74   7
  -3  -3  16 273.752 881.430  11
  -3  -3  15 32055.1 2102.41  11
  -3  -3  14 4147.88 1550.43  11
   3   3 -14 3239.36 1446.52  10
  -3  -3  13 43100.3 3354.55  11
   3   3 -13 67891.4 3976.99  10
  -3  -3  12 26825.4 3322.44  11
   3   3 -12 22635.5 2644.55  10
   3   3 -12 24342.2 2370.94   4
   3   3 -11 3038.24 1645.00  10
   3   3 -11 3212.68 1420.10   4
   3   3 -10 21098.7 2586.50  10
   3   3 -10 25266.7 2525.12   4
   3   3  -9 128508. 5047.59   4
   3   3  -8 6664.98 1537.50   4
   3   3  -7 190866. 5846.35   4
   3   3  -6 29698.5 2488.44   4
   3   3  -5 21016.1 2174.82   4
   3   3  -4 100189. 4052.17   4
   3   3  -3 57110.9 3102.85   4
   3   3  -2 37207.3 2572.45   4
   3   3  -1 190020. 5164.12   4
   3   3  -1 220749. 5175.02   3
   3   3   0 4506.95 1173.02   3
   3   3   1 7761.15 1276.13   3
   3   3   2 84098.6 3194.07   3
   3   3   3 18116.7 2095.33   0
   3   3   3 15760.1 1645.06   3
   3   3   4 165514. 4665.81   3
   3   3   4 170052. 6024.81   0
   3   3   5 89978.2 4638.40   0
   3   3   6 19135.7 2347.60   9
   3   3   7 31944.3 2888.04   9
   3   3   8 44588.3 3261.79   9
   3   3   9 3173.61 1553.15   9
   3   3  10 52103.8 3157.48   9
   3   3  10 62902.9 3636.19  15
   3   3  11 9907.32 1702.13   9
   3   3  11 10243.6 2095.18   7
  -3  -4  15 5289.37 1260.87  11
  -3  -4  14 35119.9 2341.49  11
   3   4 -14 43457.4 2668.46  10
   3   4 -13 938.180 1489.46  10
  -3  -4  12 54452.4 3738.98  11
   3   4 -12 85170.1 4506.76  10
   3   4 -11 25800.1 2906.09  10
   3   4 -11 30590.2 2570.54   4
  -3  -4  10 8117.63 2052.15   6
   3   4 -10 7228.82 2233.68  10
   3   4 -10 8333.56 1711.45   4
   3   4  -9 23652.9 2998.09  10
   3   4  -9 26776.6 2564.13   4
  -3  -4   9 25700.9 2702.47   6
   3   4  -8 193729. 6156.48   4
   3   4  -7 8982.97 1759.42   4
   3   4  -6 260448. 6938.06   4
   3   4  -5 1938.32 1396.85   4
   3   4  -4 6051.57 1621.38   4
   3   4  -3 89396.7 4123.59   4
   3   4  -2 53060.8 3276.44   4
   3   4  -1 164965. 4949.95   3
   3   4   0 141814. 4483.78   3
   3   4   1 12814.1 1613.95   3
   3   4   2 23935.1 1978.01   3
   3   4   3 108319. 3818.99   3
   3   4   4 8968.02 2024.86   9
   3   4   5 103696. 4773.02   9
   3   4   6 41913.5 3299.23   9
   3   4   7 37184.5 3205.71   9
   3   4   8 3952.92 1804.06   9
   3   4   9 17730.4 2160.69   9
   3   4  10 2395.70 1423.99   9
   3   4  10-913.469 1547.63  15
   3   4  11 32984.0 2181.32   9
   3   4  11 41955.7 2651.73   7
  -3  -5  14 5845.63 1337.29  11
  -3  -5  13 32863.9 2294.34  11
   3   5 -12 1841.56 1560.84  10
   3   5 -11 32238.1 3067.43  10
  -3  -5  11 40472.1 2935.27   6
  -3  -5  10 8169.41 1921.80   6
   3   5 -10 9026.30 1877.61   4
   3   5 -10 7554.53 2026.86  10
  -3  -5   9 6234.12 2015.71   6
   3   5  -9 5216.52 1909.40  10
   3   5  -9 6979.78 1747.88   4
   3   5  -8 56292.7 4024.75  10
   3   5  -8 66109.8 3760.30   4
  -3  -5   8 61765.6 3898.80   6
   3   5  -7 98073.3 5200.49  10
  -3  -5   7 97561.2 4625.11   6
   3   5  -7 102513. 4633.09   4
   3   5  -6 104058. 4687.54   4
   3   5  -5 86709.2 4325.06   4
   3   5  -4 2600.42 1448.40   4
   3   5  -3 19742.7 2410.05   4
   3   5  -2 92641.0 4520.94   4
   3   5  -2 74936.5 3757.59   3
   3   5  -1 17337.6 1996.71   3
   3   5   0 154544. 4990.61   3
   3   5   1 40991.5 2647.98   3
   3   5   2 624.002 1685.36   9
   3   5   3 9878.47 2147.02   9
   3   5   4 85926.9 4631.42   9
   3   5   5 1661.88 1655.32   9
   3   5   6 117833. 5270.81   9
   3   5   7 5293.43 1896.88   9
   3   5   8 18882.0 2371.30   9
   3   5   9 28169.9 2482.08   9
   3   5  10 25074.1 2053.81  15
   3   5  10 25718.5 2116.62   9
  -3  -6  11 32886.8 2431.96   6
  -3  -6  10 30176.9 2733.72   6
   3   6  -9 24084.7 2440.62   4
  -3  -6   9 21964.9 2577.98   6
  -3  -6   8-290.766 1845.88   6
   3   6  -8 1296.11 1534.48   4
   3   6  -7 142191. 5453.46   4
  -3  -6   7 140681. 5569.31   6
   3   6  -6 33338.4 2937.37   4
  -3  -6   6 30944.1 2979.91   6
   3   6  -5 75524.2 4216.91   4
  -3  -6   5 70714.6 4245.64   6
  -3  -6   4 14594.3 2423.55   6
   3   6  -4 20619.7 2539.26   4
  -3  -6   3 2276.98 2295.96   6
   3   6  -3 3203.28 1790.17   4
  -3  -6   2 7595.33 2604.82   6
   3   6  -2 7219.87 1760.14   3
   3   6  -2 7690.59 1923.03   4
   3   6  -1 137906. 5613.14   9
   3   6  -1 127736. 4784.75   3
   3   6   0 2581.34 1823.29   9
   3   6   1 96549.7 4955.28   9
   3   6   2 19321.6 2568.61   9
   3   6   3 17637.5 2447.76   9
   3   6   4 29833.6 3040.52   9
   3   6   5 112427. 5213.41   9
   3   6   6 10692.1 2175.26   9
   3   6   7 74956.7 3896.74   9
   3   6   8 9139.95 1795.07   9
   3   6   9 2624.02 1340.19   9
   3   6   9 1226.86 1339.87  15
  -3  -7  11 42089.8 2434.52   6
  -3  -7  10 15633.1 1932.85   6
  -3  -7   9 24170.8 2365.55   6
  -3  -7   8 23915.4 2426.79   6
  -3  -7   7 60.4792 1582.56   6
   3   7  -7-332.922 1770.94   4
  -3  -7   6 132754. 5364.77   6
   3   7  -6 137201. 5364.23   4
  -3  -7   5 8518.10 2028.36   6
   3   7  -5 8327.21 2018.22   4
   3   7  -4 60150.8 3854.07   4
  -3  -7   4 49241.5 3544.60   6
   3   7  -3 16551.1 2172.09   3
   3   7  -3 17348.2 2371.98   9
   3   7  -3 22492.9 2631.15   4
  -3  -7   3 23090.0 2646.73   6
  -3  -7   2 5751.34 2094.09   6
   3   7  -2 8953.92 2094.58   9
   3   7  -2 6543.26 2253.87   4
   3   7  -1 60030.5 3897.54   9
   3   7  -1 68444.9 4208.25   4
   3   7   0 127786. 5544.08   9
   3   7   1 1283.95 1718.13   9
   3   7   2 69635.1 4171.97   9
  -3  -7  -2 67212.2 3822.17  14
  -3  -7  -3 10444.1 1822.23  14
   3   7   3 12966.4 2400.26   9
   3   7   4 5448.98 2015.97   9
   3   7   5 48004.2 3379.34   9
   3   7   6 45167.4 3026.68   9
   3   7   7 24750.5 2223.42   9
   3   7   8 30439.3 1984.98   9
  -3  -8  11 80686.6 2629.16   6
  -3  -8  10 5939.47 1339.59   6
  -3  -8   9 4103.88 1347.81   6
  -3  -8   8 38544.6 2629.33   6
  -3  -8   7 60693.7 3357.29   6
  -3  -8   6 11275.3 1950.76   6
  -3  -8   5 152530. 5317.01   6
  -3  -8   4-75.0839 1493.02   6
  -3  -8   3 45123.5 3119.73   6
  -3  -8   2 37205.9 2761.69   6
   3   8  -1 19804.8 2443.25   9
   3   8   0 84913.7 4158.97   9
  -3  -8   0 74488.8 4128.55  14
   3   8   1 105492. 4626.58   9
  -3  -8  -1 85741.5 4153.10  14
   3   8   2 4898.78 1834.06   9
  -3  -8  -2 6372.53 1580.32  14
   3   8   3 28293.9 2633.63   9
  -3  -8  -3 25824.9 2085.67  14
   3   8   4 14980.0 2016.54   9
   3   8   5 444.936 1335.48   9
   3   8   6 57956.4 2529.41   9
  -3  -9  10 74277.9 2339.79   6
  -3  -9   9 6093.33 1231.30   6
  -3  -9   8 1396.62 1114.78   6
  -3  -9   7 37130.4 2355.98   6
  -3  -9   6 32723.4 2293.83   6
  -3  -9   5 28463.9 2266.47   6
  -3  -9   4 78654.9 3410.50   6
  -3  -9   3 3486.82 1341.16   6
  -3  -9   2 9313.21 1766.92  14
  -3  -9   1 29338.6 2565.00  14
  -3  -9   0 6127.57 1555.79  14
  -3  -9  -1 48313.6 2701.79  14
  -3  -9  -2 32164.6 2072.01  14
  -3 -10   8-188.468 687.828   6
  -3 -10   7 2821.42 873.105   6
  -3 -10   6 15831.9 1405.53  14
  -3 -10   6 29726.2 1712.20   6
  -3 -10   5 15942.5 1428.35   6
  -3 -10   5 10298.7 1333.05  14
  -3 -10   4 58066.0 2234.09   6
  -3 -10   4 47783.4 2346.29  14
  -3 -10   3 22360.8 1773.82  14
  -3 -10   2 2391.39 1059.62  14
  -3 -10   1 4883.63 1091.00  14
  -3 -10   0 35491.0 1823.61  14
   4 -11  -3 4291.60 981.073   8
   4 -11  -2 42123.9 2225.21   5
   4 -11  -2 47648.8 2229.13   8
   4 -11  -1 640.630 970.513   8
   4 -11   0 4932.75 1181.27   8
   4 -11   1 16869.0 1667.36   8
   4 -11   2 15178.8 1530.29   8
   4 -11   3 26956.8 1863.36   8
   4 -11   4 33639.8 1937.42   8
   4 -11   5 2026.48 1187.75   5
   4 -11   5 4235.71 953.872   8
   4 -10  -6 3723.43 1236.64  14
   4 -10  -5 734.570 1289.69  14
   4 -10  -4 28908.7 2049.29   8
   4 -10  -3 55595.4 2854.78   8
   4 -10  -2 45202.6 2751.11   8
   4 -10  -1 28898.6 2339.86   8
   4 -10   0 238.581 1261.91   8
   4 -10   1 3257.83 1322.82   8
   4 -10   2 57216.3 3084.59   8
   4 -10   3 12777.2 1736.68   8
   4 -10   4 66198.5 3161.39   8
   4 -10   5 19061.0 1756.65   8
   4 -10   5 16381.5 2090.23  13
   4 -10   6 1116.33 948.270   8
   4 -10   6 1501.19 1365.83  13
   4 -10   7 203.449 920.751   8
   4 -10   7 10691.8 1662.38  13
   4 -10   8 28008.5 1935.62  13
   4  -9  -8 46031.0 2644.49  14
   4  -9  -7 8387.09 1711.33  14
   4  -9  -6 37636.0 2236.55   8
   4  -9  -6 30967.4 2620.52  14
   4  -9  -5 20141.0 1950.67   8
   4  -9  -5 17428.8 2285.06  14
   4  -9  -4 118.891 1197.82   8
   4  -9  -4 1649.48 1768.53  14
   4  -9  -3 69982.3 3586.99   8
   4  -9  -2 17599.6 2158.59   8
   4  -9  -1 28974.6 2582.51   8
   4  -9   0 33331.6 2746.21   8
   4  -9   1 4790.31 1588.01   8
   4  -9   2 2981.49 1373.64   8
   4  -9   3 77901.3 3869.02   8
   4  -9   4 2707.44 1337.05   8
   4  -9   5 55718.4 3952.67  13
   4  -9   5 62129.0 3238.24   8
   4  -9   6 7680.53 1341.25   8
   4  -9   6 6368.61 1949.56  13
   4  -9   7 967.316 1579.21  13
   4  -9   8 3133.23 1581.24  13
   4  -9   9 41983.6 2615.71  13
   4  -9  10 2362.81 989.993  13
   4  -8  -9 6318.21 1646.44  14
   4  -8  -8 80783.2 3982.83  14
   4  -8  -7 47500.4 2650.87   8
   4  -8  -7 36241.8 3024.07  14
   4  -8  -6 15110.9 1861.48   8
   4  -8  -6 7340.58 1995.20  14
   4  -8  -5 20328.8 2142.75   8
   4  -8  -5 17800.3 2549.48  14
   4  -8  -4 12440.2 1882.47   8
   4  -8  -4 7959.19 2164.94  14
   4  -8  -3 928.357 1251.16   8
   4  -8  -2 110294. 4680.55   8
   4  -8  -1 3234.91 1472.92   8
   4  -8   0 37921.1 2920.02   8
   4  -8   1 21813.1 2417.87   8
   4  -8   2 14369.5 2008.99   8
   4  -8   3 12335.7 2055.38   8
   4  -8   4 68346.5 3830.54   8
   4  -8   4 80040.7 5221.39  13
   4  -8   5 5649.99 1635.36   8
   4  -8   5 5783.04 2215.16  13
   4  -8   6 41934.1 3795.22  13
   4  -8   7 639.506 2111.47  13
   4  -8   8 1254.45 1786.70  13
   4  -8   9 15530.7 2280.72  13
   4  -8  10 23450.0 2209.25  13
   4  -8  11 6098.42 1355.33  13
   4  -7 -11-473.658 1506.04  10
   4  -7 -10 245.853 1715.26  10
   4  -7  -9 57921.4 3695.10  14
   4  -7  -8 852.267 1298.07   8
   4  -7  -8 114.737 1619.97  14
   4  -7  -7 113029. 4227.88   8
   4  -7  -7 109493. 5260.74  14
   4  -7  -6 18743.5 2068.00   8
   4  -7  -6 19213.6 2705.94  14
   4  -7  -5 14037.0 1907.69   8
   4  -7  -5 14119.2 2607.27  14
   4  -7  -4 8818.59 1576.89   8
   4  -7  -4 10519.8 2499.09  14
   4  -7  -3 38829.8 2859.75   8
   4  -7  -2 10282.2 1863.41   8
   4  -7  -1 125248. 4858.64   8
   4  -7   0 2043.82 1399.30   8
   4  -7   1 35778.5 2835.77   8
   4  -7   2 18492.2 2385.42   8
   4  -7   3 28910.3 2768.91   8
   4  -7   4 71093.3 4049.12   8
   4  -7   4 73911.1 5268.02  13
   4  -7   5 39149.5 3971.26  13
   4  -7   6 7759.35 2526.40  13
   4  -7   7 34496.0 3684.06  13
   4  -7   8 11860.0 2633.51  13
   4  -7   9 2163.80 1907.43  13
   4  -7  10 43684.2 3171.73  13
   4  -7  11 7862.25 1902.93  13
   4  -6 -12 35249.4 2462.36  10
   4  -6 -11 10385.4 1918.61  10
   4  -6 -10 5624.70 1983.07  10
   4  -6  -9 11420.0 2471.05  10
   4  -6  -9 17117.3 1816.91   8
   4  -6  -9 16459.6 2524.27  14
   4  -6  -8 79646.0 3643.26   8
   4  -6  -8 87365.5 4802.32  14
   4  -6  -7 393.836 1243.70   8
   4  -6  -7 927.303 1925.94  14
   4  -6  -6 85326.6 3883.54   8
   4  -6  -6 87871.2 4852.27  14
   4  -6  -5 4208.17 1425.38   8
   4  -6  -5 2995.24 2148.80  14
   4  -6  -4 4734.66 1452.64   8
   4  -6  -4 3060.01 2851.65  14
   4  -6  -3 14458.5 3977.03   2
   4  -6  -2 39433.3 4317.81   2
   4  -6  -1 16302.7 3067.57   2
   4  -6   0 141146. 6959.18   2
   4  -6   1 2764.43 3170.14   2
   4  -6   4 21544.4 3349.16  13
   4  -6   5 60084.2 4790.63  13
   4  -6   6 76726.4 5273.72  13
   4  -6   7 34384.2 3696.13  13
   4  -6   8 13856.4 2726.19  13
   4  -6   9 13304.2 2685.91  13
   4  -6  10 2097.15 1762.44  13
   4  -6  11 53624.9 3480.73  13
   4  -6  12 6009.46 1641.57  13
   4  -5 -13 38049.2 2486.08  10
   4  -5 -12 606.783 1509.04  10
   4  -5 -11 51190.5 3707.19  10
   4  -5 -10 3226.08 1952.93  10
   4  -5 -10 4415.87 1265.57   8
   4  -5  -9-1032.76 2213.69  10
   4  -5  -9-227.054 1331.05   8
   4  -5  -9 975.087 1747.41  14
   4  -5  -8 85652.8 5278.50  10
   4  -5  -8 84992.0 3808.99   8
   4  -5  -8 83175.6 4741.77  14
   4  -5  -7 73187.1 3576.68   8
   4  -5  -7 71626.5 4386.09  14
   4  -5  -6 53380.2 3060.14   8
   4  -5  -6 53955.1 3844.09  14
   4  -5  -5 107307. 6381.54   2
   4  -5  -4 5231.24 3288.77   2
   4  -5  -3 5446.71 2579.14   2
   4  -5  -2 137515. 6808.54   2
   4  -5  -1 67257.3 4786.42   2
   4  -5   0 123365. 6259.50   2
   4  -5   1 117783. 6214.72   2
   4  -5   2 13826.8 2944.40   2
   4  -5   5 2447.08 4186.10  15
   4  -5   5 192.418 2436.50  13
   4  -5   6 77356.8 6236.51  15
   4  -5   6 92145.0 5636.73  13
   4  -5   7 1535.15 2030.77  12
   4  -5   7 6531.18 4603.38  15
   4  -5   7 2235.32 2379.83  13
   4  -5   8 19252.0 2509.82  12
   4  -5   8 24722.4 4915.47  15
   4  -5   8 18504.9 2914.27  13
   4  -5   9 17751.8 2199.73  12
   4  -5   9 14280.4 2778.10  13
   4  -5  10 43154.9 2776.67  12
   4  -5  10 31382.1 3407.19  13
   4  -5  11 2135.47 1208.27  12
   4  -5  11 1555.16 2047.76  13
   4  -5  12 73381.3 2698.08  12
   4  -5  12 60282.5 3062.97  13
   4  -4 -14 4009.57 1290.32  10
   4  -4 -13 16978.9 2137.79  10
   4  -4 -12 78593.2 4360.10  10
   4  -4 -11 2396.03 1863.68  10
   4  -4 -10 95746.1 5375.21  10
   4  -4 -10 88221.3 3834.77   8
   4  -4  -9 45123.1 3957.64  10
   4  -4  -9 42024.2 2802.51   8
   4  -4  -9 48041.8 3175.61   4
   4  -4  -9 38267.1 3484.90  14
   4  -4  -8 1970.32 2868.88  10
   4  -4  -8 944.540 1263.95   8
   4  -4  -8 1384.33 1759.60  14
   4  -4  -7 133767. 4648.41   8
   4  -4  -7 142523. 4797.73   4
   4  -4  -7 132302. 5707.50  14
   4  -4  -6 163461. 7058.32   2
   4  -4  -6 154189. 4773.53   4
   4  -4  -5 106635. 5823.21   2
   4  -4  -5 114816. 3841.93   4
   4  -4  -4 88082.1 5481.96   2
   4  -4  -3 9789.82 2470.75   2
   4  -4  -2 13281.7 2400.30   2
   4  -4  -1 166925. 6879.27   2
   4  -4   0 16616.3 2739.04   2
   4  -4   1 186662. 7260.41   2
   4  -4   2 51564.6 2994.29   3
   4  -4   2 45942.0 3929.51   2
   4  -4   3 10635.8 1911.82   3
   4  -4   4 40669.9 3114.13   3
   4  -4   6 2298.69 2221.51  12
   4  -4   6 286.734 4195.24  15
   4  -4   6 630.052 2256.51  13
   4  -4   7 82992.1 4662.65  12
   4  -4   7 80470.6 5135.27  13
   4  -4   8 587.525 1833.28  12
   4  -4   8 1494.77 4041.51  15
   4  -4   8 187.071 2129.13  13
   4  -4   9 4989.11 1787.17  12
   4  -4   9 8535.95 4268.18  15
   4  -4   9 2769.65 1987.59  13
   4  -4  10 19830.8 2428.64  12
   4  -4  10 24784.7 4336.76  15
   4  -4  11 39027.3 2674.43  12
   4  -4  11 32163.6 3182.61  13
   4  -4  11 44252.7 4161.94  15
   4  -4  12 8655.76 1436.57  12
   4  -4  13 27856.4 1636.47  12
   4  -3 -14 13557.9 1909.39  10
   4  -3 -13 12348.8 2068.25  10
   4  -3 -12 56952.0 3994.81  10
   4  -3 -11 98577.2 5297.07  10
   4  -3 -11 103997. 4123.80   8
   4  -3 -10 13400.3 2590.40  10
   4  -3 -10 9477.09 1638.57   8
   4  -3 -10 11749.5 2053.99   4
   4  -3  -9 32395.7 3533.73  10
   4  -3  -9 31679.2 2476.01   8
   4  -3  -9 31855.6 2713.11   4
   4  -3  -8 21844.3 3144.40  10
   4  -3  -8 20950.5 2098.69   8
   4  -3  -8 21298.2 2300.49   4
   4  -3  -8 18275.2 2539.16  14
   4  -3  -7 809.083 1283.29   4
   4  -3  -6 221509. 7580.06   2
   4  -3  -6 212404. 5458.85   4
   4  -3  -5 25174.6 2975.96   2
   4  -3  -5 28593.0 1993.50   4
   4  -3  -4 120256. 5777.42   2
   4  -3  -3 36754.4 3414.93   2
   4  -3  -2 12290.1 2160.81   2
   4  -3  -1 32031.5 3183.01   2
   4  -3   0 222772. 7489.75   2
   4  -3   1 3453.63 1179.67   3
   4  -3   1 4294.18 1891.05   2
   4  -3   2 175761. 4845.46   3
   4  -3   2 175295. 6843.14   2
   4  -3   3 39693.6 2706.00   3
   4  -3   3 39712.0 3506.18   2
   4  -3   4 2846.59 1630.46   3
   4  -3   5 38439.5 3096.56   3
   4  -3   6 88009.1 4708.55   3
   4  -3   6 98734.3 5367.85  15
   4  -3   6 91225.9 5008.01  12
   4  -3   7 15749.4 2881.94  12
   4  -3   7 21250.9 3187.65  15
   4  -3   7 21132.8 2882.19  13
   4  -3   8 38599.9 3624.01  12
   4  -3   8 42554.1 4530.29  15
   4  -3   8 45973.8 4209.78  13
   4  -3   9 1005.00 1682.64  12
   4  -3   9-1384.73 4083.32  15
   4  -3   9 842.583 2455.52  13
   4  -3  10 3318.73 1702.56  12
   4  -3  10 7273.68 2658.65  13
   4  -3  10 582.547 3894.56  15
   4  -3  11 35204.5 2701.03  12
   4  -3  11 42033.8 4279.45  15
   4  -3  11 35124.7 3300.21  13
   4  -3  12 26864.0 2144.71  12
   4  -3  13 29147.6 1811.26  12
   4  -2 -15 5465.73 1225.94  10
   4  -2 -14 4424.33 1440.79  10
   4  -2 -13 39064.7 3223.35  10
   4  -2 -12 5606.29 2022.94  10
   4  -2 -12 5686.26 1457.22   8
   4  -2 -11 125538. 5978.59  10
   4  -2 -11 125057. 4683.88   8
   4  -2 -11 137869. 5266.63   4
   4  -2 -10 23809.7 3139.99  10
   4  -2 -10 21835.3 2240.29   8
   4  -2 -10 23748.4 2480.94   4
   4  -2  -9 32374.0 3422.55  10
   4  -2  -9 25283.4 2324.18   8
   4  -2  -9 28916.0 2601.96   4
   4  -2  -8 20710.4 2262.82   4
   4  -2  -7 23825.6 2134.08   4
   4  -2  -6 10372.1 2125.33   2
   4  -2  -6 12561.8 1602.82   4
   4  -2  -5 323637. 8569.92   2
   4  -2  -5 339113. 6146.16   4
   4  -2  -4 20079.9 2503.16   2
   4  -2  -3 66372.4 4027.62   2
   4  -2  -2 1528.14 1442.05   2
   4  -2  -1 91357.7 4691.85   2
   4  -2  -1 97623.6 3046.41   3
   4  -2   0 49747.9 3603.66   2
   4  -2   0 49448.5 2329.68   3
   4  -2   1 261140. 5334.68   3
   4  -2   1 254023. 7885.97   2
   4  -2   2 5266.25 1149.62   3
   4  -2   2 5692.09 2016.29   2
   4  -2   3 70826.8 3294.84   3
   4  -2   3 70239.4 4431.78   2
   4  -2   4 8934.84 1685.52   3
   4  -2   5 6567.94 1709.46   3
   4  -2   6 80083.5 4851.65  12
   4  -2   6 74410.7 4143.23   3
   4  -2   6 91009.2 5036.42  13
   4  -2   6 76882.1 4621.56  15
   4  -2   7 42163.9 3855.09  12
   4  -2   7 50612.9 3809.99   3
   4  -2   7 41185.2 3640.09  15
   4  -2   7 53447.3 4375.24  13
   4  -2   8 31273.0 3323.80  12
   4  -2   8 37910.2 3517.20  15
   4  -2   8 36940.6 3827.36  13
   4  -2   9 32277.3 3138.93  12
   4  -2   9 40102.2 3731.17  15
   4  -2   9 34035.3 3618.77  13
   4  -2  10 3545.79 1842.05  12
   4  -2  10 8439.02 2738.30  13
   4  -2  11 4334.84 1543.06  12
   4  -2  11 3984.12 3350.74  15
   4  -2  12 43217.7 2640.66  12
   4  -1 -15 12850.3 1584.61  10
  -4   1  14 1816.88 1601.54  11
   4  -1 -14 425.565 1396.26  10
  -4   1  13 989.070 2698.96  11
   4  -1 -13 18325.3 2400.97  10
  -4   1  12 27391.5 3595.39  11
   4  -1 -12 40296.1 3481.43  10
   4  -1 -11 281.462 1756.55  10
   4  -1 -11 1680.09 1234.31   8
   4  -1 -11 574.995 1849.39   4
   4  -1 -10 99549.2 5383.32  10
   4  -1 -10 100186. 4276.47   8
   4  -1 -10 111913. 4766.42   4
   4  -1  -9 4897.50 2055.70  10
   4  -1  -9 5167.09 1577.32   4
   4  -1  -9 4879.86 1480.31   8
   4  -1  -8 13051.2 1996.49   4
   4  -1  -7 33332.8 2477.86   4
   4  -1  -6 89406.3 4485.73   2
   4  -1  -6 78644.9 3313.39   4
   4  -1  -5 79167.1 4239.67   2
   4  -1  -5 75737.9 3060.40   4
   4  -1  -4 211891. 6739.20   2
   4  -1  -3 303.222 777.039   3
   4  -1  -3-198.032 1423.23   2
   4  -1  -2 37261.9 3009.50   2
   4  -1  -2 36222.8 1959.49   3
   4  -1  -1 44888.4 3314.15   2
   4  -1  -1 43511.9 2157.32   3
   4  -1   0 16307.9 2456.75   2
   4  -1   0 14901.5 1447.78   3
   4  -1   1 164765. 6310.52   2
   4  -1   1 188164. 4584.46   3
   4  -1   2 126792. 3970.80   3
   4  -1   2 120948. 5663.50   2
   4  -1   3 34940.6 2320.70   3
   4  -1   4 55146.9 3042.29   3
   4  -1   5 9785.50 1865.06   3
   4  -1   6 422.408 1965.37  12
   4  -1   6 982.485 1640.68   3
   4  -1   6-527.250 1935.63  15
   4  -1   6-286.625 2124.11  13
   4  -1   7 142388. 6083.65  12
   4  -1   7 131929. 5806.40  15
   4  -1   7 131556. 5491.05   3
   4  -1   8 24411.7 3020.85  12
   4  -1   8 29262.1 3187.38  15
   4  -1   9 51001.2 3628.30  12
   4  -1   9 57898.2 4121.36  15
   4  -1  10 14932.9 2265.05  12
   4  -1  10 24182.4 2975.48  15
   4  -1  11 3917.24 1550.21  12
   4  -1  11-1321.26 3174.33  15
   4  -1  12 4682.29 1505.80  12
  -4   0  15 46496.1 2110.67  11
   4   0 -15 60505.1 2892.00  10
  -4   0  14 3685.82 1588.25  11
   4   0 -14 4791.44 1545.80  10
   4   0 -13 204.499 1570.24  10
  -4   0  12 44320.2 3761.25  11
   4   0 -12 17527.0 2585.75  10
   4   0 -11 68472.8 4460.14  10
   4   0 -11 66733.4 3651.41   8
   4   0 -11 76428.0 4129.05   4
   4   0 -10 11283.2 2463.68  10
   4   0 -10 11167.5 2070.54   4
   4   0 -10 9118.63 1730.84   8
   4   0  -9 136793. 6092.88  10
   4   0  -9 127893. 4884.28   8
   4   0  -9 123406. 4941.91   4
   4   0  -8 624.257 1539.54   4
   4   0  -7 13617.8 1882.44   4
   4   0  -6 128273. 4293.29   4
   4   0  -5 68612.4 3947.54   2
   4   0  -5 76651.9 3112.19   4
   4   0  -5 69260.8 2858.43   3
   4   0  -4 118951. 5043.22   2
   4   0  -4 109157. 3430.27   3
   4   0  -3 259779. 7351.81   2
   4   0  -3 263793. 5164.40   3
   4   0  -2 27200.5 2737.72   2
   4   0  -2 28896.4 1860.93   3
   4   0  -1 17516.6 2288.40   2
   4   0  -1 16060.8 1486.09   3
   4   0   0 127546. 5634.02   2
   4   0   0 132894. 3840.10   3
   4   0   1 8119.92 1277.61   3
   4   0   2 177187. 4744.37   3
   4   0   3 52302.0 2776.40   3
   4   0   4 26740.2 2202.89   3
   4   0   5 24787.8 2412.29   3
   4   0   6 85037.1 4554.34  12
   4   0   6 71985.9 3990.61   3
   4   0   7-130.169 1906.87  12
   4   0   7 4067.49 1945.95   3
   4   0   8 147599. 5827.97  12
   4   0   8 156245. 5912.71   3
   4   0   8 167155. 6374.81  15
   4   0   9 9211.83 2045.95  12
   4   0   9 6038.42 2235.39  15
   4   0  10 25260.3 2475.15  12
   4   0  10 31148.6 3001.56  15
   4   0  11 13573.2 1904.51  12
   4   0  11 18067.6 2646.23  15
   4   1 -15 2511.45 1241.15  10
  -4  -1  15 2580.18 1271.54  11
  -4  -1  14 25329.2 2541.16  11
   4   1 -14 49014.5 3077.43  10
  -4  -1  13 11332.2 2526.54  11
   4   1 -13 13225.1 2120.24  10
  -4  -1  12 46304.7 3760.20  11
   4   1 -12 157.453 1627.78  10
   4   1 -11 40246.6 3539.20  10
   4   1 -11 41750.1 3177.49   4
   4   1 -10 74790.6 4624.81  10
   4   1 -10 67689.5 3809.96   4
   4   1  -9 61867.0 4418.54  10
   4   1  -9 63092.6 3595.89   8
   4   1  -9 63538.5 3708.49   4
   4   1  -8 78119.5 3870.75   4
   4   1  -7 1591.59 1372.74   4
   4   1  -6 5034.78 1372.07   4
   4   1  -5 179168. 4976.30   4
   4   1  -4 39968.8 2390.52   4
   4   1  -4 37573.4 2310.98   3
   4   1  -3 176023. 4661.80   3
   4   1  -2 90447.0 3348.86   3
   4   1  -1 6591.11 1220.33   3
   4   1   0 22907.5 1846.68   3
   4   1   1 129398. 4118.35   3
   4   1   2 1364.97 959.184   3
   4   1   3 180661. 5126.75   3
   4   1   4 1643.58 1163.69   3
   4   1   5-362.368 1913.45  12
   4   1   5 27.3658 1462.96   3
   4   1   6 60739.4 3711.96  12
   4   1   6 50070.9 3439.60   3
   4   1   7 75357.0 4099.22  12
   4   1   7 69291.3 4086.79   3
   4   1   8 10232.4 2038.22  12
   4   1   8 5794.59 2123.96  15
   4   1   9 86500.1 4114.18  12
   4   1   9 95959.2 4782.97  15
   4   1  10 2087.24 1886.09  15
   4   1  11 17193.9 2223.02  15
  -4  -2  15 37672.5 1985.36  11
   4   2 -15 48869.7 2455.11  10
  -4  -2  14 618.188 1873.71  11
   4   2 -14 9413.45 1710.43  10
  -4  -2  13 18758.2 2682.85  11
   4   2 -13 23272.1 2522.53  10
  -4  -2  12 46946.2 3837.58  11
   4   2 -12 12565.6 2303.42  10
   4   2 -11 1278.16 1694.35  10
   4   2 -11 980.119 1818.97   4
   4   2 -10 64573.4 4351.68  10
   4   2 -10 66936.1 3797.75   4
   4   2  -9 61099.0 4212.93  10
   4   2  -9 57443.6 3539.05   4
   4   2  -8 93400.8 5067.08  10
   4   2  -8 90003.9 4280.16   4
   4   2  -7 51114.0 3230.89   4
   4   2  -6 15189.0 1931.71   4
   4   2  -5 11770.1 1643.27   4
   4   2  -4 276532. 6292.84   4
   4   2  -3 26993.2 2101.12   3
   4   2  -2 235037. 5745.31   3
   4   2  -1 68264.1 3196.62   3
   4   2   0 830.564 999.661   3
   4   2   1 47906.0 2743.96   3
   4   2   2 61963.7 3129.34   3
   4   2   3 6674.76 1458.96   3
   4   2   4 153982. 5028.11   3
   4   2   4 167955. 5481.24   9
   4   2   5 2234.47 1637.69   3
   4   2   5 1270.50 1917.71   9
   4   2   6 15761.5 2327.06   3
   4   2   6 19740.5 2350.24   9
   4   2   7 44276.1 3179.61   9
   4   2   8 48227.7 3090.58   9
   4   2   8 44290.2 3668.54  15
   4   2   9 28357.4 2936.09  15
   4   2  10 54550.0 3381.83  15
   4   2  11 8362.04 1761.74  15
  -4  -3  15 32932.1 1744.86  11
   4   3 -15 38465.8 1947.27  10
  -4  -3  14 12456.7 1895.28  11
   4   3 -14 21712.4 2095.07  10
  -4  -3  13 9123.52 2286.88  11
   4   3 -13 12861.1 2084.49  10
  -4  -3  12 39196.4 3422.30  11
   4   3 -12 14002.3 2253.68  10
   4   3 -11 23520.8 2807.44  10
  -4  -3  11 28676.5 2736.10   6
   4   3 -10 1578.00 1844.72  10
   4   3 -10-686.716 1624.30   4
   4   3  -9 150211. 6475.04  10
   4   3  -9 165992. 5828.98   4
   4   3  -8 13444.5 2495.09  10
   4   3  -8 13688.3 2070.59   4
   4   3  -7 16066.1 2226.87   4
   4   3  -7 18794.3 2911.52  10
   4   3  -6 27217.9 2495.70   4
   4   3  -5 41538.5 2892.20   4
   4   3  -4 24721.4 2337.79   4
   4   3  -3 314517. 7316.09   3
   4   3  -2 5568.12 1435.71   3
   4   3  -1 113752. 4356.21   3
   4   3   0 5406.58 1341.49   3
   4   3   1 445.373 1023.62   3
   4   3   2 50373.1 2999.01   3
   4   3   3 128532. 5076.58   9
   4   3   3 127045. 4612.05   3
   4   3   4 104902. 4233.31   3
   4   3   4 110994. 4810.20   9
   4   3   5 28539.4 2700.81   3
   4   3   5 36141.3 3007.09   9
   4   3   6 13216.5 2187.05   9
   4   3   7 2319.70 1608.70   9
   4   3   8 59839.2 3342.22   9
   4   3   9 21819.9 2141.48   9
   4   3   9 16475.1 2456.21  15
   4   3  10 45281.5 2846.92  15
  -4  -4  14 41798.9 2106.44  11
  -4  -4  13 2131.96 1926.36  11
   4   4 -13 7549.00 1617.27  10
  -4  -4  12 17923.0 2627.17  11
   4   4 -12 12324.6 2024.90  10
  -4  -4  12 17932.8 2105.10   6
   4   4 -11 12565.6 2230.37  10
  -4  -4  11 20223.0 2461.33   6
  -4  -4  10 13335.9 2295.82   6
   4   4 -10 11990.1 2311.71  10
   4   4 -10 12431.3 1938.98   4
  -4  -4   9 11211.7 2158.35   6
   4   4  -9 6808.63 2115.67  10
   4   4  -9 9333.44 1963.26   4
   4   4  -8 79009.8 4834.04  10
   4   4  -8 91753.5 4463.44   4
   4   4  -7 1087.68 1930.75  10
   4   4  -7-1360.74 1555.70   4
   4   4  -6 42681.1 3783.36  10
   4   4  -6 38867.7 4841.27   5
   4   4  -6 43158.4 3169.03   4
   4   4  -5 10100.4 4289.33   5
   4   4  -5 12251.4 1996.52   4
   4   4  -4 9326.62 2018.00   4
   4   4  -4 11920.0 1978.03   3
   4   4  -3 102536. 4554.53   3
   4   4  -2 126250. 4938.98   3
   4   4  -1 21302.6 2282.34   3
   4   4   0 32408.1 6036.83   5
   4   4   0 37252.7 2760.71   3
   4   4   1 7630.46 6403.27   5
   4   4   1 10970.0 1832.51   3
   4   4   1 8351.18 1996.56   9
   4   4   2 64.6650 1519.55   3
   4   4   2 465.374 1767.69   9
   4   4   3 70602.9 4183.01   9
   4   4   3 72361.4 3636.68   3
   4   4   4 53737.8 3735.40   9
   4   4   5 29412.0 2921.45   9
   4   4   6 27565.3 2768.36   9
   4   4   7 10173.2 2020.97   9
   4   4   8 3281.58 1522.92   9
   4   4   9 84516.9 3308.74   9
   4   4   9 101314. 4103.19  15
  -4  -5  13 47254.3 2251.54  11
  -4  -5  12-899.058 1281.17   6
  -4  -5  11 28551.4 2915.53  11
  -4  -5  11 34600.3 2665.36   6
  -4  -5  10 55006.1 3878.09  11
  -4  -5  10 27503.7 2755.77   6
  -4  -5   9 27863.1 2827.58   6
   4   5  -8 60270.2 3662.47   4
  -4  -5   8 47656.2 3431.86   6
   4   5  -7 84003.0 4266.22   4
  -4  -5   7 79966.7 4433.65   6
  -4  -5   6 966.694 1808.93   6
   4   5  -6-1871.07 3956.40   5
   4   5  -6 2686.00 1832.62   4
  -4  -5   5 21999.1 2709.05   6
   4   5  -5 14471.8 4741.78   5
   4   5  -5 25879.3 2535.63   4
   4   5  -5 15019.7 2170.59   3
   4   5  -4 35380.7 5448.74   5
   4   5  -4 44473.6 3232.32   4
   4   5  -4 33248.9 2904.25   3
  -4  -5   4 35948.3 3208.23   6
  -4  -5   3 21721.2 2782.61   6
   4   5  -3 14494.1 5256.72   5
   4   5  -3 20926.2 2384.83   3
   4   5  -2 95826.2 7340.71   5
   4   5  -2 110791. 4783.19   3
   4   5  -1 32450.8 6449.44   5
   4   5  -1 42464.7 3045.86   3
   4   5   0 7848.36 6635.03   5
   4   5   0 11217.2 1820.05   3
   4   5   0 11145.4 2138.75   9
   4   5   1 21297.3 2778.03   9
   4   5   1 27672.1 2533.06   3
   4   5   2 12718.6 2465.23   9
   4   5   3 1712.03 1728.85   9
   4   5   4 119183. 5305.82   9
   4   5   5 14904.3 2399.52   9
   4   5   6 23551.7 2568.96   9
   4   5   7 26474.7 2462.06   9
   4   5   8 14277.5 1844.07   9
   4   5   8 17510.0 2169.64  15
  -4  -6  12 62255.6 2406.93   6
  -4  -6  11 1427.50 1196.89   6
  -4  -6  10 764.980 1494.07   6
  -4  -6   9 44859.6 3059.03   6
  -4  -6   8 31138.1 2925.72   6
  -4  -6   7 48079.5 3491.77   6
   4   6  -6 82236.1 4289.27   4
  -4  -6   6 69762.7 4118.71   6
  -4  -6   5 915.562 1673.94   6
   4   6  -5 1647.40 1683.69   3
   4   6  -5-220.255 2484.29   4
  -4  -6   4 11728.4 2057.72   6
   4   6  -4 12533.9 2033.73   3
   4   6  -4 13852.6 2587.32   4
   4   6  -3 58681.5 3671.15   3
  -4  -6   3 70601.8 4001.80   6
   4   6  -2 5481.43 1896.43   3
   4   6  -2 6116.19 1937.34   9
   4   6  -1 165478. 6406.34   9
   4   6  -1 181482. 5827.10   3
   4   6   0 22255.8 2651.29   9
   4   6   1 24145.0 2816.27   9
   4   6   2 31910.3 3063.27   9
   4   6   3 48550.3 3633.66   9
   4   6   4 8717.15 2145.78   9
   4   6   5 93518.2 4322.27   9
   4   6   6 989.891 1532.30   9
   4   6   7 16498.9 1816.78   9
  -4  -7  11 42609.8 2104.71   6
  -4  -7  10 4139.77 1313.05   6
  -4  -7   9 1626.04 1149.28   6
  -4  -7   8 91071.0 3931.99   6
  -4  -7   7 10927.5 1819.11   6
  -4  -7   6 90959.5 4196.12   6
  -4  -7   5 41001.0 2953.86   6
  -4  -7   4 2018.12 1580.98   6
   4   7  -4 1497.40 1568.48   9
   4   7  -3 26018.6 2691.04   9
  -4  -7   3 30726.9 2612.63   6
   4   7  -2 92290.4 4480.58   9
   4   7  -1 6132.98 1894.36   9
   4   7   0 130969. 5293.16   9
   4   7   1 8444.15 1998.04   9
  -4  -7  -1 9912.84 1872.07  14
   4   7   2 4077.60 1870.30   9
   4   7   3 26039.0 2536.70   9
   4   7   4 31206.0 2517.71   9
   4   7   5 10692.2 1739.09   9
  -4  -8  10 22824.7 1522.72   6
  -4  -8   9 7645.14 1258.58   6
  -4  -8   8 5540.51 1273.54   6
  -4  -8   7 90197.7 3456.29   6
  -4  -8   6 533.046 1138.27   6
  -4  -8   5 52747.7 2838.83   6
  -4  -8   4 11026.0 1676.28   6
   4   8  -4 10455.2 1643.46   9
   4   8  -3 576.038 1355.16   9
   4   8  -2 15965.2 1965.15   9
   4   8  -1 62977.9 3245.94   9
  -4  -8   1 52222.2 3101.85  14
   4   8   0 18967.9 2083.73   9
  -4  -8   0 18963.4 1918.08  14
   4   8   1 51035.7 2917.62   9
  -4  -8  -1 42958.4 2344.21  14
   4   8   2 3079.71 1408.10   9
   4   8   3 1828.38 1184.97   9
  -4  -9   8 5448.15 895.355   6
  -4  -9   7 19468.8 1422.63   6
  -4  -9   6 59642.1 2261.91   6
  -4  -9   5 5257.55 1055.61   6
  -4  -9   4 10565.5 1487.68  14
  -4  -9   3 5396.61 1237.30  14
  -4  -9   2 472.070 993.817  14
  -4  -9   1 27178.8 1725.82  14
   5 -11  -1 12323.3 1321.35   5
   5 -11  -1 14226.3 1239.08   8
   5 -11   0 8188.95 1327.77   5
   5 -11   0 6605.67 994.469   8
   5 -11   1 18092.9 1591.74   5
   5 -11   1 19033.5 1410.33   8
   5 -11   2 31887.6 1786.09   5
   5 -11   2 35375.4 1699.75   8
   5 -10  -5 20130.9 1421.41   8
   5 -10  -4 20570.9 1663.81   8
   5 -10  -3 66076.9 2800.08   5
   5 -10  -3 66645.2 2871.64   8
   5 -10  -2-19.6051 1482.00   5
   5 -10  -2-173.955 1107.83   8
   5 -10  -1 12464.3 1950.76   5
   5 -10  -1 12309.0 1586.52   8
   5 -10   0 13631.6 2025.45   5
   5 -10   0 12312.7 1630.05   8
   5 -10   1 10466.9 1860.12   5
   5 -10   1 11592.6 1589.80   8
   5 -10   2 40188.6 2643.04   5
   5 -10   2 45511.9 2497.39   8
   5 -10   3 18988.4 1912.99   5
   5 -10   3 24579.2 1908.60   8
   5 -10   4 8833.09 1392.25   5
   5 -10   4 12714.6 1338.04   8
   5  -9  -7 563.550 1047.80   8
   5  -9  -6 2077.05 1105.56   8
   5  -9  -5 45543.3 2602.57   8
   5  -9  -4 18196.7 2125.46   5
   5  -9  -4 15903.1 1860.65   8
   5  -9  -3 35433.3 2791.22   5
   5  -9  -3 36744.6 2620.53   8
   5  -9  -2 32523.0 2912.16   5
   5  -9  -2 32044.7 2531.70   8
   5  -9  -1 3503.59 1409.82   8
   5  -9   0 4804.90 1468.02   8
   5  -9   1 26978.0 2353.53   8
   5  -9   2 2570.40 1648.44   5
   5  -9   2 3288.19 1344.19   8
   5  -9   3 48764.8 3090.36   5
   5  -9   3 56605.1 3154.79   8
   5  -9   4 16652.7 2074.16   5
   5  -9   4 18747.0 1840.03   8
   5  -9   5 9990.28 1659.90   5
   5  -9   6 9900.43 1711.91  13
   5  -9   7 11416.1 1601.71  13
   5  -9   8-269.002 1103.74  13
   5  -8  -8 23814.3 1787.00   8
   5  -8  -7 36626.5 2327.32   8
   5  -8  -6 924.880 1173.84   8
   5  -8  -5 3503.94 1454.26   8
   5  -8  -4 63219.6 3669.51   5
   5  -8  -4 66442.2 3546.23   8
   5  -8  -3 12468.6 2367.49   5
   5  -8  -3 11370.4 1968.33   8
   5  -8  -2 44002.7 3050.21   8
   5  -8  -1 9055.47 1864.20   8
   5  -8   0 1237.27 1396.12   8
   5  -8   1 4059.48 1622.72   8
   5  -8   2 37641.0 3042.89   8
   5  -8   3 2204.68 1990.65   5
   5  -8   3 4058.01 1677.06   8
   5  -8   4 77013.2 3950.95   5
   5  -8   5 1396.00 1941.45  13
   5  -8   6 4209.27 1780.98  13
   5  -8   7 20722.0 2282.85  13
   5  -8   8 20875.3 2235.40  13
   5  -8   9 7114.13 1518.58  13
   5  -7  -9 65895.0 2770.52   8
   5  -7  -8 18183.9 1898.99   8
   5  -7  -7 37404.4 2637.75   8
   5  -7  -6 19964.3 2196.14   8
   5  -7  -6 16781.7 2762.85  14
   5  -7  -5 6572.32 1657.73   8
   5  -7  -5 425.941 2506.04  14
   5  -7  -4 3943.44 2148.22   5
   5  -7  -4 4032.81 1456.56   8
   5  -7  -3 69221.0 4371.41   5
   5  -7  -3 61368.3 3617.26   8
   5  -7  -2 642.199 1480.64   8
   5  -7  -1 84599.1 4281.77   8
   5  -7   0 725.130 1538.97   8
   5  -7   1-528.499 1684.22   8
   5  -7   2 20916.2 2945.60   5
   5  -7   2 18558.5 2667.59   8
   5  -7   3 85651.9 4619.40   5
   5  -7   4 18308.0 2544.69   5
   5  -7   4 17158.9 3149.56  13
   5  -7   5 68540.1 4628.20  13
   5  -7   6 712.027 1901.42  13
   5  -7   7 1203.18 1844.47  13
   5  -7   8 29936.9 2853.01  13
   5  -7   9 13030.1 2158.75  13
   5  -7  10 15929.5 1852.86  13
   5  -6 -10 11100.0 1456.68   8
   5  -6  -9 1989.22 1145.12   8
   5  -6  -8 118428. 4458.40   8
   5  -6  -7 9496.49 1753.97   8
   5  -6  -6 49658.2 3193.19   8
   5  -6  -6 42228.9 4063.27  14
   5  -6  -5 47861.7 3358.13   5
   5  -6  -5 46925.9 3214.32   8
   5  -6  -5 42103.3 4243.49  14
   5  -6  -4 8994.52 2276.93   5
   5  -6  -4 3574.83 1496.13   8
   5  -6  -3 76181.2 4409.91   5
   5  -6  -3 68117.6 3702.54   8
   5  -6  -2 132872. 5910.00   5
   5  -6  -2 124069. 4882.52   8
   5  -6  -1 27054.8 3329.89   5
   5  -6  -1 22359.6 2388.33   8
   5  -6   0 70685.0 4792.04   5
   5  -6   0 70029.9 3875.17   8
   5  -6   1 51008.4 4100.50   5
   5  -6   1 67308.3 3898.87   8
   5  -6   2 2648.01 2242.14   5
   5  -6   3 39389.3 3400.15   5
   5  -6   4 65281.5 4039.27   5
   5  -6   4 54126.1 4627.48  13
   5  -6   5 25887.6 3500.33  13
   5  -6   6 31499.9 3398.60  13
   5  -6   7 727.625 1930.84  13
   5  -6   8-351.485 2286.40  13
   5  -6   9 28238.1 2878.81  13
   5  -6  10 3431.64 1788.61  13
   5  -5 -12-193.845 1471.42  10
   5  -5 -11 7318.64 1725.42  10
   5  -5 -11 10635.0 1438.51   8
   5  -5 -10 15379.9 1745.86   8
   5  -5  -9 59327.3 3248.98   8
   5  -5  -8 18707.5 2136.02   8
   5  -5  -7 208566. 6136.28   8
   5  -5  -6 7024.48 1685.29   8
   5  -5  -5 51059.6 3387.31   5
   5  -5  -5 46218.9 3122.33   8
   5  -5  -4 33451.0 3031.26   5
   5  -5  -4 29451.3 2532.62   8
   5  -5  -3 19002.2 2729.74   5
   5  -5  -3 18705.8 2185.72   8
   5  -5  -2 79450.1 4594.52   5
   5  -5  -2 79657.5 3840.80   8
   5  -5  -1 169680. 6590.56   5
   5  -5  -1 162385. 5390.05   8
   5  -5   0 48504.3 3868.84   5
   5  -5   0 54384.2 3347.62   8
   5  -5   1 34169.0 3350.98   5
   5  -5   2 14964.4 2647.75   5
   5  -5   2 25005.6 5979.72  15
   5  -5   3 14397.7 5522.32  15
   5  -5   3 3216.43 2702.39   5
   5  -5   4 89028.1 7083.40  15
   5  -5   4 99013.5 5739.76  13
   5  -5   5 27956.1 5905.43  15
   5  -5   5 17019.6 2916.32  13
   5  -5   6 55776.1 6126.33  15
   5  -5   6 41090.5 3799.87  13
   5  -5   7 35851.1 5639.34  15
   5  -5   7 11948.7 2743.66  13
   5  -5   8 15096.1 4778.88  15
   5  -5   8 1299.43 2173.30  13
   5  -5   9 3505.12 2278.25  13
   5  -5  10 42952.7 3237.68  13
   5  -4 -13 7244.08 1395.32  10
   5  -4 -12 45774.7 3048.78  10
   5  -4 -11 2517.51 1876.35  10
   5  -4 -11 1165.69 1080.79   8
   5  -4 -10 8784.57 2511.57  10
   5  -4 -10 11386.6 1722.46   8
   5  -4  -9 37936.9 2780.92   8
   5  -4  -8 68156.9 3585.24   8
   5  -4  -7 54342.5 3251.40   8
   5  -4  -6 71314.3 3700.30   8
   5  -4  -5 5776.34 2361.03   5
   5  -4  -5 3707.48 1578.51   8
   5  -4  -4 23308.7 2763.39   5
   5  -4  -4 22571.9 2196.11   8
   5  -4  -3 25789.2 4035.14   2
   5  -4  -2 9302.17 2905.91   2
   5  -4  -1 161898. 7646.55   2
   5  -4   0 31457.6 3827.44   2
   5  -4   1 13832.0 3663.46   2
   5  -4   2 35255.0 3268.09   5
   5  -4   2 38892.4 4518.66   2
   5  -4   2 27624.7 5736.95  15
   5  -4   3 47191.1 3592.68   5
   5  -4   3 40322.6 5992.84  15
   5  -4   4 7405.02 2395.52   3
   5  -4   4 97.2924 4708.90  15
   5  -4   4 2617.80 2442.26  13
   5  -4   5 84916.2 6972.00  15
   5  -4   5 110740. 5813.83  13
   5  -4   6 7171.60 2175.97  12
   5  -4   6 9171.87 4952.94  15
   5  -4   6 4609.99 2495.94  13
   5  -4   7 27906.0 3297.51  12
   5  -4   7 22635.7 5020.63  15
   5  -4   7 20116.6 3495.13  13
   5  -4   8 12856.1 2366.54  12
   5  -4   8 15306.2 4531.76  15
   5  -4   8 9571.06 2786.91  13
   5  -4   9 12233.6 2801.34  13
   5  -4   9 14355.9 2173.49  12
   5  -4  10 19050.6 3674.37  15
   5  -3 -13 25267.6 2274.64  10
   5  -3 -12 17404.2 2451.40  10
   5  -3 -12 22007.7 1889.62   8
   5  -3 -11 39687.7 3520.92  10
   5  -3 -11 43849.3 2752.75   8
   5  -3 -10-267.928 2191.20  10
   5  -3 -10 423.906 1195.87   8
   5  -3  -9 1053.72 2737.78  10
   5  -3  -9 2337.78 1320.19   8
   5  -3  -8 85881.2 4039.82   8
   5  -3  -7 33344.3 2651.78   8
   5  -3  -6 97064.1 4208.75   8
   5  -3  -5 34618.3 2675.27   8
   5  -3  -4 2696.82 3030.21   2
   5  -3  -3 26210.0 3369.39   2
   5  -3  -2 114978. 6213.82   2
   5  -3  -1 3867.72 2481.79   2
   5  -3   0 138646. 6958.67   2
   5  -3   1 12830.0 1842.84   3
   5  -3   1 14504.5 3103.12   2
   5  -3   2 13284.9 2029.29   3
   5  -3   2 15309.8 3867.24   2
   5  -3   3 22474.0 2576.01   3
   5  -3   3 24584.4 3019.63   5
   5  -3   3 17297.6 4191.19  15
   5  -3   3 27895.6 3714.69  13
   5  -3   4 72216.6 4173.44   3
   5  -3   4 76807.3 5034.80  13
   5  -3   5 6956.19 2249.20  12
   5  -3   5 12594.5 2411.31   3
   5  -3   5 11136.2 3731.85  15
   5  -3   5 5134.72 2540.33  13
   5  -3   6 63699.2 4530.70  12
   5  -3   6 75772.7 4662.58   3
   5  -3   6 67510.9 4886.96  13
   5  -3   7 1877.15 2582.65  12
   5  -3   7 3475.58 2652.24  13
   5  -3   8 21986.0 2859.97  12
   5  -3   8 17309.9 4532.35  15
   5  -3   8 28806.4 3577.94  13
   5  -3   9 6615.81 4029.75  15
   5  -3   9 8907.18 2106.17  12
   5  -3  10 21136.9 3796.02  15
   5  -2 -14 820.175 1172.13  10
   5  -2 -13 30104.0 2626.57  10
   5  -2 -12 19106.0 2524.90  10
   5  -2 -11 32402.1 3414.43  10
   5  -2 -11 34255.1 2584.35   8
   5  -2 -10 28523.1 3430.77  10
   5  -2 -10 36221.7 2733.49   8
   5  -2  -9-87.7162 2590.42  10
   5  -2  -9 2517.66 1374.81   8
   5  -2  -9 2408.50 2094.77   4
   5  -2  -8 800.259 3004.95  10
   5  -2  -8 5168.22 1530.60   8
   5  -2  -7 90351.4 4103.57   8
   5  -2  -6 14011.1 1943.13   8
   5  -2  -5 143173. 6660.75   2
   5  -2  -4 29732.0 3424.27   2
   5  -2  -3 5766.89 2379.33   2
   5  -2  -2 33456.0 3572.79   2
   5  -2  -1 146022. 4370.69   3
   5  -2  -1 125290. 6397.90   2
   5  -2   0 8839.01 1375.38   3
   5  -2   0 7545.72 2466.02   2
   5  -2   1 191115. 5342.44   3
   5  -2   1 179832. 7778.46   2
   5  -2   2-143.431 1229.70   3
   5  -2   2 2411.96 3466.59   2
   5  -2   3 7245.77 1801.10   3
   5  -2   3 11870.0 2772.83  15
   5  -2   3 12126.4 3091.16  13
   5  -2   4 57761.4 3716.56   3
   5  -2   4 52021.8 4152.60  15
   5  -2   5 53317.8 3751.98   3
   5  -2   5 49829.5 4057.56  15
   5  -2   5 50207.9 4179.28  12
   5  -2   6 38463.4 3822.24  12
   5  -2   6 42136.6 3566.46   3
   5  -2   6 38824.2 3739.88  15
   5  -2   7 40479.2 3847.70  12
   5  -2   7 43087.3 3847.55  15
   5  -2   7 49880.5 4200.18  13
   5  -2   8 3383.56 2097.11  12
   5  -2   8 9893.91 3329.99  15
   5  -2   9 3002.65 3783.46  15
   5  -2  10 28808.6 3889.89  15
   5  -2  11 13667.3 2790.64  15
   5  -1 -14 9184.17 1605.49  10
   5  -1 -13 862.359 1447.74  10
  -5   1  12 61762.7 3635.97  11
   5  -1 -12 84434.0 4636.67  10
   5  -1 -11 13458.5 2661.57  10
   5  -1 -11 12441.0 1816.05   8
   5  -1 -10 53307.4 4319.30  10
   5  -1 -10 55455.4 3383.47   8
   5  -1  -9 20173.3 3167.27  10
   5  -1  -9 16690.6 2057.63   8
   5  -1  -9 18111.2 2129.48   4
   5  -1  -8 4449.94 2657.34  10
   5  -1  -8 4422.21 1461.43   8
   5  -1  -7 15432.1 3116.61  10
   5  -1  -7 23750.4 2369.41   8
   5  -1  -6 206296. 5940.12   8
   5  -1  -5 9322.80 2957.74   2
   5  -1  -4 109039. 5742.32   2
   5  -1  -3 23494.5 3099.04   2
   5  -1  -2 1487.14 950.202   3
   5  -1  -2 385.581 2104.47   2
   5  -1  -1 75337.5 4961.65   2
   5  -1  -1 74431.9 3225.29   3
   5  -1   0 111472. 6093.44   2
   5  -1   0 125050. 4242.61   3
   5  -1   1 39115.9 2526.54   3
   5  -1   2 125047. 4510.14   3
   5  -1   3 1917.20 1369.04   3
   5  -1   3 1883.48 2196.35  15
   5  -1   4 1984.71 1762.99   3
   5  -1   4 1932.41 2058.65  15
   5  -1   5 60810.0 3845.84   3
   5  -1   5 54341.8 4165.41  15
   5  -1   6 30344.9 3285.34   3
   5  -1   6 20815.7 3084.03  15
   5  -1   7 33837.9 3433.06  15
   5  -1   8 33369.0 3409.89  15
   5  -1   9 7173.15 2343.25  15
   5  -1  10 5365.29 3324.92  15
  -5   0  14 6747.32 1403.99  11
   5   0 -14 15214.9 1899.04  10
  -5   0  13 10522.4 2292.41  11
   5   0 -13 29455.1 2662.71  10
  -5   0  12 47014.3 3464.47  11
   5   0 -12 6239.65 1851.37  10
  -5   0  11 153662. 5971.17  11
   5   0 -11 117035. 5719.61  10
   5   0 -10 1772.52 1937.79  10
   5   0 -10 3102.88 1414.40   8
   5   0  -9 26468.2 3354.02  10
   5   0  -9 27807.2 2636.23   8
   5   0  -8 16408.9 2845.02  10
   5   0  -8 19280.4 2252.60   8
   5   0  -8 15478.1 2079.90   4
   5   0  -7 1861.24 2707.13  10
   5   0  -7 4485.12 1476.94   8
   5   0  -6 58367.4 3332.97   8
   5   0  -5 203385. 7459.06   2
   5   0  -4 24894.4 2979.12   2
   5   0  -4 23529.3 2043.50   3
   5   0  -3 49412.3 4042.06   2
   5   0  -3 49927.5 2758.78   3
   5   0  -2 24066.3 2007.48   3
   5   0  -1 705.160 1020.45   3
   5   0   0 145762. 4750.57   3
   5   0   1 94579.4 3961.87   3
   5   0   2 78149.8 3743.74   3
   5   0   3 70515.0 3658.27   3
   5   0   3 81474.8 4749.96  15
   5   0   4 93.9396 1668.26   3
   5   0   4 1064.45 2078.12  15
   5   0   5 186.891 2086.57   3
   5   0   5 471.251 2197.31  15
   5   0   6 87297.3 4713.14   3
   5   0   6 79346.0 4680.35  15
   5   0   7 3432.54 2173.84  15
   5   0   8 52836.6 3907.17  15
   5   0   9 16034.4 2502.83  15
   5   1 -14 7198.53 1512.10  10
  -5  -1  13 12142.1 2178.99  11
   5   1 -13 15206.9 2141.66  10
  -5  -1  12 75440.2 3855.26  11
   5   1 -12 48007.7 3581.40  10
   5   1 -11 25269.5 3001.69  10
   5   1 -10 73509.5 4751.20  10
   5   1  -9-156.609 2084.02  10
   5   1  -9 1984.04 1974.96   4
   5   1  -8 21435.9 3038.46  10
   5   1  -8 24897.9 2459.59   8
   5   1  -8 21751.3 2396.16   4
   5   1  -7 23979.7 3288.32  10
   5   1  -7 24253.8 2464.99   8
   5   1  -6 16988.6 2855.35  10
   5   1  -6 24618.7 3463.52   5
   5   1  -6 20621.3 2204.60   8
   5   1  -6 17918.7 2065.21   3
   5   1  -5 157541. 5096.81   3
   5   1  -4 141252. 4787.94   3
   5   1  -3 7198.73 1466.83   3
   5   1  -2 53060.6 3028.25   3
   5   1  -1 52181.7 3017.46   3
   5   1   0 6571.44 1466.26   3
   5   1   1 300292. 8125.09   5
   5   1   1 276857. 6863.96   3
   5   1   2 30445.2 2500.87   3
   5   1   2 30473.1 5751.54   5
   5   1   3 81227.5 3985.34   3
   5   1   4 15266.2 2068.22   3
   5   1   4 14383.1 2713.57  15
   5   1   5 1893.63 1878.65   3
   5   1   5-121.238 2121.13  15
   5   1   6 4466.10 2213.24  15
   5   1   7 100721. 5048.76  15
   5   1   8 2152.75 2006.11  15
   5   1   9 41658.9 3171.71  15
   5   1  10 2034.74 2616.67  15
   5   2 -14 3248.99 1218.92  10
  -5  -2  13 5920.27 2020.15  11
   5   2 -13 4946.05 1591.24  10
   5   2 -12 38441.8 3139.69  10
  -5  -2  12 41765.9 2729.41   6
  -5  -2  11 129704. 5294.00  11
   5   2 -11 21787.1 2806.77  10
   5   2 -10 44721.6 3895.31  10
   5   2  -9 46359.8 3944.88  10
   5   2  -9 49748.6 3293.60   4
   5   2  -8 2979.26 1954.51  10
   5   2  -8 2083.60 2121.20   4
   5   2  -7 16193.4 2380.14   3
   5   2  -7 14336.8 2791.38  10
   5   2  -6 53223.2 4240.70  10
   5   2  -6 56878.1 3586.13   3
   5   2  -5 4871.34 2609.47  10
   5   2  -5 9118.17 1856.84   3
   5   2  -5 11692.7 3796.29   5
   5   2  -4 124701. 5826.92   5
   5   2  -4 109835. 4581.98   3
   5   2  -3 24371.2 4098.46   5
   5   2  -3 23113.0 2279.16   3
   5   2  -2 1759.58 1250.57   3
   5   2  -2 1335.45 3669.68   5
   5   2  -1 23481.1 4676.07   5
   5   2  -1 20424.1 2202.37   3
   5   2   0 60956.5 5807.54   5
   5   2   0 64802.6 3541.36   3
   5   2   1 32520.6 5796.77   5
   5   2   1 33384.2 3050.90   9
   5   2   1 29410.5 2523.16   3
   5   2   2 86307.9 7265.21   5
   5   2   2 93070.3 4486.78   9
   5   2   2 90310.6 4217.05   3
   5   2   3 1189.97 1532.16   3
   5   2   3 802.226 1976.91   9
   5   2   4 45404.3 3217.25   3
   5   2   4 50150.2 3359.64   9
   5   2   5 15181.8 2245.39   9
   5   2   6 10504.3 2555.14  15
   5   2   7 27607.0 2990.44  15
   5   2   8 64515.7 3854.77  15
   5   2   9 3791.90 1842.34  15
  -5  -3  14 26754.2 1567.02  11
   5   3 -13 971.590 1169.49  10
  -5  -3  12 950.983 1344.57   6
   5   3 -12 1270.59 1390.03  10
   5   3 -11 58066.9 3840.57  10
  -5  -3  11 66023.3 3508.06   6
  -5  -3  10 6642.09 1970.96   6
   5   3 -10 6406.95 2157.77  10
   5   3  -9 84823.2 4995.72  10
   5   3  -8 8955.01 2941.71   3
   5   3  -8 11311.2 2478.17  10
   5   3  -8 11636.7 2372.96   4
   5   3  -7 14850.3 2666.03   3
   5   3  -7 18221.1 2881.65  10
   5   3  -7 21467.1 4485.33   5
   5   3  -6 9600.93 2337.37  10
   5   3  -6 11250.8 2200.77   3
   5   3  -6 16960.7 4192.22   5
   5   3  -5 36918.6 4810.76   5
   5   3  -5 35742.1 2923.64   3
   5   3  -4 5325.27 1660.83   3
   5   3  -4 3827.97 4210.90   5
   5   3  -3 131218. 7013.83   5
   5   3  -3 124242. 5019.42   3
   5   3  -2 9778.16 1943.11   3
   5   3  -2 12291.8 4841.51   5
   5   3  -1 42444.4 5840.32   5
   5   3  -1 39317.8 2957.20   3
   5   3   0 8901.95 1750.97   3
   5   3   0 11203.4 6104.97   5
   5   3   1 83675.3 7560.77   5
   5   3   1 80150.9 4488.48   9
   5   3   1 80300.9 4007.75   3
   5   3   2 38441.0 7512.64   5
   5   3   2 38495.8 3285.38   9
   5   3   2 34150.7 2811.70   3
   5   3   3 95441.5 4381.72   3
   5   3   3 91820.7 4575.43   9
   5   3   4 1191.02 1682.76   9
   5   3   5 19780.7 2421.41   9
   5   3   6 17135.7 2161.23   9
   5   3   6 17233.4 2655.50  15
   5   3   7 25694.0 2212.19   9
   5   3   7 24922.8 2911.58  15
   5   3   8 36955.9 2897.77  15
  -5  -4  13 1883.45 1733.47  11
  -5  -4  12 3889.26 1333.79   6
  -5  -4  12 6893.74 2022.27  11
  -5  -4  11 9466.36 1807.97   6
  -5  -4  11 44098.9 3081.59  11
  -5  -4  10 117662. 4758.45  11
  -5  -4  10 69861.2 3709.82   6
  -5  -4   9 1811.90 1731.31   6
  -5  -4   8 104540. 4727.66   6
  -5  -4   7 8293.31 2172.32   6
   5   4  -7 3713.41 4264.45   5
  -5  -4   6 531.903 1744.39   6
   5   4  -6 253.983 1810.90   3
   5   4  -6-240.311 4187.85   5
   5   4  -5 27675.4 5307.00   5
   5   4  -5 27740.7 2711.14   3
  -5  -4   5 27819.7 2838.49   6
   5   4  -4 78699.1 6648.27   5
   5   4  -4 86544.8 4387.40   3
  -5  -4   4 85208.3 4521.47   6
   5   4  -3 7831.10 1809.80   3
   5   4  -3 6062.43 5725.92   5
   5   4  -2 81930.3 7296.38   5
   5   4  -2 99497.3 4576.17   3
   5   4  -1-1937.48 6112.79   5
   5   4  -1 3056.61 1659.40   3
   5   4   0 3030.71 6282.70   5
   5   4   0 618.837 1797.63   3
   5   4   0 128.710 1770.28   9
   5   4   1 45892.5 7915.31   5
   5   4   1 52209.4 3875.08   9
   5   4   1 58103.0 3576.52   3
   5   4   2 25039.0 2896.60   9
   5   4   3 55317.5 3714.22   9
   5   4   4 64017.1 3849.16   9
   5   4   5 5261.87 1860.00   9
   5   4   6 14688.4 1960.26   9
   5   4   6 14416.0 2447.50  15
   5   4   7 40622.0 2391.36   9
   5   4   7 42372.9 2982.21  15
  -5  -5  12 9633.36 1236.84   6
  -5  -5  11 8296.34 1536.87   6
  -5  -5  11-712.274 2035.67  11
  -5  -5  10 19298.0 2061.77   6
  -5  -5   9 89986.0 4124.82   6
  -5  -5   8 4139.35 1753.44   6
  -5  -5   7 40734.2 3216.68   6
  -5  -5   6 4910.60 1829.99   6
  -5  -5   5 5825.47 1956.25   6
   5   5  -5-1977.91 4743.48   5
   5   5  -4 48692.9 6388.04   5
  -5  -5   4 88392.1 4413.48   6
   5   5  -3 42575.0 6720.46   5
   5   5  -2 7582.42 6018.85   5
   5   5  -1 57298.5 7512.44   5
   5   5  -1 68357.9 4349.82   9
   5   5   0 2297.21 1790.51   9
   5   5   1 2285.36 1809.35   9
   5   5   2 94989.8 4630.66   9
   5   5   3 7759.75 2037.03   9
   5   5   4 79093.7 3957.43   9
   5   5   5 41839.7 2754.23   9
   5   5   5 35788.1 2980.75  15
   5   5   6 1824.46 1277.63   9
   5   5   6-94.3399 1668.15  15
  -5  -6  11 24100.5 1573.58   6
  -5  -6  10 7062.82 1303.65   6
  -5  -6   9 43900.8 2607.90   6
  -5  -6   8 70294.1 3357.47   6
  -5  -6   7 5995.13 1671.57   6
  -5  -6   6 42785.8 2944.07   6
  -5  -6   5 21175.1 2260.85   6
  -5  -6   4 1017.75 1640.53   6
   5   6  -3 92826.6 4500.62   9
   5   6  -2 41758.9 3214.95   9
   5   6  -1 38540.8 3079.26   9
   5   6   0 23125.2 2566.48   9
   5   6   1 3731.77 1608.62   9
   5   6   2 1895.72 1639.85   9
   5   6   3 78559.7 3692.15   9
   5   6   4 1145.05 1400.09   9
   5   6   4-1276.90 1598.45  15
  -5  -7  10 22252.1 1373.52   6
  -5  -7   9 7783.81 1190.80   6
   5   7  -8 42258.7 2046.38   9
  -5  -7   8 62275.5 2615.25   6
   5   7  -7 21831.8 1806.40   9
  -5  -7   7 33600.8 2174.35   6
   5   7  -6 12287.8 1618.09   9
  -5  -7   6 14288.3 1681.83   6
  -5  -7   5 11318.5 1550.45   6
   5   7  -5 9473.22 1595.75   9
   5   7  -4 20959.2 2039.82   9
   5   7  -3 3434.67 1466.02   9
   5   7  -2 71597.4 3436.06   9
   5   7  -1 2847.24 1418.95   9
  -5  -7   1 2922.16 1299.81  14
   5   7   0 20593.3 2124.65   9
   5   7   1 9575.63 1682.94   9
   5   7   2 4176.53 1346.21   9
  -5  -8   4 3249.96 966.312  14
   5   8  -3 25364.0 1636.06   9
  -5  -8   3 8868.76 1232.51  14
   6 -10  -2 3424.38 883.554   8
   6 -10  -1 1718.59 1093.58   5
   6 -10  -1 923.981 799.596   8
   6 -10   0 17133.1 1601.99   5
   6 -10   0 17824.6 1352.34   8
   6 -10   1 28113.6 1773.30   5
   6  -9  -5 23324.5 1624.56   8
   6  -9  -4 33945.7 2050.07   5
   6  -9  -4 38866.2 2229.99   8
   6  -9  -3 8721.80 1570.68   5
   6  -9  -3 8167.94 1402.11   8
   6  -9  -2 20381.9 2098.67   5
   6  -9  -2 15917.4 1679.99   8
   6  -9  -1 11870.7 1981.14   5
   6  -9  -1 11271.7 1580.89   8
   6  -9   0 1812.71 1621.53   5
   6  -9   0 1701.24 1223.46   8
   6  -9   1 28301.5 2446.57   5
   6  -9   1 27754.0 2087.39   8
   6  -9   2 6217.56 1591.20   5
   6  -9   2 74.0083 1200.27   8
   6  -9   3 16278.9 1722.27   5
   6  -9   4-25.2882 1357.50   5
   6  -8  -7 6198.03 1163.08   8
   6  -8  -6 16594.0 1735.87   8
   6  -8  -5 8433.33 1556.83   8
   6  -8  -4 59815.6 3107.68   5
   6  -8  -4 57448.3 3080.85   8
   6  -8  -3 27674.0 2552.18   5
   6  -8  -3 25945.6 2304.15   8
   6  -8  -2 11353.5 2164.99   5
   6  -8  -2 9837.27 1771.60   8
   6  -8  -1 20219.2 2774.19   5
   6  -8  -1 16320.9 2085.01   8
   6  -8   0 7239.85 2598.03   5
   6  -8   0 8227.11 1825.03   8
   6  -8   1 2064.54 1921.48   5
   6  -8   1 3098.36 1702.90   8
   6  -8   2 58904.3 3478.55   5
   6  -8   3 312.563 1549.54   5
   6  -8   4 35430.6 2346.09   5
   6  -7  -9 26327.3 1614.40   8
   6  -7  -8 21879.2 1816.32   8
   6  -7  -7 1602.48 1224.81   8
   6  -7  -6 15256.9 1883.87   8
   6  -7  -5 47655.9 2962.76   5
   6  -7  -5 46640.4 3009.17   8
   6  -7  -4 5254.80 2019.79   5
   6  -7  -4 5211.11 1606.41   8
   6  -7  -3 118530. 5144.79   5
   6  -7  -3 117401. 4750.48   8
   6  -7  -2 39724.6 3612.02   5
   6  -7  -2 36349.8 2968.77   8
   6  -7  -1 40487.4 3925.85   5
   6  -7  -1 36885.2 3114.70   8
   6  -7   0 17961.2 3077.59   5
   6  -7   0 20582.1 2588.50   8
   6  -7   1 28504.7 3029.21   5
   6  -7   2 8089.37 2246.89   5
   6  -7   3 85064.5 4125.76   5
   6  -7   4 1591.67 1877.05   5
   6  -7   6 11865.3 2141.42  13
   6  -7   7 9675.16 1802.59  13
   6  -6 -10 52363.6 2248.65   8
   6  -6  -9 1929.68 1173.50   8
   6  -6  -8 66595.5 3177.24   8
   6  -6  -7 11844.8 1765.53   8
   6  -6  -6 366.559 1369.50   8
   6  -6  -5 14179.9 2325.47   5
   6  -6  -5 13435.2 2049.60   8
   6  -6  -4 158861. 5632.51   5
   6  -6  -4 153260. 5461.83   8
   6  -6  -3 8823.65 2538.34   5
   6  -6  -3 9561.70 1883.79   8
   6  -6  -2 70252.3 4597.47   5
   6  -6  -2 68260.8 3871.55   8
   6  -6  -1 2377.49 2628.01   5
   6  -6  -1 3004.58 1759.28   8
   6  -6   0 5783.47 2655.50   5
   6  -6   1 16723.7 2861.39   5
   6  -6   2 36964.0 3323.96   5
   6  -6   3 28403.8 3003.53   5
   6  -6   4 45023.1 3423.49   5
   6  -6   5 3972.35 2518.80  13
   6  -6   6 13888.5 2620.97  13
   6  -6   7 18326.8 2469.97  13
   6  -5 -11 51.2427 901.764   8
   6  -5 -10 20615.4 1823.09   8
   6  -5  -9 68978.8 3281.45   8
   6  -5  -8 955.427 1359.79   8
   6  -5  -7 61027.6 3413.05   8
   6  -5  -6 13218.9 2016.07   8
   6  -5  -5 1968.43 1822.47   5
   6  -5  -5-212.830 1467.74   8
   6  -5  -4 30113.1 2988.28   5
   6  -5  -4 31424.3 2821.77   8
   6  -5  -3 62244.3 4208.15   5
   6  -5  -3 54091.1 3486.70   8
   6  -5  -2 15140.7 2959.30   5
   6  -5  -2 15201.2 2224.01   8
   6  -5  -1 90223.6 5236.83   5
   6  -5   0 2069.74 2223.86   5
   6  -5   1 2292.36 1986.13   5
   6  -5   2 44690.2 3554.45   5
   6  -5   3 29380.2 3028.96   5
   6  -5   4 42782.1 4298.76  13
   6  -5   5 30325.2 3588.58  13
   6  -5   6 5604.69 2479.03  13
   6  -5   7 10304.2 2466.46  13
   6  -4 -11 8164.87 1391.77   8
   6  -4 -10 4249.30 1380.87   8
   6  -4  -9 25268.6 2329.37   8
   6  -4  -8 78662.2 3842.05   8
   6  -4  -7 3705.10 1491.71   8
   6  -4  -6 46881.5 3162.14   8
   6  -4  -5-67.5409 2482.01   5
   6  -4  -5 6045.00 1675.15   8
   6  -4  -4 6826.28 2098.10   5
   6  -4  -4 8754.50 1860.29   8
   6  -4  -3 82942.3 4618.11   5
   6  -4  -3 90986.6 4273.63   8
   6  -4  -2 43979.0 3775.55   5
   6  -4  -1 45180.6 3818.30   5
   6  -4   0 46125.1 3780.79   5
   6  -4   1 2746.25 1989.95   5
   6  -4   2 19163.1 5786.57  15
   6  -4   3 66895.3 4709.25   5
   6  -4   3 68685.1 6794.86  15
   6  -4   4 12653.6 5381.68  15
   6  -4   4 16347.9 3376.17  13
   6  -4   5 58770.5 6000.79  15
   6  -4   5 65655.9 4651.38  13
   6  -4   6 16946.9 4723.15  15
   6  -4   6 11391.6 2841.78  13
   6  -4   7 12501.9 4183.95  15
   6  -4   8 24104.8 3785.04  15
   6  -3 -11 11834.9 1617.07   8
   6  -3 -10 8786.62 1597.54   8
   6  -3  -9 7471.81 1613.48   8
   6  -3  -8 74354.4 3822.99   8
   6  -3  -7 88185.7 4164.60   8
   6  -3  -6 24072.3 2883.80   5
   6  -3  -6 25838.5 2478.06   8
   6  -3  -5 14788.8 2745.19   5
   6  -3  -5 21382.4 2346.90   8
   6  -3  -4 7177.60 2686.20   5
   6  -3  -4 11888.0 1960.49   8
   6  -3  -3-1226.11 2699.37   5
   6  -3  -2 120442. 5773.47   5
   6  -3  -1 8596.65 3156.15   5
   6  -3   0 62186.2 4608.38   5
   6  -3   1 25308.5 3709.64   5
   6  -3   2 2533.76 3262.60   5
   6  -3   2 8945.91 2348.74   3
   6  -3   2 8936.87 5358.76  15
   6  -3   3 6920.54 3257.95   5
   6  -3   3 14792.7 2476.48   3
   6  -3   3 6151.81 5005.41  15
   6  -3   4 58964.3 6292.92  15
   6  -3   5-1284.24 4732.27  15
   6  -3   6 44187.7 5315.30  15
   6  -3   7 15714.9 4204.01  15
   6  -3   8 15495.6 3752.54  15
   6  -3   9 29300.7 3306.49  15
   6  -2 -12 26719.4 2333.61  10
   6  -2 -11 2495.80 1928.35  10
   6  -2 -10 19595.8 2898.01  10
   6  -2 -10 17297.0 2010.96   8
   6  -2  -9 57913.2 3352.91   8
   6  -2  -8 1334.60 1398.79   8
   6  -2  -7 119358. 4808.51   8
   6  -2  -6 52388.0 3715.52   5
   6  -2  -6 49514.9 3230.84   8
   6  -2  -5 31738.9 3328.25   5
   6  -2  -5 31345.4 2771.09   8
   6  -2  -4 20711.6 3037.88   5
   6  -2  -3 25514.8 3532.11   5
   6  -2  -2 2550.51 2848.15   5
   6  -2  -1 168403. 6457.92   5
   6  -2   0 1725.72 1712.86   3
   6  -2   0-319.067 3060.36   5
   6  -2   1 43707.4 3118.15   3
   6  -2   1 43865.2 4160.09   5
   6  -2   2 19468.2 3575.70   5
   6  -2   2 18823.8 2450.59   3
   6  -2   3 18488.2 2833.54   3
   6  -2   3 3455.30 5063.52  15
   6  -2   4 669.772 4965.43  15
   6  -2   5 71673.6 6081.15  15
   6  -2   6 4503.80 4230.62  15
   6  -2   7 18872.7 4255.88  15
   6  -2   8 4696.74 3313.07  15
   6  -2   9 10123.6 2813.19  15
  -6   1  12 12100.7 2336.60  11
   6  -1 -12 38610.1 2800.90  10
  -6   1  11 62583.5 3790.34  11
   6  -1 -11 25158.0 2897.35  10
   6  -1 -10 975.993 2182.76  10
   6  -1 -10 1815.13 1286.77   8
   6  -1  -9 10054.7 2601.55  10
   6  -1  -9 12616.7 1970.99   8
   6  -1  -8 103754. 4515.54   8
   6  -1  -7 532.227 1337.91   8
   6  -1  -6 125074. 5152.47   5
   6  -1  -6 119800. 4808.78   8
   6  -1  -5 10406.1 2772.30   5
   6  -1  -5 8176.77 1825.97   8
   6  -1  -4 19626.1 3188.03   5
   6  -1  -3 23729.4 3331.35   5
   6  -1  -2 58631.6 4488.53   5
   6  -1  -1 32975.0 2468.68   3
   6  -1  -1 35603.8 3792.16   5
   6  -1   0 134058. 4793.58   3
   6  -1   0 126127. 5766.19   5
   6  -1   1 663.134 1420.67   3
   6  -1   1 1877.87 3160.87   5
   6  -1   2 24375.8 2658.13   3
   6  -1   2 34337.4 4272.70   5
   6  -1   2 30291.5 3738.14  15
   6  -1   3 56080.9 3703.32   3
   6  -1   3 57802.5 4630.17  15
   6  -1   4 18899.2 3273.61  15
   6  -1   5 61851.0 4380.37  15
   6  -1   6 52572.9 3941.69  15
   6  -1   7 2295.32 3816.23  15
   6  -1   8 12080.5 3536.29  15
   6  -1   9 7642.34 2684.75  15
   6   0 -13 34630.3 2139.51  10
  -6   0  12 18972.5 2354.98  11
   6   0 -12 904.421 1414.32  10
  -6   0  11 98494.3 4234.26  11
   6   0 -11 44965.6 3425.33  10
   6   0 -10 15655.5 2738.49  10
   6   0  -9 189.545 2235.67  10
   6   0  -8 18923.7 2943.83  10
   6   0  -8 20285.8 2256.96   8
   6   0  -7 87509.3 4092.19   8
   6   0  -6 12078.3 3502.21   5
   6   0  -6 14100.9 1953.59   8
   6   0  -5 124140. 5350.55   5
   6   0  -4 9294.43 3029.64   5
   6   0  -3 6527.49 1700.74   3
   6   0  -3 12072.5 3248.41   5
   6   0  -2 64299.6 4638.94   5
   6   0  -2 59168.6 3296.05   3
   6   0  -1 72770.9 4986.40   5
   6   0  -1 63861.1 3456.70   3
   6   0   0 45089.2 2947.84   3
   6   0   0 58731.7 4612.38   5
   6   0   1 82521.2 3953.28   3
   6   0   1 78079.8 6050.35   5
   6   0   2 1003.22 1509.78   3
   6   0   2 15.2963 2725.62  15
   6   0   3 8136.88 2851.05  15
   6   0   4 54751.3 4237.02  15
   6   0   5 10208.2 2569.86  15
   6   0   6 53501.8 3852.85  15
   6   0   7 18603.0 2661.64  15
   6   0   8 12830.2 3243.39  15
   6   1 -12 58073.3 3194.25  10
  -6  -1  12 61189.9 2624.58   6
  -6  -1  11 101814. 4165.89  11
   6   1 -11 32.6278 1724.68  10
   6   1 -10 60069.6 4185.70  10
   6   1  -9 6879.20 2170.62  10
   6   1  -8 3348.34 2231.95  10
   6   1  -7 80461.9 5089.16   5
   6   1  -7 53737.5 4101.65  10
   6   1  -6 55199.9 4848.31   5
   6   1  -5 34332.8 4345.41   5
   6   1  -5 28370.4 2429.21   3
   6   1  -4 81490.5 5727.83   5
   6   1  -4 84618.1 4002.32   3
   6   1  -3 2412.07 1654.26   3
   6   1  -3 4527.01 4514.68   5
   6   1  -2 2142.06 1599.33   3
   6   1  -2 3659.43 4620.59   5
   6   1  -1 22478.3 5434.01   5
   6   1  -1 19807.7 2178.61   3
   6   1   0 21736.6 5530.37   5
   6   1   0 23147.4 2331.51   3
   6   1   1 55404.9 3418.87   3
   6   1   1 60799.7 6515.75   5
   6   1   2 30601.0 6784.65   5
   6   1   3 278.179 2603.67  15
   6   1   4 7905.82 2504.24  15
   6   1   5 42592.0 3590.15  15
   6   1   6 1999.29 1902.99  15
   6   1   7 44454.8 3152.53  15
   6   1   8 1217.78 2572.62  15
  -6  -2  12 24782.7 2217.34  11
  -6  -2  12 33794.7 2019.40   6
  -6  -2  11 91211.7 3727.73  11
  -6  -2  11 60786.5 2970.50   6
   6   2 -10 4340.16 1890.22  10
   6   2  -9 22415.4 2871.34  10
   6   2  -7 1000.05 3913.51   5
   6   2  -6 123311. 6318.98   5
   6   2  -5 23570.9 5036.04   5
   6   2  -4 116241. 6750.39   5
   6   2  -4 112197. 4749.62   3
   6   2  -3 5683.78 1710.37   3
   6   2  -3 6199.64 5364.77   5
   6   2  -2 3283.81 1701.34   3
   6   2  -2 3673.54 5208.00   5
   6   2  -1 15558.2 5690.60   5
   6   2  -1 9381.33 1684.38   3
   6   2   0 90022.0 7237.65   5
   6   2   0 100765. 4906.22   9
   6   2   1 9127.21 6490.83   5
   6   2   1 2604.32 1863.03   9
   6   2   2 101858. 7838.40   5
   6   2   2 97493.4 4477.53   9
   6   2   3 7932.54 2717.89  15
   6   2   4 700.263 2181.25  15
   6   2   5 15540.1 2455.07  15
   6   2   6 55262.7 3481.38  15
   6   2   7 7116.44 1834.32  15
  -6  -3  12-159.220 1625.27  11
  -6  -3  11 40354.6 2653.22  11
  -6  -3  11 33567.9 2216.89   6
  -6  -3  10 24340.9 2296.09   6
  -6  -3   9 7149.46 1826.05   6
  -6  -3   8 14089.7 2152.78   6
  -6  -3   7 15020.5 2347.67   6
   6   3  -7 12182.6 3991.37   5
  -6  -3   6 5295.57 1851.69   6
   6   3  -6 2960.09 4895.86   5
   6   3  -5 98544.7 6932.33   5
  -6  -3   5 95722.5 4500.10   6
  -6  -3   4 15260.0 2304.15   6
   6   3  -4 18784.7 5747.47   5
   6   3  -3 33869.0 6140.66   5
   6   3  -2 24782.6 6599.54   5
   6   3  -1 15524.5 6736.12   5
   6   3  -1 6823.77 2162.24   9
   6   3   0 11077.7 6639.53   5
   6   3   0 7905.62 2146.87   9
   6   3   1 89189.6 8293.89   5
   6   3   1 116397. 5002.39   9
   6   3   2-89.6967 1607.44   9
   6   3   3 59383.5 3403.02   9
   6   3   3 48686.7 3893.79  15
   6   3   4 4560.73 1574.73   9
   6   3   4 5406.92 2144.87  15
   6   3   5-204.492 1807.47  15
   6   3   6 44117.9 2688.11  15
  -6  -4  11 2462.90 1016.20   6
  -6  -4  10 38339.3 2617.13  11
  -6  -4  10 54872.2 2692.46   6
  -6  -4   9 9927.80 1737.35   6
  -6  -4   8 8684.51 1802.38   6
  -6  -4   7 25422.0 2482.31   6
   6   4  -6 10988.9 4562.23   5
  -6  -4   6 25163.2 2501.76   6
  -6  -4   5 5196.02 1698.55   6
   6   4  -4 105818. 7483.46   5
   6   4  -2 8979.96 6596.06   5
   6   4  -2 12961.3 2302.81   9
   6   4  -1 17299.3 6777.79   5
   6   4  -1 24312.9 2832.32   9
   6   4   0-15.7652 6961.58   5
   6   4   0 6272.27 1920.39   9
   6   4   1 32083.8 2816.05   9
   6   4   2 85661.0 3937.80   9
   6   4   3 11694.9 1834.93   9
   6   4   3-109.092 1887.47  15
   6   4   4 25388.6 2053.65   9
   6   4   4 22932.5 2282.88  15
  -6  -5  10 1360.35 838.549   6
  -6  -5   9 86637.7 3044.94   6
  -6  -5   8 3598.09 1272.25   6
  -6  -5   7 7299.77 1629.01   6
  -6  -5   6 32763.5 2415.12   6
  -6  -5   5 43920.6 2643.04   6
   6   5  -4 25236.0 2392.20   9
   6   5  -3 74458.1 3781.10   9
   6   5  -2-206.169 1437.91   9
   6   5  -1 8919.22 1925.88   9
   6   5   0 27390.4 2487.88   9
   6   5   1 4562.58 1600.11   9
   6   5   2 35050.9 2518.51   9
  -6  -6   7 853.834 988.347   6
   6   6  -7 746.995 1019.97   9
  -6  -6   6 3129.54 1151.55   6
   6   6  -6 2063.50 1120.72   9
   6   6  -5 14819.3 1675.30   9
   6   6  -4 17277.4 1800.59   9
   6   6  -3 34344.4 2350.19   9
   6   6  -2 33634.4 2360.60   9
   6   6  -1 1296.33 1207.12   9
   6   6   0 4291.03 1325.57   9
   7  -8  -3 13138.0 2048.45   5
   7  -8  -3 20273.6 1605.13   8
   7  -8  -2 2485.86 1187.74   8
   7  -8   0 46859.6 3140.59   5
   7  -8   1 3142.99 1954.38   5
   7  -8   2 36463.6 2275.50   5
   7  -7  -6 4230.87 1061.03   8
   7  -7  -5 35531.5 2161.77   8
   7  -7  -4 4738.55 2114.12   5
   7  -7  -4 10089.4 1577.41   8
   7  -7  -3 22600.7 2867.52   5
   7  -7  -3 26715.0 2181.16   8
   7  -7  -2 9944.62 2972.34   5
   7  -7  -2 11784.1 1844.01   8
   7  -7  -1 886.676 3270.35   5
   7  -7   1 29843.1 3121.07   5
   7  -7   3 4692.69 1501.26   5
   7  -6  -8 20661.2 1543.50   8
   7  -6  -7 6888.39 1346.79   8
   7  -6  -6 10439.1 1628.50   8
   7  -6  -5 412.342 2112.31   5
   7  -6  -5 958.835 1304.15   8
   7  -6  -4 84043.7 4231.59   5
   7  -6  -4 94239.6 3875.69   8
   7  -6  -3-1167.39 2789.65   5
   7  -6  -3 248.527 1550.81   8
   7  -6  -2 17139.2 3478.87   5
   7  -6  -1-343.643 3576.87   5
   7  -6   0 2291.79 3058.73   5
   7  -6   1 3480.58 2787.43   5
   7  -6   2 31125.7 3243.69   5
   7  -6   3 1951.23 2167.52   5
   7  -5  -9 47576.9 2203.55   8
   7  -5  -8 1588.04 1153.94   8
   7  -5  -7 3215.66 1329.38   8
   7  -5  -6 18568.2 1982.98   8
   7  -5  -5 14852.5 2634.58   5
   7  -5  -5 17748.4 2122.23   8
   7  -5  -4 2105.57 2671.19   5
   7  -5  -4 5146.47 1578.58   8
   7  -5  -3 98557.1 5243.56   5
   7  -5  -1 8377.29 3425.78   5
   7  -5   0 7932.88 3380.83   5
   7  -5   1 4691.50 3051.94   5
   7  -5   2 23430.6 3302.06   5
   7  -5   3 40366.1 3314.79   5
   7  -4  -9 4066.59 1221.93   8
   7  -4  -8 58560.6 2925.72   8
   7  -4  -7 1455.78 1335.62   8
   7  -4  -6 11618.0 2554.82   5
   7  -4  -6 5209.38 1598.69   8
   7  -4  -5 39857.1 3473.89   5
   7  -4  -5 36798.2 2773.51   8
   7  -4  -4 33527.1 3738.43   5
   7  -4  -3 44890.0 4118.64   5
   7  -4  -2 62466.4 4897.78   5
   7  -4  -1 6495.10 3551.54   5
   7  -4   0 13244.5 3561.45   5
   7  -4   1 17743.1 3466.43   5
   7  -4   2 9411.52 3227.28   5
   7  -4   3 65142.8 3913.70   5
   7  -3  -9 47214.0 2589.48   8
   7  -3  -8 24079.3 2169.89   8
   7  -3  -7 52376.2 3039.79   8
   7  -3  -6 8592.78 2700.92   5
   7  -3  -6 5993.62 1655.48   8
   7  -3  -5 8014.46 2799.99   5
   7  -3  -5 3169.87 1691.83   8
   7  -3  -4 73752.1 4720.12   5
   7  -3  -3 35542.6 3880.62   5
   7  -3  -2 89020.3 5475.98   5
   7  -3  -1 24815.6 3780.71   5
   7  -3   0 5494.17 3216.75   5
   7  -3   1 15564.5 3443.55   5
   7  -3   2 64088.6 4524.73   5
   7  -3   4 84971.3 5511.18  15
   7  -3   5 33546.4 4106.24  15
   7  -2  -8 30042.6 2352.98   8
   7  -2  -7 26948.2 2428.63   8
   7  -2  -6 43721.8 4121.49   5
   7  -2  -6 36889.3 2687.63   8
   7  -2  -5 15867.8 3207.89   5
   7  -2  -4 9028.53 3178.37   5
   7  -2  -3 79913.6 4880.51   5
   7  -2  -2 10995.6 3546.36   5
   7  -2  -1 79426.7 5155.11   5
   7  -2   0 36251.7 4136.78   5
   7  -2   1 14782.0 3524.88   5
   7  -2   2-1250.68 5087.02   5
   7  -2   4 21036.2 4502.34  15
   7  -2   5 60522.0 4590.69  15
   7  -2   6 21365.2 3181.89  15
  -7   1  10 66520.0 3360.81  11
   7  -1  -7 25704.5 3784.99   5
   7  -1  -6 46530.1 4683.71   5
   7  -1  -5 12416.3 4403.09   5
   7  -1  -4 3369.84 4363.95   5
   7  -1  -3 22493.5 4354.40   5
   7  -1  -2 109161. 6172.06   5
   7  -1  -1-13.4225 4861.22   5
   7  -1   0 56476.3 6125.97   5
   7  -1   2 6805.03 5193.25   5
   7  -1   4 42600.8 4742.91  15
   7  -1   5 11243.1 3510.85  15
  -7   0  10 88518.7 3552.05  11
   7   0  -7 158212. 5962.06   5
   7   0  -6 4474.37 4136.78   5
   7   0  -5 34756.1 5021.97   5
   7   0  -4 12479.7 4600.22   5
   7   0  -3 8139.97 5298.23   5
   7   0  -2 45288.1 6157.05   5
   7   0  -1 57231.6 6432.03   5
   7   0   0 19421.7 6013.87   5
   7   0   1 27286.2 6339.59   5
   7   0   2 8422.61 5599.97   5
   7   0   4-630.386 2059.90  15
   7   0   5 24734.5 3285.26  15
  -7  -1  10 6437.92 1452.04   6
  -7  -1  10 73600.3 3227.25  11
   7   1  -7 14411.1 4206.82   5
   7   1  -6 54034.5 5292.40   5
   7   1  -5 2240.62 4938.28   5
   7   1  -4 23280.7 5354.52   5
   7   1  -3 20914.7 6054.09   5
   7   1  -2 3982.34 5645.68   5
   7   1  -1 79369.4 6724.22   5
   7   1   0 38195.6 6543.62   5
   7   1   1 15303.5 5774.51   5
  -7  -2  10-121.377 1016.52   6
  -7  -2  10 34204.1 2225.73  11
  -7  -2   9 4579.38 1477.50   6
  -7  -2   8 7592.93 1629.36   6
   7   2  -7 28263.7 4408.19   5
  -7  -2   7 38983.6 2817.01   6
   7   2  -6 33496.7 4904.31   5
  -7  -2   6 33770.9 2675.39   6
   7   2  -5 39850.4 5695.80   5
  -7  -2   5 41743.4 2876.45   6
   7   2  -4 8001.38 5651.45   5
   7   2  -3 15139.3 5923.24   5
   7   2  -3 8345.56 1788.48   9
   7   2  -2 43598.9 6335.90   5
   7   2  -2 33134.4 2577.79   9
   7   2  -1 5510.11 6291.91   5
   7   2   0 66995.4 6933.06   5
   7   2   1 9397.21 6157.37   5
  -7  -3   9 975.375 950.147   6
  -7  -3   8 1551.30 1246.98   6
  -7  -3   7 66562.6 3051.59   6
  -7  -3   6 6414.64 1510.56   6
   7   3  -5 31279.2 5388.03   5
   7   3  -4 27586.6 5721.39   5
   7   3  -4 24391.1 2301.94   9
   7   3  -3-1947.78 5705.09   5
   7   3  -3 1314.90 1421.69   9
   7   3  -2 3767.61 5902.86   5
   7   3  -2 6294.06 1647.65   9
   7   3  -1 36063.2 6037.11   5
   7   3  -1 46813.7 2703.54   9
   7   3   0 514.089 1452.37   9
   7   4  -7 2532.53 1040.02   9
   7   4  -6 52492.7 2484.05   9
   7   4  -5-1.47969 1068.82   9
   7   4  -4 36504.0 2278.38   9
   7   4  -3 8908.32 1524.90   9
   7   4  -2 112.582 1144.82   9
   8  -5  -3 52940.5 3353.43   5
   8  -5  -2 25121.2 3232.64   5
   8  -5  -1 12249.5 2707.36   5
   8  -5   0 19367.8 2961.50   5
   8  -4  -4 48453.0 4208.60   5
   8  -4  -2 40338.3 4474.77   5
   8  -4  -1 843.059 4102.08   5
   8  -3  -5 17049.4 3675.42   5
   8  -3  -4 38053.9 4552.91   5
   8  -3  -3 57071.9 5176.85   5
   8  -3  -2 3275.62 4756.75   5
   8  -3  -1 9745.10 4534.64   5
   8  -3   0 6445.81 4123.70   5
   8  -2  -5 41750.7 4280.20   5
   8  -2  -4 2099.35 4255.32   5
   8  -2  -3 67985.8 5647.76   5
   8  -2  -2 16078.9 4995.77   5
   8  -2  -1 13987.0 4754.66   5
   8  -2   0 13923.2 4511.41   5
   8  -1  -5 13668.1 4074.96   5
   8  -1  -4 47907.3 5066.01   5
   8  -1  -3 8696.77 4869.47   5
   8  -1  -2 73472.4 5771.40   5
   8  -1  -1 10200.8 4559.61   5
   8  -1   0 13604.5 4341.86   5
   8   0  -5 5070.90 3957.24   5
   8   0  -4 11576.2 4628.77   5
   8   0  -3 46998.8 5458.99   5
   8   0  -2 7767.63 4759.78   5
   8   0  -1 48734.4 4994.44   5
   8   1  -4-773.783 4277.36   5
   8   1  -3 18957.7 4561.51   5
;
_shelx_hkl_checksum              27303
loop_
_space_group_symop_operation_xyz
'x, y, z'
'-x, -y, -z'
loop_
_atom_site_label
_atom_site_type_symbol
_atom_site_fract_x
_atom_site_fract_y
_atom_site_fract_z
_atom_site_U_iso_or_equiv
_atom_site_adp_type
_atom_site_occupancy
_atom_site_site_symmetry_order
_atom_site_calc_flag
_atom_site_refinement_flags_posn
_atom_site_refinement_flags_adp
C4 C 1.0866(15) 1.3821(9) 0.9121(7) 0.026(2) Uani 1 1 d . .
H2 H 1.1842 1.4650 0.9332 0.031 Uiso 1 1 calc R U
C15 C 0.7622(16) 0.9030(9) 0.5622(7) 0.027(2) Uani 1 1 d . .
O3 O 0.6901(12) 0.9425(8) 0.4928(5) 0.0394(18) Uani 1 1 d . .
C1 C 0.7957(13) 1.1312(8) 0.8503(6) 0.0187(18) Uani 1 1 d . .
C2 C 0.9929(14) 1.1325(8) 0.9012(7) 0.0205(18) Uani 1 1 d . .
H8 H 1.0293 1.0508 0.9142 0.025 Uiso 1 1 calc R U
C3 C 1.1329(13) 1.2569(9) 0.9318(6) 0.0183(17) Uani 1 1 d . .
C5 C 0.8887(15) 1.3782(9) 0.8597(7) 0.029(2) Uani 1 1 d . .
H4 H 0.8536 1.4592 0.8441 0.035 Uiso 1 1 calc R U
C6 C 0.7439(15) 1.2535(10) 0.8308(7) 0.027(2) Uani 1 1 d . .
H5 H 0.6109 1.2522 0.7981 0.032 Uiso 1 1 calc R U
C7 C 0.6384(14) 1.0020(9) 0.8208(6) 0.0212(18) Uani 1 1 d . .
H7 H 0.5126 1.0012 0.8417 0.025 Uiso 1 1 calc R U
C8 C 0.5118(13) 0.6510(9) 0.7064(7) 0.0197(18) Uani 1 1 d . .
C9 C 0.3575(14) 0.5323(9) 0.7032(7) 0.0226(19) Uani 1 1 d . .
H9 H 0.2450 0.5380 0.7350 0.027 Uiso 1 1 calc R U
C10 C 0.3773(15) 0.4099(9) 0.6529(7) 0.027(2) Uani 1 1 d . .
H10 H 0.2754 0.3308 0.6483 0.032 Uiso 1 1 calc R U
C11 C 0.5491(14) 0.4007(9) 0.6076(7) 0.0235(19) Uani 1 1 d . .
H11 H 0.5662 0.3161 0.5753 0.028 Uiso 1 1 calc R U
C12 C 0.6901(14) 0.5195(9) 0.6121(7) 0.0213(18) Uani 1 1 d . .
H12 H 0.8031 0.5147 0.5807 0.026 Uiso 1 1 calc R U
C13 C 1.0972(15) 1.0119(9) 0.7058(7) 0.025(2) Uani 1 1 d . .
C14 C 1.0626(15) 0.7689(9) 0.5891(7) 0.024(2) Uani 1 1 d . .
N1 N 0.6605(11) 0.8896(7) 0.7683(5) 0.0191(15) Uani 1 1 d . .
N2 N 0.4983(11) 0.7765(7) 0.7562(6) 0.0236(17) Uani 1 1 d . .
H2A H 0.3892 0.7854 0.7801 0.028 Uiso 1 1 calc R U
N3 N 0.6741(11) 0.6468(7) 0.6611(5) 0.0187(15) Uani 1 1 d . .
N4 N 1.3344(12) 1.2614(8) 0.9939(6) 0.0285(18) Uani 1 1 d . .
O1 O 1.2239(10) 1.1105(6) 0.7205(5) 0.0299(15) Uani 1 1 d . .
O2 O 1.1548(12) 0.7237(7) 0.5343(5) 0.0371(18) Uani 1 1 d . .
O4 O 1.3893(11) 1.1504(7) 0.9937(5) 0.0338(16) Uani 1 1 d . .
O5 O 1.4390(11) 1.3717(7) 1.0423(6) 0.0397(18) Uani 1 1 d . .
Br1 Br 1.06045(13) 0.76348(9) 0.84372(7) 0.0204(2) Uani 1 1 d . .
Re1 Re 0.89391(6) 0.84027(4) 0.67764(3) 0.01729(15) Uani 1 1 d . .
loop_
_atom_site_aniso_label
_atom_site_aniso_U_11
_atom_site_aniso_U_22
_atom_site_aniso_U_33
_atom_site_aniso_U_23
_atom_site_aniso_U_13
_atom_site_aniso_U_12
C4 0.035(6) 0.016(4) 0.024(5) 0.004(3) 0.010(4) -0.004(4)
C15 0.038(6) 0.015(4) 0.029(5) 0.006(4) 0.019(4) -0.005(4)
O3 0.052(5) 0.038(4) 0.029(4) 0.013(3) 0.008(3) 0.006(4)
C1 0.022(5) 0.014(4) 0.020(4) 0.001(3) 0.007(4) 0.001(3)
C2 0.021(5) 0.015(4) 0.026(4) 0.002(3) 0.008(4) 0.003(3)
C3 0.013(4) 0.022(4) 0.019(4) 0.004(3) 0.003(3) 0.002(3)
C5 0.028(6) 0.020(4) 0.037(5) 0.004(4) 0.001(4) 0.007(4)
C6 0.019(5) 0.027(5) 0.031(5) 0.004(4) 0.000(4) 0.001(4)
C7 0.019(5) 0.025(4) 0.021(4) 0.001(3) 0.006(4) 0.006(4)
C8 0.012(5) 0.020(4) 0.026(4) 0.002(3) 0.003(4) 0.004(3)
C9 0.013(5) 0.022(4) 0.034(5) 0.002(4) 0.005(4) 0.006(3)
C10 0.028(5) 0.016(4) 0.026(5) -0.002(4) 0.001(4) -0.011(4)
C11 0.022(5) 0.022(4) 0.022(4) -0.003(3) -0.001(4) 0.003(4)
C12 0.017(5) 0.020(4) 0.026(4) 0.003(3) 0.002(4) 0.004(3)
C13 0.032(6) 0.023(5) 0.023(4) 0.002(4) 0.014(4) 0.009(4)
C14 0.025(5) 0.023(4) 0.029(5) 0.013(4) 0.012(4) 0.001(4)
N1 0.014(4) 0.012(3) 0.026(4) -0.001(3) 0.001(3) -0.004(3)
N2 0.017(4) 0.016(3) 0.037(4) 0.003(3) 0.014(3) -0.003(3)
N3 0.019(4) 0.011(3) 0.024(4) 0.001(3) 0.007(3) -0.001(3)
N4 0.025(5) 0.030(4) 0.026(4) -0.002(3) 0.007(3) -0.001(3)
O1 0.031(4) 0.015(3) 0.037(4) 0.002(3) 0.008(3) -0.011(3)
O2 0.043(5) 0.034(4) 0.037(4) -0.001(3) 0.026(4) 0.006(3)
O4 0.026(4) 0.034(4) 0.038(4) 0.001(3) 0.002(3) 0.006(3)
O5 0.027(4) 0.031(4) 0.048(4) 0.000(3) -0.005(3) -0.010(3)
Br1 0.0185(5) 0.0196(4) 0.0225(4) 0.0025(3) 0.0047(4) 0.0028(3)
Re1 0.0174(2) 0.0140(2) 0.0189(2) 0.00038(13) 0.00499(15) 0.00033(14)
loop_
_atom_type_symbol
_atom_type_description
_atom_type_scat_dispersion_real
_atom_type_scat_dispersion_imag
_atom_type_scat_source
C C 0.0181 0.0091 'International Tables Vol C Tables 4.2.6.8 and 6.1.1.4'
H H 0.0000 0.0000 'International Tables Vol C Tables 4.2.6.8 and 6.1.1.4'
N N 0.0311 0.0180 'International Tables Vol C Tables 4.2.6.8 and 6.1.1.4'
O O 0.0492 0.0322 'International Tables Vol C Tables 4.2.6.8 and 6.1.1.4'
Br Br -0.6763 1.2805 'International Tables Vol C Tables 4.2.6.8 and 6.1.1.4'
Re Re -5.2083 5.8923 'International Tables Vol C Tables 4.2.6.8 and 6.1.1.4'
loop_
_geom_angle_atom_site_label_1
_geom_angle_atom_site_label_2
_geom_angle_atom_site_label_3
_geom_angle
C5 C4 C3 117.6(8)
C5 C4 H2 121.2
C3 C4 H2 121.2
O3 C15 Re1 177.6(8)
C6 C1 C2 120.1(8)
C6 C1 C7 119.3(8)
C2 C1 C7 120.5(8)
C3 C2 C1 118.7(8)
C3 C2 H8 120.7
C1 C2 H8 120.7
C2 C3 C4 122.7(8)
C2 C3 N4 119.2(8)
C4 C3 N4 118.0(8)
C6 C5 C4 120.2(9)
C6 C5 H4 119.9
C4 C5 H4 119.9
C1 C6 C5 120.7(9)
C1 C6 H5 119.7
C5 C6 H5 119.7
N1 C7 C1 125.2(8)
N1 C7 H7 117.4
C1 C7 H7 117.4
N3 C8 N2 117.2(8)
N3 C8 C9 122.5(8)
N2 C8 C9 120.3(8)
C10 C9 C8 118.2(8)
C10 C9 H9 120.9
C8 C9 H9 120.9
C9 C10 C11 120.8(8)
C9 C10 H10 119.6
C11 C10 H10 119.6
C12 C11 C10 117.8(8)
C12 C11 H11 121.1
C10 C11 H11 121.1
C11 C12 N3 123.3(8)
C11 C12 H12 118.4
N3 C12 H12 118.4
O1 C13 Re1 176.8(8)
O2 C14 Re1 177.1(9)
C7 N1 N2 115.6(7)
C7 N1 Re1 133.2(6)
N2 N1 Re1 110.9(5)
C8 N2 N1 119.9(7)
C8 N2 H2A 120.0
N1 N2 H2A 120.0
C8 N3 C12 117.3(7)
C8 N3 Re1 116.3(5)
C12 N3 Re1 126.3(6)
O5 N4 O4 123.4(9)
O5 N4 C3 119.7(8)
O4 N4 C3 116.9(7)
C15 Re1 C14 87.1(4)
C15 Re1 C13 87.8(4)
C14 Re1 C13 86.8(4)
C15 Re1 N3 97.2(3)
C14 Re1 N3 95.5(3)
C13 Re1 N3 174.6(3)
C15 Re1 N1 91.6(3)
C14 Re1 N1 170.3(3)
C13 Re1 N1 102.8(3)
N3 Re1 N1 75.1(2)
C15 Re1 Br1 176.1(3)
C14 Re1 Br1 96.8(3)
C13 Re1 Br1 91.9(3)
N3 Re1 Br1 83.0(2)
N1 Re1 Br1 84.61(19)
loop_
_geom_bond_atom_site_label_1
_geom_bond_atom_site_label_2
_geom_bond_distance
C4 C5 1.395(14)
C4 C3 1.400(12)
C4 H2 0.9300
C15 O3 1.140(12)
C15 Re1 1.910(10)
C1 C6 1.384(12)
C1 C2 1.391(13)
C1 C7 1.465(12)
C2 C3 1.373(12)
C2 H8 0.9300
C3 N4 1.465(12)
C5 C6 1.390(13)
C5 H4 0.9300
C6 H5 0.9300
C7 N1 1.285(11)
C7 H7 0.9300
C8 N3 1.332(11)
C8 N2 1.361(11)
C8 C9 1.410(12)
C9 C10 1.352(12)
C9 H9 0.9300
C10 C11 1.397(13)
C10 H10 0.9300
C11 C12 1.358(13)
C11 H11 0.9300
C12 N3 1.379(11)
C12 H12 0.9300
C13 O1 1.143(11)
C13 Re1 1.927(9)
C14 O2 1.132(11)
C14 Re1 1.921(9)
N1 N2 1.383(9)
N1 Re1 2.213(7)
N2 H2A 0.8600
N3 Re1 2.158(7)
N4 O5 1.220(10)
N4 O4 1.236(11)
Br1 Re1 2.6204(11)
loop_
_geom_torsion_atom_site_label_1
_geom_torsion_atom_site_label_2
_geom_torsion_atom_site_label_3
_geom_torsion_atom_site_label_4
_geom_torsion
C6 C1 C2 C3 0.4(13)
C7 C1 C2 C3 -177.0(8)
C1 C2 C3 C4 -1.3(13)
C1 C2 C3 N4 174.2(7)
C5 C4 C3 C2 0.4(13)
C5 C4 C3 N4 -175.2(8)
C3 C4 C5 C6 1.4(14)
C2 C1 C6 C5 1.4(14)
C7 C1 C6 C5 178.8(8)
C4 C5 C6 C1 -2.3(15)
C6 C1 C7 N1 129.3(10)
C2 C1 C7 N1 -53.3(13)
N3 C8 C9 C10 0.6(14)
N2 C8 C9 C10 180.0(9)
C8 C9 C10 C11 1.7(14)
C9 C10 C11 C12 -2.8(14)
C10 C11 C12 N3 1.6(14)
C1 C7 N1 N2 174.9(8)
C1 C7 N1 Re1 -12.3(14)
N3 C8 N2 N1 -7.4(13)
C9 C8 N2 N1 173.2(8)
C7 N1 N2 C8 -176.6(8)
Re1 N1 N2 C8 9.0(10)
N2 C8 N3 C12 178.9(8)
C9 C8 N3 C12 -1.7(13)
N2 C8 N3 Re1 1.5(11)
C9 C8 N3 Re1 -179.1(7)
C11 C12 N3 C8 0.5(13)
C11 C12 N3 Re1 177.7(7)
C2 C3 N4 O5 -162.0(8)
C4 C3 N4 O5 13.8(12)
C2 C3 N4 O4 18.2(12)
C4 C3 N4 O4 -166.1(8)
