#------------------------------------------------------------------------------
#$Date: 2019-11-23 02:27:55 +0200 (Sat, 23 Nov 2019) $
#$Revision: 231881 $
#$URL: file:///home/coder/svn-repositories/cod/cif/4/34/66/4346615.cif $
#------------------------------------------------------------------------------
#
# This file is available in the Crystallography Open Database (COD),
# http://www.crystallography.net/
#
# All data on this site have been placed in the public domain by the
# contributors.
#
data_4346615
loop_
_publ_author_name
'Tamain, C.'
'Arab-Chapelet, B'
'Rivenet, M.'
'Legoff, X. F.'
'Loubert, G.'
'Grandjean, S.'
'Abraham, F.'
_publ_section_title
;
 Coordination Modes of Americium in the Am2(C2O4)3(H2O)6&#x00B7;4H2O
 Oxalate: Synthesis, Crystal Structure, Spectroscopic Characterizations
 and Comparison in the M2(C2O4)3(H2O)6&#x00B7;nH2O (M = Ln, An) Series.
;
_journal_issue                   1
_journal_name_full               'Inorganic chemistry'
_journal_page_first              51
_journal_page_last               61
_journal_paper_doi               10.1021/acs.inorgchem.5b01781
_journal_volume                  55
_journal_year                    2016
_chemical_formula_sum            'C6 O22 Pu2'
_chemical_formula_weight         908.16
_chemical_name_common            'Pu oxalate'
_space_group_crystal_system      monoclinic
_space_group_IT_number           14
_space_group_name_Hall           '-P 2ybc'
_space_group_name_H-M_alt        'P 1 21/c 1'
_audit_creation_method           SHELXL-2013
_cell_angle_alpha                90
_cell_angle_beta                 114.327(2)
_cell_angle_gamma                90
_cell_formula_units_Z            2
_cell_length_a                   11.2140(9)
_cell_length_b                   9.6052(9)
_cell_length_c                   10.2868(9)
_cell_measurement_reflns_used    7791
_cell_measurement_temperature    296(2)
_cell_measurement_theta_max      37.86
_cell_measurement_theta_min      3.10
_cell_volume                     1009.64(15)
_computing_cell_refinement       'Bruker SAINT'
_computing_data_collection       'Bruker APEX2'
_computing_data_reduction        'Bruker SAINT'
_computing_molecular_graphics    'Bruker SHELXTL'
_computing_publication_material  'Bruker SHELXTL'
_computing_structure_refinement  'SHELXL-97 (Sheldrick, 2008)'
_computing_structure_solution    'SHELXS-97 (Sheldrick, 2008)'
_diffrn_ambient_temperature      296(2)
_diffrn_measured_fraction_theta_full 0.998
_diffrn_measured_fraction_theta_max 0.921
_diffrn_measurement_device_type  'Bruker APEX-II CCD'
_diffrn_measurement_method       '\f and \w scans'
_diffrn_radiation_type           MoK\a
_diffrn_radiation_wavelength     0.71073
_diffrn_reflns_av_R_equivalents  0.0400
_diffrn_reflns_av_unetI/netI     0.0401
_diffrn_reflns_Laue_measured_fraction_full 0.998
_diffrn_reflns_Laue_measured_fraction_max 0.921
_diffrn_reflns_limit_h_max       19
_diffrn_reflns_limit_h_min       -17
_diffrn_reflns_limit_k_max       16
_diffrn_reflns_limit_k_min       -16
_diffrn_reflns_limit_l_max       15
_diffrn_reflns_limit_l_min       -15
_diffrn_reflns_number            16537
_diffrn_reflns_point_group_measured_fraction_full 0.998
_diffrn_reflns_point_group_measured_fraction_max 0.921
_diffrn_reflns_theta_full        25.242
_diffrn_reflns_theta_max         37.985
_diffrn_reflns_theta_min         1.993
_diffrn_source                   'sealed tube'
_exptl_absorpt_coefficient_mu    6.575
_exptl_absorpt_correction_type   none
_exptl_crystal_colour            blue
_exptl_crystal_density_diffrn    3.027
_exptl_crystal_density_method    'not measured'
_exptl_crystal_description       prism
_exptl_crystal_F_000             824
_exptl_crystal_size_max          0.03
_exptl_crystal_size_mid          0.02
_exptl_crystal_size_min          0.01
_refine_diff_density_max         2.812
_refine_diff_density_min         -1.656
_refine_diff_density_rms         0.334
_refine_ls_extinction_method     none
_refine_ls_goodness_of_fit_ref   1.089
_refine_ls_hydrogen_treatment    undef
_refine_ls_matrix_type           full
_refine_ls_number_parameters     154
_refine_ls_number_reflns         5062
_refine_ls_number_restraints     0
_refine_ls_restrained_S_all      1.089
_refine_ls_R_factor_all          0.0358
_refine_ls_R_factor_gt           0.0252
_refine_ls_shift/su_max          0.002
_refine_ls_shift/su_mean         0.000
_refine_ls_structure_factor_coef Fsqd
_refine_ls_weighting_details
;
 w=1/[\s^2^(Fo^2^)+(0.0368P)^2^+0.4910P]
 where P=(Fo^2^+2Fc^2^)/3
;
_refine_ls_weighting_scheme      calc
_refine_ls_wR_factor_gt          0.0603
_refine_ls_wR_factor_ref         0.0764
_reflns_Friedel_coverage         0.000
_reflns_number_gt                4208
_reflns_number_total             5062
_reflns_threshold_expression     'I > 2\s(I)'
_cod_data_source_file            ic5b01781_si_002.cif
_cod_data_source_block           CT-oxalat-Pu
_cod_original_sg_symbol_H-M      'P 21/c'
_cod_database_code               4346615
_shelx_space_group_comment
;
The symmetry employed for this shelxl refinement is uniquely defined
by the following loop, which should always be used as a source of
symmetry information in preference to the above space-group names.
They are only intended as comments.
;
_shelxl_version_number           2013-2
_shelx_res_file
;
TITL CT-oxalat-Pu in P2(1)/c
CELL 0.71073  11.2140   9.6052  10.2868  90.000 114.327  90.000
ZERR    2.00   0.0009   0.0009   0.0009   0.000   0.002   0.000
LATT 1
SYMM -X, 0.5+Y, 0.5-Z
SFAC C  O  Pu H
UNIT 12  44  4  24
L.S. 10
ACTA
BOND
FMAP 2
PLAN 80
DANG 1.51 H4 H3
DANG 1.51 H2 H1
DFIX 1.0 O9 H4
DFIX 1.0 O9 H3
DFIX 1.0 O7 H1
DFIX 1.0 O7 H2
DFIX 1.0 O8 H5
TEMP 23.000
WGHT    0.036800    0.490993
FVAR       0.10198
MOLE 1
PU1   3    0.310414    0.954330    0.168482    11.00000    0.00800    0.01797 =
         0.00995    0.00021    0.00231    0.00002
O2    2    0.530089    1.025154    0.178163    11.00000    0.01828    0.03415 =
         0.01670   -0.00316    0.00762   -0.00505
O5    2    0.107661    1.071540    0.161032    11.00000    0.01009    0.02916 =
         0.02063   -0.00694    0.00134    0.00205
O1    2    0.490926    0.858667    0.390460    11.00000    0.02132    0.02276 =
         0.01613   -0.00402    0.00409    0.00509
O3    2    0.105911    0.892105   -0.038179    11.00000    0.01256    0.03333 =
         0.02277   -0.00798    0.00336    0.00453
O4    2    0.374067    1.102813    0.382698    11.00000    0.02818    0.02878 =
         0.01748   -0.00294   -0.00096    0.01297
O6    2    0.659804    1.063630    0.065270    11.00000    0.01724    0.04522 =
         0.02071   -0.00939    0.01059   -0.01434
C1    1    0.554571    1.026060    0.069754    11.00000    0.01422    0.02480 =
         0.01675   -0.00279    0.00707   -0.00468
C2    1    0.533990    0.929413    0.502637    11.00000    0.01501    0.02319 =
         0.01558   -0.00066    0.00445    0.00335
C3    1    0.000113    0.948428   -0.056836    11.00000    0.01045    0.02100 =
         0.01385   -0.00111    0.00285    0.00092
O7    2    0.289319    1.195945    0.073889    11.00000    0.02970    0.03023 =
         0.05320    0.01878    0.01621   -0.00203
O9    2    0.201518    0.809578    0.295523    11.00000    0.02887    0.04434 =
         0.04711    0.02218    0.01859    0.00185
O8    2    0.330157    0.704536    0.113529    11.00000    0.05760    0.02936 =
         0.02435    0.00286    0.00631    0.01473
O12   2    0.060714    0.210980    0.369632    10.50000    0.04179    0.14874 =
         0.08071   -0.07730    0.01118   -0.00073
O11   2    0.077982    0.314933    0.291070    10.50000    0.04078    0.06445 =
         0.07308   -0.04650    0.01054    0.00898
O13   2    0.160819    0.400528    0.184486    10.25000    0.02766    0.04086 =
         0.07736   -0.03655   -0.00748    0.00409
O14   2    0.108888    0.479709    0.097199    10.25000    0.24236    0.26635 =
         0.10809   -0.11611    0.11870   -0.21824
HKLF 4

REM  CT-oxalat-Pu in P2(1)/c
REM R1 =  0.0252 for    4208 Fo > 4sig(Fo)  and  0.0358 for all    5062 data
REM    154 parameters refined using      0 restraints

END

WGHT      0.0367      0.0000

REM Highest difference peak  2.812,  deepest hole -1.656,  1-sigma level  0.334
Q1    1   0.3021  1.0235  0.1578  11.00000  0.05    2.81
Q2    1   0.3135  0.8836  0.1667  11.00000  0.05    2.32
Q3    1   0.0912  0.5392  0.0595  11.00000  0.05    1.62
Q4    1   0.1154  0.5389 -0.0421  11.00000  0.05    1.52
Q5    1   0.2918  0.9580  0.0932  11.00000  0.05    1.31
Q6    1  -0.0019  0.1215  0.2318  11.00000  0.05    1.13
Q7    1   0.0567  0.4025  0.1132  11.00000  0.05    1.12
Q8    1   0.0857  0.5049  0.1474  11.00000  0.05    1.10
Q9    1   0.1119  0.8147  0.2885  11.00000  0.05    1.05
Q10   1   0.0249  0.9673  0.2395  11.00000  0.05    1.02
Q11   1   0.0747  0.5757  0.1234  11.00000  0.05    1.02
Q12   1   0.0768  0.4546  0.2430  11.00000  0.05    1.02
Q13   1   0.0229  1.0411  0.2130  11.00000  0.05    1.00
Q14   1   0.1746  0.7393  0.3280  11.00000  0.05    0.99
Q15   1   0.0000  1.0000  0.0000  10.50000  0.05    0.99
Q16   1   0.0286  1.1811  0.2019  11.00000  0.05    0.98
Q17   1   0.1328  0.4425  0.2096  11.00000  0.05    0.94
Q18   1  -0.0013  0.4232  0.1958  11.00000  0.05    0.93
Q19   1   0.1254  0.3565  0.2273  11.00000  0.05    0.93
Q20   1   0.1691  0.4237  0.1200  11.00000  0.05    0.93
Q21   1   0.2729  1.0949  0.1336  11.00000  0.05    0.92
Q22   1   0.0439  0.4573  0.0754  11.00000  0.05    0.91
Q23   1   0.1330  0.2272  0.4296  11.00000  0.05    0.91
Q24   1  -0.0333  0.9446 -0.1343  11.00000  0.05    0.90
Q25   1   0.0386  0.1862  0.2733  11.00000  0.05    0.90
Q26   1   0.0554  0.3826  0.2127  11.00000  0.05    0.90
Q27   1   0.0693  0.4861 -0.0713  11.00000  0.05    0.89
Q28   1   0.2105  1.2054 -0.0151  11.00000  0.05    0.89
Q29   1  -0.0604  0.4832  0.1512  11.00000  0.05    0.87
Q30   1   0.1107  0.3951  0.0267  11.00000  0.05    0.86
Q31   1   0.1094  0.4822  0.0250  11.00000  0.05    0.86
Q32   1   0.0309  0.4954 -0.0176  11.00000  0.05    0.85
Q33   1   0.0027  0.4162  0.1245  11.00000  0.05    0.85
Q34   1  -0.0127  0.4216  0.3086  11.00000  0.05    0.84
Q35   1   0.1666  0.5506  0.0908  11.00000  0.05    0.84
Q36   1  -0.0078  1.0983 -0.0841  11.00000  0.05    0.81
Q37   1   0.0207  0.4967  0.1255  11.00000  0.05    0.81
Q38   1   0.1519  0.4440 -0.0055  11.00000  0.05    0.80
Q39   1   0.0413  0.0618  0.3693  11.00000  0.05    0.80
Q40   1   0.0250  1.1871  0.1125  11.00000  0.05    0.80
Q41   1   0.2041  1.2161  0.0986  11.00000  0.05    0.80
Q42   1  -0.0016  0.8873 -0.1604  11.00000  0.05    0.80
Q43   1  -0.0204  0.3206  0.0688  11.00000  0.05    0.79
Q44   1   0.0410  0.4841  0.2872  11.00000  0.05    0.79
Q45   1   0.0952  0.9016 -0.0974  11.00000  0.05    0.79
Q46   1   0.1792  0.8021  0.0439  11.00000  0.05    0.78
Q47   1   0.0174  0.3087  0.3624  11.00000  0.05    0.77
Q48   1   0.1205  0.7797  0.2296  11.00000  0.05    0.77
Q49   1   0.0843  0.2229  0.2417  11.00000  0.05    0.77
Q50   1   0.0413  0.4215  0.2986  11.00000  0.05    0.77
Q51   1  -0.0104  0.2199  0.3493  11.00000  0.05    0.77
Q52   1   0.0508  1.0591 -0.1280  11.00000  0.05    0.76
Q53   1   0.0208  0.2836  0.0428  11.00000  0.05    0.75
Q54   1   0.0214  0.7827 -0.0874  11.00000  0.05    0.75
Q55   1  -0.0138  0.2867  0.1187  11.00000  0.05    0.75
Q56   1   0.1514  0.9487  0.0410  11.00000  0.05    0.74
Q57   1   0.1137  0.8540  0.3466  11.00000  0.05    0.73
Q58   1   0.1314  0.3164  0.3581  11.00000  0.05    0.73
Q59   1   0.2294  0.6625  0.0658  11.00000  0.05    0.73
Q60   1   0.2029  0.7585  0.2588  11.00000  0.05    0.73
Q61   1   0.0170  0.8341 -0.0381  11.00000  0.05    0.73
Q62   1   0.0524  0.9158 -0.0329  11.00000  0.05    0.73
Q63   1  -0.0489  0.1579  0.3282  11.00000  0.05    0.73
Q64   1   0.0666  1.1423  0.0887  11.00000  0.05    0.73
Q65   1  -0.0356  0.3372  0.3844  11.00000  0.05    0.73
Q66   1  -0.0267  0.3437  0.1540  11.00000  0.05    0.73
Q67   1   0.1066  0.4456  0.3865  11.00000  0.05    0.72
Q68   1   0.1275  0.0758  0.4318  11.00000  0.05    0.72
Q69   1   0.2126  0.9767  0.0962  11.00000  0.05    0.72
Q70   1   0.1469  0.9783 -0.0231  11.00000  0.05    0.71
Q71   1   0.0555  0.1802  0.4799  11.00000  0.05    0.71
Q72   1   0.3480  1.2368  0.0469  11.00000  0.05    0.71
Q73   1   0.1908  0.2233  0.4558  11.00000  0.05    0.71
Q74   1   0.1693  0.8849  0.0151  11.00000  0.05    0.71
Q75   1  -0.0188  0.1848  0.4149  11.00000  0.05    0.71
Q76   1   0.0702  1.0004 -0.0155  11.00000  0.05    0.71
Q77   1  -0.0580  1.0164 -0.1270  11.00000  0.05    0.70
Q78   1   0.1607  0.5431  0.3016  11.00000  0.05    0.70
Q79   1   0.0113  0.5569  0.0097  11.00000  0.05    0.70
Q80   1   0.0174  0.1588  0.3719  11.00000  0.05    0.70
;
_shelx_res_checksum              79181
_shelx_hkl_file
;
   0   0   1   -0.16    0.06
   0   0   1   -0.12    0.05
   0   0  -1   -0.14    0.08
   0   0   2  121.62    4.56
   0   0   2  109.61    6.84
   0   0  -2  122.57    6.85
   0   0   3   -0.29    0.26
   0   0  -3   -0.53    0.13
   0   0  -3   -0.45    0.24
   0   0   3   -0.43    0.19
   0   0  -4  335.70   19.79
   0   0   4  324.83   13.17
   0   0  -4  362.96   15.23
   0   0   4  354.74   19.80
   0   0  -5    0.13    0.37
   0   0   5   -0.36    0.32
   0   0  -5    0.00    0.15
   0   0   5    0.12    0.25
   0   0  -5    0.09    0.17
   0   0  -6  462.94   18.91
   0   0  -6  415.72   19.26
   0   0  -6  428.56   25.08
   0   0   6  433.96   16.72
   0   0  -7    0.18    0.21
   0   0   7    0.33    0.32
   0   0  -7   -0.07    0.40
   0   0  -7   -0.03    0.20
   0   0   8  141.85    5.66
   0   0  -8  133.39    6.12
   0   0  -8  138.38    6.24
   0   0  -8  133.05    8.41
   0   0  -9    0.18    0.59
   0   0   9   -0.51    0.40
   0   0  -9    0.35    0.30
   0   0  -9    0.05    0.31
   0   0 -10   29.76    1.70
   0   0 -10   32.72    1.72
   0   0  10   30.58    1.79
   0   0  11   -0.57    0.42
   0   0 -11   -0.07    0.32
   0   0 -12  139.83    6.42
   0   0  12  137.21    6.08
   0   0  13    1.08    0.68
   0   0 -13    0.39    0.45
   0   0  14   41.11    2.65
   0   1   2   14.00    0.70
   0   1  -2   14.70    1.11
   0  -1  -2   15.89    0.78
   0  -1   2   14.56    0.75
   0  -1  -2   15.41    0.75
   0   1  -3  676.79   31.34
   0   1   3  756.04   40.72
   0   1   3  662.11   26.90
   0   1  -3  711.76   40.56
   0  -1  -3  741.34   30.84
   0  -1   3  671.52   26.72
   0  -1  -3  727.62   31.29
   0   1  -4   77.24    4.35
   0   1  -4   63.88    3.18
   0   1   4   65.00    4.23
   0   1   4   64.12    2.84
   0  -1  -4   77.49    3.23
   0  -1  -4   66.94    3.12
   0  -1   4   74.08    2.89
   0   1  -5  218.00   12.56
   0   1  -5  220.47    9.56
   0   1   5  214.25    8.34
   0  -1  -5  202.67    9.37
   0  -1  -5  217.47    9.58
   0  -1   5  214.04    8.36
   0   1  -6   10.99    1.15
   0   1   6   10.09    0.72
   0   1  -6   11.36    0.68
   0  -1  -6    8.78    0.67
   0  -1   6    9.29    0.78
   0  -1  -6   10.19    0.65
   0   1  -7   32.37    1.64
   0   1   7   33.29    1.65
   0   1  -7   32.97    1.61
   0   1  -7   27.24    2.40
   0  -1  -7   34.53    1.63
   0  -1   7   31.69    1.65
   0  -1  -7   32.05    1.67
   0   1  -8   14.54    0.92
   0   1  -8   14.20    1.57
   0   1   8   14.55    1.07
   0   1  -8   14.59    0.92
   0  -1   8   14.57    1.11
   0  -1  -8   13.45    0.90
   0  -1  -8   13.89    0.95
   0   1  -9  385.97   17.53
   0   1   9  401.68   15.62
   0   1  -9  407.23   23.47
   0   1  -9  410.14   17.84
   0  -1  -9  408.93   17.88
   0  -1  -9  404.59   17.56
   0  -1   9  386.10   15.64
   0   1 -10    9.21    1.47
   0   1  10    6.40    0.86
   0   1 -10    8.22    0.77
   0   1 -10    8.29    0.72
   0  -1 -10    7.41    0.77
   0  -1  10    7.86    0.99
   0  -1 -10    7.92    0.75
   0   1 -11   51.68    2.71
   0   1  11   52.21    2.74
   0   1 -11   59.46    4.16
   0  -1  11   53.21    2.79
   0  -1 -11   53.25    2.75
   0   1 -12    0.11    0.41
   0   1  12    0.83    0.60
   0  -1  12    0.26    0.70
   0   1 -13   18.12    1.35
   0   1  13   22.25    1.74
   0   1  14    3.94    0.97
   0   1 -14    4.62    0.74
   0   1 -15   59.08    3.16
   0   2   0  990.24   44.11
   0   2  -1  141.99    6.29
   0  -2  -1  135.22    6.28
   0  -2   1  141.04    5.25
   0   2  -2   86.40    3.76
   0   2   2   80.76    3.21
   0  -2  -2   77.19    3.74
   0   2  -3   83.81    3.94
   0   2   3   86.66    3.41
   0  -2  -3   86.69    3.95
   0   2   4   81.51    5.04
   0   2  -4   90.61    3.85
   0   2   4   84.42    3.37
   0  -2  -4   79.99    3.86
   0  -2   4   78.88    3.42
   0   2  -5  155.83    6.77
   0   2   5  152.23    5.91
   0   2  -5  149.35    8.94
   0   2   5  135.74    8.83
   0  -2   5  149.66    5.97
   0  -2  -5  153.98    6.80
   0   2  -6  392.46   17.42
   0   2  -6  394.13   22.74
   0   2   6  394.36   15.09
   0  -2  -6  393.31   17.12
   0  -2  -6  384.87   17.46
   0  -2   6  395.88   15.15
   0   2   7   66.27    2.86
   0   2  -7   69.90    3.11
   0   2  -7   67.22    4.35
   0  -2   7   62.04    2.90
   0  -2  -7   64.74    3.14
   0  -2  -7   57.81    3.03
   0   2  -8  107.14    6.99
   0   2   8  111.66    4.66
   0   2  -8  105.42    5.11
   0  -2   8  115.67    4.76
   0  -2  -8  111.67    5.07
   0  -2  -8  112.11    5.19
   0   2  -9    2.92    0.48
   0   2  -9    3.23    0.47
   0   2   9    2.56    0.59
   0   2  -9    2.51    0.91
   0  -2   9    3.42    0.72
   0  -2  -9    3.33    0.57
   0   2 -10   34.06    1.87
   0   2 -10   35.53    2.99
   0   2  10   34.87    1.96
   0   2 -10   35.88    1.90
   0  -2  10   34.29    2.06
   0  -2 -10   35.20    1.98
   0   2 -11   21.14    1.38
   0   2 -11   24.53    2.36
   0   2  11   21.03    1.51
   0  -2  11   20.50    1.58
   0   2  12  105.69    4.84
   0   2 -12  107.93    5.07
   0   2  13   27.71    2.02
   0   2 -13   33.40    1.92
   0   2 -14   19.99    1.47
   0   2  14   19.67    1.82
   0   2 -15    0.93    0.50
   0   3   1  193.69    8.81
   0  -3   1  190.17    7.39
   0  -3   1  203.65    8.83
   0  -3  -1  194.62    8.82
   0   3  -2  126.09    5.77
   0   3   2  124.12    5.78
   0  -3   2  130.40    5.77
   0  -3  -2  123.14    5.77
   0   3  -3  612.98   24.93
   0   3   3  537.44   21.33
   0   3   3  555.55   24.91
   0  -3  -3  544.83   24.92
   0   3   4  310.71   11.55
   0   3  -4  306.13   13.45
   0  -3  -4  285.09   13.44
   0   3   5   41.08    2.95
   0   3  -5   38.70    2.92
   0   3   5   44.65    1.91
   0   3  -5   42.89    2.14
   0  -3  -5   43.28    2.18
   0   3  -6    0.40    0.27
   0   3  -6    0.56    0.48
   0   3   6    0.30    0.28
   0  -3  -6    1.14    0.37
   0   3   7   23.79    1.31
   0   3  -7   22.03    2.01
   0   3  -7   21.93    1.32
   0  -3  -7   23.05    1.41
   0   3   8   75.94    3.46
   0   3  -8   79.55    5.32
   0   3  -8   80.39    3.81
   0  -3  -8   80.38    3.90
   0   3   9  102.51    4.22
   0   3  -9  100.21    6.40
   0   3  -9   89.30    4.57
   0  -3  -9   96.09    4.68
   0   3  10   74.93    3.61
   0   3 -10   78.84    3.87
   0   3 -10   91.03    5.70
   0   3 -10   80.67    3.88
   0  -3 -10   76.79    4.00
   0   3  11   31.43    1.86
   0   3 -11   29.88    2.84
   0   3 -11   27.97    1.75
   0  -3 -11   30.26    1.91
   0   3  12    2.90    0.73
   0   3 -12    3.57    0.66
   0   3  13    3.30    0.84
   0   3 -13    3.89    0.71
   0   3 -14   29.44    1.89
   0   3 -15   22.85    1.64
   0   4   0  108.60    4.83
   0  -4   0   95.44    4.82
   0   4   1  239.52   10.95
   0   4  -1  248.32   10.96
   0  -4   1  236.96   10.96
   0  -4  -1  245.03   10.99
   0   4  -2   49.68    2.52
   0   4   2   48.13    2.49
   0  -4   2   49.46    1.92
   0  -4  -2   49.08    2.53
   0  -4   2   48.39    2.49
   0   4   3    0.89    0.43
   0   4  -3    1.02    0.44
   0  -4  -3    1.16    0.46
   0  -4   3    0.84    0.37
   0  -4   3    0.95    0.40
   0   4   4   15.01    1.09
   0   4   4   14.35    0.90
   0   4  -4   18.15    1.17
   0  -4   4   17.50    1.10
   0  -4  -4   14.95    1.11
   0   4  -5  260.67   12.59
   0   4   5  281.42   10.83
   0   4   5  298.21   12.61
   0  -4  -5  277.95   12.64
   0   4   6   62.07    2.69
   0   4  -6   61.60    3.04
   0   4  -6   57.43    4.16
   0  -4  -6   62.19    3.12
   0   4   7  146.74    5.99
   0   4  -7  153.67    9.17
   0   4  -7  140.78    6.84
   0  -4  -7  149.89    6.94
   0   4  -8   29.44    2.55
   0   4  -8   26.02    1.67
   0   4   8   29.89    1.62
   0  -4  -8   30.88    1.84
   0   4  -9    0.85    0.70
   0   4   9    1.13    0.46
   0   4  -9    0.93    0.43
   0  -4  -9    0.74    0.54
   0   4 -10    6.57    0.77
   0   4 -10    6.40    1.36
   0   4  10    5.90    0.83
   0  -4 -10    6.36    0.92
   0   4 -11   63.85    3.25
   0   4  11   59.32    3.05
   0  -4 -11   63.76    3.42
   0   4  12   24.83    1.84
   0   4 -12   31.87    1.88
   0   4  13   74.73    3.76
   0   4 -13   75.48    3.87
   0   4 -14    3.69    0.73
   0   4 -15    0.75    0.54
   0   5   0    0.34    0.49
   0  -5   0   -0.06    0.63
   0   5  -1    3.91    0.67
   0   5   1    2.97    0.62
   0  -5  -1    4.42    0.78
   0  -5   1    5.15    0.78
   0   5  -2  316.79   13.98
   0  -5  -2  296.00   14.00
   0  -5   2  315.29   11.66
   0  -5   2  309.24   13.98
   0   5  -3   12.00    1.06
   0   5   3   10.94    1.06
   0  -5  -3   13.66    1.10
   0  -5   3   13.51    1.04
   0   5  -4  342.09   15.03
   0   5   4  318.18   14.99
   0   5   4  340.45   12.85
   0  -5   4  340.75   14.96
   0  -5  -4  322.48   15.04
   0   5   5    1.40    0.51
   0   5  -5    1.15    0.52
   0   5   5    1.71    0.40
   0  -5  -5    1.27    0.54
   0   5  -6   -0.29    0.55
   0   5  -6    0.88    0.52
   0   5   6    0.01    0.31
   0  -5  -6    0.64    0.52
   0   5   7    0.93    0.41
   0   5  -7    0.86    0.66
   0   5  -7    0.65    0.47
   0  -5  -7   -0.03    0.53
   0   5  -8  128.33    6.21
   0   5  -8  133.18    8.40
   0   5   8  128.50    5.43
   0  -5  -8  132.16    6.32
   0   5   9    1.96    0.53
   0   5  -9    2.08    0.55
   0   5  -9    1.73    0.85
   0  -5  -9    2.17    0.72
   0   5 -10   94.22    6.58
   0   5 -10   95.14    4.66
   0   5  10   93.61    4.23
   0  -5 -10   96.06    4.86
   0   5  11    3.31    0.71
   0  -5 -11    2.87    0.95
   0   5 -12    7.03    0.97
   0   5  12    7.49    1.04
   0  -5 -12    6.14    1.30
   0   5 -13   -0.15    0.57
   0   5 -14   41.95    2.54
   0   5 -15    0.63    0.63
   0   6   0   21.60    1.51
   0  -6   0   20.45    1.54
   0   6  -1  235.67   10.84
   0   6   1  236.28   10.85
   0  -6   1  235.48   10.86
   0  -6  -1  236.50   10.88
   0   6  -2    0.05    0.49
   0   6   2    0.30    0.54
   0  -6   2    0.56    0.53
   0  -6   2    1.03    0.27
   0  -6  -2    0.67    0.64
   0   6   3   20.56    1.52
   0   6  -3   20.37    1.57
   0  -6   3   22.68    1.46
   0  -6  -3   22.06    1.58
   0   6   4    1.73    0.55
   0   6  -4    1.35    0.58
   0   6   4    1.96    0.44
   0  -6   4    1.57    0.51
   0  -6   4    2.33    0.52
   0  -6  -4    1.76    0.69
   0   6   5  210.48    8.46
   0   6   5  220.03    9.89
   0   6  -5  211.56    9.92
   0  -6  -5  212.76    9.97
   0   6  -6   15.40    1.30
   0   6   6   12.50    0.96
   0  -6  -6   11.75    1.30
   0   6   7  196.55    7.40
   0   6  -7  186.30   11.36
   0   6  -7  157.42    8.48
   0  -6  -7  191.68    8.69
   0   6   8    0.79    0.45
   0   6  -8   -0.27    0.72
   0   6  -8    0.30    0.48
   0  -6  -8    1.02    0.75
   0   6  -9    0.37    0.81
   0   6   9    0.40    0.43
   0   6  -9    0.13    0.47
   0  -6  -9   -0.46    0.66
   0   6 -10    2.95    0.68
   0   6  10    2.03    0.61
   0  -6 -10    2.44    0.96
   0   6  11   57.62    2.87
   0  -6 -11   53.64    3.42
   0   6 -12    2.35    0.81
   0  -6 -12   -0.04    1.14
   0   6 -13   60.85    3.42
   0   6 -14    0.34    0.62
   0   7   0   -0.16    0.59
   0  -7   0    0.84    0.69
   0   7  -1   26.82    1.83
   0   7   1   24.53    1.73
   0  -7  -1   24.08    1.80
   0  -7   1   24.25    1.75
   0   7   2  152.21    7.06
   0   7  -2  143.40    7.04
   0  -7   2  143.24    7.03
   0  -7  -2  151.70    7.13
   0  -7   2  144.09    5.71
   0   7   3   64.76    3.48
   0   7  -3   68.53    3.56
   0  -7   3   61.00    3.42
   0  -7  -3   65.31    3.56
   0   7   4  191.11    8.86
   0   7  -4  196.18    8.93
   0  -7   4  191.16    8.84
   0  -7   4  177.16    8.77
   0  -7  -4  186.95    8.96
   0   7   5    6.29    1.02
   0   7  -5    7.11    1.10
   0   7   5    7.16    0.78
   0  -7  -5    7.19    1.11
   0   7   6   -0.08    0.36
   0   7  -6    0.97    0.68
   0  -7  -6    0.05    0.77
   0   7   7    4.10    0.67
   0   7  -7    2.55    1.02
   0   7  -7    2.17    0.69
   0  -7  -7    3.04    0.98
   0   7  -8   97.66    5.11
   0   7  -8  109.83    7.06
   0   7   8  100.32    4.42
   0  -7  -8   99.76    5.31
   0   7  -9   41.38    2.44
   0   7   9   38.53    2.13
   0  -7  -9   37.29    2.70
   0   7  10   57.77    2.89
   0   7 -10   54.69    3.18
   0  -7 -10   59.69    3.62
   0   7 -11    4.54    0.85
   0  -7 -11    2.15    1.23
   0   7 -12    0.37    0.77
   0  -7 -12    2.56    1.30
   0   7 -13    2.05    0.80
   0   7 -14   28.58    2.12
   0   8   0  207.73    9.49
   0  -8   0  192.37    9.48
   0   8  -1  147.36    6.75
   0   8   1  128.83    6.62
   0  -8   1  135.48    6.69
   0  -8  -1  133.32    6.71
   0  -8   1  133.79    5.41
   0   8  -2   26.08    1.99
   0   8   2   28.02    2.05
   0  -8  -2   28.36    2.08
   0  -8   2   27.43    2.02
   0  -8   2   26.34    1.33
   0   8   3    1.71    0.88
   0   8  -3    1.08    0.78
   0  -8  -3    0.96    0.83
   0  -8   3    1.39    0.74
   0   8  -4   18.12    1.60
   0   8   4   17.77    1.64
   0  -8  -4   15.62    1.70
   0  -8   4   17.01    1.50
   0   8  -5   73.22    4.43
   0   8   5   91.49    4.50
   0   8   5   88.25    3.79
   0  -8  -5   84.98    4.58
   0   8   6   76.38    3.47
   0   8  -6   74.73    4.15
   0  -8  -6   77.74    4.32
   0   8   7   51.25    2.58
   0   8  -7   52.44    4.23
   0   8  -7   54.23    3.09
   0  -8  -7   51.10    3.31
   0   8   8   26.81    1.73
   0   8  -8   30.82    2.12
   0  -8  -8   28.95    2.38
   0   8  -9   -0.02    0.61
   0   8   9   -0.67    0.43
   0  -8  -9   -0.32    1.00
   0   8 -10    7.52    1.12
   0  -8 -10    6.54    1.48
   0   8 -11   17.25    1.57
   0  -8 -11   19.13    2.18
   0  -8 -12   29.81    2.66
   0   8 -13   26.50    2.17
   0  -8 -13   26.60    2.85
   0   9   0    0.10    0.85
   0  -9   0    0.30    0.79
   0   9  -1   41.52    2.79
   0   9   1   47.13    2.93
   0  -9   1   46.71    2.86
   0  -9   1   45.84    2.09
   0  -9  -1   40.46    2.82
   0   9  -2   28.60    2.20
   0   9   2   31.42    2.29
   0  -9   2   30.92    2.19
   0  -9  -2   31.89    2.34
   0  -9   2   28.04    1.45
   0   9  -3  137.98    7.62
   0   9   3  158.66    7.70
   0  -9   3  163.16    7.65
   0  -9  -3  167.25    7.85
   0   9  -4   50.00    2.98
   0   9   4   41.90    2.82
   0  -9  -4   41.64    2.91
   0   9   5   24.37    1.57
   0   9  -5   23.67    2.07
   0  -9  -5   22.90    2.07
   0   9   6    1.50    0.59
   0   9  -6    2.22    0.97
   0  -9  -6    3.34    1.12
   0   9   7   15.53    1.27
   0   9  -7   14.26    1.57
   0  -9  -7   13.52    1.83
   0   9  -8   23.86    1.97
   0   9   8   26.44    1.68
   0  -9  -8   25.69    2.45
   0   9  -9   68.83    4.00
   0  -9  -9   76.18    4.45
   0   9 -10   22.45    1.96
   0  -9 -10   21.77    2.38
   0   9 -11   11.47    1.41
   0  -9 -11   12.35    1.94
   0  -9 -12   -0.83    1.23
   0  -9 -13    3.79    1.58
   0  10   0  130.73    6.96
   0 -10   0  145.61    7.10
   0  10   1    7.11    1.28
   0  10  -1    6.87    1.29
   0 -10  -1    7.86    1.44
   0 -10   1    6.46    1.24
   0 -10   1    6.50    0.75
   0  10  -2   38.18    2.67
   0  10   2   37.90    2.72
   0 -10  -2   37.03    2.74
   0 -10   2   36.54    2.60
   0 -10   2   37.76    1.76
   0  10  -3   -1.23    0.86
   0  10   3    0.29    0.90
   0 -10  -3    0.40    0.95
   0 -10   3    0.56    0.70
   0  10  -4   23.73    2.07
   0  10   4   21.71    2.09
   0 -10  -4   25.55    2.42
   0  10  -5    8.29    1.42
   0  10   5    7.05    0.98
   0 -10  -5    5.23    1.36
   0  10  -6  107.12    5.55
   0  10   6  100.03    4.60
   0 -10  -6   99.61    5.64
   0  10  -7    5.72    1.15
   0  10   7    4.16    0.82
   0 -10  -7    6.75    1.57
   0  10  -8   34.54    2.43
   0 -10  -8   27.73    2.76
   0  10  -9    0.67    0.75
   0 -10  -9    0.12    1.25
   0  10 -10    7.85    1.34
   0 -10 -10   12.63    2.01
   0  10 -11    3.06    0.92
   0 -10 -11    0.77    1.40
   0 -10 -12   54.13    4.05
   0  11   0   -0.27    0.89
   0 -11   0    0.13    0.97
   0  11   1   29.92    2.50
   0  11  -1   29.96    2.63
   0 -11  -1   32.06    2.61
   0 -11   1   32.08    2.52
   0 -11   1   32.82    1.71
   0  11  -2    0.42    0.95
   0  11   2    0.15    0.91
   0 -11   2    0.23    0.37
   0 -11  -2    1.34    1.10
   0 -11   2   -0.24    0.91
   0  11   3  110.35    6.04
   0  11  -3  108.78    6.00
   0 -11  -3  119.66    6.27
   0  11  -4   -0.22    1.05
   0  11   4   -0.86    0.95
   0 -11  -4   -0.43    1.08
   0  11   5   32.84    2.17
   0  11  -5   38.38    2.88
   0 -11  -5   37.34    3.09
   0  11   6    0.18    0.61
   0  11  -6    1.60    1.04
   0 -11  -6    0.07    1.18
   0  11  -7   12.85    1.62
   0 -11  -7   11.28    1.90
   0  11  -8    1.49    0.85
   0 -11  -8    1.26    1.34
   0  11  -9   60.29    3.75
   0 -11  -9   61.02    4.25
   0  11 -10    0.00    0.78
   0 -11 -10    0.25    1.42
   0  11 -11   23.21    2.07
   0 -11 -11   16.45    2.46
   0 -11 -12    0.13    1.57
   0  12   0   99.54    5.63
   0 -12   0  101.16    4.29
   0 -12   0   96.20    5.57
   0  12  -1    8.07    1.57
   0  12   1    6.36    1.48
   0 -12   1    8.47    1.65
   0 -12  -1    7.12    1.57
   0 -12   1    8.69    0.87
   0  12  -2   19.81    2.19
   0  12   2   17.28    2.09
   0 -12   2   21.41    1.10
   0 -12   2   19.36    2.13
   0 -12  -2   20.96    2.40
   0  12   3    0.97    1.15
   0  12  -3    0.85    1.12
   0 -12  -3    1.02    1.35
   0  12  -4   16.49    2.05
   0 -12  -4   17.21    2.21
   0  12  -5    5.53    1.46
   0  12   5    4.02    0.97
   0 -12  -5    4.58    1.55
   0  12  -6   46.48    3.27
   0 -12  -6   48.75    3.79
   0  12  -7    2.48    1.03
   0 -12  -7    1.55    1.53
   0  12  -8   17.76    2.06
   0 -12  -8   15.73    2.36
   0  12  -9    1.77    0.92
   0 -12  -9   -0.12    1.49
   0  12 -10    4.53    1.18
   0 -12 -10    5.87    1.90
   0  13   0   -1.12    1.13
   0 -13   0    0.09    0.57
   0 -13   0    0.01    1.09
   0  13  -1   17.31    2.24
   0  13   1   10.92    1.89
   0 -13  -1   14.25    1.38
   0 -13   1   17.82    2.10
   0 -13   1   17.06    1.19
   0 -13  -1   19.04    2.38
   0  13   2   14.28    2.07
   0  13  -2   12.60    2.03
   0 -13  -2   12.00    2.01
   0  13  -3   35.40    2.97
   0  13   3   34.47    3.03
   0 -13  -3   36.71    3.15
   0  13  -4   18.54    2.35
   0 -13  -4   16.21    2.39
   0  13  -5   13.26    1.91
   0 -13  -5    8.55    1.89
   0  13  -6    1.75    0.99
   0 -13  -6    0.83    1.52
   0  13  -7    5.93    1.35
   0 -13  -7    5.37    1.67
   0  13  -8   14.91    1.95
   0 -13  -8   11.14    2.16
   0  13  -9   26.78    2.44
   0 -13  -9   19.64    2.72
   0  14   0   21.38    2.51
   0 -14   0   16.61    2.27
   0  14  -1   24.13    2.73
   0  14   1   24.15    2.60
   0 -14  -1   22.21    2.62
   0 -14  -1   22.63    1.73
   0  14   2    5.63    1.67
   0  14  -2    6.61    1.63
   0 -14  -2    7.82    1.95
   0  14  -3    1.01    1.34
   0 -14  -3    1.23    1.44
   0  14  -4    3.37    1.44
   0 -14  -4    2.02    1.74
   0  14  -5   19.17    2.35
   0 -14  -5   18.27    2.69
   0  14  -6   16.59    2.12
   0 -14  -6   16.42    2.47
   0  14  -7   23.98    2.35
   0 -14  -7   18.63    2.73
   0  14  -8    8.05    1.50
   0 -14  -8   11.79    2.39
   0  15   0    1.44    1.49
   0  15   1    1.30    1.47
   0  15  -1    1.86    1.48
   0 -15  -1    2.31    1.64
   0  15  -2   24.34    2.82
   0  15   2   25.93    2.96
   0 -15  -2   21.78    2.85
   0  15  -3    4.19    1.42
   0 -15  -3    5.40    1.77
   0  15  -4   18.08    2.30
   0 -15  -4   23.50    2.93
   0  15  -5    3.98    1.27
   0 -15  -5    0.85    1.72
   0 -15  -6   -0.56    1.56
   0  16   0    1.46    1.34
   0  16  -1   22.54    2.75
   0  16   1   20.19    2.72
   0 -16  -1   22.66    2.67
   0  16  -2    2.30    1.31
   0 -16  -2    2.65    1.38
   0  16  -3    3.38    1.17
   0 -16  -3    2.14    1.51
  -1   0  15    0.63    0.89
  -1   0  14  100.83    4.87
   1   0 -13   -0.24    0.36
  -1   0  13   -0.22    0.63
   1   0 -12   11.62    0.91
  -1   0  12   11.82    1.25
   1   0 -11    0.25    0.29
  -1   0  11    0.11    0.51
  -1   0  10  171.62    6.83
   1   0 -10  157.36    7.28
   1   0  -9    0.17    0.54
   1   0  -9    0.15    0.22
   1   0  -9    0.26    0.25
  -1   0   9   -0.28    0.39
  -1   0   8  279.11   11.26
   1   0  -8  305.74   12.74
   1   0  -8  257.13   16.72
   1   0  -8  301.25   12.50
   1   0  -7    0.15    0.14
   1   0  -7    0.40    0.17
  -1   0   7   -0.06    0.27
   1   0  -7    0.21    0.39
   1   0  -6   72.37    3.40
  -1   0   6   76.68    3.19
  -1   0   6   76.59    4.68
   1   0  -6   75.26    4.68
   1   0  -5   -0.13    0.13
  -1   0   5   -0.22    0.32
  -1   0   5   -0.22    0.25
   1   0  -5   -0.49    0.33
  -1   0   4  203.44    7.69
  -1   0   4  196.09   11.46
   1   0  -4  203.68    8.75
   1   0  -4  191.11   11.45
  -1   0   3   -0.33    0.18
   1   0  -3   -0.28    0.23
  -1   0   3   -0.07    0.24
  -1   0   2  797.48   28.69
   1   0  -2  699.55   42.62
  -1   0   1    0.18    0.06
   1   0   0   -0.41    0.05
  -1   0   0   -0.40    0.06
   1   0   1   -0.81    0.11
  -1   0  -1   -0.76    0.21
  -1   0  -1   -0.64    0.13
   1   0   1   -0.78    0.19
   1   0   2  429.89   15.69
  -1   0  -2  408.74   17.96
  -1   0  -2  429.68   23.65
  -1   0  -2  436.33   18.45
   1   0   2  369.12   23.61
  -1   0  -3   -0.08    0.28
   1   0   3   -0.21    0.24
  -1   0  -3    0.17    0.16
   1   0   3   -0.06    0.17
  -1   0  -3   -0.45    0.14
   1   0   4  856.07   32.01
  -1   0  -4  762.92   36.73
  -1   0  -4  918.11   37.28
  -1   0  -5    0.08    0.37
  -1   0  -5    0.39    0.22
  -1   0  -5    0.20    0.21
   1   0   5    0.06    0.24
   1   0   6   34.25    1.64
  -1   0  -6   35.14    2.51
  -1   0  -6   30.45    1.68
  -1   0  -6   35.09    1.74
   1   0   7   -0.24    0.32
  -1   0  -7   -0.01    0.26
  -1   0  -7   -0.09    0.26
  -1   0  -7    0.31    0.53
   1   0   8  124.68    5.20
  -1   0  -8  123.83    5.78
  -1   0  -8  133.32    7.89
  -1   0  -8  117.66    5.68
   1   0   9    0.62    0.42
  -1   0  -9   -0.21    0.31
  -1   0  -9    0.01    0.34
  -1   0 -10  151.25    7.07
  -1   0 -10  158.87    7.19
   1   0  10  152.55    6.49
   1   0  11   -0.41    0.50
  -1   0 -11    0.75    0.40
  -1   0 -12   37.28    2.19
   1   0  12   38.77    2.34
  -1   0 -13   -0.10    0.48
  -1   1  15    3.31    0.99
   1   1 -14    0.85    0.44
  -1   1  14    0.61    0.74
  -1  -1  14    2.19    0.94
   1   1 -13   59.10    2.93
  -1   1  13   59.57    3.12
  -1  -1  13   54.89    3.15
  -1   1  12    6.59    0.96
   1   1 -12    8.01    0.75
  -1  -1  12    8.90    1.16
   1   1 -11  159.77   10.39
  -1   1  11  161.47    7.00
   1   1 -11  177.54    7.52
   1  -1 -11  166.17    7.53
  -1  -1  11  168.21    7.07
   1   1 -10    6.98    1.24
   1   1 -10    6.84    0.61
  -1   1  10    6.53    0.86
  -1  -1  10    5.67    0.81
   1  -1 -10    7.13    0.64
   1  -1 -10    6.31    0.64
   1   1  -9   40.23    2.99
   1   1  -9   39.78    1.93
  -1   1   9   38.18    2.02
   1   1  -9   39.82    1.91
   1  -1  -9   38.31    1.99
   1  -1  -9   38.47    1.93
  -1  -1   9   39.85    2.07
   1   1  -8    0.78    0.55
   1   1  -8   -0.08    0.19
  -1   1   8    0.41    0.36
   1  -1  -8    0.26    0.22
  -1  -1   8    0.63    0.39
   1  -1  -8    0.43    0.26
   1   1  -7  209.43   12.68
  -1   1   7  226.00    8.52
   1   1  -7  197.53    9.57
   1  -1  -7  204.82    9.41
  -1  -1   7  222.30    8.54
   1  -1  -7  234.18    9.63
  -1   1   6   45.05    2.05
   1   1  -6   46.92    3.02
  -1   1   6   42.87    2.93
   1   1  -6   46.99    2.09
  -1  -1   6   43.84    2.05
   1  -1  -6   41.31    2.03
   1  -1  -6   46.24    2.13
  -1   1   5  753.64   41.20
   1   1  -5  742.38   41.25
   1   1  -5  708.65   31.89
  -1   1   5  716.30   27.47
   1  -1  -5  735.91   31.86
   1  -1  -5  682.34   31.30
  -1  -1   5  729.53   27.49
  -1   1   4   28.52    1.75
  -1   1   4   26.92    1.24
   1   1  -4   25.55    1.80
   1   1  -4   26.95    1.25
   1  -1  -4   24.09    1.20
   1  -1  -4   28.03    1.29
  -1  -1   4   25.99    1.26
  -1   1   3   87.18    3.43
  -1   1   3   88.61    5.06
   1  -1  -3   84.89    3.78
  -1  -1   3   79.89    3.43
   1  -1  -3   90.79    3.90
  -1   1   2    6.69    0.46
  -1  -1   2    7.27    0.46
   1   1  -1  541.49   19.79
  -1  -1   1  517.41   20.23
   1   1   1  688.70   28.73
  -1   1  -1  778.46   43.76
  -1   1  -1  735.67   33.75
  -1  -1  -1  829.07   33.15
  -1   1  -2   63.21    3.53
   1   1   2   53.92    2.25
   1   1   2   47.47    3.43
  -1   1  -2   65.04    2.67
   1  -1   2   59.26    3.51
  -1  -1  -2   51.74    2.57
  -1  -1  -2   58.88    2.65
   1   1   3  187.56    7.34
   1   1   3  184.16   11.10
  -1   1  -3  207.48   11.17
  -1   1  -3  161.93    8.52
  -1  -1  -3  209.22    8.39
   1  -1   3  195.54   11.15
   1  -1   3  189.16    7.38
  -1  -1  -3  193.33    8.55
  -1   1  -4   -0.08    0.47
   1   1   4   -0.01    0.37
   1   1   4   -0.18    0.24
  -1   1  -4    0.04    0.24
   1  -1   4    0.08    0.27
  -1  -1  -4    0.05    0.22
  -1  -1  -4    0.02    0.26
   1  -1   4    0.06    0.42
  -1   1  -5  210.51   10.05
  -1   1  -5  235.64   13.22
   1   1   5  227.54    8.72
  -1   1  -5  217.51    9.87
  -1  -1  -5  242.19    9.89
  -1  -1  -5  226.59   10.08
   1  -1   5  211.61    8.74
  -1   1  -6   21.98    1.98
   1   1   6   24.80    1.30
  -1   1  -6   27.40    1.36
  -1   1  -6   24.02    1.37
  -1  -1  -6   27.00    1.40
  -1  -1  -6   23.13    1.33
   1  -1   6   26.80    1.37
   1   1   7  254.83    9.83
  -1   1  -7  262.30   11.06
  -1   1  -7  238.48   14.83
  -1   1  -7  258.19   11.26
  -1  -1  -7  257.21   11.07
  -1  -1  -7  232.21   11.25
   1  -1   7  245.64    9.86
  -1   1  -8   29.51    1.57
  -1   1  -8   27.41    1.55
   1   1   8   27.85    1.55
  -1   1  -8   25.89    2.36
   1  -1   8   26.28    1.59
  -1  -1  -8   28.22    1.58
  -1  -1  -8   25.59    1.53
   1   1   9   61.49    3.03
  -1   1  -9   66.71    3.27
  -1   1  -9   66.80    3.25
  -1   1  -9   74.27    4.75
  -1  -1  -9   67.32    3.30
   1  -1   9   62.31    3.09
  -1  -1  -9   62.82    3.22
  -1   1 -10    0.67    0.73
  -1   1 -10    0.22    0.37
   1   1  10   -0.50    0.44
  -1   1 -10    0.42    0.37
   1  -1  10    0.17    0.49
  -1  -1 -10    0.06    0.35
  -1  -1 -10    1.08    0.46
   1   1  11   29.75    1.84
  -1   1 -11   30.51    1.78
   1  -1  11   31.60    1.95
  -1  -1 -11   25.62    1.75
   1   1  12    7.25    1.01
  -1   1 -12    6.19    0.83
  -1  -1 -12    5.00    0.79
  -1   1 -13  110.37    5.29
   1   1  13  106.09    5.05
  -1   1 -14    5.51    0.89
  -1   1 -15   14.22    1.40
  -1   2  15   18.89    1.91
  -1   2  14   56.81    3.09
   1   2 -14   53.54    2.82
  -1   2  13   15.80    1.52
   1   2 -13   14.92    1.12
   1   2 -12   10.14    0.87
  -1   2  12    8.73    1.11
  -1  -2  12    9.72    1.21
   1   2 -11    3.77    1.04
  -1   2  11    3.06    0.71
   1   2 -11    2.29    0.44
  -1  -2  11    1.93    0.67
  -1   2  10   84.01    3.88
   1   2 -10   91.47    5.84
   1   2 -10   85.16    4.02
  -1  -2  10   83.39    3.96
   1  -2 -10   88.12    4.17
   1   2  -9   70.66    4.44
  -1   2   9   61.43    2.94
   1   2  -9   58.85    2.99
  -1  -2   9   65.35    3.05
   1  -2  -9   62.97    3.11
   1   2  -8  257.54   15.25
  -1   2   8  254.09   10.18
   1   2  -8  264.02   11.52
   1  -2  -8  255.47   11.59
  -1  -2   8  258.68   10.24
   1   2  -7   72.18    4.76
  -1   2   7   76.58    3.21
   1   2  -7   73.13    3.43
   1  -2  -7   73.51    3.50
  -1  -2   7   74.63    3.24
   1   2  -6   41.55    1.95
   1   2  -6   41.86    2.82
  -1   2   6   38.47    1.86
  -1   2   6   41.65    2.69
   1  -2  -6   36.91    1.99
  -1  -2   6   42.11    1.92
   1   2  -5    4.91    0.46
  -1   2   5    3.74    0.59
  -1   2   5    3.16    0.43
   1   2  -5    3.21    0.68
  -1  -2   5    4.00    0.49
   1  -2  -5    3.55    0.42
  -1   2   4  389.12   24.26
  -1   2   4  452.58   16.24
   1   2  -4  420.87   18.80
   1  -2  -4  440.02   18.84
  -1  -2   4  426.29   16.25
  -1   2   3   94.61    3.69
   1   2  -3   92.11    4.21
  -1  -2   3   91.33    3.70
   1  -2  -3   92.69    4.25
   1   2  -2  587.31   25.32
   1  -2  -2  553.69   25.18
   1  -2  -1  171.47    7.72
   1   2   0  151.37    6.84
  -1   2   0  160.27    6.87
  -1  -2   0  145.71    6.84
   1  -2   0  151.66    6.87
  -1   2  -1   27.25    1.36
   1   2   1   23.04    1.26
  -1  -2  -1   22.76    1.25
   1  -2   1   23.04    0.99
   1   2   2   87.01    3.64
  -1   2  -2  105.20    4.32
   1   2   2   92.99    4.35
  -1  -2  -2   89.68    4.30
   1   2   3  148.31    6.39
  -1   2  -3  174.48    7.49
  -1  -2  -3  175.36    7.51
  -1   2  -4  553.95   25.32
   1   2   4  584.03   21.72
  -1   2  -4  640.66   32.86
   1   2   4  535.73   32.71
  -1  -2  -4  557.81   24.86
  -1  -2  -4  564.71   25.33
  -1   2  -5   73.45    3.99
   1   2   5   90.43    3.52
  -1   2  -5   87.87    5.42
  -1  -2  -5   85.75    4.05
  -1  -2  -5   92.41    3.97
   1   2   6   80.08    3.38
  -1   2  -6   73.28    3.81
  -1   2  -6   82.42    5.23
  -1  -2  -6   79.97    3.77
   1  -2   6   82.72    3.47
  -1  -2  -6   86.98    3.88
  -1   2  -7    0.20    0.34
  -1   2  -7    0.07    0.31
   1   2   7    0.05    0.32
  -1   2  -7    0.31    0.52
  -1  -2  -7   -0.05    0.32
  -1  -2  -7    0.39    0.33
   1  -2   7    1.05    0.45
   1   2   8   61.37    2.75
  -1   2  -8   52.76    4.18
  -1   2  -8   60.14    2.94
  -1   2  -8   61.60    2.99
  -1  -2  -8   59.14    3.03
  -1  -2  -8   63.16    2.98
   1  -2   8   57.20    2.81
  -1   2  -9   66.83    3.30
   1   2   9   66.16    3.06
  -1   2  -9   66.46    4.74
  -1   2  -9   67.21    3.27
  -1  -2  -9   64.98    3.28
  -1  -2  -9   65.82    3.36
  -1   2 -10  116.07    5.60
  -1   2 -10  114.58    5.64
   1   2  10  113.27    5.11
  -1   2 -10  133.48    7.96
  -1  -2 -10  122.84    5.75
  -1   2 -11   29.25    1.85
   1   2  11   32.75    1.90
  -1  -2 -11   30.42    1.92
  -1   2 -12   25.54    1.72
   1   2  12   26.96    1.85
   1   2  13   -0.17    0.65
  -1   2 -13    0.36    0.52
  -1   2 -14   15.90    1.40
  -1   2 -15   11.63    1.26
  -1   3  15    3.02    0.94
  -1   3  14    1.57    0.77
   1   3 -14    3.48    0.64
  -1   3  13   34.40    2.19
   1   3 -13   33.54    1.95
  -1   3  12   69.88    3.54
   1   3 -12   74.53    3.57
   1   3 -11   65.34    3.31
   1   3 -11   76.75    5.01
  -1   3  11   65.13    3.25
   1  -3 -11   65.71    3.47
   1   3 -10   62.12    4.51
  -1   3  10   64.38    3.04
   1  -3 -10   65.25    3.25
  -1  -3  10   60.52    3.14
   1   3  -9   12.60    0.88
  -1   3   9   12.50    1.01
   1   3  -9   13.24    1.58
  -1  -3   9   12.52    1.21
   1  -3  -9   12.76    1.05
   1   3  -8    8.33    1.32
   1   3  -8   13.59    0.88
  -1   3   8   12.55    0.99
   1  -3  -8   12.17    0.98
  -1  -3   8   12.76    1.14
  -1   3   7   78.20    3.34
   1   3  -7   81.98    3.66
   1   3  -7   74.07    5.01
  -1  -3   7   79.07    3.43
   1  -3  -7   73.09    3.72
   1   3  -6  220.61   12.48
   1   3  -6  213.27    9.47
  -1   3   6  205.30    8.26
  -1   3   6  235.86   12.35
   1  -3  -6  191.43    9.49
  -1  -3   6  194.55    8.30
  -1   3   5  203.67    8.00
   1   3  -5  222.23    9.23
  -1   3   5  188.56   11.89
   1  -3  -5  203.59    9.26
  -1  -3   5  204.74    8.06
  -1   3   4  155.68    6.09
   1   3  -4  156.30    7.03
   1  -3  -4  152.23    7.06
  -1   3   3   54.71    2.61
   1   3  -3   49.97    2.56
  -1   3   3   54.22    2.26
   1  -3  -3   53.94    2.63
   1   3  -2    9.59    0.75
  -1   3   2   11.53    0.81
   1  -3  -2   12.15    0.86
   1   3  -1   27.03    1.48
  -1   3   1   28.62    1.58
  -1  -3   1   28.71    1.53
   1  -3  -1   27.87    1.66
   1   3   0  333.04   15.72
  -1   3   0  337.56   15.75
   1  -3   0  375.50   15.79
  -1  -3   0  368.32   15.74
  -1   3  -1  436.89   18.76
   1   3   1  412.31   18.73
   1  -3   1  402.44   15.80
   1  -3   1  436.82   18.76
   1   3   2  215.77    9.40
  -1   3  -2  209.56    9.41
   1  -3   2  202.23    9.38
  -1  -3  -2  206.41    9.40
   1   3   3   95.52    4.49
   1   3   3   99.58    3.81
  -1   3  -3   87.44    4.47
  -1  -3  -3   97.12    4.51
   1  -3   3   99.41    4.45
  -1   3  -4    0.51    0.48
   1   3   4    0.18    0.21
   1   3   4    0.70    0.33
  -1   3  -4    0.08    0.31
  -1  -3  -4    0.23    0.29
   1   3   5  105.84    4.35
   1   3   5  106.52    5.03
  -1   3  -5  102.94    5.04
  -1   3  -5  113.80    6.74
  -1  -3  -5  111.09    5.09
  -1   3  -6  142.98    8.21
  -1   3  -6  112.50    6.07
   1   3   6  136.32    5.32
  -1  -3  -6  137.33    6.17
   1   3   7  124.94    5.01
  -1   3  -7  127.67    7.74
  -1   3  -7  116.97    5.70
  -1  -3  -7  119.30    5.77
  -1   3  -8  182.15    8.45
   1   3   8  177.41    7.38
  -1   3  -8  195.08   11.34
  -1  -3  -8  181.16    8.51
   1   3   9   11.82    0.99
  -1   3  -9   10.85    0.99
  -1   3  -9   12.06    0.97
  -1   3  -9   11.08    1.64
  -1  -3  -9   12.40    1.09
   1   3  10    3.37    0.63
  -1   3 -10    2.33    0.57
  -1   3 -10    2.06    0.52
  -1   3 -10    1.10    0.89
  -1  -3 -10    0.82    0.54
  -1   3 -11   10.62    1.06
   1   3  11    9.79    1.09
  -1  -3 -11    9.94    1.14
  -1   3 -12   58.38    3.06
   1   3  12   52.80    2.89
  -1   3 -13   36.82    2.27
  -1   3 -14   34.04    2.19
  -1   3 -15    9.40    1.16
  -1   4  14   11.00    1.35
   1   4 -14   10.53    1.08
  -1   4  13   30.86    2.04
   1   4 -13   29.53    1.85
   1   4 -12    0.57    0.50
  -1   4  12    0.96    0.57
   1   4 -11    7.75    1.47
  -1   4  11    8.42    1.03
   1  -4 -11    6.75    1.04
  -1   4  10    7.40    0.91
   1   4 -10    6.72    1.35
   1   4 -10    6.80    0.73
   1  -4 -10    8.40    1.01
   1   4  -9  151.00    6.93
  -1   4   9  142.22    6.20
   1   4  -9  152.16    9.40
   1  -4  -9  153.29    7.08
  -1   4   8   67.53    3.01
   1   4  -8   57.63    4.49
   1   4  -8   70.70    3.27
   1  -4  -8   66.53    3.38
  -1   4   7  126.39    4.95
   1   4  -7  108.27    7.40
   1   4  -7  117.80    5.55
   1  -4  -7  122.39    5.66
  -1   4   6   16.98    1.05
   1   4  -6   15.94    1.15
   1  -4  -6   17.26    1.19
  -1   4   5    9.60    0.76
   1   4  -5   11.24    0.94
  -1   4   5   11.34    0.91
   1  -4  -5   10.52    0.93
  -1   4   4   39.47    1.86
  -1   4   4   39.86    2.16
   1   4  -4   43.92    2.19
   1  -4  -4   40.66    2.21
   1   4  -3  500.44   22.69
  -1   4   3  526.47   22.71
  -1  -4   3  505.18   22.67
   1   4  -2  177.04    7.55
  -1   4   2  154.25    7.52
   1  -4  -2  156.69    7.55
  -1  -4   2  163.72    6.19
  -1  -4   2  168.84    7.54
  -1   4   1  576.62   25.85
   1   4  -1  528.24   25.81
   1  -4  -1  609.06   25.89
  -1  -4   1  616.39   25.87
  -1   4   0   22.50    1.39
   1   4   0   22.20    1.33
  -1  -4   0   21.63    1.36
   1  -4   0   22.98    1.42
  -1   4  -1   72.51    3.61
   1   4   1   75.52    3.58
   1  -4   1   74.86    2.94
   1  -4   1   72.91    3.59
  -1  -4  -1   71.50    3.57
   1   4   2   54.84    2.81
  -1   4  -2   58.28    2.86
   1  -4   2   57.50    2.82
   1  -4   2   53.01    2.80
  -1  -4  -2   56.25    2.82
   1   4   3  363.56   14.00
   1   4   3  368.03   16.41
   1  -4   3  373.11   16.38
  -1  -4  -3  361.06   16.43
   1   4   4   33.62    1.52
   1   4   4   34.40    1.84
  -1   4  -4   32.47    1.83
   1  -4   4   30.50    1.74
  -1  -4  -4   33.23    1.84
   1   4   5  191.11    8.79
   1   4   5  190.40    7.53
  -1   4  -5  199.91    8.82
  -1   4  -5  190.32   11.55
  -1  -4  -5  188.06    8.83
  -1   4  -6   13.15    1.49
  -1   4  -6   13.35    1.03
   1   4   6   14.67    0.91
  -1  -4  -6   12.37    1.07
  -1   4  -7    2.34    0.55
   1   4   7    2.88    0.52
  -1   4  -7    1.94    0.81
  -1  -4  -7    2.32    0.61
   1   4   8    4.15    0.63
  -1   4  -8    4.06    1.10
  -1   4  -8    2.95    0.59
  -1  -4  -8    3.99    0.72
  -1   4  -9  131.98    8.09
   1   4   9  125.16    5.20
  -1   4  -9  106.01    5.81
  -1  -4  -9  131.35    6.02
  -1   4 -10   24.10    1.70
   1   4  10   27.30    1.64
  -1   4 -10   28.78    1.70
  -1  -4 -10   25.01    1.84
   1   4  11   85.77    3.95
  -1   4 -11   86.23    4.29
  -1  -4 -11   83.04    4.45
  -1   4 -12    9.81    1.11
  -1   4 -13    0.11    0.53
  -1   4 -14    1.16    0.66
   1   5 -15    0.18    0.55
   1   5 -14    6.29    0.91
   1   5 -13    0.01    0.52
  -1   5  13    1.23    0.66
  -1   5  12   99.64    4.62
  -1   5  11    4.19    0.80
   1  -5 -11    4.23    1.04
  -1   5  10   73.39    3.39
   1   5 -10   76.68    5.21
   1   5 -10   63.53    3.55
   1  -5 -10   76.11    3.88
  -1   5   9   -0.23    0.40
   1   5  -9    0.39    0.40
   1   5  -9   -0.52    0.50
   1  -5  -9   -0.21    0.62
   1   5  -8   19.73    2.04
   1   5  -8   18.69    1.34
  -1   5   8   18.18    1.22
   1  -5  -8   19.98    1.52
   1   5  -7    5.71    1.20
   1   5  -7    5.69    0.82
  -1   5   7    5.77    0.67
   1  -5  -7    6.95    0.95
  -1   5   6  211.50    8.15
   1   5  -6  191.41    9.39
   1  -5  -6  211.94    9.51
   1   5  -5   -0.21    0.45
  -1   5   5    0.26    0.45
  -1   5   5   -0.17    0.26
   1  -5  -5    0.07    0.45
   1   5  -4  219.94   10.06
  -1   5   4  207.01    8.63
  -1   5   4  222.86   10.07
  -1  -5   4  224.33   10.01
   1  -5  -4  226.45   10.14
   1   5  -3    0.52    0.44
  -1   5   3    1.43    0.53
  -1  -5   3    0.87    0.45
   1  -5  -3    0.71    0.53
   1   5  -2    3.96    0.68
  -1   5   2    4.56    0.73
  -1  -5   2    4.36    0.68
  -1  -5   2    3.49    0.37
   1  -5  -2    3.81    0.76
  -1   5   1    4.63    0.74
   1   5  -1    4.05    0.66
  -1  -5   1    5.17    0.75
   1  -5  -1    4.31    0.77
  -1   5   0  496.11   21.55
   1   5   0  453.77   21.50
  -1  -5   0  497.17   21.55
   1  -5   0  480.14   21.56
   1   5   1   60.27    2.99
  -1   5  -1   60.16    3.03
   1  -5   1   57.09    3.03
  -1  -5  -1   54.75    2.98
   1  -5   1   56.58    2.40
  -1   5  -2  319.61   14.41
   1   5   2  324.10   14.41
  -1  -5  -2  310.14   14.40
   1  -5   2  328.97   14.42
   1  -5   2  326.67   12.01
   1  -5   2  302.87   14.37
   1   5   3    6.08    0.77
  -1   5  -3    4.94    0.75
  -1  -5  -3    6.08    0.79
   1  -5   3    5.80    0.72
  -1   5  -4    5.77    0.78
   1   5   4    5.39    0.76
   1   5   4    5.65    0.56
  -1  -5  -4    5.63    0.79
   1  -5   4    6.10    0.72
  -1   5  -5    1.66    0.72
   1   5   5    0.56    0.31
  -1   5  -5    1.07    0.47
   1   5   5    0.49    0.45
  -1  -5  -5    1.61    0.56
  -1   5  -6  247.15   13.70
  -1   5  -6  235.57   10.37
   1   5   6  211.04    8.83
  -1  -5  -6  208.97   10.39
   1   5   7   12.86    1.01
  -1   5  -7   15.88    1.87
  -1   5  -7   16.19    1.23
  -1  -5  -7   14.04    1.30
  -1   5  -8  141.21    7.19
  -1   5  -8  162.39    9.76
   1   5   8  159.11    6.28
  -1  -5  -8  149.54    7.32
  -1   5  -9    1.58    0.93
  -1   5  -9    2.94    0.63
   1   5   9    2.39    0.56
  -1  -5  -9    1.54    0.69
   1   5  10    2.31    0.63
  -1   5 -10    1.92    0.57
  -1   5 -10    1.42    0.67
  -1  -5 -10    1.81    0.77
  -1   5 -11    1.48    0.64
  -1  -5 -11   -0.51    0.69
  -1   5 -12   66.33    3.64
  -1  -5 -12   68.78    3.90
  -1   5 -13    0.93    0.65
  -1   5 -14   41.82    2.60
   1   6 -15   37.22    2.48
   1   6 -14    1.30    0.65
   1   6 -13   38.52    2.45
  -1   6  12   -0.11    0.56
   1  -6 -12   -0.51    0.94
  -1   6  11    8.02    1.04
   1  -6 -11    6.05    1.22
  -1   6  10    4.92    0.80
   1   6 -10    6.09    0.82
   1  -6 -10    4.52    1.14
   1   6  -9  162.90    7.75
  -1   6   9  161.79    6.84
   1   6  -9  174.93   10.48
   1  -6  -9  160.57    7.97
   1   6  -8    0.32    0.79
  -1   6   8    2.03    0.56
   1   6  -8    1.53    0.56
   1  -6  -8    1.10    0.78
   1   6  -7  101.32    5.53
  -1   6   7  119.82    4.85
   1  -6  -7  122.59    5.73
   1   6  -6    0.80    0.61
  -1   6   6    0.37    0.40
   1  -6  -6   -0.02    0.69
  -1   6   5   13.25    1.17
   1   6  -5   12.25    1.24
  -1   6   5   11.33    0.93
   1  -6  -5   11.82    1.26
   1   6  -4   36.32    2.07
  -1   6   4   33.63    2.03
  -1  -6   4   31.00    1.92
   1  -6  -4   33.04    2.14
  -1   6   3  343.54   15.47
   1   6  -3  343.55   15.46
   1  -6  -3  350.73   15.53
  -1  -6   3  327.84   15.42
   1   6  -2    6.30    0.88
  -1   6   2    6.78    0.90
   1  -6  -2    6.56    0.96
  -1  -6   2    5.19    0.80
  -1  -6   2    6.28    0.53
  -1   6   1  149.36    7.06
   1   6  -1  141.21    7.02
  -1  -6   1  159.44    7.10
   1  -6  -1  147.23    7.09
  -1   6   0    0.95    0.57
   1   6   0    0.28    0.48
  -1  -6   0    0.43    0.55
   1  -6   0    1.00    0.57
   1   6   1    6.77    0.88
  -1   6  -1    7.34    0.96
  -1  -6  -1   10.00    1.03
   1  -6   1    5.31    0.85
   1  -6   1    5.56    0.57
  -1   6  -2    2.54    0.71
   1   6   2    4.00    0.73
  -1  -6  -2    4.08    0.74
   1  -6   2    3.60    0.67
   1  -6   2    4.48    0.43
   1   6   3  220.42   10.55
  -1   6  -3  254.66   10.66
   1  -6   3  228.08   10.55
  -1  -6  -3  216.04   10.57
   1  -6   3  227.96   10.52
   1   6   4   14.96    1.31
  -1   6  -4   17.60    1.41
   1   6   4   16.51    0.99
  -1  -6  -4   14.75    1.35
   1  -6   4   15.42    1.19
   1   6   5  201.12    8.18
   1   6   5  216.91    9.66
  -1   6  -5  213.91    9.67
  -1  -6  -5  198.07    9.69
  -1   6  -6    0.29    0.54
  -1   6  -6    0.97    0.75
   1   6   6    0.34    0.36
  -1  -6  -6    0.96    0.59
  -1   6  -7    0.62    0.54
   1   6   7    0.91    0.41
  -1   6  -7    0.61    0.76
  -1  -6  -7    1.53    0.67
   1   6   8    4.24    0.67
  -1   6  -8    7.01    0.94
  -1   6  -8    6.33    1.35
  -1  -6  -8    5.10    0.98
   1   6   9  144.08    5.94
  -1   6  -9  140.92    6.83
  -1  -6  -9  139.04    6.98
  -1   6 -10    1.63    0.61
  -1  -6 -10    2.61    0.93
  -1   6 -11   82.43    4.29
  -1   6 -11   83.41    4.35
  -1  -6 -11   81.14    4.55
  -1   6 -12    0.18    0.65
  -1  -6 -12   -0.46    1.06
  -1   6 -13    1.40    0.72
  -1   6 -14    2.93    0.85
   1   7 -14    4.04    0.92
   1   7 -13    8.10    1.23
  -1   7  12   59.68    3.08
   1  -7 -12   53.40    3.58
   1   7 -11   13.16    1.36
  -1   7  11   16.80    1.42
   1  -7 -11   16.72    1.87
   1   7 -10   43.80    2.58
  -1   7  10   42.40    2.37
   1  -7 -10   44.48    2.94
  -1   7   9    1.02    0.52
   1   7  -9    0.98    0.56
   1  -7  -9    0.38    0.88
   1   7  -8    6.08    1.43
  -1   7   8    8.15    0.95
   1   7  -8    7.70    1.02
   1  -7  -8    5.33    1.15
   1   7  -7   22.08    1.76
  -1   7   7   23.93    1.48
   1  -7  -7   24.40    1.97
   1   7  -6  164.68    7.73
  -1   7   6  160.49    6.62
   1  -7  -6  158.88    7.81
   1   7  -5   32.32    2.11
  -1   7   5   30.64    2.04
  -1   7   5   29.70    1.70
   1  -7  -5   29.62    2.11
   1   7  -4  151.16    7.95
  -1   7   4  177.48    8.02
   1  -7  -4  175.63    8.11
  -1  -7   4  170.88    7.94
   1   7  -3    3.38    0.80
  -1   7   3    2.99    0.73
   1  -7  -3    1.84    0.87
  -1  -7   3    2.53    0.71
   1   7  -2   33.91    2.07
  -1   7   2   32.75    2.06
  -1  -7   2   30.86    1.45
   1  -7  -2   30.92    2.18
  -1  -7   2   31.30    2.06
   1   7  -1   46.39    2.51
  -1   7   1   40.05    2.47
   1  -7  -1   38.81    2.48
  -1  -7   1   41.97    2.53
   1   7   0  294.04   13.29
  -1   7   0  284.13   13.30
  -1  -7   0  283.30   13.30
   1  -7   0  296.92   13.34
  -1   7  -1   54.76    3.15
   1   7   1   61.94    3.17
   1  -7   1   54.55    2.43
  -1  -7  -1   55.48    3.18
   1  -7   1   55.81    3.11
   1   7   2  147.08    7.39
  -1   7  -2  170.05    7.50
   1  -7   2  149.46    7.41
   1  -7   2  157.61    6.04
  -1  -7  -2  153.94    7.50
  -1   7  -3   11.03    1.25
   1   7   3   13.88    1.25
   1  -7   3   13.00    1.24
   1  -7   3   12.64    1.21
  -1  -7  -3   10.59    1.29
   1   7   4    4.08    0.61
   1   7   4    4.90    0.88
  -1   7  -4    6.87    1.07
   1  -7   4    5.31    0.82
  -1  -7  -4    3.87    0.90
   1   7   5   25.63    1.41
  -1   7  -5   26.51    1.86
   1   7   5   22.72    1.80
  -1  -7  -5   23.84    1.84
   1   7   6  140.43    5.66
  -1   7  -6  115.87    8.70
  -1   7  -6  147.72    6.74
  -1  -7  -6  145.46    6.84
   1   7   7   30.46    1.72
  -1   7  -7   31.49    2.08
  -1   7  -7   31.76    2.94
  -1  -7  -7   32.07    2.20
  -1   7  -8   96.47    4.75
   1   7   8   85.26    3.97
  -1  -7  -8   91.20    4.86
  -1   7  -9    2.74    0.77
  -1  -7  -9    3.17    1.02
  -1   7 -10    0.41    0.55
  -1  -7 -10   -2.04    0.85
  -1   7 -11    7.45    1.06
  -1   7 -11    6.45    1.19
  -1  -7 -11    8.04    1.54
  -1   7 -12   48.13    2.96
  -1  -7 -12   44.87    3.38
  -1   7 -13   10.89    1.40
   1  -8 -12    1.02    1.25
  -1   8  11    8.72    1.14
   1   8 -11    9.57    1.21
   1  -8 -11    6.74    1.54
  -1   8  10   22.49    1.64
   1   8 -10   21.18    1.71
   1  -8 -10   22.96    2.28
  -1   8   9   53.91    2.79
   1   8  -9   51.53    3.11
   1  -8  -9   60.01    3.58
  -1   8   8   56.55    2.84
   1   8  -8   58.40    3.29
   1  -8  -8   55.24    3.50
  -1   8   7   28.59    1.78
   1   8  -7   32.35    2.22
   1  -8  -7   30.72    2.38
   1   8  -6   13.10    1.52
  -1   8   6   15.18    1.19
   1  -8  -6   12.67    1.53
   1   8  -5    2.43    0.93
  -1   8   5    2.75    0.65
  -1   8   5    2.62    0.82
   1  -8  -5    2.92    1.03
  -1   8   4   52.04    3.07
   1   8  -4   56.31    3.20
   1  -8  -4   54.00    3.23
  -1  -8   4   52.00    3.01
   1   8  -3  123.68    5.99
  -1   8   3  119.59    5.97
   1  -8  -3  122.38    6.09
  -1  -8   3  113.94    5.93
  -1   8   2  111.82    5.44
   1   8  -2  105.88    5.39
   1  -8  -2  100.58    5.42
  -1  -8   2  108.79    5.40
  -1  -8   2  104.04    4.23
   1   8  -1   79.60    4.49
  -1   8   1   91.75    4.60
  -1  -8   1   90.85    4.58
   1  -8  -1   86.13    4.63
  -1   8   0    9.12    1.25
   1   8   0    8.38    1.15
  -1  -8   0    8.97    1.25
   1  -8   0    6.93    1.15
   1   8   1    2.14    0.80
  -1   8  -1    3.25    0.98
   1  -8   1    3.30    0.96
   1  -8   1    2.29    0.47
  -1  -8  -1    3.37    0.95
   1   8   2   78.62    3.90
  -1   8  -2   67.85    3.90
   1  -8   2   70.68    3.85
   1  -8   2   69.33    2.93
  -1  -8  -2   68.51    3.91
  -1   8  -3  157.03    6.97
   1   8   3  126.03    6.77
  -1  -8  -3  144.96    6.98
   1  -8   3  131.06    6.74
   1  -8   3  139.31    6.82
   1   8   4   63.16    3.00
  -1   8  -4   74.30    3.78
   1   8   4   63.82    3.64
  -1  -8  -4   60.78    3.69
  -1   8  -5   64.51    3.79
   1   8   5   69.05    3.12
  -1  -8  -5   73.29    3.94
  -1   8  -6   11.30    1.80
   1   8   6   10.31    0.98
  -1   8  -6   10.38    1.28
  -1  -8  -6   11.24    1.53
   1   8   7    2.34    0.57
  -1   8  -7    3.14    0.84
  -1  -8  -7    2.04    1.08
  -1   8  -8   25.65    1.93
  -1  -8  -8   23.39    2.20
  -1   8  -9   44.87    2.83
  -1  -8  -9   44.38    3.14
  -1   8 -10   39.59    2.49
  -1  -8 -10   31.84    2.86
  -1   8 -11   23.21    1.85
  -1  -8 -11   17.69    2.25
  -1   8 -12   10.27    1.43
  -1  -8 -12   10.21    1.92
  -1   8 -13    0.89    0.82
  -1  -8 -13   -1.77    1.33
   1  -9 -13   23.57    2.57
   1  -9 -12   14.96    2.11
   1   9 -11   44.07    2.80
   1  -9 -11   41.88    3.32
  -1   9  10   12.54    1.33
   1   9 -10   11.84    1.41
   1  -9 -10   10.62    1.73
  -1   9   9    4.09    0.85
   1   9  -9    4.65    0.97
   1  -9  -9    4.91    1.41
  -1   9   8    1.77    0.66
   1   9  -8    2.47    0.89
   1  -9  -8    1.18    1.15
  -1   9   7   54.69    2.84
   1   9  -7   60.38    3.43
   1  -9  -7   51.94    3.47
   1   9  -6   43.67    2.88
  -1   9   6   45.35    2.41
   1  -9  -6   43.89    3.09
   1   9  -5  115.84    5.79
  -1   9   5  109.14    4.93
   1  -9  -5  107.59    5.88
  -1   9   4   34.01    2.41
   1   9  -4   33.48    2.46
   1  -9  -4   32.55    2.46
  -1   9   3   16.34    1.74
   1   9  -3   16.24    1.75
   1  -9  -3   15.72    1.73
  -1  -9   3   14.84    1.60
  -1   9   2    7.36    1.23
   1   9  -2    9.85    1.37
   1  -9  -2    9.96    1.39
  -1  -9   2    6.87    0.69
  -1  -9   2   10.55    1.40
   1   9  -1   61.45    3.55
  -1   9   1   62.55    3.58
  -1  -9   1   61.57    3.58
   1  -9  -1   61.77    3.63
   1   9   0   61.73    3.49
  -1   9   0   58.31    3.49
  -1  -9   0   56.65    3.50
   1  -9   0   63.07    3.55
  -1   9  -1  146.41    7.53
   1   9   1  163.66    7.57
  -1  -9  -1  152.92    7.61
   1  -9   1  152.78    7.55
   1  -9   1  151.05    6.10
  -1   9  -2   14.77    1.65
   1   9   2   14.10    1.63
   1  -9   2   15.24    0.94
  -1  -9  -2   13.25    1.60
   1  -9   2   14.85    1.63
   1   9   3   24.81    1.93
  -1   9  -3   22.82    1.96
   1  -9   3   21.45    1.82
   1  -9   3   24.38    1.86
  -1  -9  -3   23.68    2.19
   1   9   4    0.15    0.85
  -1   9  -4    1.69    0.85
  -1  -9  -4    1.56    0.98
   1   9   5   47.37    2.29
  -1   9  -5   40.27    2.81
  -1  -9  -5   42.22    3.05
  -1   9  -6   25.26    2.06
   1   9   6   27.60    1.64
  -1  -9  -6   28.14    2.32
  -1   9  -7   92.13    5.15
  -1  -9  -7  103.93    5.50
  -1   9  -8   23.70    1.94
  -1  -9  -8   22.16    2.21
  -1   9  -9   12.23    1.52
  -1  -9  -9   10.66    1.82
  -1   9 -10   -0.03    0.63
  -1  -9 -10    0.30    1.31
  -1   9 -11   12.21    1.51
  -1  -9 -11   10.60    1.96
  -1   9 -12   14.45    1.80
  -1  -9 -12   16.42    2.25
  -1  -9 -13   29.97    3.00
   1 -10 -13    0.36    1.43
   1 -10 -12    3.67    1.51
   1  10 -11    1.44    0.76
   1 -10 -11    1.22    1.43
   1  10 -10   31.05    2.29
   1 -10 -10   28.87    2.80
   1  10  -9    6.94    1.19
  -1  10   9    5.57    0.95
   1 -10  -9    4.97    1.51
  -1  10   8   81.90    3.90
   1  10  -8   79.09    4.49
   1 -10  -8   78.72    4.73
  -1  10   7    2.62    0.77
   1  10  -7    2.94    1.06
   1 -10  -7    2.87    1.24
  -1  10   6    8.41    1.09
   1  10  -6    8.22    1.48
   1 -10  -6    9.47    1.65
   1  10  -5    1.70    0.96
  -1  10   5    2.65    0.80
   1 -10  -5    3.02    1.31
   1  10  -4   71.55    4.17
  -1  10   4   70.60    4.12
   1 -10  -4   71.40    4.30
  -1  10   3   12.46    1.64
   1  10  -3   11.08    1.56
  -1 -10   3   15.09    1.71
   1 -10  -3   16.02    1.86
   1  10  -2  124.84    6.81
  -1  10   2  129.73    6.81
  -1 -10   2  136.39    6.87
  -1 -10   2  143.13    5.36
   1 -10  -2  136.71    6.99
   1  10  -1    4.49    1.14
  -1  10   1    5.94    1.21
   1 -10  -1    4.90    1.31
  -1 -10   1    4.35    1.13
  -1 -10   1    6.56    0.73
   1  10   0   24.38    2.03
  -1  10   0   19.71    1.97
  -1 -10   0   23.85    2.19
   1 -10   0   23.27    2.18
   1 -10   0   21.72    1.40
  -1  10  -1    1.46    0.95
   1  10   1    0.38    0.89
  -1 -10  -1    1.97    1.05
   1 -10   1    1.82    0.52
   1 -10   1    0.92    0.99
   1  10   2   48.27    3.16
  -1  10  -2   45.03    3.09
   1 -10   2   49.75    3.10
   1 -10   2   48.38    2.15
  -1 -10  -2   49.79    3.26
   1  10   3   12.44    1.58
  -1  10  -3   11.59    1.58
  -1 -10  -3   12.56    1.69
   1 -10   3   12.13    1.48
   1 -10   3   10.00    1.38
  -1  10  -4  115.49    6.36
   1  10   4  122.70    6.34
  -1 -10  -4  128.84    6.56
  -1  10  -5    7.48    1.33
   1  10   5    6.77    0.91
  -1 -10  -5    6.40    1.42
  -1  10  -6   21.55    1.87
  -1 -10  -6   20.47    2.30
  -1  10  -7   -0.86    0.71
  -1 -10  -7   -1.31    1.20
  -1  10  -8   29.80    2.26
  -1 -10  -8   23.76    2.60
  -1  10  -9    7.33    1.29
  -1 -10  -9    4.40    1.56
  -1  10 -10   43.00    3.00
  -1 -10 -10   43.79    3.50
  -1  10 -11    1.07    0.82
  -1 -10 -11    2.58    1.56
  -1 -10 -12   10.00    2.11
   1 -11 -12    1.62    1.57
   1  11 -11   41.75    2.93
   1 -11 -11   43.26    3.53
   1  11 -10    2.89    0.89
   1 -11 -10    1.60    1.39
   1  11  -9    5.67    1.17
   1 -11  -9    5.40    1.71
  -1  11   8    0.52    0.69
   1  11  -8    0.51    0.82
   1 -11  -8    0.33    1.15
   1  11  -7   31.93    2.66
  -1  11   7   36.34    2.24
   1 -11  -7   31.72    2.84
   1  11  -6    1.78    1.11
  -1  11   6    1.01    0.71
   1 -11  -6    1.44    1.30
   1  11  -5  103.18    5.50
  -1  11   5   95.41    4.65
   1 -11  -5   96.22    5.55
  -1  11   4    0.94    1.02
   1  11  -4   -0.20    0.93
   1 -11  -4    0.42    1.08
  -1  11   3   12.17    1.67
   1  11  -3    7.41    1.47
   1 -11  -3   10.75    1.69
   1  11  -2    0.00    0.95
  -1  11   2    0.37    0.89
  -1 -11   2    1.96    1.01
  -1 -11   2    0.31    0.37
   1 -11  -2    0.63    1.07
   1  11  -1   52.20    3.34
  -1  11   1   43.66    3.11
  -1 -11   1   45.76    2.24
   1 -11  -1   44.00    3.19
  -1 -11   1   49.30    3.20
  -1  11   0    0.44    0.92
   1  11   0   -0.36    0.87
   1 -11   0    0.20    0.95
   1 -11   0    0.16    0.49
  -1 -11   0   -1.77    0.98
  -1  11  -1  106.56    5.86
   1  11   1  102.50    5.77
   1 -11   1  109.21    4.49
  -1 -11  -1  108.25    5.95
   1 -11   1  112.41    5.86
  -1  11  -2    0.67    0.95
   1  11   2   -0.22    0.98
   1 -11   2   -1.59    0.87
   1 -11   2    0.49    0.37
  -1 -11  -2    1.20    1.24
   1 -11   2    1.51    0.83
  -1  11  -3   17.44    2.09
   1  11   3   19.13    2.07
  -1 -11  -3   19.45    2.30
   1  11   4    0.77    0.91
  -1  11  -4    0.57    0.91
  -1 -11  -4    1.42    1.35
  -1  11  -5   24.68    2.24
  -1 -11  -5   29.94    2.82
  -1  11  -6    0.72    0.81
  -1 -11  -6    0.46    1.20
  -1  11  -7   70.27    4.30
  -1 -11  -7   75.29    4.75
  -1  11  -8    1.58    0.92
  -1 -11  -8   -0.23    1.24
  -1  11  -9   14.84    1.80
  -1 -11  -9    6.87    1.95
  -1  11 -10    1.59    0.91
  -1 -11 -10   -1.63    1.42
  -1  11 -11    7.72    1.34
  -1 -11 -11   10.72    2.20
   1  12 -11    3.00    0.95
   1 -12 -11   -1.23    1.40
   1  12 -10   22.10    2.06
   1 -12 -10   18.71    2.65
   1  12  -9    4.94    1.16
   1 -12  -9    5.73    1.80
   1  12  -8   36.17    2.89
   1 -12  -8   48.04    3.46
   1  12  -7    1.51    1.08
   1 -12  -7    2.48    1.37
  -1  12   6    7.82    1.21
   1  12  -6    9.36    1.63
   1 -12  -6    6.63    1.68
   1  12  -5   -0.57    1.06
  -1  12   5   -0.14    0.75
   1 -12  -5    0.85    1.26
   1  12  -4   20.90    2.31
   1 -12  -4   22.40    2.56
  -1  12   3    4.91    1.26
   1  12  -3    3.47    1.36
   1 -12  -3    2.99    1.37
  -1  12   2   91.44    5.25
   1  12  -2   86.93    5.26
  -1 -12   2   93.81    3.76
  -1 -12   2   97.18    5.30
   1 -12  -2   97.53    5.45
   1  12  -1   11.49    1.78
  -1  12   1    8.09    1.57
  -1 -12   1   10.24    0.95
  -1 -12   1   11.59    1.83
   1 -12  -1    8.83    1.62
   1  12   0   14.00    1.91
  -1  12   0   14.23    1.99
   1 -12   0   13.36    1.17
  -1 -12   0   11.86    1.81
   1 -12   0   14.36    1.88
  -1  12  -1    0.13    1.01
   1  12   1   -0.46    1.14
   1 -12   1   -0.05    0.45
  -1 -12  -1   -0.06    1.22
   1 -12   1    1.48    0.97
   1  12   2   26.55    2.47
  -1  12  -2   29.80    2.68
   1 -12   2   25.82    2.38
  -1 -12  -2   30.12    2.70
  -1  12  -3    9.30    1.73
   1  12   3    9.20    1.72
  -1 -12  -3    9.40    1.77
  -1  12  -4   81.96    4.82
  -1 -12  -4   78.88    5.06
  -1  12  -5    9.10    1.60
  -1 -12  -5    6.54    1.80
  -1  12  -6   10.79    1.65
  -1 -12  -6    9.92    1.92
  -1  12  -7   -0.13    0.82
  -1 -12  -7    1.00    1.51
  -1  12  -8   13.36    1.79
  -1 -12  -8   11.08    2.15
  -1  12  -9    3.86    1.22
  -1 -12  -9    4.06    1.75
  -1  12 -10   41.28    2.90
  -1 -12 -10   31.21    3.40
   1  13 -10    9.31    1.50
   1  13  -9    3.63    1.10
   1 -13  -9    2.90    1.71
   1  13  -8    3.09    1.05
   1 -13  -8    1.00    1.54
   1  13  -7   17.43    2.16
   1 -13  -7   15.24    2.34
   1  13  -6   17.87    2.28
   1 -13  -6   16.33    2.33
   1  13  -5   30.31    2.86
  -1  13   5   37.98    2.52
   1 -13  -5   40.97    3.50
   1  13  -4   12.46    1.91
   1 -13  -4   11.48    2.03
  -1  13   3    5.45    1.50
   1  13  -3    4.14    1.53
   1 -13  -3    2.94    1.47
   1  13  -2   -0.27    1.11
  -1  13   2   -1.28    1.06
   1 -13  -2   -1.18    1.14
   1  13  -1   13.97    2.02
  -1  13   1   17.10    2.17
   1 -13  -1   16.32    2.17
  -1 -13   1   16.62    2.19
  -1 -13   1   16.49    1.20
   1 -13  -1   15.01    1.35
   1  13   0   17.27    2.26
  -1  13   0   22.23    2.49
  -1 -13   0   21.00    1.53
   1 -13   0   20.88    1.47
  -1 -13   0   18.86    2.38
   1 -13   0   23.24    2.49
  -1  13  -1   54.09    3.64
   1  13   1   53.81    3.65
   1 -13   1   51.36    2.36
   1 -13   1   40.80    3.57
  -1 -13  -1   49.20    3.81
   1 -13   1   51.83    3.48
  -1  13  -2   13.33    1.94
   1  13   2   14.37    2.05
  -1 -13  -2   10.60    1.92
   1  13   3    6.06    1.53
  -1  13  -3    8.42    1.58
  -1 -13  -3    7.77    1.75
  -1  13  -4    1.08    1.11
  -1 -13  -4   -0.29    1.35
  -1  13  -5    9.81    1.58
  -1 -13  -5    7.83    1.89
  -1  13  -6    8.99    1.58
  -1 -13  -6    6.60    1.84
  -1  13  -7   30.43    2.69
  -1 -13  -7   29.55    3.30
  -1  13  -8    8.65    1.54
  -1 -13  -8    4.76    1.82
  -1  13  -9    7.14    1.51
  -1 -13  -9    4.68    1.91
   1  14  -8   17.19    2.06
   1 -14  -8   12.46    2.43
   1 -14  -7   14.76    2.47
   1  14  -6    1.74    1.23
   1 -14  -6    2.80    1.71
   1  14  -5    1.66    1.36
   1 -14  -5    2.72    1.56
   1  14  -4    5.56    1.71
   1 -14  -4    6.93    1.98
   1  14  -3   23.77    2.75
   1 -14  -3   23.55    2.85
   1  14  -2   16.18    2.24
  -1  14   2   22.73    2.48
   1 -14  -2   16.76    2.35
   1 -14  -2   17.31    1.60
   1  14  -1   15.89    2.39
  -1  14   1   17.75    2.38
   1 -14  -1   20.03    2.46
   1 -14  -1   18.88    1.56
  -1  14   0    1.24    1.20
   1  14   0   -0.16    1.19
  -1 -14   0    0.96    1.51
   1 -14   0    4.30    1.35
   1  14   1   -1.92    1.03
  -1  14  -1    2.41    1.45
  -1 -14  -1    1.06    1.56
  -1 -14  -1   -2.22    0.63
  -1  14  -2    2.87    1.37
   1  14   2    2.36    1.51
  -1 -14  -2    4.13    1.83
  -1  14  -3   22.63    2.55
  -1 -14  -3   23.03    2.75
  -1  14  -4   21.96    2.44
  -1 -14  -4   20.74    2.81
  -1  14  -5   17.53    2.14
  -1 -14  -5   16.26    2.48
  -1  14  -6    5.18    1.30
  -1 -14  -6    5.50    1.89
  -1  14  -7    1.09    1.02
  -1 -14  -7    1.48    1.74
   1 -15  -6   26.35    3.17
   1  15  -5    7.02    1.56
   1 -15  -5    5.39    1.83
   1  15  -4   12.41    2.18
   1 -15  -4   12.93    2.27
   1  15  -3    1.23    1.47
   1 -15  -3    2.61    1.51
   1  15  -2    1.25    1.49
  -1  15   2    0.97    1.30
   1 -15  -2    2.57    1.53
  -1  15   1    1.39    1.36
   1  15  -1    0.56    1.30
   1 -15  -1    4.10    1.44
  -1  15   0   28.65    3.07
   1  15   0   30.44    3.21
   1  15   1    7.04    1.91
  -1  15  -1    8.20    1.82
  -1 -15  -1    5.49    1.94
  -1  15  -2   31.37    2.89
  -1 -15  -2   23.59    3.05
  -1  15  -3    1.66    1.06
  -1 -15  -3    2.41    1.71
  -1  15  -4    2.65    1.07
  -1 -15  -4    0.85    1.54
  -1  15  -5    5.73    1.38
  -1 -15  -5    3.54    1.93
   1  16  -3   24.16    2.95
   1 -16  -3   38.71    3.37
   1  16  -2    1.12    1.32
   1  16  -1   18.05    2.63
  -1  16   1   18.14    2.34
   1 -16  -1   15.14    2.56
   1 -16  -1   28.43    2.71
  -1  16   0    4.42    1.35
   1  16   0    3.11    1.55
  -1  16  -1    5.62    1.45
   1  16   1   -0.54    1.44
  -1 -16  -1    4.20    1.81
  -1  16  -2    2.48    0.97
  -1 -16  -2    2.64    1.64
  -1 -16  -3   19.52    2.76
  -2   0  15    1.27    0.83
  -2   0  14    0.34    0.67
  -2   0  13   -1.18    0.51
   2   0 -13   -0.16    0.31
  -2   0  12  104.68    4.87
   2   0 -12  109.64    4.91
   2   0 -11    0.27    0.24
  -2   0  11    0.36    0.52
  -2   0  10  165.80    7.01
   2   0 -10  171.87    7.46
   2   0  -9   -0.11    0.16
  -2   0   9    0.31    0.47
   2   0  -9    0.66    0.52
   2   0  -8    4.92    0.82
   2   0  -8    4.77    0.36
  -2   0   8    5.03    0.68
   2   0  -7   -0.08    0.11
   2   0  -7   -0.22    0.32
  -2   0   7    0.04    0.30
   2   0  -6  332.37   18.86
   2   0  -6  328.07   14.41
  -2   0   6  323.12   12.66
   2   0  -5   -0.33    0.26
  -2   0   5   -0.01    0.26
   2   0  -4  619.57   35.47
  -2   0   4  618.02   23.47
   2   0  -3    0.09    0.15
  -2   0   3    0.03    0.18
  -2   0   2    0.66    0.20
   2   0  -1   -0.20    0.15
  -2   0   1   -0.83    0.13
   2   0   0  279.75   17.25
  -2   0   0  316.26   17.27
  -2   0   0  313.52   13.18
  -2   0  -1   -0.87    0.19
   2   0   1   -0.69    0.25
  -2   0  -1   -0.89    0.30
  -2   0  -1   -0.58    0.21
   2   0   2  717.51   25.70
  -2   0  -2  618.55   38.49
  -2   0  -2  693.77   29.52
   2   0   3    0.23    0.19
   2   0   3    0.09    0.31
  -2   0  -3   -0.04    0.34
  -2   0  -3    0.09    0.22
  -2   0  -3    0.32    0.23
  -2   0  -4   46.83    2.21
  -2   0  -4   45.69    2.17
   2   0   4   41.52    1.90
  -2   0  -4   41.18    2.97
   2   0   5   -0.02    0.23
  -2   0  -5    0.34    0.45
  -2   0  -5   -0.18    0.23
  -2   0  -5   -0.20    0.25
  -2   0  -6  122.28    5.77
  -2   0  -6  127.32    5.90
   2   0   6  123.85    5.14
  -2   0  -6  135.29    7.91
  -2   0  -7   -0.14    0.29
  -2   0  -7    0.38    0.36
   2   0   7   -0.54    0.32
  -2   0  -7   -0.06    0.54
   2   0   8  257.79   10.70
  -2   0  -8  272.43   12.09
  -2   0  -8  282.40   12.31
   2   0   9    0.30    0.43
  -2   0  -9    0.11    0.40
  -2   0  -9   -0.03    0.37
  -2   0 -10   13.31    1.10
   2   0  10   11.62    1.17
  -2   0 -10   11.78    1.08
  -2   0 -11    0.15    0.46
  -2   0 -11   -0.62    0.39
   2   0  11   -0.20    0.59
  -2   0 -12   34.16    2.14
  -2   0 -13   -0.61    0.53
  -2   1  15   46.90    2.96
  -2  -1  15   52.87    3.11
  -2   1  14    7.53    1.14
  -2  -1  14    7.17    1.21
  -2   1  13   93.62    4.44
   2   1 -13   94.68    4.33
  -2  -1  13   90.71    4.45
  -2   1  12    3.63    0.77
   2   1 -12    3.13    0.44
  -2  -1  12    3.48    0.80
  -2   1  11   -0.19    0.48
   2   1 -11    0.02    0.24
  -2  -1  11   -0.18    0.43
   2   1 -10    0.98    0.26
  -2   1  10    1.93    0.59
   2   1 -10    1.21    0.68
  -2  -1  10    0.49    0.51
   2  -1 -10    1.21    0.29
   2   1  -9  109.80    6.37
  -2   1   9   98.53    4.32
   2  -1  -9   99.60    4.46
  -2  -1   9   98.18    4.34
   2  -1  -9   94.79    4.57
   2   1  -8   27.57    2.20
  -2   1   8   30.65    1.61
   2   1  -8   30.12    1.38
  -2  -1   8   27.37    1.57
   2  -1  -8   30.03    1.47
   2  -1  -8   28.13    1.38
  -2   1   7  325.98   20.23
   2   1  -7  346.78   15.48
  -2   1   7  354.21   13.63
   2   1  -7  372.68   20.34
   2  -1  -7  346.76   15.55
   2  -1  -7  354.29   15.22
  -2  -1   7  362.33   13.66
  -2   1   6   45.10    3.01
   2   1  -6   45.82    3.08
   2   1  -6   49.06    2.16
  -2   1   6   50.02    2.17
   2  -1  -6   48.18    2.23
   2  -1  -6   47.77    2.10
  -2  -1   6   48.09    2.16
   2   1  -5   32.91    2.24
  -2   1   5   34.38    2.15
   2   1  -5   33.24    1.54
  -2  -1   5   33.53    1.58
   2  -1  -5   33.44    1.62
   2   1  -4    2.85    0.22
  -2   1   4    2.74    0.38
  -2   1   4    2.67    0.36
   2  -1  -4    2.54    0.32
   2  -1  -4    2.95    0.20
  -2  -1   4    2.48    0.36
  -2   1   3  305.82   11.88
  -2   1   3  297.79   17.70
   2   1  -3  318.37   13.72
  -2  -1   3  314.65   11.87
   2  -1  -3  320.47   13.77
  -2   1   2  131.34    4.89
   2   1  -2  125.27    5.62
   2  -1  -2  132.52    5.67
   2  -1  -2  121.44    5.66
  -2  -1   2  116.47    4.84
  -2   1   1  704.70   42.19
   2   1  -1  779.68   32.81
   2  -1  -1  740.91   32.65
  -2  -1   1  752.08   27.94
  -2  -1   1  709.76   27.66
  -2   1   0   63.49    2.36
  -2   1   0   56.75    3.58
  -2   1   0   59.92    2.75
   2   1   0   59.40    2.80
  -2   1   0   65.50    2.82
   2  -1   0   60.70    2.81
  -2  -1   0   59.71    2.80
   2  -1   0   60.77    2.35
   2  -1   0   56.78    3.58
  -2   1  -1   36.84    1.78
   2   1   1   38.75    1.45
  -2   1  -1   36.93    1.82
  -2   1  -1   33.43    2.36
   2   1   1   37.55    1.82
  -2  -1  -1   33.86    1.76
   2  -1   1   38.78    1.82
  -2  -1  -1   35.64    1.81
  -2   1  -2   -0.62    0.33
   2   1   2   -0.18    0.27
  -2   1  -2   -0.25    0.20
  -2   1  -2   -0.46    0.21
   2   1   2   -0.18    0.13
   2   1   2   -0.30    0.18
   2  -1   2    0.03    0.31
  -2  -1  -2   -0.12    0.20
  -2  -1  -2   -0.14    0.19
   2   1   3  230.69   10.40
  -2   1  -3  248.37   10.44
  -2   1  -3  221.51   13.51
  -2   1  -3  222.95   10.21
   2   1   3  215.85   13.49
   2   1   3  226.24    8.88
   2  -1   3  242.65   13.56
  -2  -1  -3  249.30   10.43
  -2  -1  -3  233.04   10.22
  -2   1  -4   61.57    3.79
   2   1   4   57.15    2.39
  -2   1  -4   59.58    2.74
   2  -1   4   52.18    2.43
  -2  -1  -4   57.64    2.73
  -2  -1  -4   55.71    2.79
   2   1   5  343.37   13.22
  -2   1  -5  329.40   15.38
  -2   1  -5  369.81   15.12
  -2   1  -5  317.74   20.01
  -2  -1  -5  341.33   15.39
   2  -1   5  344.39   13.27
  -2  -1  -5  361.73   15.12
  -2   1  -6    7.85    0.71
   2   1   6    8.72    0.68
  -2   1  -6    8.11    0.73
  -2   1  -6    7.84    1.18
   2  -1   6    6.91    0.73
  -2  -1  -6    7.37    0.70
  -2  -1  -6    8.71    0.73
  -2   1  -7   14.31    1.50
  -2   1  -7   10.61    0.90
  -2   1  -7   10.50    0.90
   2   1   7   10.79    0.88
  -2  -1  -7   11.15    0.91
   2  -1   7   10.95    0.99
  -2  -1  -7   10.43    0.90
  -2   1  -8    0.94    0.44
  -2   1  -8    1.13    0.45
  -2   1  -8    1.09    0.71
   2   1   8    1.75    0.47
   2  -1   8    0.67    0.47
  -2  -1  -8    1.04    0.46
  -2  -1  -8    1.28    0.46
  -2   1  -9   70.12    3.62
  -2   1  -9   78.38    3.70
  -2   1  -9   71.25    5.16
   2   1   9   71.62    3.34
  -2  -1  -9   71.51    3.64
  -2  -1  -9   76.82    3.72
   2   1  10   11.58    1.17
  -2   1 -10   12.13    1.03
  -2   1 -10   10.65    1.02
  -2  -1 -10   13.46    1.12
  -2  -1 -10    8.66    0.99
   2   1  11  108.83    4.75
  -2   1 -11  101.09    5.14
  -2   1 -11  105.03    5.12
  -2  -1 -11  101.74    5.12
  -2  -1 -11  108.41    5.20
   2   1  12   10.10    1.21
  -2   1 -12    9.94    1.10
  -2  -1 -12    8.26    1.06
  -2   1 -13   13.53    1.38
  -2   1 -14    0.33    0.59
  -2   2  15    5.58    1.12
  -2   2  14   -0.07    0.68
  -2  -2  14    0.23    0.84
   2   2 -13    4.03    0.55
  -2   2  13    3.65    0.88
  -2  -2  13    3.26    0.93
  -2   2  12   62.27    3.22
   2   2 -12   67.85    3.10
  -2  -2  12   62.27    3.30
  -2   2  11   61.47    3.17
   2   2 -11   67.66    3.10
  -2  -2  11   67.20    3.28
  -2   2  10  126.03    5.40
   2   2 -10  130.80    7.96
   2  -2 -10  124.34    5.83
  -2  -2  10  123.14    5.42
  -2   2   9   32.77    1.81
   2   2  -9   34.82    2.65
   2   2  -9   33.99    1.65
  -2  -2   9   32.65    1.89
   2  -2  -9   34.19    1.81
   2   2  -8   19.84    1.01
   2   2  -8   19.95    1.73
  -2   2   8   16.79    1.16
   2  -2  -8   18.37    1.14
  -2  -2   8   19.13    1.29
   2   2  -7   42.06    1.92
   2   2  -7   38.03    2.79
  -2   2   7   38.84    1.92
  -2   2   7   42.41    2.69
  -2  -2   7   39.82    1.96
   2  -2  -7   39.13    2.01
  -2   2   6  211.20   11.78
   2   2  -6  194.87   11.90
   2   2  -6  201.25    9.04
  -2   2   6  200.10    7.98
  -2  -2   6  201.47    8.00
   2  -2  -6  207.69    9.11
   2   2  -5  166.58    7.66
  -2   2   5  160.07    9.91
  -2   2   5  180.76    6.76
  -2  -2   5  176.20    6.77
   2  -2  -5  175.11    7.74
  -2   2   4  429.92   25.18
  -2   2   4  452.04   16.90
   2   2  -4  450.83   19.55
  -2  -2   4  453.43   16.89
   2  -2  -4  429.20   19.61
  -2   2   3  113.24    4.50
   2   2  -3  112.79    5.13
  -2  -2   3  110.37    4.47
   2  -2  -3  118.62    5.21
   2   2  -2   35.83    1.76
  -2  -2   2   36.71    1.53
   2  -2  -2   36.00    1.87
  -2   2   1   12.39    1.07
   2   2  -1   16.16    0.90
   2  -2  -1   16.72    1.06
  -2  -2   1   16.27    0.90
   2   2   0   90.08    4.13
  -2   2   0   93.70    4.16
  -2  -2   0   92.17    4.13
   2  -2   0   82.28    4.14
   2  -2   0   89.78    3.48
   2   2   1  276.32   12.01
  -2   2  -1  296.85   15.53
   2   2   1  285.15   10.18
  -2   2  -1  228.52   11.98
  -2  -2  -1  253.71   12.00
   2  -2   1  273.38   12.01
   2   2   2  223.57    8.58
  -2   2  -2  189.78   10.10
  -2   2  -2  230.70   13.12
   2   2   2  234.35   10.12
   2  -2   2  226.56   10.11
  -2  -2  -2  248.56   10.16
   2   2   3  233.15   10.95
   2   2   3  282.05   14.27
   2   2   3  235.77    9.33
  -2   2  -3  228.44   10.96
  -2   2  -3  255.32   14.27
   2  -2   3  246.38   10.94
  -2  -2  -3  236.12   10.97
  -2  -2  -3  237.85   10.76
  -2   2  -4   28.10    1.55
  -2   2  -4   28.85    2.18
   2   2   4   27.80    1.52
   2   2   4   29.51    1.30
  -2  -2  -4   26.67    1.50
  -2  -2  -4   27.59    1.55
   2   2   5    7.12    0.62
  -2   2  -5    6.74    0.65
  -2   2  -5    6.15    1.01
  -2   2  -5    7.82    0.70
   2   2   5    7.29    0.58
  -2  -2  -5    6.85    0.67
  -2  -2  -5    6.41    0.63
   2   2   6  116.08    4.80
  -2   2  -6  131.06    7.51
  -2   2  -6  102.28    5.53
  -2   2  -6  132.18    5.48
  -2  -2  -6  120.63    5.59
  -2  -2  -6  111.27    5.45
  -2   2  -7  131.87    6.03
   2   2   7  133.96    5.25
  -2   2  -7  120.40    8.06
  -2   2  -7  121.62    5.89
  -2  -2  -7  124.47    5.92
  -2  -2  -7  135.06    6.06
  -2   2  -8  168.33    7.71
   2   2   8  159.80    6.81
  -2   2  -8  171.99    7.84
  -2   2  -8  158.11   10.46
  -2  -2  -8  176.51    7.89
  -2  -2  -8  175.58    7.74
  -2   2  -9   37.95    3.20
  -2   2  -9   36.29    2.11
  -2   2  -9   41.68    2.18
   2   2   9   35.47    1.96
  -2  -2  -9   34.92    2.15
  -2  -2  -9   38.08    2.15
  -2   2 -10   11.00    1.76
  -2   2 -10   10.25    1.06
   2   2  10   11.24    1.09
  -2   2 -10   10.99    1.13
  -2  -2 -10   11.46    1.10
  -2   2 -11    1.63    0.60
   2   2  11    2.01    0.67
  -2  -2 -11    1.75    0.67
  -2   2 -12   25.94    1.82
  -2   2 -13   25.46    1.85
  -2   2 -14   55.21    3.16
  -2   3  15   18.25    1.79
  -2   3  14   39.68    2.54
   2   3 -14   42.41    2.25
   2   3 -13   37.48    2.06
  -2   3  13   41.22    2.40
   2   3 -12   41.87    2.23
  -2   3  12   45.08    2.46
  -2  -3  12   43.35    2.58
   2   3 -11    0.96    0.77
  -2   3  11    0.05    0.49
  -2  -3  11   -0.13    0.64
   2   3 -10   16.16    1.73
  -2   3  10   16.57    1.26
   2  -3 -10   14.44    1.25
  -2  -3  10   15.75    1.37
   2   3  -9   52.48    2.54
  -2   3   9   51.86    2.54
   2   3  -9   54.91    3.77
   2  -3  -9   50.04    2.71
  -2  -3   9   53.89    2.66
  -2   3   8  250.32    9.50
   2   3  -8  242.46   10.69
   2   3  -8  223.96   14.13
  -2  -3   8  244.41    9.54
   2  -3  -8  232.36   10.80
   2   3  -7  111.27    5.51
  -2   3   7  127.54    4.99
  -2   3   7  123.45    7.22
   2   3  -7  117.81    7.40
   2  -3  -7  120.10    5.62
  -2  -3   7  124.20    5.03
   2   3  -6   86.11    4.23
  -2   3   6   99.41    5.54
  -2   3   6   89.14    3.80
   2  -3  -6   90.15    4.33
  -2  -3   6   91.79    3.85
   2   3  -5    3.36    0.45
  -2   3   5    3.08    0.45
  -2  -3   5    2.66    0.44
   2  -3  -5    2.44    0.49
  -2   3   4   37.77    1.74
   2   3  -4   34.96    1.91
  -2  -3   4   40.96    1.77
   2  -3  -4   39.33    2.02
  -2   3   3  185.45    8.53
   2   3  -3  188.12    8.50
   2  -3  -3  193.23    8.58
   2   3  -2  765.83   32.81
  -2   3   2  793.55   32.85
  -2  -3   2  704.33   32.80
   2  -3  -2  710.40   32.85
  -2   3   1  172.13    7.56
   2   3  -1  169.60    7.53
  -2  -3   1  160.43    7.51
   2  -3  -1  161.92    7.57
  -2   3   0  247.69   10.73
   2   3   0  249.77   10.71
   2  -3   0  227.35    9.02
   2  -3   0  233.06   10.72
   2  -3   0  234.75   10.73
  -2  -3   0  236.68   10.70
   2   3   1   34.54    1.99
  -2   3  -1   39.86    2.02
   2  -3   1   40.38    1.64
  -2  -3  -1   39.48    2.02
   2  -3   1   43.15    2.05
  -2   3  -2   35.62    1.93
  -2   3  -2   34.10    2.50
   2   3   2   35.41    1.90
   2   3   2   38.22    1.53
   2  -3   2   38.94    1.92
  -2  -3  -2   35.85    1.92
  -2   3  -3   93.29    4.26
  -2   3  -3   94.64    5.61
   2   3   3   87.09    3.53
   2   3   3   86.41    4.22
  -2  -3  -3   83.16    4.23
   2  -3   3   91.52    4.21
   2   3   4  255.86   10.09
   2   3   4  253.30   11.84
  -2   3  -4  287.00   11.91
  -2   3  -4  241.74   15.40
  -2  -3  -4  272.35   11.89
   2  -3   4  266.72   11.81
   2   3   5  237.98   11.04
  -2   3  -5  248.81   11.08
   2   3   5  258.56    9.47
  -2   3  -5  237.73   14.46
  -2  -3  -5  237.29   11.09
   2   3   6  121.84    5.01
  -2   3  -6  123.05    7.80
  -2   3  -6  121.65    5.84
  -2  -3  -6  129.78    5.90
   2   3   7    5.18    0.63
  -2   3  -7    5.81    0.73
  -2   3  -7    4.45    0.68
  -2   3  -7    4.78    1.07
  -2  -3  -7    4.77    0.72
  -2   3  -8    0.51    0.43
  -2   3  -8    1.06    0.47
  -2   3  -8   -0.01    0.60
   2   3   8    0.46    0.37
  -2  -3  -8    0.40    0.45
   2   3   9   32.78    1.77
  -2   3  -9   31.87    2.94
  -2   3  -9   31.70    1.91
  -2   3  -9   32.74    1.94
  -2  -3  -9   30.26    1.99
  -2   3 -10  102.24    5.16
  -2   3 -10  105.66    5.19
   2   3  10  107.82    4.66
  -2  -3 -10  110.17    5.34
  -2   3 -11   43.31    2.58
  -2   3 -11   43.10    2.55
  -2  -3 -11   46.38    2.69
  -2   3 -12   47.20    2.74
  -2   3 -13    4.06    0.84
  -2   3 -14    2.29    0.75
  -2   4  15   13.70    1.58
   2   4 -14    0.09    0.42
  -2   4  14   -0.26    0.68
  -2   4  13   14.81    1.45
   2   4 -13   12.28    1.09
  -2   4  12   12.00    1.30
   2   4 -11  152.16    9.53
  -2   4  11  147.61    6.40
   2  -4 -11  151.20    7.17
  -2   4  10   15.15    1.18
   2   4 -10   15.06    1.81
   2  -4 -10   15.04    1.38
   2   4  -9   84.70    5.14
  -2   4   9   73.30    3.38
   2   4  -9   71.65    3.55
   2  -4  -9   67.98    3.73
   2   4  -8    3.59    0.60
   2   4  -8    4.03    0.94
  -2   4   8    4.10    0.65
   2  -4  -8    3.56    0.75
   2   4  -7   33.57    2.58
   2   4  -7   32.26    1.86
  -2   4   7   33.78    1.73
   2  -4  -7   34.84    1.97
  -2   4   6    6.65    0.68
   2   4  -6    7.97    0.76
   2  -4  -6    5.88    0.80
  -2   4   5  240.38    9.79
  -2   4   5  267.21   11.33
   2   4  -5  248.43   11.31
   2  -4  -5  247.00   11.39
  -2   4   4  118.44    4.78
   2   4  -4  111.59    5.48
  -2   4   4  125.01    5.52
   2  -4  -4  116.52    5.58
  -2   4   3  410.13   17.84
   2   4  -3  391.39   17.80
  -2  -4   3  402.50   17.81
   2  -4  -3  393.30   17.88
   2   4  -2   24.82    1.48
  -2   4   2   26.35    1.57
  -2  -4   2   27.38    1.11
   2  -4  -2   23.53    1.61
  -2  -4   2   26.00    1.55
   2   4  -1   18.65    1.15
  -2   4   1   19.03    1.28
   2  -4  -1   16.42    1.24
  -2  -4   1   18.02    1.17
  -2   4   0   68.14    3.35
   2   4   0   66.42    3.29
   2  -4   0   65.43    3.33
  -2  -4   0   71.08    3.33
   2  -4   0   65.51    2.74
   2   4   1  858.12   34.99
  -2   4  -1  677.98   34.93
   2  -4   1  801.36   34.98
   2  -4   1  824.32   29.57
  -2  -4  -1  796.11   34.98
   2  -4   1  782.72   34.99
   2   4   2   96.55    4.80
  -2   4  -2  106.65    4.85
  -2  -4  -2   96.60    4.81
   2  -4   2  105.76    4.83
   2   4   3  158.55    5.98
   2   4   3  160.04    7.10
  -2   4  -3  141.24    7.07
  -2   4  -3  149.21    9.24
  -2  -4  -3  152.77    7.11
   2  -4   3  156.59    7.07
  -2   4  -4    7.78    0.78
   2   4   4    6.89    0.74
  -2   4  -4    6.69    1.10
   2   4   4    6.52    0.52
   2  -4   4    6.93    0.67
  -2  -4  -4    5.64    0.74
  -2   4  -5   39.56    2.14
  -2   4  -5   36.91    2.90
   2   4   5   36.12    2.08
   2   4   5   39.77    1.75
  -2  -4  -5   37.07    2.15
  -2   4  -6   33.66    2.03
   2   4   6   35.88    1.71
  -2   4  -6   34.17    2.82
  -2  -4  -6   36.16    2.09
   2   4   7  226.47    9.30
  -2   4  -7  271.97   14.47
  -2   4  -7  235.21   10.87
  -2  -4  -7  217.66   10.89
  -2   4  -8   15.08    1.28
  -2   4  -8   15.47    1.93
   2   4   8   14.93    1.08
  -2   4  -8   15.29    1.23
  -2  -4  -8   15.86    1.31
  -2   4  -9   91.54    6.52
  -2   4  -9   96.18    4.74
  -2   4  -9   93.00    4.68
   2   4   9   94.82    4.14
  -2  -4  -9   99.60    4.86
  -2   4 -10    3.14    0.71
  -2   4 -10    3.93    0.73
  -2  -4 -10    1.63    0.73
  -2   4 -11    1.70    0.58
  -2   4 -11    2.43    0.70
  -2  -4 -11    3.01    0.85
  -2   4 -12    2.91    0.81
  -2  -4 -12    4.78    1.05
  -2   4 -13   69.17    3.78
  -2   4 -14   12.89    1.44
   2   5 -14   70.03    3.56
  -2   5  14   67.18    3.60
  -2   5  13    1.32    0.71
  -2   5  12   45.59    2.57
  -2   5  11    3.41    0.75
   2   5 -11    3.01    1.03
   2  -5 -11    3.09    0.94
   2   5 -10   27.44    1.69
  -2   5  10   26.95    1.74
   2   5 -10   32.42    2.73
   2  -5 -10   29.33    2.04
   2   5  -9    7.83    0.81
  -2   5   9    7.17    0.89
   2   5  -9    6.13    1.27
   2  -5  -9    6.10    1.02
   2   5  -8  314.94   17.78
  -2   5   8  290.69   11.76
   2   5  -8  307.01   13.53
   2  -5  -8  281.83   13.62
  -2   5   7   10.05    0.86
   2   5  -7    9.40    0.98
   2  -5  -7    8.55    1.07
  -2   5   6  105.46    4.40
   2   5  -6  103.07    5.00
   2  -5  -6  104.62    5.11
  -2   5   5    3.71    0.63
   2   5  -5    2.66    0.58
  -2   5   5    3.05    0.52
   2  -5  -5    3.91    0.73
  -2   5   4   38.90    2.23
   2   5  -4   42.78    2.23
   2  -5  -4   39.79    2.34
  -2  -5   4   40.60    2.19
   2   5  -3    5.25    0.69
  -2   5   3    5.67    0.82
  -2  -5   3    5.47    0.74
   2  -5  -3    5.91    0.87
  -2   5   2  482.52   21.57
   2   5  -2  469.15   21.54
  -2  -5   2  491.70   21.57
   2  -5  -2  486.63   21.63
   2   5  -1    0.19    0.36
  -2   5   1   -0.37    0.54
   2  -5  -1    0.64    0.61
  -2  -5   1    0.63    0.51
   2   5   0  376.17   15.88
  -2   5   0  351.94   15.89
   2  -5   0  345.31   15.89
  -2  -5   0  335.70   15.84
  -2   5  -1    0.51    0.52
   2   5   1    0.68    0.42
   2  -5   1    0.37    0.48
   2  -5   1    0.20    0.48
   2  -5   1    0.59    0.31
  -2  -5  -1    0.82    0.43
   2   5   2   37.00    2.15
  -2   5  -2   43.30    2.26
   2  -5   2   37.48    2.15
  -2  -5  -2   38.83    2.21
  -2   5  -3    1.20    0.45
   2   5   3    0.78    0.26
   2   5   3    0.86    0.47
  -2  -5  -3    1.09    0.45
   2  -5   3    1.04    0.44
   2   5   4  379.66   17.97
   2   5   4  392.08   15.29
  -2   5  -4  428.12   18.04
  -2   5  -4  404.56   23.36
  -2  -5  -4  402.00   18.04
   2  -5   4  393.02   17.93
   2   5   5    1.65    0.38
  -2   5  -5    1.83    0.79
  -2   5  -5    2.77    0.63
   2   5   5    2.65    0.65
  -2  -5  -5    2.21    0.65
  -2   5  -6  171.23    8.93
  -2   5  -6  218.04   11.93
   2   5   6  192.40    7.60
  -2  -5  -6  189.47    9.00
   2   5   7    2.74    0.50
  -2   5  -7    1.74    0.85
  -2   5  -7    2.23    0.64
  -2  -5  -7    1.81    0.61
  -2   5  -8    5.48    0.83
   2   5   8    6.31    0.74
  -2   5  -8    6.51    1.39
  -2  -5  -8    5.77    0.93
  -2   5  -9    1.75    0.66
  -2   5  -9    0.93    0.58
  -2  -5  -9    2.13    0.76
  -2   5 -10  153.87    7.21
  -2   5 -10  149.44    7.15
  -2  -5 -10  144.65    7.36
  -2   5 -11    4.88    0.90
  -2   5 -11    4.27    0.81
  -2  -5 -11    4.14    1.04
  -2   5 -12   48.30    2.93
  -2  -5 -12   49.30    3.17
  -2   5 -13    0.51    0.67
  -2   5 -14    1.01    0.74
   2   6 -15   14.13    1.33
  -2   6  14    1.22    0.68
   2   6 -14   -0.25    0.55
  -2   6  13    8.45    1.25
  -2   6  12    1.20    0.64
   2  -6 -12    1.78    0.97
  -2   6  11  121.81    5.39
   2  -6 -11  121.28    6.15
   2   6 -10    2.65    0.60
   2   6 -10    3.55    1.12
  -2   6  10    2.71    0.66
   2  -6 -10    2.61    0.90
   2   6  -9   71.79    5.39
   2   6  -9   74.87    3.90
  -2   6   9   78.70    3.57
   2  -6  -9   84.73    4.19
   2   6  -8    0.07    0.62
   2   6  -8    0.50    0.61
  -2   6   8    0.17    0.37
   2  -6  -8    0.45    0.75
   2   6  -7   48.72    2.71
  -2   6   7   47.95    2.39
   2  -6  -7   47.86    2.86
   2   6  -6    2.96    0.74
  -2   6   6    2.17    0.54
   2  -6  -6    2.62    0.84
  -2   6   5  409.82   18.16
   2   6  -5  399.98   18.16
  -2   6   5  404.99   15.65
   2  -6  -5  397.90   18.27
  -2   6   4   10.29    1.06
   2   6  -4   10.70    1.11
  -2  -6   4   10.12    1.01
   2  -6  -4    9.19    1.16
   2   6  -3  155.05    7.23
  -2   6   3  149.65    7.22
  -2  -6   3  153.40    7.20
   2  -6  -3  154.14    7.31
   2   6  -2    6.78    0.86
  -2   6   2    6.07    0.87
  -2  -6   2    6.02    0.90
   2  -6  -2    6.54    0.94
  -2   6   1   46.41    2.68
   2   6  -1   49.75    2.63
   2  -6  -1   47.24    2.69
  -2  -6   1   47.64    2.68
  -2   6   0    4.72    0.82
   2   6   0    4.33    0.73
   2  -6   0    5.53    0.89
  -2  -6   0    4.98    0.76
   2   6   1  471.74   21.03
  -2   6  -1  433.95   21.02
  -2  -6  -1  485.81   21.06
   2  -6   1  456.10   21.04
   2  -6   1  461.83   17.69
   2  -6   1  499.77   21.10
   2   6   2    2.80    0.61
  -2   6  -2    2.49    0.71
  -2  -6  -2    2.54    0.64
   2  -6   2    2.51    0.35
   2  -6   2    2.00    0.58
   2   6   3  168.58    7.85
  -2   6  -3  168.60    7.86
   2   6   3  161.14    6.57
   2  -6   3  165.38    7.82
  -2  -6  -3  168.85    7.89
  -2   6  -4    0.62    0.56
   2   6   4    1.38    0.62
   2   6   4    1.69    0.36
   2  -6   4    1.67    0.52
  -2  -6  -4    0.64    0.61
   2   6   5    3.91    0.83
  -2   6  -5    2.54    0.97
  -2   6  -5    3.94    0.73
   2   6   5    3.79    0.53
  -2  -6  -5    3.42    0.80
  -2   6  -6    0.83    0.54
   2   6   6    0.09    0.30
  -2   6  -6    0.14    0.67
  -2  -6  -6    0.42    0.60
   2   6   7  165.74    6.66
  -2   6  -7  154.18    7.83
  -2   6  -7  164.88   10.47
  -2  -6  -7  173.59    7.99
  -2   6  -8    3.82    0.78
  -2  -6  -8    3.75    0.90
  -2   6  -9   95.10    4.76
  -2   6  -9   84.07    4.69
  -2  -6  -9   97.66    4.94
  -2   6 -10    1.04    0.65
  -2   6 -10    0.59    0.56
  -2  -6 -10    1.36    0.83
  -2   6 -11    2.17    0.71
  -2   6 -11    2.59    0.82
  -2  -6 -11    1.15    0.92
  -2   6 -12    0.50    0.68
  -2  -6 -12   -1.06    0.99
  -2   6 -13   60.22    3.54
   2   7 -14   45.13    2.80
  -2   7  13   15.36    1.55
  -2   7  12   21.17    1.70
   2  -7 -12   22.44    2.12
  -2   7  11    0.26    0.53
   2  -7 -11    0.06    0.95
   2   7 -10   23.78    1.63
  -2   7  10   19.41    1.52
   2  -7 -10   20.95    2.03
   2   7  -9   21.32    2.46
   2   7  -9   25.86    1.76
  -2   7   9   21.85    1.56
   2  -7  -9   25.23    2.04
   2   7  -8  128.46    6.65
  -2   7   8  137.04    5.82
   2  -7  -8  147.07    6.88
   2   7  -7   32.82    2.18
  -2   7   7   32.59    1.85
   2  -7  -7   34.19    2.36
  -2   7   6   70.68    3.16
   2   7  -6   67.82    3.67
   2  -7  -6   65.49    3.79
  -2   7   5   -0.20    0.45
   2   7  -5    0.09    0.65
  -2   7   5    0.10    0.63
   2  -7  -5    0.89    0.72
   2   7  -4   17.65    1.47
  -2   7   4   19.25    1.57
  -2  -7   4   16.24    1.43
   2  -7  -4   18.75    1.60
  -2   7   3   22.36    1.68
   2   7  -3   24.33    1.74
  -2  -7   3   22.39    1.63
   2  -7  -3   24.07    1.79
  -2   7   2  259.07   11.61
   2   7  -2  248.46   11.57
   2  -7  -2  246.90   11.65
  -2  -7   2  247.68   11.58
  -2   7   1   39.35    2.42
   2   7  -1   38.48    2.34
  -2  -7   1   37.95    2.42
   2  -7  -1   40.16    2.42
  -2   7   0  190.97    9.09
   2   7   0  203.08    9.11
  -2  -7   0  188.79    9.10
   2  -7   0  189.02    7.55
   2  -7   0  194.72    9.13
   2   7   1    0.94    0.59
  -2   7  -1    0.61    0.62
  -2  -7  -1   -0.01    0.58
   2  -7   1    0.46    0.33
   2  -7   1    0.08    0.52
  -2   7  -2   30.94    2.12
   2   7   2   31.55    2.02
   2  -7   2   31.42    1.97
  -2  -7  -2   31.21    2.06
   2  -7   2   29.18    1.42
   2  -7   2   30.07    2.01
   2   7   3   11.86    1.30
  -2   7  -3   10.20    1.25
   2  -7   3   10.84    1.18
  -2  -7  -3   12.67    1.33
   2   7   4  195.61    8.13
  -2   7  -4  225.79    9.76
   2   7   4  213.85    9.75
   2  -7   4  195.34    9.62
  -2  -7  -4  204.18    9.77
  -2   7  -5   47.43    2.80
   2   7   5   43.01    2.77
  -2   7  -5   52.83    3.84
   2   7   5   48.62    2.22
  -2  -7  -5   45.93    2.87
  -2   7  -6   70.14    5.47
  -2   7  -6   84.97    4.18
   2   7   6   77.90    3.40
  -2  -7  -6   78.56    4.25
  -2   7  -7    2.22    1.04
  -2   7  -7    1.97    0.75
  -2  -7  -7    1.74    0.76
  -2   7  -8    7.15    1.09
  -2  -7  -8    6.81    1.21
  -2   7  -9    7.63    1.09
  -2  -7  -9    8.62    1.33
  -2   7 -10   72.91    4.17
  -2   7 -10   76.22    4.26
  -2  -7 -10   84.49    4.52
  -2   7 -11   18.16    1.60
  -2   7 -11   16.22    1.71
  -2  -7 -11   13.62    1.91
  -2   7 -12   28.62    2.21
  -2  -7 -12   26.61    2.69
  -2   7 -13    0.34    0.74
  -2   8  12   19.53    1.72
   2  -8 -12   24.34    2.36
   2   8 -11   56.61    3.19
  -2   8  11   55.00    2.99
   2  -8 -11   55.62    3.62
   2   8 -10   31.50    2.08
  -2   8  10   29.97    1.95
   2  -8 -10   29.53    2.46
  -2   8   9   23.44    1.64
   2   8  -9   25.92    1.91
   2  -8  -9   22.49    2.15
   2   8  -8    0.32    0.79
  -2   8   8    0.21    0.50
   2  -8  -8    0.01    0.94
  -2   8   7   25.50    1.63
   2   8  -7   22.46    1.89
   2  -8  -7   23.79    2.01
   2   8  -6   32.83    2.30
  -2   8   6   31.00    1.91
   2  -8  -6   34.07    2.36
   2   8  -5  110.65    5.82
  -2   8   5  117.16    5.82
   2  -8  -5  121.97    5.98
   2   8  -4  123.89    6.07
  -2   8   4  118.43    6.03
  -2  -8   4  122.25    6.00
   2  -8  -4  120.95    6.15
  -2   8   3   56.35    3.32
   2   8  -3   60.51    3.37
   2  -8  -3   59.96    3.45
  -2  -8   3   61.86    3.37
  -2   8   2    4.24    0.95
   2   8  -2    5.70    1.00
  -2  -8   2    5.02    1.02
  -2  -8   2    6.40    0.60
   2  -8  -2    4.88    1.08
  -2   8   1   13.79    1.53
   2   8  -1   15.54    1.42
  -2  -8   1   12.05    1.47
   2  -8  -1   11.24    1.42
   2   8   0   83.49    4.42
  -2   8   0   82.92    4.48
   2  -8   0   85.33    4.48
   2  -8   0   84.92    3.57
  -2  -8   0   84.68    4.48
   2   8   1  170.13    8.00
  -2   8  -1  162.65    7.99
   2  -8   1  161.51    6.52
  -2  -8  -1  167.49    8.03
   2  -8   1  164.82    7.99
   2   8   2  108.79    5.62
  -2   8  -2  102.60    5.63
   2  -8   2  113.58    5.65
  -2  -8  -2  120.02    5.78
   2  -8   2  109.93    4.45
   2  -8   2  116.44    5.65
  -2   8  -3   58.80    3.22
   2   8   3   54.30    3.16
   2  -8   3   50.72    3.09
  -2  -8  -3   55.66    3.26
  -2   8  -4    4.63    0.95
   2   8   4    3.94    0.90
   2   8   4    3.11    0.58
  -2  -8  -4    3.59    0.97
  -2   8  -5    3.82    1.19
  -2   8  -5    4.79    0.91
   2   8   5    4.54    0.65
  -2  -8  -5    4.11    1.08
  -2   8  -6   32.38    3.08
  -2   8  -6   28.76    2.13
  -2  -8  -6   30.37    2.33
  -2   8  -7   72.93    4.01
  -2  -8  -7   69.96    4.13
  -2   8  -8   37.35    2.55
  -2  -8  -8   40.47    2.85
  -2   8  -9   47.73    2.95
  -2  -8  -9   44.69    3.27
  -2   8 -10    4.84    1.01
  -2   8 -10    3.87    1.08
  -2  -8 -10    2.02    1.30
  -2   8 -11    3.15    1.01
  -2   8 -11    1.86    0.82
  -2  -8 -11    0.13    1.32
  -2   8 -12    6.63    1.24
  -2  -8 -12    3.30    1.67
  -2  -8 -13   20.19    2.64
   2  -9 -13   31.80    2.92
   2  -9 -12    5.94    1.47
   2   9 -11    2.05    0.71
  -2   9  11    1.34    0.69
   2  -9 -11    0.97    1.22
  -2   9  10    8.16    1.14
   2   9 -10    7.38    1.13
   2  -9 -10    9.16    1.61
   2   9  -9   40.21    2.73
  -2   9   9   41.78    2.42
   2  -9  -9   44.35    3.09
  -2   9   8   29.01    1.90
   2   9  -8   27.19    2.21
   2  -9  -8   30.01    2.50
   2   9  -7   65.61    4.02
  -2   9   7   75.67    3.54
   2  -9  -7   77.79    4.34
   2   9  -6   10.01    1.41
  -2   9   6    9.44    1.15
   2  -9  -6    7.05    1.38
  -2   9   5    2.25    1.01
   2   9  -5    4.62    1.07
   2  -9  -5    3.28    1.15
   2   9  -4    5.88    1.11
  -2   9   4    8.10    1.20
   2  -9  -4    7.26    1.36
   2   9  -3   93.85    4.75
  -2   9   3   85.60    4.68
  -2  -9   3   84.77    4.66
   2  -9  -3   86.04    4.77
   2   9  -2   79.19    4.30
  -2   9   2   81.13    4.30
  -2  -9   2   80.02    3.25
  -2  -9   2   77.24    4.27
   2  -9  -2   74.06    4.33
   2   9  -1  135.66    6.43
  -2   9   1  125.23    6.41
   2  -9  -1  121.84    6.41
  -2  -9   1  123.74    6.40
  -2   9   0   25.92    2.14
   2   9   0   28.94    2.17
  -2  -9   0   31.35    2.37
   2  -9   0   30.48    2.31
   2  -9   0   29.02    1.59
  -2   9  -1    5.64    1.19
   2   9   1    4.76    1.03
   2  -9   1    4.72    0.65
   2  -9   1    4.15    1.01
  -2  -9  -1    2.71    1.06
   2  -9   1    4.59    1.05
  -2   9  -2   13.42    1.57
   2   9   2   15.78    1.68
   2  -9   2   14.46    1.58
   2  -9   2   12.13    1.42
  -2  -9  -2   12.99    1.63
   2  -9   2   13.06    0.90
   2   9   3   46.11    2.92
  -2   9  -3   51.00    3.05
   2  -9   3   47.04    2.88
  -2  -9  -3   43.09    3.01
   2   9   4   32.83    1.80
  -2   9  -4   32.23    2.28
   2   9   4   31.40    2.31
  -2  -9  -4   32.09    2.48
  -2   9  -5   93.30    5.13
  -2  -9  -5  102.61    5.36
  -2   9  -6   19.75    1.73
  -2  -9  -6   19.46    2.07
  -2   9  -7    3.62    0.97
  -2  -9  -7    4.43    1.33
  -2   9  -8    0.48    0.74
  -2  -9  -8   -0.31    1.13
  -2   9  -9   19.44    1.88
  -2  -9  -9   17.67    2.25
  -2   9 -10   16.67    1.79
  -2   9 -10   16.25    1.89
  -2  -9 -10   14.08    2.14
  -2   9 -11   41.56    2.82
  -2   9 -11   42.94    2.98
  -2  -9 -11   41.67    3.56
  -2  -9 -12    5.23    1.90
   2 -10 -13   -0.52    1.31
   2 -10 -12   32.16    2.93
   2  10 -11    8.20    1.24
   2 -10 -11    7.62    1.75
   2  10 -10   55.26    3.34
  -2  10  10   52.34    3.01
   2 -10 -10   53.26    3.71
  -2  10   9    1.14    0.74
   2  10  -9    2.79    0.98
   2 -10  -9    1.16    1.21
   2  10  -8    0.90    0.96
  -2  10   8    2.11    0.75
   2 -10  -8    1.97    1.16
   2  10  -7    3.58    1.11
  -2  10   7    3.21    0.86
   2 -10  -7    3.42    1.30
   2  10  -6   65.64    3.96
  -2  10   6   64.90    3.39
   2 -10  -6   67.78    4.06
   2  10  -5    3.95    1.22
   2 -10  -5    4.92    1.36
  -2  10   4  112.63    6.09
   2  10  -4  122.10    6.21
   2 -10  -4  120.28    6.29
   2  10  -3    3.94    1.08
  -2  10   3    5.20    1.14
  -2 -10   3    6.55    1.25
   2 -10  -3    4.63    1.23
  -2  10   2    3.77    1.13
   2  10  -2    0.59    0.89
   2 -10  -2    3.24    1.22
  -2 -10   2    2.88    1.00
  -2 -10   2    2.88    0.51
   2  10  -1    2.39    0.98
  -2  10   1    3.96    1.07
  -2 -10   1    1.54    1.07
   2 -10  -1    2.87    1.19
   2  10   0   52.81    3.25
  -2  10   0   52.22    3.27
   2 -10   0   48.16    2.42
   2 -10   0   49.72    3.22
  -2 -10   0   54.34    3.44
  -2  10  -1    7.80    1.43
   2  10   1   11.42    1.56
   2 -10   1    8.43    1.33
   2 -10   1    8.14    1.33
   2 -10   1    9.60    0.88
  -2 -10  -1    8.29    1.55
   2  10   2  125.01    6.49
  -2  10  -2  130.68    6.57
   2 -10   2  123.45    4.98
   2 -10   2  125.37    6.46
  -2 -10  -2  128.97    6.59
   2 -10   2  120.25    6.36
   2  10   3    4.38    1.12
  -2  10  -3    2.93    1.08
  -2 -10  -3    2.21    1.15
  -2  10  -4   13.44    1.68
   2  10   4   14.04    1.71
  -2 -10  -4   13.24    1.80
  -2  10  -5    0.17    0.70
  -2 -10  -5    0.78    1.14
  -2  10  -6   61.34    3.67
  -2 -10  -6   57.02    3.85
  -2  10  -7    7.57    1.31
  -2 -10  -7    6.30    1.53
  -2  10  -8   78.89    4.36
  -2 -10  -8   65.61    4.47
  -2  10  -9    5.46    1.24
  -2 -10  -9    1.56    1.53
  -2  10 -10    5.54    1.17
  -2 -10 -10    2.66    1.64
  -2  10 -11    2.09    0.86
  -2  10 -11    0.37    0.94
  -2 -10 -11   -1.37    1.46
   2 -11 -12    1.60    1.45
   2  11 -11    2.43    0.89
   2 -11 -11   -0.11    1.39
   2  11 -10    2.27    0.89
   2 -11 -10    0.51    1.34
  -2  11   9   28.85    2.12
   2  11  -9   28.64    2.44
   2 -11  -9   32.43    2.96
   2  11  -8   -0.03    0.94
  -2  11   8    1.07    0.73
   2 -11  -8    0.84    1.31
   2  11  -7   65.65    4.25
  -2  11   7   73.98    3.74
   2 -11  -7   76.07    4.61
  -2  11   6    0.05    0.69
   2  11  -6   -0.06    0.87
   2 -11  -6    1.77    1.17
   2  11  -5    3.92    1.29
   2 -11  -5    5.36    1.51
  -2  11   4    0.69    0.97
   2  11  -4    0.54    1.03
   2 -11  -4   -0.58    1.16
  -2  11   3   88.56    4.84
   2  11  -3   82.42    4.82
   2 -11  -3   85.29    5.02
   2  11  -2    2.52    1.09
  -2  11   2   -0.07    0.96
  -2 -11   2   -0.25    0.97
  -2 -11   2    0.73    0.39
   2 -11  -2    0.58    1.05
   2  11  -1   96.07    5.59
  -2  11   1  107.38    5.70
   2 -11  -1  100.01    5.68
   2 -11  -1  107.40    4.53
  -2 -11   1  106.15    4.39
  -2 -11   1  109.04    5.74
  -2  11   0    0.05    0.92
   2  11   0    1.52    1.00
   2 -11   0    0.68    0.55
  -2 -11   0    0.77    1.06
   2 -11   0    0.03    0.98
  -2  11  -1    5.94    1.35
   2  11   1    6.07    1.34
   2 -11   1    5.45    1.34
   2 -11   1    7.33    0.79
  -2 -11  -1    4.91    1.47
   2 -11   1    6.60    1.26
   2  11   2   -0.24    0.90
  -2  11  -2   -0.78    0.88
   2 -11   2   -0.05    0.75
  -2 -11  -2   -2.22    0.92
   2 -11   2    0.27    0.87
  -2  11  -3   54.94    3.54
   2  11   3   54.84    3.62
  -2 -11  -3   58.43    3.89
  -2  11  -4    0.87    0.90
  -2 -11  -4    0.74    1.17
  -2  11  -5   84.67    4.76
  -2 -11  -5   79.20    4.96
  -2  11  -6    0.30    0.81
  -2 -11  -6   -0.49    1.15
  -2  11  -7    7.58    1.36
  -2 -11  -7    5.14    1.58
  -2  11  -8    0.02    0.84
  -2 -11  -8    0.49    1.48
  -2  11  -9   16.33    1.93
  -2 -11  -9   13.37    2.25
  -2  11 -10    1.16    0.85
  -2 -11 -10   -2.07    1.42
  -2  11 -11   42.67    2.95
  -2 -11 -11   34.81    3.91
   2  12 -11    8.06    1.28
   2 -12 -11    5.47    1.82
   2  12 -10   28.10    2.31
   2 -12 -10   22.88    2.76
   2  12  -9    6.17    1.29
   2 -12  -9    4.27    1.55
   2  12  -8    1.45    1.13
  -2  12   8    2.19    0.90
   2 -12  -8    1.20    1.49
  -2  12   7    0.86    0.82
   2  12  -7   -1.21    1.00
   2 -12  -7   -0.24    1.17
   2  12  -6   30.70    2.79
  -2  12   6   33.69    2.38
   2 -12  -6   37.87    3.23
   2  12  -5    6.51    1.55
   2 -12  -5    7.03    1.68
   2  12  -4   66.05    4.13
   2 -12  -4   65.46    4.28
  -2  12   3    2.47    1.21
   2  12  -3    1.78    1.31
   2 -12  -3    1.40    1.21
   2  12  -2    3.35    1.32
  -2  12   2    5.35    1.36
  -2 -12   2    7.05    0.61
   2 -12  -2    4.30    1.40
  -2 -12   2    5.22    1.46
  -2  12   1    0.90    1.02
   2  12  -1   -0.20    1.12
   2 -12  -1    1.28    1.20
  -2 -12   1    1.78    1.27
  -2 -12   1    0.24    0.47
   2 -12  -1    0.51    0.60
   2  12   0   41.71    3.33
  -2  12   0   51.55    3.36
   2 -12   0   45.98    3.21
   2 -12   0   46.58    2.35
  -2 -12   0   43.65    3.41
   2  12   1    5.51    1.52
  -2  12  -1    4.03    1.31
   2 -12   1    5.35    1.35
   2 -12   1    7.79    0.81
  -2 -12  -1    4.43    1.55
   2 -12   1    8.38    1.42
  -2  12  -2   73.95    4.60
   2  12   2   80.82    4.77
  -2 -12  -2   81.93    4.88
   2  12   3    1.84    1.11
  -2  12  -3    1.63    1.06
  -2 -12  -3    1.68    1.39
  -2  12  -4    6.13    1.39
  -2 -12  -4    4.20    1.56
  -2  12  -5    0.54    0.94
  -2 -12  -5    1.92    1.59
  -2  12  -6   29.97    2.55
  -2 -12  -6   28.56    3.07
  -2  12  -7    8.92    1.54
  -2 -12  -7    4.95    1.90
  -2 -12  -8   38.92    3.63
  -2  12  -9    2.30    1.07
  -2 -12  -9    0.70    1.66
  -2  12 -10    5.73    1.32
   2  13 -10    5.83    1.22
   2 -13 -10    2.86    1.67
   2  13  -9   23.87    2.22
   2 -13  -9   14.32    2.37
   2  13  -8   15.94    2.05
   2 -13  -8   13.16    2.26
   2  13  -7   31.30    2.88
  -2  13   7   29.71    2.31
   2 -13  -7   29.25    3.14
  -2  13   6    7.15    1.29
   2  13  -6    7.00    1.64
   2 -13  -6    6.52    1.83
   2  13  -5    1.96    1.26
   2 -13  -5    3.50    1.66
   2  13  -4   -0.47    1.25
   2 -13  -4    0.08    1.29
  -2  13   3   27.73    2.61
   2  13  -3   20.52    2.40
   2 -13  -3   22.37    2.65
   2  13  -2   19.01    2.36
  -2  13   2   20.55    2.42
   2 -13  -2   18.31    1.63
   2 -13  -2   21.07    2.45
  -2  13   1   38.00    3.20
   2  13  -1   38.38    3.30
  -2 -13   1   37.87    3.28
   2 -13  -1   42.36    3.25
  -2 -13   1   40.97    2.03
   2 -13  -1   41.32    2.29
  -2  13   0   14.07    2.04
   2  13   0   15.42    2.18
   2 -13   0   15.96    1.97
  -2 -13   0   14.91    1.32
  -2 -13   0   13.34    2.01
   2 -13   0   14.10    2.13
   2 -13   0   12.93    1.17
   2  13   1    3.54    1.42
  -2  13  -1    4.78    1.38
   2 -13   1    7.35    1.41
   2 -13   1    6.27    0.73
   2 -13   1    4.26    1.38
  -2 -13  -1    7.18    1.67
   2  13   2    0.47    1.31
  -2  13  -2    3.19    1.17
  -2 -13  -2    3.53    1.49
   2  13   3   24.68    2.59
  -2  13  -3   17.50    2.13
  -2 -13  -3   23.55    2.65
  -2  13  -4   22.50    2.16
  -2 -13  -4   16.93    2.60
  -2  13  -5   32.22    2.81
  -2 -13  -5   32.00    3.33
  -2  13  -6    7.63    1.50
  -2 -13  -6    5.55    1.76
  -2  13  -7    4.61    1.31
  -2 -13  -7    3.26    1.73
  -2  13  -8    2.12    1.08
  -2 -13  -8    1.14    1.70
   2  14  -8    2.51    1.13
   2 -14  -8    0.12    1.53
   2  14  -7    5.04    1.51
   2 -14  -7    3.92    1.91
   2  14  -6   12.97    2.07
   2 -14  -6   13.97    2.35
  -2  14   5   19.99    2.08
   2  14  -5   21.45    2.56
   2 -14  -5   25.06    2.90
   2  14  -4   18.32    2.48
   2 -14  -4   16.04    2.35
   2  14  -3   11.06    2.06
   2 -14  -3   10.96    1.97
   2  14  -2    0.17    1.41
  -2  14   2    3.92    1.37
   2 -14  -2    2.28    1.32
   2 -14  -2    1.08    0.78
  -2  14   1    2.20    1.31
   2  14  -1    2.83    1.56
   2 -14  -1    3.94    1.32
   2 -14  -1    1.03    1.43
   2  14   0   12.84    2.06
  -2  14   0   12.36    1.87
  -2 -14   0    9.08    1.92
   2 -14   0   13.45    2.15
   2 -14   0   14.21    1.94
  -2  14  -1   24.16    2.65
   2  14   1   20.62    2.62
  -2 -14  -1   26.35    2.97
  -2  14  -2   15.43    2.06
   2  14   2   13.94    2.18
  -2 -14  -2   11.71    2.29
  -2  14  -3   12.01    1.84
  -2 -14  -3   13.88    2.39
  -2  14  -4    3.41    1.21
  -2 -14  -4    1.67    1.70
  -2  14  -5    1.93    1.00
  -2 -14  -5   -0.87    1.43
  -2  14  -6    8.67    1.63
  -2 -14  -6    6.46    1.92
  -2  14  -7   18.80    2.34
  -2 -14  -7   19.57    2.80
   2  15  -6   11.74    2.06
   2 -15  -6    7.48    1.92
   2  15  -5    1.47    1.41
   2 -15  -5    1.69    1.59
   2  15  -4    4.20    1.53
   2 -15  -4    4.85    1.63
   2  15  -3    1.32    1.52
   2 -15  -3    4.13    1.44
  -2  15   2   26.66    2.52
   2  15  -2   22.79    2.88
   2 -15  -2   23.68    2.92
   2 -15  -2   30.46    2.78
   2  15  -1    1.38    1.52
  -2  15   1    5.57    1.44
   2 -15  -1    5.56    1.39
   2 -15  -1    3.28    1.78
  -2  15   0   10.11    1.78
   2  15   0   13.90    2.25
   2  15   1    1.74    1.40
  -2  15  -1    3.38    1.25
  -2 -15  -1   -1.86    1.25
  -2  15  -2    3.94    1.28
   2  15   2   -0.13    1.30
  -2 -15  -2    1.99    1.82
  -2  15  -3    4.97    1.28
  -2 -15  -3    5.92    1.94
  -2  15  -4   25.61    2.47
  -2 -15  -4   19.42    2.91
  -2  15  -5    5.97    1.40
  -2 -15  -5    2.22    1.90
   2  16  -3   12.41    2.15
   2 -16  -3    7.62    2.33
   2  16  -2    1.89    1.58
   2 -16  -2   -2.92    1.28
   2  16  -1    1.99    1.62
  -2  16   1    7.59    1.37
   2 -16  -1    2.71    1.79
   2  16   0    0.34    1.33
   2  16   1   21.89    2.94
  -2  16  -1   35.57    2.81
  -2 -16  -1   22.91    3.29
  -2  16  -2    6.48    1.26
  -2 -16  -2    1.70    1.56
  -3   0  15    1.64    0.87
  -3   0  14   69.21    3.64
  -3   0  13    0.07    0.61
   3   0 -12   99.21    4.36
  -3   0  12   92.61    4.44
   3   0 -11    0.01    0.17
  -3   0  11   -0.38    0.41
  -3   0  10    0.74    0.48
   3   0  -9    0.25    0.45
  -3   0   9   -0.07    0.38
   3   0  -8  262.68   15.74
  -3   0   8  281.54   10.72
   3   0  -7   -0.25    0.26
  -3   0   7   -0.53    0.28
  -3   0   6  205.53    8.54
   3   0  -6  220.65   12.59
   3   0  -6  227.61    9.64
   3   0  -5    0.13    0.15
  -3   0   5   -0.34    0.24
   3   0  -5    0.18    0.23
  -3   0   4  108.78    4.37
   3   0  -4  108.13    6.34
   3   0  -4  112.15    4.94
  -3   0   3   -0.14    0.17
   3   0  -3   -0.24    0.16
   3   0  -2  651.92   29.75
  -3   0   2  692.37   25.53
   3   0  -1   -0.18    0.17
   3   0  -1   -1.04    0.22
  -3   0   1   -0.88    0.17
   3   0  -1   -0.76    0.21
  -3   0   1   -0.05    0.24
  -3   0   1   -0.75    0.20
   3   0   0  636.38   29.82
   3   0   0  644.56   38.39
  -3   0   0  712.34   30.10
  -3   0   0  712.18   29.54
  -3   0  -1   -0.21    0.30
  -3   0  -1    0.01    0.21
   3   0   1    0.11    0.29
   3   0   1   -0.28    0.22
  -3   0  -1    0.09    0.21
  -3   0  -2   33.86    2.22
   3   0   2   29.40    2.14
  -3   0  -2   27.28    1.61
  -3   0  -2   29.77    1.59
   3   0   2   32.36    1.64
  -3   0  -3    0.11    0.47
  -3   0  -3   -0.10    0.26
   3   0   3   -0.33    0.26
  -3   0  -3   -0.07    0.28
  -3   0  -4  264.48   11.81
   3   0   4  279.13   11.78
  -3   0  -4  244.34   11.57
   3   0   4  268.21   10.10
  -3   0  -4  252.76   15.35
  -3   0  -5   -0.46    0.27
   3   0   5    0.28    0.27
   3   0   5   -0.01    0.26
  -3   0  -5   -0.08    0.30
  -3   0  -5   -0.70    0.45
  -3   0  -6  235.25   14.39
  -3   0  -6  226.78   10.76
  -3   0  -6  262.68   11.01
   3   0   6  238.71    9.45
  -3   0  -7    0.29    0.40
  -3   0  -7   -0.09    0.37
   3   0   7   -0.26    0.36
  -3   0  -8   12.15    1.05
  -3   0  -8   12.13    1.07
   3   0   8   11.25    1.06
  -3   0  -9   -0.24    0.42
  -3   0  -9    0.27    0.44
  -3   0 -10  112.24    5.36
  -3   0 -10  106.78    5.40
  -3   0 -11   -1.05    0.44
  -3   0 -11   -0.66    0.44
  -3   0 -12   84.29    4.41
  -3   0 -13   -0.35    0.56
  -3   1  15   37.26    2.52
  -3  -1  15   38.90    2.62
  -3   1  14    1.21    0.70
  -3  -1  14    1.67    0.89
  -3   1  13    0.31    0.63
  -3  -1  13    0.65    0.64
   3   1 -12    9.18    0.61
  -3   1  12    9.64    1.18
  -3  -1  12    8.15    1.05
   3   1 -11  147.89    6.31
  -3   1  11  143.09    6.14
  -3  -1  11  137.64    6.12
  -3   1  10    7.02    0.92
   3   1 -10    6.41    1.05
  -3  -1  10    6.89    0.86
  -3   1   9  162.36    6.96
   3   1  -9  176.98   10.24
   3  -1  -9  167.57    7.65
  -3  -1   9  177.06    7.03
  -3   1   8    8.37    0.81
   3   1  -8    6.89    0.91
  -3  -1   8    7.60    0.79
   3  -1  -8    7.44    0.42
   3  -1  -8    8.02    0.61
   3   1  -7   11.53    1.06
  -3   1   7   10.32    0.81
  -3  -1   7   10.36    0.85
   3  -1  -7   11.26    0.70
   3  -1  -7   10.89    0.54
  -3   1   6    6.10    0.61
   3   1  -6    6.28    0.36
   3   1  -6    5.35    0.70
  -3  -1   6    6.72    0.65
   3  -1  -6    7.12    0.54
   3  -1  -6    6.29    0.34
  -3   1   5  246.02   10.00
   3   1  -5  272.43   11.41
  -3  -1   5  243.79    9.99
   3  -1  -5  266.46   11.48
   3  -1  -5  261.33   11.20
   3   1  -4  141.37    6.43
  -3   1   4  135.71    5.66
  -3  -1   4  145.73    5.66
   3  -1  -4  144.60    6.48
   3  -1  -4  151.90    6.49
  -3   1   3  444.28   16.93
   3   1  -3  468.67   19.66
  -3  -1   3  434.09   16.90
   3  -1  -3  434.26   19.69
   3   1  -2   37.56    1.79
  -3   1   2   34.58    2.16
   3  -1  -2   37.21    1.82
  -3  -1   2   38.06    1.51
   3   1  -1   18.35    1.05
  -3   1   1   18.32    1.05
  -3   1   1   18.26    1.28
   3  -1  -1   21.21    1.30
   3  -1  -1   19.16    0.88
  -3  -1   1   19.54    0.79
   3  -1  -1   18.95    1.08
  -3  -1   1   16.75    1.04
  -3  -1   1   18.64    0.84
   3   1   0   33.20    1.78
  -3   1   0   35.61    2.27
  -3   1   0   29.96    1.72
  -3   1   0   39.19    1.82
   3  -1   0   39.50    2.30
  -3  -1   0   34.52    1.77
   3  -1   0   35.71    1.80
  -3   1  -1  640.58   35.44
  -3   1  -1  636.20   27.00
   3   1   1  626.47   27.49
  -3   1  -1  641.61   27.51
   3  -1   1  580.29   27.48
  -3  -1  -1  653.35   27.00
  -3  -1  -1  583.25   27.48
   3  -1   1  613.46   35.42
   3   1   2  264.77   11.92
   3   1   2  260.80   10.10
   3   1   2  287.60   15.45
  -3   1  -2  283.60   11.73
   3  -1   2  259.71   15.41
  -3  -1  -2  293.90   11.73
  -3  -1  -2  224.35   11.89
   3  -1   2  251.81   11.90
   3   1   3  354.05   15.16
   3   1   3  334.39   12.90
  -3   1  -3  333.82   14.88
  -3   1  -3  294.04   15.13
   3  -1   3  345.77   15.14
  -3  -1  -3  345.30   15.18
  -3  -1  -3  365.95   14.90
   3   1   4   28.00    1.27
   3   1   4   27.50    1.51
  -3   1  -4   21.65    1.50
  -3   1  -4   31.02    2.20
  -3   1  -4   26.73    1.51
   3  -1   4   26.65    1.49
  -3  -1  -4   28.98    1.52
  -3  -1  -4   28.02    1.56
  -3   1  -5   28.88    1.63
   3   1   5   27.70    1.55
  -3   1  -5   26.20    1.56
  -3   1  -5   30.68    2.32
   3   1   5   26.92    1.35
  -3  -1  -5   29.05    1.60
  -3  -1  -5   24.86    1.58
   3  -1   5   29.19    1.55
  -3   1  -6   18.76    1.31
   3   1   6   22.12    1.17
  -3   1  -6   19.00    1.30
  -3   1  -6   18.45    1.88
  -3  -1  -6   21.76    1.35
  -3  -1  -6   19.58    1.29
   3   1   7  165.17    6.71
  -3   1  -7  145.49   10.23
  -3   1  -7  172.87    7.79
  -3   1  -7  171.03    7.67
  -3  -1  -7  182.29    7.69
  -3  -1  -7  162.82    7.78
   3   1   8   11.63    1.00
  -3   1  -8   11.81    1.02
  -3   1  -8    9.73    1.63
  -3   1  -8   10.02    0.99
  -3  -1  -8   10.43    1.03
  -3  -1  -8   10.49    1.01
  -3   1  -9  179.30    8.33
   3   1   9  175.53    7.37
  -3   1  -9  199.93   11.46
  -3   1  -9  179.38    8.45
  -3  -1  -9  181.39    8.48
  -3  -1  -9  168.46    8.30
   3   1  10    2.73    0.67
  -3   1 -10    5.07    0.80
  -3   1 -10    4.27    0.74
  -3  -1 -10    3.31    0.71
  -3  -1 -10    3.79    0.77
  -3   1 -11    5.02    0.85
  -3   1 -11    4.65    0.85
  -3  -1 -11    4.00    0.82
  -3  -1 -11    4.10    0.82
  -3   1 -12    0.21    0.57
  -3  -1 -12   -0.09    0.54
  -3   1 -13   47.31    2.85
  -3   1 -14    3.84    0.94
  -3   2  15    5.89    1.09
  -3  -2  15    4.27    1.17
  -3   2  14   48.30    2.81
  -3  -2  14   46.64    2.90
  -3   2  13   47.14    2.74
  -3  -2  13   54.09    2.94
   3   2 -12   65.03    3.01
  -3   2  12   63.84    3.26
  -3  -2  12   65.01    3.34
  -3   2  11   17.95    1.40
  -3  -2  11   16.98    1.37
  -3   2  10   -1.33    0.40
   3   2 -10   -0.26    0.49
  -3  -2  10    0.37    0.48
  -3   2   9   20.24    1.29
   3   2  -9   19.65    1.75
  -3  -2   9   17.60    1.34
   3  -2  -9   18.87    1.21
   3   2  -8  204.22    8.95
  -3   2   8  213.78   11.78
   3   2  -8  191.92   11.90
  -3   2   8  197.35    8.07
  -3  -2   8  200.54    8.10
   3  -2  -8  199.96    9.09
   3   2  -7  200.87   12.30
  -3   2   7  216.76    8.34
  -3   2   7  210.78   12.14
   3  -2  -7  204.54    9.44
  -3  -2   7  217.80    8.35
   3   2  -6  172.25    7.78
  -3   2   6  176.02   10.07
  -3   2   6  180.30    6.94
  -3  -2   6  169.19    6.92
   3  -2  -6  174.72    7.88
  -3   2   5   52.10    3.23
   3   2  -5   55.94    2.55
  -3   2   5   56.01    2.40
  -3  -2   5   54.98    2.38
   3  -2  -5   54.35    2.65
   3   2  -4    0.47    0.21
  -3   2   4    0.75    0.28
   3  -2  -4    0.85    0.36
  -3  -2   4    1.33    0.32
  -3   2   3  237.08    8.97
   3   2  -3  235.43   10.35
  -3  -2   3  226.03    8.90
   3  -2  -3  230.05   10.41
  -3   2   2  410.69   17.50
   3   2  -2  390.22   17.48
  -3  -2   2  391.33   14.93
   3  -2  -2  385.00   17.51
  -3   2   1   24.64    1.34
   3   2  -1   27.39    1.38
  -3   2   1   24.78    1.69
  -3   2   1   26.33    1.39
  -3  -2   1   24.17    1.35
   3  -2  -1   26.93    1.15
   3  -2  -1   25.54    1.40
  -3   2   0  364.83   15.50
  -3   2   0  365.77   15.80
   3   2   0  356.78   15.79
  -3   2   0  347.15   20.29
   3  -2   0  375.51   15.81
   3  -2   0  344.40   13.33
  -3  -2   0  327.29   15.76
   3   2   1   69.20    3.29
  -3   2  -1   74.33    3.32
  -3   2  -1   58.10    4.21
   3   2   1   68.94    2.63
  -3   2  -1   69.23    3.23
  -3  -2  -1   73.04    3.31
   3  -2   1   68.68    3.30
   3   2   2    8.88    0.48
  -3   2  -2    8.10    1.03
   3   2   2    8.79    0.73
  -3   2  -2   10.78    0.80
  -3   2  -2    8.62    0.71
   3  -2   2    9.92    0.73
  -3  -2  -2    7.97    0.74
  -3  -2  -2    9.48    0.76
   3   2   3    7.57    0.68
  -3   2  -3    8.67    1.04
  -3   2  -3    7.88    0.75
  -3   2  -3    9.25    0.74
   3   2   3    8.51    0.51
  -3  -2  -3    9.34    0.74
   3  -2   3    7.78    0.71
  -3  -2  -3    8.32    0.72
  -3   2  -4  175.67   10.82
   3   2   4  174.09    7.00
   3   2   4  184.82    8.26
  -3   2  -4  172.06    8.12
   3  -2   4  184.84    8.25
  -3  -2  -4  181.32    8.14
  -3  -2  -4  193.16    8.33
   3   2   5  144.66    6.68
  -3   2  -5  143.33    6.60
  -3   2  -5  158.76    8.94
  -3   2  -5  147.12    6.75
   3   2   5  137.79    5.69
  -3  -2  -5  135.73    6.59
   3  -2   5  143.81    6.65
  -3  -2  -5  144.77    6.75
  -3   2  -6  191.87   12.30
  -3   2  -6  186.67    9.32
  -3   2  -6  224.07    9.22
   3   2   6  194.98    7.98
  -3  -2  -6  216.16    9.22
  -3  -2  -6  205.88    9.38
  -3   2  -7   52.57    2.75
   3   2   7   55.98    2.42
  -3   2  -7   48.85    3.87
  -3   2  -7   50.13    2.78
  -3  -2  -7   49.93    2.74
  -3  -2  -7   56.70    2.86
   3   2   8   12.06    0.96
  -3   2  -8    7.90    0.96
  -3   2  -8   13.69    1.68
  -3   2  -8   11.08    1.03
  -3  -2  -8   11.56    1.07
  -3  -2  -8   10.82    1.04
  -3   2  -9    9.54    1.07
  -3   2  -9   11.33    1.80
   3   2   9   10.98    1.02
  -3   2  -9    9.99    1.00
  -3  -2  -9   10.23    1.09
  -3  -2  -9    9.44    1.09
  -3   2 -10   74.06    3.87
  -3   2 -10   73.82    3.85
  -3  -2 -10   74.42    3.93
  -3   2 -11   47.62    2.75
  -3   2 -11   46.86    2.79
  -3  -2 -11   50.73    2.88
  -3   2 -12   61.58    3.43
  -3   2 -13   12.42    1.38
  -3   2 -14    1.15    0.70
  -3   3  15   19.85    1.91
  -3   3  14   15.83    1.63
  -3   3  13    0.51    0.57
   3   3 -13   -0.47    0.30
  -3  -3  13    0.25    0.77
  -3   3  12   41.26    2.33
  -3  -3  12   39.03    2.45
  -3   3  11   53.38    2.76
  -3  -3  11   53.31    2.84
   3   3 -10  115.42    7.21
  -3   3  10  108.51    4.91
  -3  -3  10  117.65    5.03
   3  -3 -10  113.22    5.39
  -3   3   9   80.98    3.56
   3   3  -9   81.85    5.18
   3   3  -9   75.64    3.65
  -3  -3   9   78.94    3.61
   3  -3  -9   77.87    3.85
   3   3  -8   72.62    4.83
   3   3  -8   74.92    3.51
  -3   3   8   73.36    3.33
  -3  -3   8   77.78    3.38
   3  -3  -8   73.99    3.65
   3   3  -7    4.70    0.83
   3   3  -7    5.61    0.57
  -3   3   7    4.84    0.65
  -3   3   7    5.66    0.68
  -3  -3   7    4.27    0.64
   3  -3  -7    5.22    0.65
   3   3  -6   49.38    2.39
  -3   3   6   48.31    3.04
  -3   3   6   49.36    2.25
   3  -3  -6   50.30    2.52
  -3  -3   6   48.62    2.26
   3   3  -5  163.35    7.22
  -3   3   5  159.54    6.35
  -3  -3   5  153.54    6.32
   3  -3  -5  160.82    7.32
  -3   3   4  507.80   19.07
   3   3  -4  514.60   22.11
   3  -3  -4  481.35   22.18
  -3  -3   4  492.85   19.02
  -3   3   3  188.58    8.34
   3   3  -3  176.98    8.31
   3  -3  -3  187.13    8.40
  -3   3   2  166.89    7.34
  -3   3   2  165.24    7.18
   3   3  -2  149.70    7.30
  -3  -3   2  155.62    7.30
   3  -3  -2  164.79    7.38
  -3  -3   2  163.46    6.06
  -3   3   1    1.61    0.38
   3   3  -1    2.22    0.41
  -3  -3   1    2.28    0.39
   3  -3  -1    2.15    0.44
   3   3   0   77.33    3.55
  -3   3   0   74.54    3.54
  -3  -3   0   74.79    3.53
   3  -3   0   70.41    2.94
   3  -3   0   70.42    3.54
  -3   3  -1  177.53    7.80
  -3   3  -1  165.16   10.02
   3   3   1  168.53    6.47
   3   3   1  161.30    7.76
  -3  -3  -1  170.66    7.78
   3  -3   1  177.03    7.79
  -3   3  -2  358.14   18.64
   3   3   2  389.12   18.65
   3   3   2  436.65   15.82
  -3   3  -2  467.84   24.18
  -3  -3  -2  418.42   18.69
   3  -3   2  440.42   18.69
   3   3   3  104.10    4.93
  -3   3  -3  118.17    5.00
   3   3   3  105.87    4.08
  -3   3  -3   91.05    6.41
   3  -3   3  101.75    4.91
  -3  -3  -3  104.34    4.95
   3   3   4  101.40    3.94
  -3   3  -4   97.28    4.74
  -3   3  -4  102.52    6.29
  -3   3  -4  100.62    4.67
   3   3   4   98.84    4.72
   3  -3   4   99.79    4.69
  -3  -3  -4   91.92    4.73
  -3   3  -5   -0.05    0.36
   3   3   5    0.95    0.40
  -3   3  -5   -0.09    0.51
  -3   3  -5   -0.44    0.30
   3   3   5   -0.08    0.23
  -3  -3  -5   -0.29    0.36
  -3   3  -6   43.32    2.44
  -3   3  -6   45.91    2.51
  -3   3  -6   48.93    3.49
   3   3   6   46.10    2.08
  -3  -3  -6   44.82    2.52
  -3   3  -7   65.11    3.38
   3   3   7   65.09    2.91
  -3   3  -7   65.52    4.71
  -3   3  -7   72.00    3.48
  -3  -3  -7   63.73    3.45
   3   3   8  112.82    4.63
  -3   3  -8  112.06    5.40
  -3   3  -8  102.10    7.27
  -3   3  -8  105.71    5.28
  -3  -3  -8  116.07    5.46
  -3   3  -9   59.54    3.56
  -3   3  -9   75.88    3.70
  -3  -3  -9   73.73    3.74
  -3   3 -10   44.57    2.54
  -3   3 -10   41.86    2.56
  -3  -3 -10   42.66    2.62
  -3   3 -11    1.54    0.62
  -3   3 -11    0.81    0.58
  -3  -3 -11    0.24    0.64
  -3   3 -12    3.82    0.87
  -3  -3 -12    4.07    0.96
  -3   3 -13   20.05    1.74
  -3   4  15   21.47    1.86
  -3   4  14   13.33    1.50
  -3   4  13  113.71    5.23
  -3   4  12   16.56    1.38
  -3   4  11   20.16    1.47
   3  -4 -11   20.91    1.55
   3   4 -10    3.78    0.98
  -3   4  10    2.49    0.65
   3  -4 -10    2.80    0.74
  -3  -4  10    3.93    0.82
   3   4  -9   58.40    4.11
  -3   4   9   58.13    2.83
   3   4  -9   59.79    2.93
   3  -4  -9   58.31    3.13
  -3  -4   9   61.34    2.92
   3   4  -8   27.43    1.63
  -3   4   8   28.06    1.62
   3   4  -8   27.49    2.31
  -3  -4   8   30.29    1.72
   3  -4  -8   26.14    1.77
  -3   4   7  262.74   10.65
  -3   4   7  265.84   15.66
   3   4  -7  277.02   12.20
  -3  -4   7  274.94   10.70
   3  -4  -7  273.91   12.32
   3   4  -6   37.22    2.07
  -3   4   6   41.00    1.93
   3  -4  -6   40.69    2.20
   3   4  -5  168.96    7.35
  -3   4   5  155.82    6.41
  -3   4   5  155.50    7.31
   3  -4  -5  160.41    7.44
   3   4  -4    0.16    0.30
  -3   4   4    0.05    0.33
   3  -4  -4    0.57    0.51
   3   4  -3  150.28    6.74
  -3   4   3  146.03    6.75
   3  -4  -3  144.46    6.83
  -3  -4   3  143.63    6.73
  -3   4   2   47.98    2.47
   3   4  -2   47.29    2.43
   3  -4  -2   46.52    2.53
  -3  -4   2   48.03    2.45
  -3   4   1  654.84   28.64
   3   4  -1  682.34   28.65
  -3  -4   1  637.93   28.62
   3  -4  -1  641.16   28.69
   3  -4  -1  609.72   28.65
  -3   4   0  115.54    5.51
   3   4   0  116.65    5.51
   3  -4   0  123.16    5.57
  -3  -4   0  115.35    5.50
   3  -4   0  115.13    4.61
  -3   4  -1  250.91   11.29
   3   4   1  261.17   11.30
  -3  -4  -1  240.05   11.28
   3  -4   1  246.50   11.29
   3  -4   1  244.47    9.46
   3   4   2   -0.12    0.15
  -3   4  -2    0.18    0.35
  -3   4  -2    0.21    0.50
   3   4   2    0.31    0.33
  -3  -4  -2    0.22    0.35
   3  -4   2    0.30    0.35
   3   4   3   76.88    3.20
   3   4   3   77.31    3.92
  -3   4  -3   89.21    5.27
  -3  -4  -3   79.25    3.97
   3  -4   3   80.08    3.92
   3   4   4   73.14    2.89
   3   4   4   67.45    3.51
  -3   4  -4   61.54    3.50
  -3   4  -4   74.31    4.75
  -3  -4  -4   73.35    3.60
   3  -4   4   71.91    3.49
   3   4   5  327.05   14.29
  -3   4  -5  314.82   18.66
  -3   4  -5  315.55   14.32
   3   4   5  318.13   12.13
  -3  -4  -5  300.89   14.33
  -3   4  -6   35.72    2.17
  -3   4  -6   32.78    2.96
  -3   4  -6   43.22    2.26
   3   4   6   37.44    1.78
  -3  -4  -6   38.56    2.25
  -3   4  -7   78.64    3.96
  -3   4  -7   77.48    3.89
   3   4   7   80.17    3.33
  -3   4  -7   81.58    5.45
  -3  -4  -7   68.05    3.95
  -3   4  -8   -0.28    0.71
  -3   4  -8    0.12    0.49
  -3   4  -8    0.39    0.52
  -3  -4  -8    0.43    0.55
  -3   4  -9   16.18    1.39
  -3   4  -9   15.39    1.39
  -3  -4  -9   17.70    1.53
  -3   4 -10   18.86    1.58
  -3   4 -10   19.28    1.52
  -3  -4 -10   19.14    1.63
  -3   4 -11   81.79    4.24
  -3   4 -11   78.35    4.13
  -3  -4 -11   75.49    4.29
  -3   4 -12    9.56    1.27
  -3  -4 -12   11.60    1.48
  -3   4 -13   36.53    2.48
  -3   5  14   19.18    1.80
   3   5 -14   15.07    1.33
  -3   5  13   -0.29    0.58
  -3   5  12   36.73    2.23
  -3   5  11    2.07    0.65
   3   5 -11    1.69    0.93
   3  -5 -11    3.75    0.88
   3   5 -10  173.90   10.87
  -3   5  10  176.30    7.32
   3   5 -10  177.83    8.08
   3  -5 -10  174.17    8.31
   3   5  -9    0.75    0.71
  -3   5   9    0.76    0.46
   3   5  -9    1.13    0.53
   3  -5  -9   -0.18    0.63
   3   5  -8   86.68    4.35
  -3   5   8   94.25    3.96
   3  -5  -8   86.84    4.50
  -3   5   7    0.65    0.46
   3   5  -7   -0.03    0.49
   3  -5  -7    0.83    0.66
  -3   5   6   99.02    4.26
   3   5  -6  106.53    4.86
   3  -5  -6   95.99    4.93
   3   5  -5   15.79    1.14
  -3   5   5   15.14    1.05
  -3   5   5   14.33    1.09
  -3  -5   5   16.13    1.16
   3  -5  -5   13.70    1.27
  -3   5   4  539.36   23.87
   3   5  -4  556.91   23.87
   3  -5  -4  511.85   23.94
  -3  -5   4  532.64   23.84
   3   5  -3    8.43    0.79
  -3   5   3    8.24    0.88
  -3  -5   3    7.96    0.86
   3  -5  -3    7.91    0.96
  -3   5   2  145.28    6.25
   3   5  -2  130.52    6.17
   3  -5  -2  118.97    6.23
  -3  -5   2  130.81    6.19
  -3   5   1    9.23    1.02
   3   5  -1   11.39    0.93
  -3  -5   1   10.18    0.92
   3  -5  -1   10.38    1.09
  -3   5   0   82.08    4.21
   3   5   0   85.33    4.19
   3  -5   0   85.88    3.50
   3  -5   0   88.63    4.28
   3  -5   0   86.23    4.25
  -3   5  -1   21.05    1.44
   3   5   1   23.37    1.44
   3  -5   1   20.59    1.45
   3  -5   1   22.03    1.12
  -3  -5  -1   22.64    1.48
   3   5   2  365.89   13.48
  -3   5  -2  301.66   15.90
   3   5   2  368.36   15.96
  -3  -5  -2  362.05   15.99
   3  -5   2  367.46   15.97
  -3   5  -3    4.55    0.93
   3   5   3    3.90    0.41
   3   5   3    3.58    0.63
  -3   5  -3    4.48    0.72
   3  -5   3    3.87    0.61
  -3  -5  -3    4.28    0.74
   3   5   4  177.07    6.69
  -3   5  -4  161.57    8.01
  -3   5  -4  164.89   10.46
   3   5   4  169.47    7.99
   3  -5   4  174.82    7.97
  -3  -5  -4  176.91    8.07
  -3   5  -5    0.22    0.48
   3   5   5   -0.05    0.26
   3   5   5   -0.01    0.47
  -3   5  -5    0.42    0.64
  -3  -5  -5    0.40    0.49
   3   5   6   50.67    2.25
  -3   5  -6   51.17    3.87
  -3   5  -6   49.33    2.79
  -3  -5  -6   47.99    2.83
  -3   5  -7    1.07    0.56
  -3   5  -7    0.35    0.72
  -3   5  -7    1.54    0.63
  -3  -5  -7    1.36    0.59
  -3   5  -8  145.56    7.81
  -3   5  -8  178.74    7.81
  -3  -5  -8  170.42    7.99
  -3   5  -9    6.24    0.97
  -3   5  -9    5.40    0.92
  -3  -5  -9    7.02    1.10
  -3   5 -10   56.26    3.20
  -3   5 -10   56.42    3.17
  -3  -5 -10   52.74    3.28
  -3   5 -11   -0.16    0.61
  -3   5 -11    0.72    0.59
  -3  -5 -11   -0.47    0.79
  -3   5 -12    7.92    1.22
  -3  -5 -12    6.81    1.33
  -3   5 -13   -0.12    0.64
  -3   6  14    3.01    0.86
  -3   6  13   83.68    4.14
  -3   6  12    0.43    0.59
   3  -6 -12   -0.45    0.80
  -3   6  11   25.21    1.79
   3  -6 -11   28.70    2.09
  -3   6  10    0.49    0.54
   3   6 -10   -0.11    0.66
   3   6 -10    1.26    0.49
   3  -6 -10    0.19    0.76
  -3   6   9   48.32    2.39
   3   6  -9   44.92    2.54
   3   6  -9   38.58    3.40
   3  -6  -9   43.97    2.69
   3   6  -8    5.69    0.91
  -3   6   8    7.52    0.91
   3  -6  -8    8.02    1.13
  -3   6   7  267.13   10.77
   3   6  -7  276.58   12.40
   3  -6  -7  268.90   12.51
  -3   6   6    2.05    0.55
   3   6  -6    1.91    0.65
   3  -6  -6    1.45    0.69
  -3   6   5  132.19    5.25
   3   6  -5  118.71    5.94
  -3   6   5  122.23    5.94
   3  -6  -5  124.62    6.07
  -3   6   4    5.01    0.80
   3   6  -4    4.98    0.75
   3  -6  -4    4.89    0.87
  -3  -6   4    4.99    0.78
   3   6  -3  106.38    5.19
  -3   6   3  113.46    5.23
   3  -6  -3  105.29    5.27
  -3  -6   3  101.38    5.17
  -3   6   2    4.24    0.74
   3   6  -2    4.09    0.67
   3  -6  -2    3.94    0.78
  -3  -6   2    4.86    0.80
  -3   6   1  384.93   17.07
   3   6  -1  371.66   17.02
   3  -6  -1  384.09   17.10
  -3  -6   1  366.80   17.02
   3   6   0   19.07    1.34
  -3   6   0   18.26    1.38
   3  -6   0   15.82    1.34
   3  -6   0   17.87    1.40
  -3  -6   0   19.04    1.40
   3  -6   0   16.75    1.03
   3   6   1  136.09    6.22
  -3   6  -1  121.92    6.18
   3  -6   1  126.12    6.21
  -3  -6  -1  125.86    6.21
   3  -6   1  134.46    5.13
   3   6   2    2.45    0.61
  -3   6  -2    1.96    0.59
   3  -6   2    2.06    0.61
  -3  -6  -2    1.51    0.57
  -3   6  -3   35.89    2.85
   3   6   3   34.34    2.09
  -3   6  -3   32.95    2.09
   3   6   3   34.16    1.58
  -3  -6  -3   33.14    2.12
   3  -6   3   35.94    2.10
   3   6   4    6.16    0.57
   3   6   4    5.40    0.91
  -3   6  -4    3.71    1.05
  -3   6  -4    5.10    0.85
   3  -6   4    7.15    0.86
  -3  -6  -4    5.91    0.95
  -3   6  -5  305.37   13.64
  -3   6  -5  275.22   17.65
   3   6   5  290.10   11.44
   3   6   5  313.69   13.62
  -3  -6  -5  294.24   13.66
  -3   6  -6    2.47    0.71
  -3   6  -6    1.39    0.89
  -3  -6  -6    1.61    0.72
  -3   6  -7   60.60    4.89
  -3   6  -7   70.40    3.66
  -3  -6  -7   67.27    3.72
  -3   6  -8    0.87    0.66
  -3   6  -8    0.99    0.60
  -3  -6  -8    1.18    0.74
  -3   6  -9   13.04    1.42
  -3   6  -9   12.78    1.42
  -3  -6  -9   13.33    1.55
  -3   6 -10   -0.48    0.62
  -3   6 -10    0.14    0.60
  -3  -6 -10   -1.05    0.77
  -3   6 -11   68.34    3.93
  -3   6 -11   69.02    3.86
  -3  -6 -11   72.31    4.19
  -3   6 -12    0.55    0.73
  -3  -6 -12    1.05    1.07
  -3   6 -13   39.43    2.98
   3   7 -15    2.00    0.84
  -3   7  14    9.09    1.27
  -3   7  13    1.23    0.75
  -3   7  12   21.87    1.75
   3  -7 -12   22.63    2.07
  -3   7  11   12.97    1.36
   3  -7 -11   13.24    1.61
   3   7 -10   99.03    5.15
  -3   7  10  109.14    4.75
   3  -7 -10  104.78    5.43
   3   7  -9   25.97    1.89
   3   7  -9   26.14    2.63
  -3   7   9   28.77    1.77
   3  -7  -9   25.55    2.08
  -3   7   8   36.84    1.98
   3   7  -8   34.03    2.22
   3  -7  -8   29.48    2.31
  -3   7   7    1.04    0.52
   3   7  -7    0.66    0.69
   3  -7  -7   -0.06    0.77
  -3   7   6   53.76    2.70
   3   7  -6   57.52    3.09
   3  -7  -6   51.39    3.12
  -3   7   5   38.26    2.44
   3   7  -5   44.27    2.53
   3  -7  -5   42.23    2.60
   3   7  -4  261.46   11.65
  -3   7   4  242.90   11.61
   3  -7  -4  249.63   11.72
  -3  -7   4  251.32   11.58
  -3   7   3   30.27    1.94
   3   7  -3   26.16    1.80
  -3  -7   3   24.82    1.85
   3  -7  -3   25.36    1.93
   3   7  -2   74.79    3.78
  -3   7   2   67.94    3.81
   3  -7  -2   70.34    3.85
  -3  -7   2   74.07    3.80
   3   7  -1    2.99    0.77
  -3   7   1    4.05    0.89
  -3  -7   1    3.76    0.85
   3  -7  -1    3.12    0.80
  -3   7   0   38.96    2.45
   3   7   0   41.43    2.46
   3  -7   0   40.13    1.93
  -3  -7   0   39.20    2.46
   3  -7   0   41.45    2.51
   3  -7   0   45.72    2.53
   3   7   1   37.19    2.26
  -3   7  -1   37.82    2.31
  -3  -7  -1   37.17    2.30
   3  -7   1   37.14    2.28
   3  -7   1   34.49    2.23
   3  -7   1   37.08    1.75
  -3   7  -2  211.74   10.49
   3   7   2  237.07   10.56
  -3  -7  -2  227.09   10.58
   3  -7   2  226.29   10.54
   3   7   3   22.27    1.24
   3   7   3   24.49    1.75
  -3   7  -3   24.39    1.74
   3  -7   3   21.08    1.67
  -3  -7  -3   23.79    1.77
   3   7   4  124.03    5.08
   3   7   4  126.22    6.22
  -3   7  -4  126.72    6.23
  -3  -7  -4  126.82    6.31
  -3   7  -5    8.86    1.54
  -3   7  -5    8.54    1.15
  -3  -7  -5    6.21    1.06
  -3   7  -6   23.51    2.50
  -3   7  -6   22.67    1.82
  -3  -7  -6   22.07    1.89
  -3   7  -7    6.80    1.08
  -3  -7  -7    7.60    1.25
  -3   7  -8   97.24    5.08
  -3   7  -8   94.38    5.04
  -3  -7  -8   99.50    5.26
  -3   7  -9   28.91    2.15
  -3   7  -9   23.86    1.97
  -3  -7  -9   28.06    2.29
  -3   7 -10   39.16    2.53
  -3   7 -10   38.06    2.62
  -3  -7 -10   34.33    2.79
  -3   7 -11    1.23    0.69
  -3   7 -11    1.10    0.78
  -3  -7 -11   -0.58    0.94
  -3   7 -12    1.54    0.86
  -3  -7 -12    2.71    1.35
  -3   8  13   30.17    2.21
  -3   8  12   24.22    1.81
   3  -8 -12   17.55    2.06
  -3   8  11   11.41    1.32
   3   8 -11   14.70    1.32
   3  -8 -11   13.90    1.77
  -3   8  10   -0.15    0.54
   3   8 -10    0.44    0.63
   3  -8 -10    0.93    0.96
  -3   8   9   15.05    1.27
   3   8  -9   11.04    1.38
   3  -8  -9   13.18    1.64
   3   8  -8   52.08    3.05
  -3   8   8   48.88    2.64
   3  -8  -8   50.82    3.21
   3   8  -7   81.44    4.62
  -3   8   7   90.76    4.11
   3  -8  -7   94.57    4.84
  -3   8   6   41.22    2.34
   3   8  -6   42.87    2.66
   3  -8  -6   42.07    2.80
   3   8  -5   47.38    2.87
  -3   8   5   50.51    2.85
   3  -8  -5   41.75    2.88
  -3   8   4    5.34    1.04
   3   8  -4    4.59    0.94
   3  -8  -4    5.48    1.16
  -3  -8   4    3.80    0.93
   3   8  -3   24.90    1.90
  -3   8   3   23.17    1.80
   3  -8  -3   22.52    1.92
  -3  -8   3   21.62    1.85
   3   8  -2   41.59    2.67
  -3   8   2   39.08    2.66
   3  -8  -2   48.68    2.84
  -3  -8   2   47.36    2.74
   3   8  -1  181.45    8.49
  -3   8   1  173.40    8.49
  -3  -8   1  180.76    8.53
   3  -8  -1  170.66    8.50
  -3   8   0  129.64    6.21
   3   8   0  116.93    6.13
  -3  -8   0  121.43    6.19
   3  -8   0  126.49    6.23
   3  -8   0  122.84    6.21
   3  -8   0  124.64    5.04
   3   8   1   55.42    3.00
  -3   8  -1   43.09    2.89
  -3  -8  -1   50.78    2.99
   3  -8   1   52.43    3.02
   3  -8   1   47.62    2.89
   3  -8   1   48.48    2.25
  -3   8  -2    0.17    0.62
   3   8   2    0.16    0.63
  -3  -8  -2   -0.38    0.64
   3  -8   2    0.47    0.61
   3   8   3   14.73    0.99
  -3   8  -3   12.50    1.43
   3   8   3   15.98    1.65
  -3  -8  -3   14.54    1.61
   3  -8   3   13.11    1.44
  -3   8  -4   57.81    4.34
   3   8   4   53.65    3.24
  -3   8  -4   56.46    3.28
  -3  -8  -4   54.86    3.32
  -3   8  -5  101.33    6.67
  -3   8  -5   87.12    4.90
  -3  -8  -5   95.26    5.08
  -3   8  -6   36.71    2.52
  -3  -8  -6   37.66    2.59
  -3   8  -7   31.47    2.25
  -3  -8  -7   27.40    2.36
  -3   8  -8    5.63    1.07
  -3  -8  -8    5.70    1.27
  -3   8  -9    1.84    0.84
  -3   8  -9    2.80    0.98
  -3  -8  -9    4.22    1.25
  -3   8 -10   22.65    1.94
  -3   8 -10   19.81    1.96
  -3  -8 -10   18.67    2.21
  -3   8 -11   30.56    2.28
  -3   8 -11   26.58    2.34
  -3  -8 -11   28.21    2.78
  -3  -8 -12   14.63    2.28
  -3   9  13   -0.36    0.70
   3  -9 -13    1.58    1.19
  -3   9  12    5.01    1.05
   3  -9 -12    6.25    1.56
   3   9 -11   40.12    2.54
   3  -9 -11   38.53    2.98
   3   9 -10   34.22    2.39
  -3   9  10   32.67    2.19
   3  -9 -10   33.40    2.71
  -3   9   9   51.80    2.81
   3   9  -9   51.06    3.22
   3  -9  -9   51.75    3.43
   3   9  -8    9.13    1.33
  -3   9   8    7.59    1.06
   3  -9  -8    5.95    1.37
  -3   9   7    0.18    0.52
   3   9  -7   -0.16    0.81
   3  -9  -7    0.37    1.03
   3   9  -6    9.06    1.31
  -3   9   6    6.66    1.06
   3  -9  -6    9.20    1.52
  -3   9   5   78.59    4.42
   3   9  -5   86.63    4.53
   3  -9  -5   83.69    4.68
   3   9  -4   36.74    2.55
  -3   9   4   41.59    2.66
   3  -9  -4   38.42    2.71
   3   9  -3   95.71    4.79
  -3   9   3   80.11    4.69
   3  -9  -3   88.28    4.85
  -3  -9   3   93.30    4.79
   3   9  -2   24.82    1.97
  -3   9   2   26.39    2.01
  -3  -9   2   24.10    2.01
   3  -9  -2   21.95    2.04
  -3   9   1    9.73    1.37
   3   9  -1    6.99    1.22
  -3  -9   1    8.93    1.33
   3  -9  -1   10.34    1.37
   3  -9  -1    7.92    0.88
   3   9   0    2.14    0.89
  -3   9   0    4.02    0.96
   3  -9   0    3.44    0.93
  -3  -9   0    2.74    1.01
   3  -9   0    2.00    0.87
   3  -9   0    3.35    0.60
  -3   9  -1  109.61    6.05
   3   9   1  117.98    6.09
  -3  -9  -1  121.99    6.23
   3  -9   1  115.54    4.87
   3  -9   1  122.91    6.11
   3  -9   1  130.49    6.17
  -3   9  -2   45.95    2.98
   3   9   2   49.17    3.07
   3  -9   2   48.24    2.98
  -3  -9  -2   47.69    3.08
   3   9   3   98.22    5.21
  -3   9  -3  103.38    5.19
   3  -9   3   91.40    5.07
  -3  -9  -3   96.80    5.25
  -3   9  -4   12.09    1.49
   3   9   4   14.83    1.65
  -3  -9  -4   14.21    1.75
  -3   9  -5    0.63    0.67
  -3  -9  -5   -0.20    0.86
  -3   9  -6    2.91    0.95
  -3  -9  -6    1.19    1.07
  -3   9  -7   36.06    2.58
  -3  -9  -7   33.57    2.71
  -3   9  -8   26.47    2.17
  -3  -9  -8   25.25    2.56
  -3   9  -9   48.28    3.27
  -3   9  -9   47.85    3.16
  -3  -9  -9   49.91    3.62
  -3   9 -10   10.11    1.54
  -3   9 -10   10.02    1.48
  -3  -9 -10    6.65    1.81
  -3   9 -11    3.40    0.94
  -3   9 -11    2.41    1.02
  -3  -9 -11   -1.05    1.44
  -3  -9 -12   -2.26    1.54
   3 -10 -13    1.37    1.36
  -3  10  12   32.37    2.42
   3 -10 -12   41.80    3.23
  -3  10  11    0.41    0.66
   3  10 -11    2.65    0.79
   3 -10 -11    1.79    1.32
   3  10 -10    1.73    0.91
  -3  10  10    0.56    0.67
   3 -10 -10   -0.10    1.19
  -3  10   9    0.86    0.67
   3  10  -9    1.51    1.02
   3 -10  -9    2.08    1.29
  -3  10   8   75.57    3.99
   3  10  -8   84.23    4.61
   3 -10  -8   83.91    4.84
  -3  10   7   14.43    1.51
   3  10  -7   15.15    1.82
   3 -10  -7   13.12    1.88
  -3  10   6   85.08    4.25
   3  10  -6   90.36    4.89
   3 -10  -6   85.89    5.01
   3  10  -5    0.92    0.97
   3 -10  -5    1.79    1.09
  -3  10   4    3.37    0.97
   3  10  -4    1.98    1.02
   3 -10  -4    2.05    1.21
   3  10  -3    0.91    0.90
  -3  10   3    1.09    0.91
  -3 -10   3    0.25    0.93
   3 -10  -3    0.29    0.97
  -3  10   2   86.47    4.89
   3  10  -2   90.79    4.89
  -3 -10   2   90.85    4.94
  -3 -10   2   89.81    3.66
   3 -10  -2   86.42    4.99
  -3  10   1    8.70    1.37
   3  10  -1   10.39    1.55
   3 -10  -1   11.22    1.54
  -3 -10   1    9.19    1.54
   3 -10  -1   13.41    1.15
   3  10   0  100.31    5.47
  -3  10   0  113.79    5.61
   3 -10   0  101.89    5.58
  -3 -10   0  100.81    5.54
   3 -10   0   99.88    5.48
   3 -10   0  104.16    4.38
  -3  10  -1    6.71    1.23
   3  10   1    7.07    1.28
   3 -10   1    6.26    1.24
   3 -10   1    7.54    1.19
  -3 -10  -1    4.28    1.36
   3 -10   1    5.94    0.74
  -3  10  -2    3.64    0.99
   3  10   2    4.64    1.14
  -3 -10  -2    3.79    1.26
   3 -10   2    4.65    1.10
   3  10   3    0.36    0.88
  -3  10  -3    0.21    0.72
  -3 -10  -3   -0.33    1.04
  -3  10  -4   56.07    3.60
   3  10   4   59.07    3.61
  -3 -10  -4   60.94    3.93
  -3  10  -5    6.03    1.20
  -3 -10  -5    5.54    1.45
  -3  10  -6   70.97    4.36
  -3 -10  -6   80.82    4.76
  -3  10  -7    6.23    1.27
  -3 -10  -7    2.62    1.46
  -3  10  -8    8.29    1.41
  -3 -10  -8    3.71    1.51
  -3  10  -9   -1.38    0.78
  -3  10  -9    0.29    0.84
  -3 -10  -9   -1.42    1.34
  -3  10 -10   28.07    2.46
  -3  10 -10   35.67    2.73
  -3 -10 -10   35.72    3.40
  -3  10 -11    5.62    1.16
  -3 -10 -11    2.53    1.78
   3 -11 -12    0.63    1.42
   3  11 -11   33.77    2.51
  -3  11  11   31.43    2.39
   3 -11 -11   40.06    3.35
  -3  11  10    0.04    0.71
   3  11 -10    1.99    0.93
   3 -11 -10   -0.11    1.23
  -3  11   9   43.61    2.71
   3  11  -9   39.83    3.08
   3 -11  -9   43.63    3.41
  -3  11   8   -0.32    0.68
   3  11  -8   -0.33    0.98
   3 -11  -8   -0.69    1.16
  -3  11   7   -0.36    0.60
   3  11  -7   -0.88    0.93
   3 -11  -7   -1.07    1.06
  -3  11   6   -1.68    0.63
   3  11  -6   -0.47    1.04
   3 -11  -6   -0.13    1.20
   3  11  -5   59.60    3.86
   3 -11  -5   62.23    3.96
   3  11  -4    0.67    0.93
  -3  11   4   -0.06    0.82
   3 -11  -4   -0.90    0.98
  -3  11   3   89.76    5.06
   3  11  -3   96.05    5.21
   3 -11  -3   90.42    5.30
  -3  11   2    1.12    0.95
   3  11  -2   -0.68    0.81
   3 -11  -2    0.38    1.06
  -3 -11   2   -0.36    0.90
  -3 -11   2    0.29    0.37
   3  11  -1    0.41    1.10
  -3  11   1    2.04    0.98
   3 -11  -1    2.68    0.68
  -3 -11   1    2.70    1.24
   3 -11  -1    3.11    1.07
   3  11   0    1.70    1.09
  -3  11   0    0.36    0.85
   3 -11   0    1.64    0.97
  -3 -11   0    1.49    1.26
   3 -11   0    1.99    0.58
   3 -11   0    1.98    0.94
  -3  11  -1   77.96    4.60
   3  11   1   80.41    4.68
   3 -11   1   81.68    3.50
  -3 -11  -1   81.98    4.87
   3 -11   1   86.45    4.67
   3 -11   1   78.91    4.62
   3  11   2   -0.76    1.02
  -3  11  -2    1.68    0.88
  -3 -11  -2    1.96    1.23
   3 -11   2    1.29    0.84
  -3  11  -3   80.35    4.73
   3  11   3   88.97    4.93
  -3 -11  -3   82.16    4.99
  -3  11  -4    0.22    0.79
  -3 -11  -4    0.18    1.20
  -3  11  -5    0.78    0.87
  -3 -11  -5   -1.50    1.35
  -3  11  -6   -0.18    0.81
  -3 -11  -6   -1.51    1.20
  -3  11  -7   39.13    2.92
  -3 -11  -7   32.21    3.10
  -3  11  -8    1.12    0.93
  -3 -11  -8   -0.09    1.37
  -3  11  -9   32.95    2.93
  -3  11  -9   38.77    2.88
  -3 -11  -9   38.19    3.50
  -3  11 -10    2.13    0.86
  -3 -11 -10   -1.11    1.64
   3 -12 -11   -0.27    1.39
   3  12 -10    2.01    0.93
   3 -12 -10    0.23    1.41
  -3  12   9    1.64    0.96
   3  12  -9    2.09    1.15
   3 -12  -9    3.40    1.57
   3  12  -8   35.36    2.98
  -3  12   8   37.62    2.64
   3 -12  -8   44.61    3.45
   3  12  -7    3.92    1.38
  -3  12   7    1.94    0.90
   3 -12  -7    5.69    1.60
  -3  12   6   52.94    3.12
   3  12  -6   47.19    3.41
   3 -12  -6   49.97    3.64
   3  12  -5    3.16    1.28
   3 -12  -5    4.63    1.46
   3  12  -4   -0.50    1.02
   3 -12  -4    0.92    1.22
  -3  12   3    5.21    1.31
   3  12  -3    4.80    1.37
   3 -12  -3    4.03    1.37
   3  12  -2   61.06    3.77
  -3  12   2   51.06    3.53
   3 -12  -2   50.55    3.64
  -3 -12   2   56.42    2.40
  -3 -12   2   59.99    3.74
   3 -12  -2   55.91    2.85
  -3  12   1   16.63    1.96
   3  12  -1   13.76    1.93
   3 -12  -1   12.62    1.95
   3 -12  -1   15.46    1.88
  -3 -12   1   12.05    1.08
   3 -12  -1   12.56    1.20
  -3 -12   1   13.20    1.95
   3  12   0   65.23    4.28
  -3  12   0   69.78    4.33
   3 -12   0   71.70    4.35
   3 -12   0   73.39    3.24
   3 -12   0   72.48    4.43
  -3 -12   0   68.76    4.47
  -3  12  -1    1.23    1.01
   3  12   1   -0.77    0.96
  -3 -12  -1    0.05    1.21
   3 -12   1    0.39    0.99
   3 -12   1    1.72    0.51
   3  12   2   -1.15    1.08
  -3  12  -2    0.75    0.88
  -3 -12  -2    0.14    1.25
  -3  12  -3    2.34    1.06
   3  12   3    1.15    1.24
  -3 -12  -3   -0.76    1.26
  -3  12  -4   44.59    3.22
  -3 -12  -4   41.38    3.60
  -3  12  -5    4.14    1.14
  -3 -12  -5    5.63    1.88
  -3  12  -6   43.83    3.17
  -3 -12  -6   36.58    3.57
  -3  12  -7    3.15    1.22
  -3 -12  -7   -0.39    1.41
  -3  12  -8    2.24    1.08
  -3 -12  -8    1.15    1.64
  -3  12  -9    1.13    0.95
  -3 -12  -9   -0.40    1.64
   3  13 -10   14.15    1.75
   3 -13 -10   10.37    2.15
   3  13  -9   18.21    2.18
   3 -13  -9   21.32    2.69
  -3  13   8    1.72    0.99
   3  13  -8    3.05    1.33
   3 -13  -8    1.77    1.55
   3  13  -7   -1.09    1.17
  -3  13   7    0.08    0.89
   3 -13  -7    1.02    1.33
   3  13  -6    2.08    1.32
  -3  13   6    2.53    1.03
   3 -13  -6    3.83    1.61
   3  13  -5   22.79    2.66
   3 -13  -5   31.70    3.09
   3  13  -4   20.19    2.38
   3 -13  -4   19.56    2.47
  -3  13   3   40.13    2.96
   3  13  -3   39.50    3.14
   3 -13  -3   37.71    3.13
  -3  13   2    7.21    1.39
   3  13  -2    4.52    1.43
   3 -13  -2    5.78    1.47
   3 -13  -2    6.08    1.02
   3 -13  -2    6.39    1.77
   3  13  -1   -1.06    1.09
  -3  13   1    1.37    1.07
   3 -13  -1    1.98    1.23
  -3 -13   1   -0.06    1.18
   3 -13  -1   -1.63    1.13
  -3 -13   1    1.41    0.54
   3 -13  -1   -0.71    0.51
   3  13   0    4.38    1.62
  -3  13   0    4.89    1.31
  -3 -13   0    9.08    1.85
   3 -13   0    8.15    1.52
   3 -13   0    7.06    0.89
   3 -13   0    4.10    1.42
  -3  13  -1   24.71    2.35
   3  13   1   25.83    2.60
   3 -13   1   28.69    1.52
  -3 -13  -1   28.10    2.88
   3 -13   1   28.23    2.60
   3  13   2   15.66    2.09
  -3  13  -2   16.79    2.05
  -3 -13  -2   14.97    2.23
  -3  13  -3   34.43    2.93
  -3 -13  -3   35.61    3.46
  -3  13  -4    7.23    1.46
  -3 -13  -4    9.93    2.20
  -3  13  -5    3.24    1.17
  -3 -13  -5    3.69    1.72
  -3  13  -6    8.20    1.61
  -3 -13  -6    2.01    1.81
  -3  13  -7   19.97    2.45
  -3 -13  -7   21.35    2.96
  -3  13  -8   10.78    1.81
  -3 -13  -8    8.91    2.33
   3  14  -9    7.98    1.50
   3  14  -8    8.24    1.73
   3 -14  -8    9.27    2.06
   3  14  -7   18.88    2.45
   3 -14  -7   19.90    2.73
  -3  14   6    9.17    1.51
   3  14  -6   11.81    2.06
   3 -14  -6   10.29    1.98
   3  14  -5    9.91    1.94
   3 -14  -5    8.56    1.84
   3  14  -4   -0.30    1.24
   3 -14  -4    3.87    1.54
   3  14  -3   10.39    2.05
   3 -14  -3    5.11    1.91
   3 -14  -3    9.85    1.75
  -3  14   2   16.41    2.04
   3  14  -2   11.62    2.21
   3 -14  -2   13.42    1.39
   3 -14  -2   16.74    2.10
   3 -14  -2   16.13    2.42
  -3  14   1   25.92    2.43
   3  14  -1   23.62    2.82
   3 -14  -1   24.32    2.44
   3 -14  -1   21.82    2.61
   3  14   0   14.86    2.24
  -3  14   0   19.57    2.30
  -3 -14   0   18.11    2.49
   3 -14   0   20.67    2.38
  -3  14  -1    7.24    1.46
   3  14   1    4.80    1.76
  -3 -14  -1    4.25    1.67
   3  14   2    0.10    1.35
  -3  14  -2    1.01    0.96
  -3 -14  -2   -1.64    1.54
  -3  14  -3    4.46    1.28
  -3 -14  -3    3.26    1.85
  -3  14  -4   11.59    1.87
  -3 -14  -4    8.11    2.23
  -3  14  -5   25.43    2.54
  -3 -14  -5   20.37    2.96
  -3  14  -6   12.88    2.04
  -3 -14  -6   14.09    2.44
   3  15  -6    3.87    1.55
   3 -15  -6    8.61    1.79
   3  15  -5    2.21    1.43
   3 -15  -5    8.95    1.80
   3  15  -4   35.86    3.22
   3 -15  -4   41.71    3.45
   3 -15  -4   29.17    3.51
   3  15  -3    5.31    1.83
   3 -15  -3    7.19    1.63
   3 -15  -3    1.33    1.69
  -3  15   2    8.69    1.45
   3  15  -2    4.14    1.67
   3 -15  -2    6.01    1.89
   3 -15  -2    9.48    1.75
   3  15  -1   -1.45    1.24
   3 -15  -1    1.16    1.38
   3  15   0    4.67    1.92
  -3  15   0    7.96    1.51
   3  15   1    2.82    1.58
  -3 -15  -1    2.85    1.70
  -3  15  -2   32.86    2.94
  -3 -15  -2   24.92    3.24
  -3  15  -3    7.28    1.49
  -3 -15  -3    3.23    1.78
  -3  15  -4   14.58    2.08
  -3 -15  -4    4.82    1.93
   3  16  -3    2.59    1.74
   3 -16  -3    2.19    1.73
   3  16  -2    0.19    1.31
   3 -16  -2    0.23    1.32
   3  16  -1   23.68    3.06
  -3  16   1   35.39    2.79
   3  16   0   -0.19    1.34
  -3  16  -1   15.21    1.97
   3  16   1    4.00    1.99
  -3 -16  -2    2.61    1.96
  -4   0  15    0.03    0.64
  -4   0  14   63.07    3.38
  -4   0  13   -0.34    0.50
  -4   0  12   12.84    1.34
  -4   0  11    0.16    0.54
  -4   0  10  200.52    8.20
  -4   0   9    0.24    0.42
   4   0  -9   -0.44    0.33
  -4   0   8  183.52    7.53
   4   0  -8  190.62   10.91
  -4   0   7   -0.31    0.28
   4   0  -7    0.04    0.13
   4   0  -7   -0.01    0.23
   4   0  -6    4.53    0.50
   4   0  -6    4.76    0.39
  -4   0   6    5.78    0.61
  -4   0   5   -0.18    0.26
   4   0  -5    0.12    0.20
   4   0  -5    0.40    0.20
  -4   0   4  567.86   22.13
   4   0  -4  598.07   25.74
  -4   0   3   -0.19    0.18
   4   0  -3   -0.01    0.21
  -4   0   2  833.09   30.47
   4   0  -2  809.34   35.69
  -4   0   2  790.82   35.62
   4   0  -2  795.18   29.96
   4   0  -2  785.78   45.89
  -4   0   1   -0.45    0.19
  -4   0   1   -0.44    0.19
   4   0  -1   -0.44    0.21
   4   0  -1   -0.43    0.23
   4   0   0    0.42    0.31
  -4   0   0    0.46    0.28
  -4   0   0    0.41    0.28
   4   0   0    0.21    0.34
  -4   0  -1    0.03    0.34
  -4   0  -1   -0.38    0.26
  -4   0  -1   -0.07    0.26
   4   0   1   -0.35    0.29
   4   0   1    0.28    0.28
  -4   0  -2  541.44   36.65
   4   0   2  679.83   28.47
  -4   0  -2  643.84   28.46
  -4   0  -2  702.97   27.98
  -4   0  -3    0.05    0.27
  -4   0  -3   -0.19    0.26
   4   0   3   -0.30    0.30
  -4   0  -3   -0.18    0.45
  -4   0  -4  413.69   23.69
  -4   0  -4  428.06   18.28
   4   0   4  389.19   18.19
  -4   0  -4  398.34   17.92
  -4   0  -5   -0.10    0.51
  -4   0  -5   -0.09    0.36
   4   0   5    0.21    0.30
  -4   0  -5    0.15    0.32
  -4   0  -6    0.22    0.41
  -4   0  -6    0.20    0.42
  -4   0  -7   -0.15    0.42
  -4   0  -7   -0.45    0.39
  -4   0  -8  164.71    7.37
  -4   0  -8  142.86    7.19
  -4   0  -9   -0.11    0.47
  -4   0  -9   -0.60    0.43
  -4   0 -10  143.82    7.02
  -4   0 -10  148.27    7.13
  -4   0 -11    0.20    0.56
  -4   0 -11    0.11    0.57
  -4   0 -12   -0.08    0.62
  -4   0 -13   -0.37    0.63
  -4   1  15    3.21    0.95
  -4  -1  15    1.62    0.91
  -4   1  14    7.53    1.21
  -4  -1  14    7.52    1.21
  -4   1  13  103.00    4.83
  -4  -1  13  105.14    4.88
  -4   1  12   17.48    1.38
  -4  -1  12   12.66    1.36
  -4   1  11  127.51    5.53
  -4  -1  11  127.25    5.55
  -4   1  10    2.38    0.63
  -4  -1  10    1.52    0.61
  -4   1   9    9.31    0.96
   4   1  -9   10.25    1.12
   4  -1  -9   10.60    0.64
  -4  -1   9   10.12    1.01
   4   1  -8   17.05    1.42
  -4   1   8   17.32    1.18
  -4  -1   8   18.26    1.17
   4  -1  -8   18.00    0.87
   4  -1  -8   18.01    0.96
  -4   1   7  354.50   13.64
   4   1  -7  335.91   20.16
   4   1  -7  359.33   15.49
   4  -1  -7  351.89   15.23
  -4  -1   7  359.38   13.64
   4  -1  -7  348.10   15.56
  -4   1   6   23.37    1.24
   4   1  -6   22.28    1.58
   4   1  -6   23.23    1.14
   4  -1  -6   21.97    1.10
  -4  -1   6   21.79    1.21
   4  -1  -6   23.83    1.21
  -4   1   5  501.48   19.09
   4   1  -5  501.83   22.06
  -4  -1   5  499.66   19.07
   4  -1  -5  497.18   22.10
  -4   1   4    7.96    0.61
   4   1  -4    8.57    0.60
  -4  -1   4    8.36    0.60
   4  -1  -4    8.02    0.61
  -4   1   3   20.85    1.06
   4   1  -3   22.03    1.18
  -4  -1   3   20.85    1.01
   4  -1  -3   22.04    1.21
  -4   1   2    7.49    0.62
   4   1  -2    7.83    0.62
  -4   1   2    7.61    0.59
   4   1  -2    7.89    0.46
   4  -1  -2    7.75    0.61
   4  -1  -2    6.51    0.61
  -4  -1   2    8.07    0.44
   4  -1  -2    8.17    0.50
  -4  -1   2    8.58    0.61
  -4   1   1  551.73   26.55
  -4   1   1  542.14   34.12
   4   1  -1  585.69   26.56
  -4   1   1  649.07   26.10
   4  -1  -1  604.09   22.49
   4  -1  -1  623.93   26.60
  -4  -1   1  581.01   26.55
  -4  -1   1  638.66   22.66
  -4  -1   1  604.75   26.08
   4  -1  -1  623.10   34.15
  -4   1   0   24.24    1.47
   4   1   0   28.03    1.50
  -4   1   0   26.24    1.87
  -4   1   0   28.43    1.47
  -4  -1   0   25.64    1.44
   4  -1   0   27.68    1.49
   4  -1   0   25.22    1.84
  -4  -1   0   29.07    1.50
   4   1   1  521.40   22.83
  -4   1  -1  541.08   29.45
  -4   1  -1  472.77   22.40
   4   1   1  532.67   29.43
  -4  -1  -1  506.10   22.83
   4  -1   1  527.57   29.42
   4  -1   1  537.32   22.85
  -4  -1  -1  472.61   22.38
  -4   1  -2   14.52    1.05
   4   1   2   16.26    1.04
  -4   1  -2   17.12    1.49
  -4   1  -2   16.78    1.07
   4  -1   2   14.97    1.03
  -4  -1  -2   14.26    0.99
  -4  -1  -2   14.27    1.02
  -4   1  -3    1.93    0.62
   4   1   3    1.84    0.42
  -4   1  -3    1.08    0.39
  -4   1  -3    1.95    0.44
  -4  -1  -3    1.65    0.44
   4  -1   3    1.41    0.41
  -4  -1  -3    1.39    0.40
  -4   1  -4   12.61    0.98
   4   1   4   10.63    0.70
   4   1   4   12.64    0.93
  -4   1  -4   10.56    1.35
  -4   1  -4   12.12    0.97
  -4  -1  -4   15.35    1.01
  -4  -1  -4   11.81    0.97
   4  -1   4   11.88    0.91
  -4   1  -5  263.14   16.38
   4   1   5  269.61   10.68
  -4   1  -5  302.78   12.62
   4   1   5  284.53   12.52
  -4   1  -5  233.60   12.30
  -4  -1  -5  310.22   12.63
  -4  -1  -5  272.57   12.34
   4   1   6   43.56    2.07
  -4   1  -6   46.95    2.49
  -4   1  -6   48.81    2.47
  -4   1  -6   41.21    3.40
  -4  -1  -6   41.67    2.40
  -4  -1  -6   44.16    2.48
  -4   1  -7  208.36   13.27
  -4   1  -7  216.59    9.90
  -4   1  -7  186.60   10.00
   4   1   7  221.00    8.61
  -4  -1  -7  234.72   10.12
  -4  -1  -7  235.49    9.95
  -4   1  -8   -0.36    0.71
  -4   1  -8    0.21    0.46
  -4   1  -8    0.73    0.49
  -4  -1  -8    0.15    0.47
  -4  -1  -8   -0.39    0.43
  -4   1  -9    1.15    0.58
  -4   1  -9    1.33    0.59
  -4  -1  -9    1.54    0.61
  -4  -1  -9    0.99    0.55
  -4   1 -10    3.63    0.80
  -4   1 -10    4.08    0.84
  -4  -1 -10    4.01    0.81
  -4  -1 -10    3.47    0.82
  -4   1 -11   87.45    4.43
  -4   1 -11   80.41    4.36
  -4  -1 -11   76.57    4.38
  -4  -1 -11   88.23    4.46
  -4   1 -12    4.31    0.94
  -4   1 -13   58.40    3.46
  -4   2  15   18.72    1.86
  -4  -2  15   18.66    2.00
  -4   2  14   42.55    2.64
  -4  -2  14   42.66    2.71
  -4   2  13    1.10    0.67
  -4  -2  13    2.91    0.85
  -4   2  12    4.93    0.91
  -4  -2  12    3.68    0.84
  -4   2  11   11.21    1.18
  -4  -2  11   11.11    1.16
   4   2 -10  155.45    9.57
  -4   2  10  156.98    6.52
  -4  -2  10  153.80    6.52
   4   2  -9   98.36    6.28
  -4   2   9  103.05    4.41
  -4  -2   9  103.09    4.42
   4  -2  -9  102.31    4.72
   4   2  -8  182.24   10.65
  -4   2   8  179.12    7.28
   4   2  -8  179.73    8.03
  -4  -2   8  181.54    7.29
   4  -2  -8  178.10    8.15
   4   2  -7   20.12    1.03
   4   2  -7   19.24    1.54
  -4   2   7   18.49    1.19
   4  -2  -7   19.59    1.17
  -4  -2   7   19.65    1.17
   4   2  -6   10.72    0.67
  -4   2   6    9.94    0.78
  -4  -2   6   11.81    0.83
   4  -2  -6   11.62    0.82
   4   2  -5   85.19    3.77
  -4   2   5   76.87    3.40
   4  -2  -5   83.25    3.86
   4  -2  -5   83.49    3.85
  -4  -2   5   77.76    3.36
   4   2  -4  455.29   19.40
  -4   2   4  432.75   16.73
   4  -2  -4  435.44   19.45
  -4  -2   4  427.45   16.68
  -4   2   3  324.51   18.14
  -4   2   3  310.42   14.23
   4   2  -3  326.21   14.24
  -4  -2   3  321.02   12.18
   4  -2  -3  314.52   14.27
  -4   2   2  268.78   17.52
  -4   2   2  306.88   13.46
  -4   2   2  331.20   13.75
   4   2  -2  321.41   13.74
   4  -2  -2  320.48   13.77
  -4  -2   2  309.97   11.66
  -4  -2   2  297.42   13.70
  -4  -2   2  304.45   11.51
  -4   2   1    4.89    0.55
   4   2  -1    4.53    0.54
  -4   2   1    4.33    0.51
  -4   2   1    3.68    0.55
  -4  -2   1    3.75    0.51
   4  -2  -1    4.69    0.55
   4  -2  -1    4.92    0.46
  -4   2   0    0.31    0.31
  -4   2   0   -0.15    0.26
  -4   2   0   -0.32    0.30
   4   2   0   -0.21    0.27
  -4  -2   0   -0.09    0.28
   4  -2   0    0.15    0.30
   4  -2   0    0.20    0.24
   4   2   1   92.88    4.47
  -4   2  -1   87.69    4.36
  -4   2  -1   87.86    5.75
  -4   2  -1   92.75    4.48
   4  -2   1   99.64    5.80
   4  -2   1   99.07    4.49
  -4  -2  -1  100.56    4.51
  -4   2  -2  333.80   14.25
  -4   2  -2  299.63   13.95
  -4   2  -2  359.32   18.44
   4   2   2  321.69   11.97
   4   2   2  303.22   14.20
  -4  -2  -2  309.81   14.23
  -4  -2  -2  290.68   13.94
   4  -2   2  312.46   14.21
  -4   2  -3   71.45    3.55
  -4   2  -3   76.62    4.79
   4   2   3   71.28    3.59
   4   2   3   75.87    2.92
  -4   2  -3   68.82    3.61
  -4  -2  -3   78.14    3.66
  -4  -2  -3   69.68    3.54
   4  -2   3   75.87    3.61
   4   2   4  291.02   11.40
  -4   2  -4  294.14   13.24
   4   2   4  309.33   13.47
  -4   2  -4  297.77   17.55
   4  -2   4  305.18   13.44
  -4  -2  -4  296.75   13.51
  -4  -2  -4  291.10   13.24
  -4   2  -5   19.22    1.36
   4   2   5   19.50    1.07
   4   2   5   19.32    1.31
  -4   2  -5   21.83    1.39
  -4   2  -5   21.95    2.02
  -4  -2  -5   20.66    1.39
  -4  -2  -5   21.83    1.45
  -4   2  -6    0.22    0.43
  -4   2  -6   -0.17    0.41
  -4   2  -6    0.13    0.63
   4   2   6   -0.22    0.29
  -4  -2  -6   -0.08    0.41
  -4  -2  -6    0.57    0.47
  -4   2  -7   10.54    1.01
  -4   2  -7    8.11    0.99
  -4   2  -7    7.03    1.39
   4   2   7    8.04    0.80
  -4  -2  -7    8.69    0.99
  -4  -2  -7    9.49    1.03
  -4   2  -8  128.07    8.33
  -4   2  -8  132.56    6.09
  -4   2  -8  124.21    6.14
  -4  -2  -8  123.51    6.08
  -4  -2  -8  122.98    6.17
  -4   2  -9   46.12    2.66
  -4   2  -9   45.84    2.66
  -4  -2  -9   41.76    2.62
  -4  -2  -9   48.87    2.75
  -4   2 -10   97.14    4.84
  -4   2 -10   90.27    4.77
  -4  -2 -10   93.94    4.87
  -4   2 -11   12.58    1.43
  -4   2 -11   13.21    1.32
  -4  -2 -11   13.85    1.51
  -4   2 -12   -0.09    0.61
  -4  -2 -12    0.54    0.75
  -4   2 -13    1.98    0.78
  -4   3  15    1.89    0.81
  -4   3  14   26.35    1.99
  -4  -3  14   24.84    2.11
  -4   3  13   40.01    2.52
  -4  -3  13   45.40    2.69
  -4   3  12   88.39    4.15
  -4  -3  12   88.45    4.22
  -4   3  11   38.56    2.25
  -4  -3  11   42.07    2.37
  -4   3  10   14.58    1.20
   4   3 -10   12.34    1.43
  -4  -3  10   13.82    1.30
   4  -3 -10   10.89    1.06
  -4   3   9    5.60    0.80
   4   3  -9    5.87    0.59
   4   3  -9    6.50    1.02
  -4  -3   9    5.04    0.77
   4  -3  -9    7.89    0.81
   4   3  -8  102.68    6.27
   4   3  -8   97.36    4.64
  -4   3   8   98.44    4.31
   4  -3  -8  103.82    4.79
   4   3  -7  140.32    6.52
  -4   3   7  146.44    5.88
  -4   3   7  140.31    8.31
   4  -3  -7  147.25    6.65
  -4  -3   7  144.35    5.86
  -4   3   6  176.51   10.29
   4   3  -6  173.85    8.10
  -4   3   6  180.83    7.17
   4  -3  -6  181.48    8.22
  -4  -3   6  186.36    7.16
   4   3  -5  153.81    6.69
  -4   3   5  144.82    5.88
   4  -3  -5  138.01    6.75
  -4  -3   5  149.33    5.84
   4   3  -4   31.09    1.66
  -4   3   4   32.08    1.55
  -4   3   4   30.35    1.66
   4  -3  -4   33.65    1.78
   4  -3  -4   30.67    1.76
  -4  -3   4   31.17    1.47
   4   3  -3   12.49    0.88
  -4   3   3   12.88    0.91
   4  -3  -3   11.54    0.93
  -4  -3   3   12.37    0.88
   4  -3  -3   13.30    0.99
  -4  -3   3   11.89    0.73
   4   3  -2   98.30    4.65
  -4   3   2   98.56    4.54
  -4   3   2  102.48    4.68
  -4  -3   2   99.12    4.65
   4  -3  -2   95.98    4.70
  -4  -3   2   99.71    3.81
  -4   3   1  390.69   22.72
  -4   3   1  405.76   17.38
  -4   3   1  336.76   17.67
   4   3  -1  419.86   17.73
   4  -3  -1  416.59   14.99
   4  -3  -1  396.26   17.75
  -4  -3   1  411.06   17.72
  -4   3   0  449.90   27.03
   4   3   0  494.32   21.06
  -4   3   0  469.46   20.65
   4  -3   0  467.02   21.05
  -4  -3   0  488.65   21.05
   4  -3   0  463.49   17.77
   4   3   1  229.35    9.92
  -4   3  -1  182.97   12.69
  -4   3  -1  200.12    9.89
   4   3   1  238.08    8.21
  -4   3  -1  228.10    9.73
   4  -3   1  213.19    9.90
  -4  -3  -1  227.31    9.93
   4   3   2   37.46    2.15
  -4   3  -2   41.76    2.16
   4   3   2   39.80    1.62
  -4   3  -2   44.58    2.23
  -4   3  -2   43.08    2.91
   4  -3   2   37.40    2.17
  -4  -3  -2   40.43    2.21
   4   3   3    0.07    0.14
  -4   3  -3   -0.32    0.27
   4   3   3   -0.20    0.30
  -4   3  -3    0.19    0.35
  -4   3  -3   -0.05    0.42
   4  -3   3   -0.23    0.27
  -4  -3  -3    0.33    0.38
   4   3   4   40.15    1.72
  -4   3  -4   40.79    2.20
  -4   3  -4   38.81    2.23
   4   3   4   38.49    2.18
  -4   3  -4   38.67    2.99
  -4  -3  -4   41.94    2.28
   4  -3   4   39.53    2.16
   4   3   5  128.36    5.13
   4   3   5  130.42    6.14
  -4   3  -5  123.07    6.06
  -4   3  -5  129.04    8.15
  -4   3  -5  141.64    6.24
  -4  -3  -5  122.92    6.19
  -4   3  -6  178.62    9.04
   4   3   6  192.30    7.79
  -4   3  -6  211.61    9.31
  -4   3  -6  206.88   12.25
  -4  -3  -6  205.01    9.30
  -4   3  -7   78.33    4.61
  -4   3  -7   89.70    6.33
  -4   3  -7  103.87    4.65
  -4  -3  -7   99.06    4.73
  -4   3  -8   23.60    1.77
  -4   3  -8   25.38    2.60
  -4   3  -8   26.29    1.81
  -4  -3  -8   28.00    1.86
  -4   3  -9    0.43    0.58
  -4   3  -9    0.01    0.50
  -4  -3  -9    0.21    0.58
  -4   3 -10   18.77    1.55
  -4   3 -10   17.80    1.55
  -4  -3 -10   17.48    1.58
  -4   3 -11   29.00    2.01
  -4   3 -11   29.12    2.09
  -4  -3 -11   27.09    2.15
  -4   3 -12   46.06    2.95
  -4  -3 -12   47.60    3.06
  -4   3 -13   28.19    2.19
  -4   4  15   62.53    3.48
  -4   4  14    6.85    1.15
  -4   4  13    7.93    1.14
  -4   4  12    1.70    0.62
  -4  -4  12   -0.67    0.69
  -4   4  11   52.42    2.82
  -4  -4  11   58.52    2.96
   4  -4 -11   56.13    2.98
  -4   4  10   46.71    2.39
   4   4 -10   41.49    3.25
  -4  -4  10   47.27    2.45
   4  -4 -10   42.17    2.45
  -4   4   9  212.22    8.65
   4   4  -9  227.31   12.85
   4   4  -9  210.45    9.67
   4  -4  -9  207.80    9.82
  -4  -4   9  210.57    8.69
   4   4  -8   18.84    1.27
  -4   4   8   18.17    1.28
   4  -4  -8   18.34    1.41
  -4  -4   8   19.33    1.36
  -4   4   7   25.57    1.47
   4   4  -7   26.79    1.51
   4  -4  -7   24.87    1.66
  -4  -4   7   25.64    1.48
  -4   4   6    8.96    0.85
   4   4  -6   10.66    0.82
  -4  -4   6   10.45    0.86
   4  -4  -6    9.82    0.97
  -4   4   5   69.59    3.15
   4   4  -5   72.78    3.53
  -4   4   5   74.22    3.52
   4  -4  -5   74.75    3.66
   4   4  -4   45.77    2.53
  -4   4   4   53.69    2.58
  -4  -4   4   50.00    2.55
   4  -4  -4   52.56    2.67
   4   4  -3  435.65   18.81
  -4   4   3  427.41   18.42
  -4   4   3  404.91   18.78
   4  -4  -3  425.34   18.88
   4  -4  -3  420.61   18.88
  -4  -4   3  410.98   18.77
   4   4  -2   95.91    4.67
  -4   4   2  103.81    4.60
  -4   4   2   98.31    4.69
   4  -4  -2   97.73    4.75
   4  -4  -2   97.38    4.74
  -4  -4   2   95.52    4.66
  -4   4   1   83.33    4.26
   4   4  -1   86.73    4.26
  -4   4   1   91.35    4.18
   4  -4  -1   89.86    4.32
  -4  -4   1   90.26    4.26
   4  -4  -1   87.37    3.57
  -4   4   0    9.13    1.05
   4   4   0   11.11    0.94
  -4   4   0   10.69    0.92
   4  -4   0    8.88    0.71
   4  -4   0    9.34    0.91
  -4  -4   0   10.75    0.90
   4   4   1  140.82    6.74
   4   4   1  143.26    5.51
  -4   4  -1  147.57    6.78
  -4   4  -1  156.50    8.76
  -4  -4  -1  141.22    6.75
   4  -4   1  135.49    6.73
  -4   4  -2   80.70    4.00
  -4   4  -2   85.39    4.10
   4   4   2   77.55    4.03
  -4   4  -2   89.34    5.33
   4   4   2   83.06    3.21
   4  -4   2   78.83    4.04
  -4  -4  -2   81.03    4.07
  -4   4  -3  292.02   12.83
  -4   4  -3  304.86   16.96
   4   4   3  280.80   13.03
  -4   4  -3  295.57   13.08
   4   4   3  283.99   10.92
   4  -4   3  269.66   12.99
  -4  -4  -3  279.35   13.06
   4   4   4   46.06    2.48
   4   4   4   46.21    1.92
  -4   4  -4   44.92    2.52
  -4   4  -4   41.79    2.45
  -4   4  -4   46.22    3.39
   4  -4   4   47.19    2.45
  -4  -4  -4   41.99    2.49
  -4   4  -5   34.91    2.18
  -4   4  -5   35.64    2.24
  -4   4  -5   41.40    3.12
   4   4   5   40.18    2.25
   4   4   5   39.98    1.74
  -4  -4  -5   37.08    2.28
  -4   4  -6    0.50    0.51
  -4   4  -6   -0.23    0.46
  -4   4  -6   -0.23    0.61
  -4  -4  -6    0.20    0.50
  -4   4  -7   32.98    3.02
  -4   4  -7   38.23    2.22
  -4   4  -7   35.72    2.21
  -4  -4  -7   32.50    2.20
  -4   4  -8   27.53    1.93
  -4   4  -8   30.97    2.00
  -4  -4  -8   28.40    2.01
  -4   4  -9  132.23    6.34
  -4   4  -9  124.08    6.26
  -4  -4  -9  126.30    6.41
  -4   4 -10   13.98    1.52
  -4   4 -10   15.35    1.41
  -4  -4 -10   14.53    1.61
  -4   4 -11   18.91    1.65
  -4   4 -11   21.43    1.76
  -4  -4 -11   19.09    1.81
  -4   4 -12   -0.19    0.61
  -4  -4 -12   -0.93    0.76
  -4   4 -13    7.11    1.18
  -4   5  15    0.00    0.77
  -4   5  14   32.58    2.22
  -4   5  13    1.33    0.71
  -4   5  12  101.88    4.70
  -4   5  11    3.03    0.74
   4  -5 -11    2.86    0.83
  -4   5  10   17.57    1.35
   4   5 -10   18.73    1.94
   4   5 -10   18.35    1.31
   4  -5 -10   17.56    1.51
   4   5  -9    3.15    0.92
  -4   5   9    3.15    0.66
   4   5  -9    1.63    0.60
   4  -5  -9    2.01    0.74
   4   5  -8   72.35    3.80
  -4   5   8   79.93    3.52
   4  -5  -8   79.12    3.99
   4   5  -7    9.45    0.96
  -4   5   7    8.24    0.87
   4  -5  -7    7.95    1.01
  -4   5   6  323.80   12.58
   4   5  -6  307.08   14.48
   4  -5  -6  333.52   14.63
  -4   5   5   -0.11    0.28
   4   5  -5    0.08    0.33
  -4   5   5   -0.18    0.32
   4  -5  -5    0.41    0.54
  -4  -5   5    0.19    0.41
  -4   5   4   58.53    2.91
  -4   5   4   57.49    2.85
   4   5  -4   54.63    2.88
   4  -5  -4   53.75    3.00
  -4  -5   4   57.62    2.92
   4   5  -3    8.33    0.84
  -4   5   3    9.22    0.90
  -4   5   3    8.02    0.79
   4  -5  -3    6.68    0.90
  -4  -5   3    7.70    0.85
   4   5  -2  152.47    7.20
  -4   5   2  155.56    7.22
   4  -5  -2  157.45    7.32
   4  -5  -2  150.43    7.27
  -4  -5   2  154.84    7.20
   4   5  -1   19.62    1.34
  -4   5   1   17.45    1.34
  -4  -5   1   22.44    1.39
   4  -5  -1   19.62    1.11
   4  -5  -1   22.08    1.46
   4   5   0  429.58   19.92
  -4   5   0  427.69   19.91
   4  -5   0  447.10   19.98
  -4  -5   0  464.44   19.96
   4  -5   0  450.23   16.82
  -4   5  -1    0.77    0.58
   4   5   1    0.50    0.40
  -4   5  -1    1.19    0.48
   4  -5   1    0.53    0.43
  -4  -5  -1    0.96    0.44
   4  -5   1    0.65    0.31
   4   5   2   50.24    2.13
  -4   5  -2   49.81    3.66
  -4   5  -2   55.90    2.87
   4   5   2   53.06    2.81
   4  -5   2   50.75    2.79
  -4  -5  -2   54.14    2.87
   4   5   3    0.40    0.45
  -4   5  -3    0.54    0.46
  -4   5  -3    1.02    0.69
   4   5   3    1.39    0.25
  -4  -5  -3    0.30    0.52
   4  -5   3    0.26    0.44
   4   5   4   73.04    3.06
  -4   5  -4   69.98    5.13
   4   5   4   76.14    3.88
  -4   5  -4   85.17    3.99
  -4  -5  -4   76.74    3.94
   4  -5   4   71.74    3.81
  -4   5  -5    1.05    0.60
  -4   5  -5    2.27    0.92
  -4   5  -5    2.02    0.61
  -4  -5  -5    1.01    0.58
  -4   5  -6  182.97    9.00
  -4   5  -6  194.46   12.10
  -4   5  -6  214.18    9.27
  -4  -5  -6  187.19    9.23
  -4   5  -7    4.58    1.28
  -4   5  -7    5.29    0.92
  -4   5  -7    3.98    0.84
  -4  -5  -7    5.93    0.94
  -4   5  -8   41.58    2.69
  -4   5  -8   50.55    2.83
  -4  -5  -8   44.15    2.81
  -4   5  -9    0.36    0.61
  -4   5  -9    0.58    0.59
  -4  -5  -9    0.89    0.72
  -4   5 -10   16.66    1.64
  -4   5 -10   18.44    1.58
  -4  -5 -10   16.98    1.79
  -4   5 -11    2.86    0.83
  -4   5 -11    3.65    0.99
  -4  -5 -11    1.54    0.95
  -4   5 -12   70.00    4.06
  -4  -5 -12   73.19    4.30
  -4   6  14    4.77    0.99
  -4   6  13    8.49    1.19
  -4   6  12   -0.16    0.59
   4  -6 -12    0.18    0.74
  -4   6  11   49.18    2.69
   4  -6 -11   48.90    2.94
  -4   6  10    0.94    0.55
   4   6 -10    0.27    0.75
   4   6 -10    1.55    0.63
   4  -6 -10   -0.29    0.73
   4   6  -9  162.64    7.53
  -4   6   9  150.74    6.66
   4  -6  -9  164.10    7.70
   4   6  -8    5.38    0.89
  -4   6   8    7.02    0.86
   4  -6  -8    7.42    1.08
  -4   6   7   33.39    1.92
   4   6  -7   34.61    2.10
   4  -6  -7   35.61    2.28
   4   6  -6    0.62    0.55
  -4   6   6    0.82    0.47
   4  -6  -6    0.10    0.67
  -4   6   5  131.98    6.09
   4   6  -5  115.90    6.06
   4  -6  -5  135.91    6.27
  -4   6   4    2.07    0.54
   4   6  -4    1.84    0.52
   4  -6  -4    1.92    0.69
  -4  -6   4    1.73    0.66
  -4   6   3  259.58   12.10
   4   6  -3  261.31   12.10
  -4  -6   3  276.89   12.12
   4  -6  -3  259.96   12.19
   4   6  -2    0.89    0.48
  -4   6   2    1.58    0.55
   4  -6  -2    0.04    0.55
  -4  -6   2    0.15    0.48
   4  -6  -2    0.42    0.54
  -4   6   1   57.72    3.07
   4   6  -1   54.33    3.03
   4  -6  -1   57.83    2.52
   4  -6  -1   57.65    3.14
   4  -6  -1   56.85    3.13
  -4  -6   1   59.69    3.10
  -4   6   0   12.32    1.12
   4   6   0   11.51    1.10
  -4  -6   0   11.30    1.08
   4  -6   0   10.93    0.84
   4  -6   0   11.36    1.12
   4   6   1   48.17    2.60
  -4   6  -1   40.92    2.53
  -4  -6  -1   47.47    2.61
   4  -6   1   48.64    2.63
   4  -6   1   42.38    2.02
  -4   6  -2    0.21    0.65
   4   6   2    1.18    0.55
   4   6   2    1.15    0.27
  -4   6  -2    0.94    0.58
  -4  -6  -2    0.78    0.61
   4  -6   2    1.41    0.55
   4   6   3  338.27   14.77
  -4   6  -3  268.37   18.97
  -4   6  -3  308.59   14.75
   4   6   3  336.40   12.35
   4  -6   3  348.61   14.77
  -4  -6  -3  332.42   14.81
  -4   6  -4   21.46    2.14
  -4   6  -4   17.19    1.49
   4   6   4   19.65    1.55
  -4  -6  -4   19.28    1.62
   4  -6   4   18.69    1.41
  -4   6  -5   48.81    3.03
  -4   6  -5   61.33    4.28
  -4  -6  -5   53.62    3.11
  -4   6  -6    0.70    0.62
  -4   6  -6    0.82    0.84
  -4   6  -6    0.95    0.62
  -4  -6  -6    0.64    0.69
  -4   6  -7   33.57    2.24
  -4   6  -7   31.80    2.24
  -4  -6  -7   34.65    2.36
  -4   6  -8    3.26    0.85
  -4   6  -8    2.31    0.79
  -4  -6  -8    1.61    0.84
  -4   6  -9   92.30    5.55
  -4   6  -9  118.96    5.66
  -4  -6  -9  118.68    5.86
  -4   6 -10   -0.08    0.71
  -4   6 -10    2.21    0.78
  -4  -6 -10    1.27    0.96
  -4   6 -11   23.39    1.99
  -4   6 -11   19.01    1.79
  -4  -6 -11   20.43    2.14
  -4   6 -12   -0.17    0.76
  -4  -6 -12   -1.51    0.93
  -4   7  14   22.35    1.91
  -4   7  13    8.58    1.29
  -4   7  12   68.67    3.46
   4  -7 -12   64.11    3.82
  -4   7  11   11.96    1.35
   4  -7 -11   11.65    1.50
  -4   7  10   20.22    1.50
   4   7 -10   13.90    2.12
   4   7 -10   17.60    1.49
   4  -7 -10   14.02    1.67
   4   7  -9   -0.18    0.66
  -4   7   9    0.30    0.51
   4  -7  -9   -0.03    0.81
   4   7  -8   30.09    2.09
  -4   7   8   33.08    1.90
   4  -7  -8   30.07    2.26
  -4   7   7   24.33    1.64
   4   7  -7   24.33    1.81
   4  -7  -7   25.03    1.90
   4   7  -6  237.73   11.23
  -4   7   6  244.88    9.82
   4  -7  -6  244.69   11.38
   4   7  -5   67.79    3.45
  -4   7   5   60.58    3.30
   4  -7  -5   59.48    3.53
   4   7  -4   42.25    2.40
  -4   7   4   36.48    2.27
   4  -7  -4   38.83    2.48
  -4  -7   4   37.39    2.37
  -4   7   3    0.25    0.52
   4   7  -3   -0.10    0.48
   4  -7  -3   -0.04    0.66
  -4  -7   3    0.66    0.17
  -4  -7   3    0.10    0.17
  -4  -7   3    0.79    0.65
  -4   7   2   64.91    3.37
   4   7  -2   54.60    3.29
  -4  -7   2   64.90    3.40
   4  -7  -2   65.13    3.47
   4  -7  -2   61.69    3.45
   4   7  -1   41.16    2.53
  -4   7   1   47.76    2.62
   4  -7  -1   41.98    2.66
   4  -7  -1   41.11    2.63
   4  -7  -1   45.06    2.09
  -4  -7   1   45.23    2.64
  -4   7   0  192.94    8.80
   4   7   0  187.86    8.77
   4  -7   0  176.32    8.78
  -4  -7   0  185.81    8.78
   4  -7   0  182.07    7.28
  -4   7  -1   25.63    1.96
   4   7   1   27.23    1.91
   4  -7   1   31.62    1.50
   4  -7   1   28.55    1.95
  -4  -7  -1   28.02    1.96
   4   7   2   54.36    3.10
  -4   7  -2   50.69    3.06
   4   7   2   57.18    2.38
   4  -7   2   56.44    3.15
  -4  -7  -2   54.37    3.14
  -4   7  -3    0.67    0.58
   4   7   3    0.26    0.55
  -4   7  -3    0.28    0.72
   4  -7   3   -0.20    0.46
  -4  -7  -3    1.21    0.74
  -4   7  -4   58.75    3.36
  -4   7  -4   63.09    4.45
   4   7   4   55.09    3.25
  -4  -7  -4   56.50    3.38
  -4   7  -5   16.10    1.55
  -4   7  -5   15.01    2.13
  -4  -7  -5   18.39    1.60
  -4   7  -6  110.01    5.46
  -4   7  -6  102.46    5.33
  -4  -7  -6  100.41    5.45
  -4   7  -7   21.61    1.87
  -4   7  -7   24.93    1.99
  -4  -7  -7   24.75    2.10
  -4   7  -8   24.52    2.04
  -4   7  -8   31.18    2.17
  -4  -7  -8   27.05    2.27
  -4   7  -9    0.50    0.73
  -4   7  -9    0.51    0.72
  -4  -7  -9   -0.24    0.86
  -4   7 -10    9.66    1.40
  -4   7 -10   10.27    1.40
  -4  -7 -10   10.40    1.61
  -4   7 -11    7.76    1.23
  -4   7 -11    8.36    1.38
  -4  -7 -11    9.19    1.63
  -4  -7 -12   44.31    3.40
  -4   8  13    2.49    0.88
  -4   8  12    0.52    0.68
   4  -8 -12    0.71    0.95
  -4   8  11   19.85    1.66
   4   8 -11   22.66    1.74
   4  -8 -11   25.60    2.24
   4   8 -10   36.74    2.49
  -4   8  10   38.82    2.35
   4  -8 -10   40.23    2.75
  -4   8   9   51.30    2.86
   4   8  -9   59.15    3.28
   4  -8  -9   54.50    3.42
   4   8  -8   42.22    2.68
  -4   8   8   43.59    2.45
   4  -8  -8   41.67    2.87
  -4   8   7   23.30    1.68
   4   8  -7   25.14    1.91
   4  -8  -7   23.20    1.99
   4   8  -6    2.04    0.83
  -4   8   6    0.86    0.63
   4  -8  -6    2.55    1.04
   4   8  -5   34.59    2.39
  -4   8   5   35.67    2.25
   4  -8  -5   39.64    2.55
   4   8  -4   67.93    3.77
  -4   8   4   67.43    3.74
  -4  -8   4   72.03    3.77
   4  -8  -4   68.83    3.94
  -4   8   3  118.50    5.87
   4   8  -3  107.78    5.84
  -4  -8   3  125.42    5.93
  -4  -8   3  115.02    4.49
   4  -8  -3  124.04    6.03
   4   8  -2   96.82    5.14
  -4   8   2  103.60    5.17
   4  -8  -2  104.63    5.29
  -4  -8   2  103.36    5.21
   4  -8  -2   97.26    5.22
   4   8  -1   36.98    2.43
  -4   8   1   39.92    2.44
   4  -8  -1   36.10    2.47
   4  -8  -1   37.67    1.94
  -4  -8   1   36.92    2.55
   4  -8  -1   42.20    2.58
   4   8   0    0.85    0.68
  -4   8   0    1.07    0.68
   4  -8   0    0.85    0.43
   4  -8   0    1.00    0.72
  -4  -8   0    0.20    0.81
   4   8   1   25.00    1.89
  -4   8  -1   27.16    1.93
   4  -8   1   24.61    1.40
  -4  -8  -1   24.44    1.94
   4  -8   1   26.10    1.99
  -4   8  -2   55.64    3.41
   4   8   2   62.36    3.51
   4  -8   2   57.53    3.45
  -4  -8  -2   68.48    3.59
  -4   8  -3  129.76    6.49
   4   8   3  126.05    6.44
  -4  -8  -3  129.28    6.57
   4  -8   3  131.09    6.44
  -4   8  -4   69.05    5.18
   4   8   4   70.42    3.89
  -4   8  -4   66.73    3.89
  -4  -8  -4   73.24    4.06
  -4   8  -5   20.33    1.84
  -4  -8  -5   18.80    1.88
  -4   8  -6    0.41    0.73
  -4  -8  -6   -0.18    0.81
  -4   8  -7   15.65    1.77
  -4   8  -7   15.83    1.74
  -4  -8  -7   14.79    1.80
  -4   8  -8   35.81    2.51
  -4   8  -8   32.50    2.43
  -4  -8  -8   32.70    2.66
  -4   8  -9   41.64    2.90
  -4   8  -9   45.73    2.95
  -4  -8  -9   41.24    3.14
  -4   8 -10   25.85    2.13
  -4   8 -10   21.34    2.10
  -4  -8 -10   19.01    2.25
  -4   8 -11   17.51    1.87
  -4   8 -11   16.50    1.89
  -4  -8 -11   10.60    1.94
  -4   9  13   25.13    2.18
   4  -9 -13   38.62    2.82
   4  -9 -12   13.50    1.86
   4   9 -11   35.51    2.42
  -4   9  11   38.99    2.38
   4  -9 -11   31.56    2.81
   4   9 -10    4.21    1.04
  -4   9  10    4.17    0.92
   4  -9 -10    0.86    1.13
   4   9  -9    3.16    1.01
  -4   9   9    2.77    0.83
   4  -9  -9    2.02    1.12
   4   9  -8    8.40    1.36
  -4   9   8   10.08    1.26
   4  -9  -8   14.25    1.72
   4   9  -7   73.89    4.07
  -4   9   7   66.80    3.55
   4  -9  -7   75.61    4.27
   4   9  -6   41.07    2.66
  -4   9   6   35.06    2.30
   4  -9  -6   38.86    2.72
  -4   9   5   70.56    4.06
   4   9  -5   74.77    4.03
   4  -9  -5   70.76    4.13
  -4   9   4    8.32    1.14
   4   9  -4    6.41    1.12
   4  -9  -4    6.18    1.25
   4   9  -3   -0.11    0.79
  -4   9   3    0.28    0.64
  -4  -9   3    0.05    0.90
   4  -9  -3    0.30    0.90
   4   9  -2   16.70    1.63
  -4   9   2   13.45    1.52
   4  -9  -2   13.66    1.63
   4  -9  -2   16.06    1.75
  -4  -9   2   15.55    1.66
   4   9  -1  110.97    5.46
  -4   9   1   90.56    5.26
  -4  -9   1  105.04    5.47
   4  -9  -1  100.06    5.45
   4  -9  -1  105.43    5.42
   4  -9  -1  103.93    4.35
  -4   9   0   44.53    2.87
   4   9   0   49.98    2.99
   4  -9   0   46.36    3.01
   4  -9   0   47.91    2.28
  -4  -9   0   45.53    3.00
   4   9   1   88.96    4.84
  -4   9  -1   84.07    4.78
   4  -9   1   89.22    3.80
  -4  -9  -1   92.82    4.93
   4  -9   1   96.33    4.89
  -4   9  -2   23.84    1.96
   4   9   2   21.61    1.99
   4  -9   2   21.84    1.91
  -4  -9  -2   22.02    2.10
   4   9   3   -0.59    0.73
  -4   9  -3    0.84    0.70
  -4   9  -3    0.16    0.82
   4  -9   3    1.80    0.78
  -4  -9  -3   -0.02    0.91
   4   9   4    7.85    1.38
  -4   9  -4    7.37    1.25
  -4  -9  -4    9.37    1.49
  -4   9  -5   74.84    4.33
  -4  -9  -5   75.77    4.46
  -4   9  -6   28.43    2.27
  -4  -9  -6   31.23    2.60
  -4   9  -7   64.77    3.88
  -4   9  -7   66.75    3.89
  -4  -9  -7   59.30    4.02
  -4   9  -8    8.57    1.44
  -4   9  -8   11.09    1.50
  -4  -9  -8    8.49    1.57
  -4   9  -9    1.05    0.85
  -4   9  -9    0.16    0.83
  -4  -9  -9   -1.66    1.12
  -4   9 -10    2.77    1.10
  -4   9 -10    3.19    0.97
  -4  -9 -10   -0.46    1.45
  -4   9 -11   20.36    1.93
  -4  -9 -11   14.23    2.41
   4 -10 -13   -0.07    1.17
  -4  10  12    0.35    0.71
   4 -10 -12    3.11    1.38
   4  10 -11    2.07    0.86
  -4  10  11    1.22    0.84
   4 -10 -11    0.61    1.23
   4  10 -10   55.36    3.51
  -4  10  10   52.34    3.15
   4 -10 -10   58.06    3.79
  -4  10   9    5.12    1.07
   4  10  -9    5.60    1.25
   4 -10  -9    5.93    1.48
  -4  10   8   57.94    3.32
   4  10  -8   58.61    3.73
   4 -10  -8   68.20    4.04
  -4  10   7    5.67    1.11
   4  10  -7    5.24    1.23
   4 -10  -7    4.61    1.30
  -4  10   6    1.56    0.79
   4  10  -6    2.00    1.02
   4 -10  -6    1.54    1.05
   4  10  -5    3.87    1.08
   4 -10  -5    2.41    1.12
  -4  10   4  122.80    6.29
   4  10  -4  119.28    6.36
   4 -10  -4  126.71    6.53
   4  10  -3   10.21    1.50
  -4  10   3   10.02    1.38
  -4 -10   3    9.62    1.50
   4 -10  -3    5.55    1.28
  -4  10   2   94.67    5.16
   4  10  -2  105.89    5.31
   4 -10  -2   92.66    5.29
   4 -10  -2   98.62    4.25
  -4 -10   2   97.19    5.28
   4 -10  -2   95.03    5.28
  -4  10   1    3.85    0.98
   4  10  -1    4.38    1.11
  -4 -10   1    3.65    1.23
   4 -10  -1    2.00    0.87
   4 -10  -1    1.43    1.00
   4 -10  -1    1.82    0.60
  -4  10   0    3.74    1.05
   4  10   0    4.25    1.19
   4 -10   0    3.61    0.66
  -4 -10   0    2.93    1.26
   4 -10   0    3.69    1.08
   4  10   1    1.35    0.90
  -4  10  -1    0.90    0.79
   4 -10   1    1.55    0.50
  -4 -10  -1    2.05    1.23
   4 -10   1    2.03    0.90
  -4  10  -2   67.37    4.13
   4  10   2   74.83    4.30
  -4 -10  -2   72.37    4.33
   4 -10   2   74.68    4.20
  -4  10  -3    4.11    1.01
   4  10   3    3.44    1.10
  -4 -10  -3    2.53    1.23
  -4  10  -4   63.10    4.00
  -4 -10  -4   72.63    4.26
  -4  10  -5    3.37    1.04
  -4 -10  -5    4.30    1.37
  -4  10  -6    0.63    0.82
  -4 -10  -6   -1.25    1.16
  -4  10  -7    0.18    0.74
  -4  10  -7    0.01    0.89
  -4 -10  -7    0.02    1.34
  -4  10  -8   44.96    3.15
  -4  10  -8   46.41    3.22
  -4 -10  -8   39.96    3.49
  -4  10  -9    2.60    1.04
  -4  10  -9    2.46    1.03
  -4 -10  -9   -0.06    1.53
  -4  10 -10   32.26    2.68
  -4 -10 -10   30.91    3.31
   4 -11 -13   35.58    3.10
   4 -11 -12    2.69    1.37
  -4  11  11   28.09    2.29
   4  11 -11   31.23    2.38
   4 -11 -11   29.48    2.90
   4  11 -10   -0.56    0.96
  -4  11  10   -0.10    0.73
   4 -11 -10    1.46    1.30
   4  11  -9    2.24    1.17
  -4  11   9    4.33    1.07
   4 -11  -9    6.42    1.58
  -4  11   8    0.23    0.79
   4  11  -8   -0.37    0.99
   4 -11  -8    0.49    1.24
  -4  11   7   58.24    3.48
   4  11  -7   62.08    3.93
   4 -11  -7   68.67    4.24
  -4  11   6   -0.24    0.80
   4  11  -6    0.08    0.90
   4 -11  -6   -0.23    1.03
   4  11  -5   58.90    3.62
   4 -11  -5   54.86    3.72
   4  11  -4    0.67    0.96
  -4  11   4    1.73    0.77
   4 -11  -4    0.81    1.13
   4  11  -3    0.53    0.96
  -4  11   3    1.57    0.84
   4 -11  -3    1.38    1.07
   4  11  -2    0.87    0.96
  -4  11   2    1.25    0.89
  -4 -11   2    0.29    0.39
   4 -11  -2    1.17    0.94
  -4 -11   2    1.30    1.06
   4 -11  -2    0.18    0.57
   4 -11  -2   -2.26    0.80
   4  11  -1  102.36    5.43
  -4  11   1   87.32    5.17
   4 -11  -1   89.15    5.31
   4 -11  -1   97.50    4.22
   4 -11  -1  101.34    5.42
  -4 -11   1  100.60    5.50
  -4  11   0    1.75    0.94
   4  11   0    0.72    1.08
   4 -11   0    1.28    0.58
   4 -11   0    0.94    0.95
  -4 -11   0   -0.12    1.19
  -4  11  -1   74.22    4.36
   4  11   1   72.82    4.36
  -4 -11  -1   74.39    4.52
   4 -11   1   75.18    3.23
   4 -11   1   70.78    4.29
  -4  11  -2    1.75    1.01
   4  11   2    0.23    1.10
   4 -11   2   -0.43    0.82
  -4 -11  -2    1.99    1.28
   4  11   3   -0.02    1.09
  -4  11  -3   -0.16    0.73
  -4 -11  -3   -0.41    1.29
  -4  11  -4    1.58    0.96
  -4 -11  -4   -2.57    1.24
  -4  11  -5   66.06    4.23
  -4 -11  -5   69.46    4.62
  -4  11  -6    0.10    0.87
  -4 -11  -6    0.05    1.52
  -4  11  -7   63.52    3.85
  -4  11  -7   51.51    3.71
  -4 -11  -7   48.13    3.93
  -4  11  -8    1.71    0.94
  -4  11  -8    0.19    0.96
  -4 -11  -8   -4.03    1.40
  -4  11  -9    0.06    0.82
  -4  11  -9   -1.37    0.84
  -4 -11  -9   -2.53    1.60
   4  12 -11    3.48    0.93
   4 -12 -11    3.79    1.56
  -4  12  10   38.02    2.71
   4  12 -10   35.95    2.92
   4 -12 -10   40.35    3.39
   4  12  -9    4.00    1.38
  -4  12   9    4.76    1.17
   4 -12  -9    5.12    1.61
  -4  12   8   23.52    2.21
   4  12  -8   25.32    2.45
   4 -12  -8   24.05    2.67
   4  12  -7   -0.45    1.19
  -4  12   7    1.30    0.94
   4 -12  -7   -0.21    1.11
   4  12  -6   -0.17    1.03
  -4  12   6   -0.97    0.76
   4 -12  -6   -0.35    1.25
   4  12  -5    0.95    1.20
   4 -12  -5    2.29    1.25
   4  12  -4   60.77    4.02
   4 -12  -4   62.06    4.12
  -4  12   3    9.84    1.42
   4  12  -3    7.55    1.56
   4 -12  -3    9.96    1.72
   4 -12  -3    6.62    1.59
   4  12  -2   48.90    3.66
  -4  12   2   54.89    3.64
   4 -12  -2   57.27    2.89
   4 -12  -2   57.35    3.77
  -4 -12   2   53.77    3.74
  -4 -12   2   63.97    2.47
   4 -12  -2   57.31    3.95
  -4  12   1    1.59    0.92
   4  12  -1    1.75    1.15
   4 -12  -1    1.05    0.93
   4 -12  -1    0.86    1.01
   4 -12  -1    1.37    0.63
  -4 -12   1    2.21    1.33
   4  12   0    0.53    1.14
  -4  12   0    2.26    0.99
   4 -12   0    2.02    1.11
  -4 -12   0    0.89    1.43
   4 -12   0    0.41    0.57
   4  12   1    4.33    1.51
  -4  12  -1    4.29    1.15
   4 -12   1    4.31    1.28
   4 -12   1    4.37    0.65
  -4 -12  -1    5.66    1.55
  -4  12  -2   60.12    3.94
   4  12   2   60.53    4.01
  -4 -12  -2   62.68    4.34
   4  12   3    5.70    1.51
  -4  12  -3    7.10    1.39
  -4 -12  -3    4.69    1.78
  -4  12  -4   39.69    3.00
  -4 -12  -4   41.40    3.47
  -4  12  -5   -0.81    0.84
  -4 -12  -5   -0.49    1.42
  -4  12  -6    0.69    0.97
  -4 -12  -6   -0.04    1.66
  -4  12  -7   -0.02    0.99
  -4  12  -7   -1.12    0.78
  -4 -12  -7   -2.03    1.32
  -4  12  -8   22.68    2.69
  -4  12  -8   31.30    2.67
  -4 -12  -8   27.92    3.25
   4  13 -10    3.69    1.19
   4 -13 -10    3.86    1.56
   4  13  -9    0.11    1.14
   4 -13  -9    1.91    1.41
  -4  13   8    7.48    1.38
   4  13  -8    6.11    1.55
   4 -13  -8    6.65    1.70
   4  13  -7   30.60    2.70
  -4  13   7   27.72    2.38
   4 -13  -7   28.03    2.82
   4  13  -6   13.01    2.04
  -4  13   6   18.68    2.01
   4 -13  -6   20.03    2.43
   4  13  -5   22.45    2.62
   4 -13  -5   22.44    2.53
   4  13  -4   -0.17    1.27
   4 -13  -4   -0.79    1.20
   4 -13  -4    3.03    1.25
  -4  13   3    2.24    0.96
   4  13  -3    0.57    1.17
   4 -13  -3    1.73    1.18
   4 -13  -3   -2.04    1.04
  -4  13   2    6.58    1.30
   4  13  -2    1.75    1.29
   4 -13  -2    4.44    1.55
   4 -13  -2    4.00    1.24
   4 -13  -2    4.72    0.91
  -4  13   1   39.72    3.04
   4  13  -1   38.20    3.21
   4 -13  -1   47.23    2.38
   4 -13  -1   42.04    3.33
  -4 -13   1   45.07    3.41
  -4 -13   1   41.74    2.12
  -4  13   0   25.81    2.35
   4  13   0   20.94    2.56
   4 -13   0   24.58    2.59
  -4 -13   0   23.12    2.70
   4 -13   0   27.70    1.64
   4  13   1   22.44    2.59
  -4  13  -1   22.43    2.29
  -4 -13  -1   26.23    2.91
   4  13   2    4.49    1.48
  -4  13  -2    5.51    1.41
  -4 -13  -2    3.82    1.65
  -4  13  -3    1.46    1.06
  -4 -13  -3   -3.14    1.46
  -4  13  -4    8.91    1.69
  -4 -13  -4    3.44    1.79
  -4  13  -5   25.52    2.50
  -4 -13  -5   18.53    2.79
  -4  13  -6   10.24    1.76
  -4 -13  -6    9.52    2.36
  -4  13  -7   21.42    2.54
  -4 -13  -7   20.67    2.87
   4  14  -9   21.71    2.54
   4  14  -8    6.58    1.68
   4 -14  -8    5.89    1.67
   4  14  -7    5.40    1.68
   4 -14  -7    4.86    1.55
  -4  14   6    0.09    0.83
   4  14  -6    0.01    1.37
   4 -14  -6   -3.04    1.23
   4 -14  -6    0.62    1.24
   4  14  -5   11.54    1.97
   4 -14  -5    8.75    2.07
   4 -14  -5   16.58    2.21
   4  14  -4   14.65    2.32
   4 -14  -4   17.72    2.30
   4 -14  -4   17.98    2.48
   4  14  -3   20.77    2.68
   4 -14  -3   29.32    2.79
   4 -14  -3   22.14    2.80
   4  14  -2   10.24    2.01
  -4  14   2   13.44    1.81
   4 -14  -2   11.37    1.98
   4 -14  -2   13.18    1.91
  -4  14   1    6.09    1.37
   4  14  -1    3.03    1.51
   4 -14  -1    5.46    1.55
  -4  14   0    0.53    0.91
   4  14   0   -1.46    1.17
  -4 -14   0    1.23    1.47
   4 -14   0    1.73    1.22
   4  14   1    7.00    1.93
  -4  14  -1    7.70    1.68
  -4 -14  -1    8.62    1.98
   4  14   2   13.02    2.21
  -4  14  -2   16.33    2.22
  -4 -14  -2   18.34    2.66
  -4  14  -3   34.56    2.97
  -4 -14  -3   28.18    3.34
  -4  14  -4   15.77    2.14
  -4 -14  -4   11.32    2.52
  -4  14  -5    7.93    1.60
  -4 -14  -5    3.45    2.03
   4  15  -6   24.92    2.99
   4 -15  -6   29.62    2.87
   4 -15  -6   23.18    3.01
   4  15  -5    3.39    1.55
   4 -15  -5    4.24    1.34
   4 -15  -5    1.26    1.65
   4  15  -4    2.84    1.71
   4 -15  -4    1.65    1.47
   4 -15  -4    7.90    1.63
   4  15  -3   -0.20    1.35
   4 -15  -3    1.61    1.40
   4 -15  -3    4.89    1.34
  -4  15   2    9.19    1.60
   4  15  -2    7.94    2.07
   4 -15  -2   10.14    1.95
  -4  15   1    6.28    1.43
   4  15  -1    6.69    1.89
   4 -15  -1    7.19    1.67
  -4  15   0   30.11    2.69
   4  15   0   25.29    3.02
  -4  15  -1    5.76    1.48
   4  15   1    3.08    1.77
  -4 -15  -1    3.32    1.65
  -4  15  -2    8.25    1.72
  -4 -15  -2    4.55    1.86
  -4  15  -3    2.19    1.18
  -4 -15  -3    0.41    1.78
  -4 -15  -4    4.87    1.98
   4 -16  -3   22.95    2.87
   4  16  -2   -1.12    1.52
   4 -16  -2    1.77    1.41
   4  16  -1    3.60    1.88
  -4  16   1   10.58    1.70
   4  16   0   -0.78    1.55
   4  16   1    7.15    2.15
  -5   0  15    0.46    0.79
  -5   0  14   16.20    1.64
  -5   0  13    0.57    0.59
  -5   0  12  204.81    8.55
  -5   0  11   -0.32    0.49
  -5   0  10  132.60    5.66
  -5   0   9    0.08    0.45
   5   0  -8   25.97    1.25
  -5   0   8   26.21    1.52
   5   0  -8   28.28    1.34
   5   0  -8   27.29    1.78
   5   0  -7    0.19    0.14
   5   0  -7    0.21    0.19
   5   0  -7   -0.20    0.19
  -5   0   7   -0.38    0.24
   5   0  -6  518.10   21.45
  -5   0   6  491.92   18.94
   5   0  -6  487.21   21.87
   5   0  -6  480.89   28.03
   5   0  -5   -0.17    0.23
  -5   0   5   -0.01    0.24
   5   0  -4  604.16   26.91
  -5   0   4  612.76   23.10
   5   0  -3   -0.23    0.21
  -5   0   3   -0.14    0.25
  -5   0   3   -0.19    0.21
   5   0  -3    0.07    0.32
   5   0  -2    0.22    0.30
  -5   0   2   -0.24    0.26
   5   0  -2   -0.01    0.28
  -5   0   2    0.03    0.20
   5   0  -2    0.83    0.25
  -5   0   2    0.01    0.26
   5   0  -1   -0.03    0.29
  -5   0   1    0.32    0.28
   5   0  -1   -0.08    0.29
  -5   0   1    0.16    0.28
  -5   0   0  985.56   41.43
   5   0   0 1000.00   41.44
   5   0   0  859.28   53.26
  -5   0   0  903.71   40.65
  -5   0  -1    0.06    0.34
  -5   0  -1   -0.25    0.29
   5   0   1   -0.15    0.31
  -5   0  -2  330.82   14.57
   5   0   2  321.61   14.81
  -5   0  -2  334.83   14.85
   5   0   3   -0.19    0.34
  -5   0  -3   -0.04    0.35
  -5   0  -3   -0.18    0.34
  -5   0  -4    5.28    0.71
   5   0   4    4.13    0.62
  -5   0  -4    3.86    0.69
  -5   0  -5   -0.07    0.45
  -5   0  -5    0.25    0.47
  -5   0  -6  294.39   13.45
  -5   0  -6  292.28   13.22
  -5   0  -7    0.23    0.47
  -5   0  -7    0.15    0.47
  -5   0  -8  135.03    6.68
  -5   0  -8  137.86    6.59
  -5   0  -9   -0.35    0.49
  -5   0  -9    0.09    0.56
  -5   0 -10    0.19    0.58
  -5   0 -10   -0.16    0.57
  -5   0 -11   -0.63    0.60
  -5   0 -11   -0.99    0.55
  -5   0 -12   83.89    4.63
  -5   1  15   89.37    4.55
  -5  -1  15   91.56    4.60
  -5   1  14    7.03    1.13
  -5  -1  14    4.86    0.99
  -5   1  13   54.69    2.97
  -5  -1  13   55.55    3.03
  -5   1  12    0.80    0.56
  -5  -1  12    0.49    0.64
  -5   1  11   17.50    1.37
  -5  -1  11   19.42    1.42
  -5   1  10   11.13    1.14
  -5  -1  10   12.33    1.16
  -5   1   9  315.46   12.80
   5   1  -9  324.77   18.77
   5  -1  -9  332.56   14.44
  -5  -1   9  328.74   12.82
   5   1  -8   20.53    1.46
  -5   1   8   18.66    1.21
   5   1  -8   19.72    1.00
   5  -1  -8   18.97    1.00
  -5  -1   8   18.54    1.21
   5  -1  -8   18.96    1.06
   5   1  -7  216.79   12.66
   5   1  -7  220.73    9.78
  -5   1   7  220.38    8.70
  -5  -1   7  214.14    8.66
   5  -1  -7  221.06    9.83
   5  -1  -7  222.76    9.61
  -5   1   6   -0.08    0.27
   5   1  -6    0.22    0.21
   5  -1  -6   -0.07    0.22
  -5  -1   6   -0.35    0.24
  -5   1   5   37.65    1.79
   5   1  -5   39.26    1.93
   5  -1  -5   38.71    1.97
  -5  -1   5   38.33    1.77
  -5   1   4   83.91    3.32
   5   1  -4   80.26    3.77
   5  -1  -4   78.69    3.79
  -5  -1   4   77.37    3.25
   5   1  -3  797.10   35.99
  -5   1   3  838.01   35.99
  -5   1   3  818.07   30.85
  -5  -1   3  811.00   30.78
   5  -1  -3  813.26   36.02
  -5  -1   3  830.97   35.98
   5  -1  -3  796.69   46.45
  -5   1   2   12.32    0.91
   5   1  -2   13.69    0.94
  -5   1   2   13.20    0.88
   5  -1  -2   15.30    0.78
   5  -1  -2   14.23    1.07
  -5  -1   2   13.58    0.69
  -5  -1   2   13.22    0.95
   5  -1  -2   12.69    0.94
  -5  -1   2   13.64    0.68
  -5   1   1  508.30   21.14
  -5   1   1  469.35   27.09
  -5   1   1  472.60   20.71
   5   1  -1  473.38   21.12
  -5  -1   1  503.21   17.88
  -5  -1   1  487.43   20.73
   5  -1  -1  476.76   21.13
  -5  -1   1  428.49   21.07
   5  -1  -1  449.78   17.84
  -5   1   0   17.76    1.18
   5   1   0   20.50    1.27
  -5   1   0   21.60    1.29
   5   1   0   21.25    1.60
  -5   1   0   18.37    1.55
   5  -1   0   19.49    1.25
  -5  -1   0   20.03    1.28
  -5  -1   0   19.21    1.20
   5  -1   0   17.99    1.54
  -5   1  -1   21.11    1.72
   5   1   1   20.11    1.32
  -5   1  -1   20.85    1.29
  -5   1  -1   22.93    1.37
  -5  -1  -1   24.37    1.32
   5  -1   1   19.91    1.35
  -5  -1  -1   19.67    1.31
  -5   1  -2   10.45    0.91
  -5   1  -2   11.71    1.28
   5   1   2   10.50    0.91
  -5   1  -2   12.42    0.95
   5  -1   2   11.05    0.92
  -5  -1  -2   11.37    0.92
  -5  -1  -2   12.43    0.98
  -5   1  -3  414.71   24.28
   5   1   3  425.01   18.75
  -5   1  -3  371.86   18.74
  -5  -1  -3  456.05   18.46
   5  -1   3  438.91   18.76
  -5  -1  -3  400.41   18.77
  -5   1  -4   46.54    2.71
  -5   1  -4   55.51    2.70
  -5   1  -4   60.88    3.80
   5   1   4   52.30    2.69
  -5  -1  -4   43.58    2.67
   5  -1   4   51.53    2.68
  -5  -1  -4   46.74    2.65
  -5   1  -5  277.01   11.70
  -5   1  -5  260.79   15.24
  -5   1  -5  255.85   11.45
  -5  -1  -5  245.23   11.43
  -5  -1  -5  228.64   11.60
  -5   1  -6    5.39    0.83
  -5   1  -6    5.10    1.26
  -5   1  -6    5.48    0.84
  -5  -1  -6    4.29    0.79
  -5  -1  -6    5.13    0.79
  -5   1  -7    2.40    1.02
  -5   1  -7    2.76    0.70
  -5   1  -7    3.55    0.73
  -5  -1  -7    3.99    0.77
  -5  -1  -7    3.95    0.77
  -5   1  -8    3.95    0.80
  -5   1  -8    4.29    0.82
  -5  -1  -8    4.15    0.82
  -5  -1  -8    3.64    0.79
  -5   1  -9  139.38    6.67
  -5   1  -9  141.17    6.77
  -5  -1  -9  131.37    6.76
  -5  -1  -9  134.49    6.68
  -5   1 -10   10.37    1.28
  -5   1 -10   10.36    1.32
  -5  -1 -10    8.73    1.25
  -5  -1 -10   11.54    1.38
  -5   1 -11   69.30    3.97
  -5   1 -11   68.13    3.95
  -5  -1 -11   76.18    4.06
  -5  -1 -11   70.88    4.01
  -5   1 -12    1.35    0.79
  -5  -1 -12    0.11    0.77
  -5   2  15   -0.30    0.60
  -5  -2  15   -0.01    0.82
  -5   2  14    8.53    1.28
  -5  -2  14    6.73    1.24
  -5   2  13   22.54    1.81
  -5  -2  13   23.54    1.84
  -5   2  12  120.57    5.24
  -5  -2  12  111.12    5.18
  -5   2  11   39.62    2.14
  -5  -2  11   33.44    2.11
  -5   2  10  102.40    4.49
  -5  -2  10  101.79    4.50
   5  -2 -10   99.59    4.74
   5   2  -9    4.43    0.46
   5   2  -9    5.26    0.83
  -5   2   9    5.01    0.77
   5  -2  -9    6.01    0.60
  -5  -2   9    6.00    0.83
   5   2  -8   18.95    1.53
  -5   2   8   17.79    1.21
   5   2  -8   19.16    1.02
   5  -2  -8   18.71    1.12
  -5  -2   8   16.92    1.19
   5   2  -7   36.11    1.80
  -5   2   7   36.88    1.83
   5  -2  -7   35.88    1.88
  -5  -2   7   36.54    1.81
   5   2  -6  468.18   20.91
  -5   2   6  472.14   18.14
   5  -2  -6  466.04   20.98
  -5  -2   6  482.68   18.11
  -5   2   5  139.24    5.49
   5   2  -5  138.95    6.22
  -5  -2   5  132.03    5.41
   5  -2  -5  133.66    6.27
   5   2  -4  222.91   10.15
  -5   2   4  217.85    8.79
  -5   2   4  237.60   10.17
  -5  -2   4  224.28    8.71
   5  -2  -4  224.87   10.21
   5   2  -3   19.89    1.20
  -5   2   3   20.48    1.18
  -5   2   3   20.06    1.30
   5  -2  -3   19.21    1.21
  -5  -2   3   17.19    1.13
  -5  -2   3   20.73    0.95
  -5   2   2   64.90    3.05
  -5   2   2   62.91    2.94
  -5   2   2   58.12    3.71
   5   2  -2   60.05    3.01
   5  -2  -2   58.58    2.52
  -5  -2   2   61.12    2.44
  -5  -2   2   61.97    2.42
  -5  -2   2   62.93    3.02
   5  -2  -2   60.08    3.04
  -5   2   1   39.88    2.07
  -5   2   1   42.08    2.64
   5   2  -1   39.43    2.12
  -5   2   1   40.36    2.13
  -5  -2   1   39.26    2.11
   5  -2  -1   38.72    1.75
   5  -2  -1   40.58    2.14
  -5   2   0  410.92   19.17
  -5   2   0  452.28   18.83
   5   2   0  415.54   19.16
   5  -2   0  442.99   24.65
   5  -2   0  426.37   19.18
  -5  -2   0  424.49   19.17
   5   2   1  157.76    7.50
  -5   2  -1  174.68    7.55
  -5   2  -1  180.63    9.72
  -5   2  -1  155.53    7.35
   5  -2   1  156.76    7.49
  -5  -2  -1  159.72    7.34
  -5  -2  -1  148.57    7.48
  -5   2  -2  255.67   10.90
  -5   2  -2  240.08   14.32
  -5   2  -2  255.51   11.12
   5   2   2  231.50   11.04
  -5  -2  -2  249.48   11.10
   5  -2   2  223.10   11.03
  -5  -2  -2  243.48   10.87
   5   2   3   15.89    1.18
  -5   2  -3   16.05    1.15
  -5   2  -3   16.80    1.24
  -5   2  -3   17.82    1.66
  -5  -2  -3   16.08    1.22
   5  -2   3   15.68    1.14
  -5  -2  -3   15.36    1.17
  -5   2  -4    0.60    0.43
  -5   2  -4    0.09    0.40
   5   2   4    0.56    0.40
  -5   2  -4    0.58    0.65
   5  -2   4    0.41    0.33
  -5  -2  -4    0.97    0.43
  -5  -2  -4    0.72    0.48
  -5   2  -5   62.26    3.09
  -5   2  -5   52.06    4.08
  -5   2  -5   55.20    2.99
  -5  -2  -5   59.19    3.01
  -5  -2  -5   50.73    2.99
  -5   2  -6  190.56    8.47
  -5   2  -6  166.24    8.54
  -5   2  -6  192.69   11.38
  -5  -2  -6  189.06    8.47
  -5  -2  -6  170.92    8.57
  -5   2  -7   32.93    2.13
  -5   2  -7   34.91    2.19
  -5   2  -7   37.28    3.17
  -5  -2  -7   33.97    2.17
  -5  -2  -7   34.75    2.21
  -5   2  -8   98.44    5.14
  -5   2  -8  114.34    5.29
  -5  -2  -8   99.26    5.24
  -5  -2  -8   99.38    5.17
  -5   2  -9    9.02    1.17
  -5   2  -9    8.34    1.13
  -5  -2  -9    9.44    1.24
  -5  -2  -9   10.53    1.25
  -5   2 -10   -1.12    0.53
  -5   2 -10   -0.18    0.56
  -5  -2 -10   -0.11    0.63
  -5   2 -11    9.99    1.33
  -5   2 -11   11.65    1.44
  -5  -2 -11   11.85    1.46
  -5   2 -12   49.41    3.18
  -5  -2 -12   52.68    3.26
  -5   3  15   48.33    2.86
  -5  -3  15   45.09    2.94
  -5   3  14   43.46    2.60
  -5  -3  14   37.91    2.63
  -5   3  13   23.41    1.77
  -5  -3  13   20.82    1.83
  -5   3  12    7.52    1.07
  -5  -3  12    8.99    1.16
  -5   3  11   13.91    1.33
  -5  -3  11   11.62    1.27
  -5   3  10   75.35    3.57
   5  -3 -10   74.35    3.72
   5  -3 -10   76.43    3.72
  -5  -3  10   80.56    3.62
   5   3  -9  116.51    6.89
  -5   3   9  112.28    4.81
   5   3  -9  113.33    5.11
   5  -3  -9  108.99    5.23
   5  -3  -9  107.46    5.22
  -5  -3   9  106.33    4.76
  -5   3   8  156.11    6.48
   5   3  -8  154.24    7.15
   5  -3  -8  155.16    7.28
   5  -3  -8  166.27    7.31
  -5  -3   8  157.04    6.46
   5   3  -7  118.12    5.36
  -5   3   7  114.59    4.87
  -5  -3   7  111.76    4.81
   5  -3  -7  116.68    5.47
   5  -3  -7  119.49    5.49
   5   3  -6   13.38    0.87
  -5   3   6   13.52    0.96
   5  -3  -6   11.48    0.94
  -5  -3   6   12.36    0.85
   5  -3  -6   14.07    1.00
  -5   3   5    2.89    0.43
   5   3  -5    2.58    0.43
  -5   3   5    2.07    0.44
   5  -3  -5    2.74    0.51
  -5  -3   5    1.95    0.36
  -5   3   4  200.75    8.91
   5   3  -4  202.56    8.92
  -5   3   4  198.64    7.75
  -5   3   4  197.29   11.21
  -5  -3   4  199.42    7.62
   5  -3  -4  179.68    8.95
  -5  -3   4  193.26    8.87
  -5   3   3  240.23   10.15
  -5   3   3  229.94   12.83
  -5   3   3  220.96    9.89
   5   3  -3  224.68   10.12
   5  -3  -3  208.53   10.15
  -5  -3   3  223.21   10.10
  -5  -3   3  214.46    8.57
  -5   3   2  130.37    6.15
   5   3  -2  126.01    6.14
  -5   3   2  125.77    7.76
  -5   3   2  140.76    6.03
  -5  -3   2  134.33    6.15
   5  -3  -2  136.11    5.19
  -5  -3   2  132.54    5.08
   5  -3  -2  130.31    6.19
  -5   3   1  164.39    7.12
  -5   3   1  146.33    9.21
  -5   3   1  168.18    7.29
   5   3  -1  157.57    7.26
   5  -3  -1  150.91    6.09
  -5  -3   1  153.86    7.24
   5  -3  -1  155.75    7.29
  -5   3   0   11.18    0.97
   5   3   0   13.93    1.00
  -5   3   0   15.45    1.29
  -5   3   0   12.94    0.99
   5  -3   0   13.41    0.82
   5  -3   0   13.01    1.02
  -5  -3   0   11.26    0.96
  -5   3  -1    0.46    0.39
   5   3   1    0.91    0.40
  -5   3  -1    0.43    0.36
  -5   3  -1    0.57    0.49
   5  -3   1    0.30    0.40
  -5  -3  -1    0.18    0.33
  -5   3  -2   87.55    4.07
  -5   3  -2   87.99    5.40
  -5   3  -2   87.12    4.16
   5   3   2   77.35    4.08
  -5  -3  -2   78.30    4.12
   5  -3   2   82.24    4.12
   5   3   3  215.89    8.29
  -5   3  -3  218.67    9.86
  -5   3  -3  219.46   13.03
   5   3   3  215.30   10.01
  -5   3  -3  243.40   10.12
   5  -3   3  207.02    9.99
  -5  -3  -3  203.68   10.03
   5   3   4  125.84    5.92
  -5   3  -4  120.86    5.84
  -5   3  -4  130.33    6.02
  -5   3  -4  126.28    7.85
   5  -3   4  121.16    5.89
  -5  -3  -4  116.34    5.97
  -5   3  -5   78.18    3.76
  -5   3  -5   74.75    3.65
  -5   3  -5   57.47    4.80
  -5  -3  -5   71.00    3.73
  -5   3  -6   23.86    1.81
  -5   3  -6   31.00    2.72
  -5   3  -6   30.25    1.89
  -5  -3  -6   24.97    1.84
  -5   3  -7    4.01    0.80
  -5   3  -7    3.49    1.11
  -5   3  -7    3.33    0.74
  -5  -3  -7    4.03    0.82
  -5   3  -8   23.61    1.90
  -5   3  -8   30.77    1.98
  -5  -3  -8   27.09    2.00
  -5   3  -9   38.67    2.45
  -5   3  -9   36.55    2.44
  -5  -3  -9   39.17    2.54
  -5   3 -10   77.59    4.23
  -5   3 -10   76.87    4.22
  -5  -3 -10   77.51    4.33
  -5   3 -11   32.25    2.35
  -5   3 -11   32.63    2.40
  -5  -3 -11   35.67    2.52
  -5   3 -12    5.95    1.17
  -5  -3 -12   10.50    1.51
  -5   4  15    0.81    0.73
  -5   4  14    2.67    0.89
  -5   4  13   49.50    2.87
  -5  -4  13   53.18    2.98
  -5   4  12   29.04    1.88
  -5  -4  12   26.61    1.94
  -5   4  11  100.45    4.42
   5  -4 -11   92.74    4.65
  -5  -4  11   95.00    4.45
  -5   4  10   15.70    1.29
  -5  -4  10   16.55    1.37
   5  -4 -10   13.82    1.22
   5   4  -9    4.63    0.96
  -5   4   9    5.10    0.77
   5   4  -9    4.91    0.68
  -5  -4   9    5.10    0.78
   5  -4  -9    5.42    0.79
   5   4  -8    4.59    0.62
  -5   4   8    4.57    0.72
   5  -4  -8    3.52    0.73
  -5  -4   8    6.08    0.80
  -5   4   7  123.41    5.26
   5   4  -7  124.07    5.85
  -5  -4   7  125.34    5.23
   5  -4  -7  130.43    5.99
  -5   4   6   68.63    3.08
   5   4  -6   68.42    3.37
   5  -4  -6   67.42    3.49
  -5  -4   6   70.57    3.03
   5  -4  -6   69.08    3.50
  -5   4   5  191.26    7.58
   5   4  -5  179.29    8.64
  -5   4   5  200.61    8.67
   5  -4  -5  185.89    8.75
  -5  -4   5  189.13    8.69
  -5  -4   5  185.19    7.46
   5  -4  -5  193.90    8.78
  -5   4   4   58.20    2.80
   5   4  -4   54.29    2.78
  -5  -4   4   53.27    2.74
   5  -4  -4   52.05    2.83
   5  -4  -4   54.73    2.88
   5   4  -3   53.84    2.78
  -5   4   3   54.29    2.69
  -5   4   3   57.83    2.83
   5  -4  -3   53.97    2.88
  -5  -4   3   53.14    2.77
  -5   4   2    2.62    0.50
   5   4  -2    1.76    0.46
  -5   4   2    2.47    0.55
  -5   4   2    1.45    0.51
   5  -4  -2    3.76    0.52
  -5  -4   2    2.42    0.50
   5  -4  -2    2.03    0.55
  -5   4   1  166.63   10.14
  -5   4   1  183.87    8.01
   5   4  -1  162.61    7.94
  -5   4   1  170.47    7.79
   5  -4  -1  170.24    8.01
   5  -4  -1  174.20    6.70
  -5  -4   1  173.55    7.97
   5   4   0   56.06    2.99
  -5   4   0   54.77    2.93
  -5   4   0   61.99    3.08
  -5   4   0   63.02    3.86
  -5  -4   0   56.73    3.02
   5  -4   0   57.47    2.48
   5  -4   0   56.79    3.04
   5   4   1  372.57   15.75
  -5   4  -1  307.52   15.38
  -5   4  -1  382.08   20.32
  -5   4  -1  300.74   15.68
   5  -4   1  359.10   15.76
  -5  -4  -1  366.40   15.77
   5   4   2   86.29    4.21
  -5   4  -2   87.33    4.14
  -5   4  -2   69.74    4.13
   5   4   2   87.07    3.24
   5  -4   2   85.71    4.21
  -5  -4  -2   85.98    4.23
   5   4   3   33.07    1.99
  -5   4  -3   34.07    2.03
  -5   4  -3   32.70    2.68
  -5   4  -3   33.06    1.97
   5  -4   3   31.55    1.95
  -5  -4  -3   33.72    2.04
   5   4   4    3.35    0.72
  -5   4  -4    3.07    0.92
  -5   4  -4    4.35    0.75
  -5   4  -4    3.33    0.70
   5  -4   4    3.43    0.67
  -5  -4  -4    4.48    0.83
  -5   4  -5   92.67    4.68
  -5   4  -5   98.81    4.81
  -5   4  -5   89.95    6.27
  -5  -4  -5   94.53    4.81
  -5   4  -6   38.07    3.25
  -5   4  -6   33.60    2.24
  -5   4  -6   41.40    2.40
  -5  -4  -6   36.39    2.35
  -5   4  -7  146.96    6.93
  -5   4  -7  144.87    7.02
  -5  -4  -7  137.95    7.04
  -5   4  -8   23.01    1.77
  -5   4  -8   19.07    1.64
  -5  -4  -8   20.19    1.72
  -5   4  -9   22.24    1.84
  -5   4  -9   22.83    1.76
  -5  -4  -9   17.87    1.76
  -5   4 -10   -0.10    0.61
  -5   4 -10   -0.37    0.54
  -5  -4 -10    0.41    0.73
  -5   4 -11   26.46    2.12
  -5   4 -11   25.76    2.02
  -5  -4 -11   24.08    2.19
  -5   4 -12    9.03    1.41
  -5  -4 -12   13.59    1.71
  -5   5  15    0.68    0.79
  -5   5  14   52.72    3.05
  -5   5  13    1.37    0.68
  -5   5  12    3.61    0.82
  -5   5  11   -0.29    0.52
   5  -5 -11    1.33    0.66
   5   5 -10   81.04    4.00
  -5   5  10   81.26    3.80
   5   5 -10   78.32    5.42
   5  -5 -10   83.26    4.17
  -5   5   9    6.05    0.86
   5   5  -9    5.27    0.79
   5  -5  -9    7.49    0.99
  -5   5   8  173.18    7.23
   5   5  -8  170.82    8.13
   5  -5  -8  183.87    8.30
  -5   5   7    4.04    0.68
   5   5  -7    5.35    0.71
   5  -5  -7    3.91    0.82
   5   5  -6   21.42    1.43
  -5   5   6   22.27    1.41
   5  -5  -6   22.33    1.60
   5   5  -5    8.89    0.89
  -5   5   5   11.28    0.90
   5  -5  -5    9.17    1.03
  -5  -5   5    9.22    0.94
   5  -5  -5   10.05    1.01
  -5   5   4  126.71    6.09
  -5   5   4  129.96    5.90
   5   5  -4  122.10    6.07
   5  -5  -4  132.39    6.19
   5  -5  -4  122.79    6.19
  -5  -5   4  136.93    6.09
   5   5  -3   15.69    1.17
  -5   5   3   17.48    1.25
  -5   5   3   16.55    1.13
   5  -5  -3   15.95    1.27
  -5  -5   3   16.39    1.22
  -5   5   2  357.04   15.76
  -5   5   2  332.87   15.38
   5   5  -2  344.00   15.72
   5  -5  -2  345.02   13.28
  -5  -5   2  337.43   15.70
   5  -5  -2  369.86   15.82
  -5   5   1    1.54    0.59
  -5   5   1    2.21    0.52
  -5   5   1    2.38    0.59
   5   5  -1    2.43    0.53
   5  -5  -1    1.77    0.56
  -5  -5   1    1.55    0.53
   5  -5  -1    2.31    0.41
  -5   5   0   44.69    3.13
  -5   5   0   43.74    2.44
   5   5   0   42.37    2.45
  -5   5   0   44.66    2.51
   5  -5   0   46.05    2.03
   5  -5   0   44.79    2.52
  -5  -5   0   44.13    2.50
  -5   5  -1   -0.20    0.39
   5   5   1    0.15    0.41
  -5   5  -1    0.33    0.45
  -5   5  -1   -0.31    0.42
   5   5   1    0.18    0.14
  -5  -5  -1    0.12    0.43
   5  -5   1    0.56    0.43
   5   5   2  170.80    7.91
  -5   5  -2  168.90    7.78
  -5   5  -2  182.42    7.97
  -5   5  -2  158.33   10.18
  -5  -5  -2  155.91    7.89
   5  -5   2  164.81    7.88
   5   5   3    2.94    0.70
  -5   5  -3    2.64    0.72
  -5   5  -3    2.23    0.66
  -5   5  -3    3.33    0.99
  -5  -5  -3    3.67    0.78
   5  -5   3    4.16    0.71
   5   5   4  201.46    9.52
  -5   5  -4  190.99    9.53
  -5   5  -4  202.42   12.46
  -5   5  -4  224.47    9.44
   5  -5   4  203.56    9.48
  -5  -5  -4  195.60    9.57
  -5   5  -5    1.34    0.81
  -5   5  -5    3.38    0.73
  -5   5  -5    2.73    0.71
  -5  -5  -5    2.68    0.77
  -5   5  -6   26.12    1.94
  -5   5  -6   26.36    2.61
  -5   5  -6   26.11    1.91
  -5  -5  -6   27.67    2.00
  -5   5  -7    3.45    0.84
  -5   5  -7    2.95    0.79
  -5  -5  -7    2.90    0.87
  -5   5  -8   50.71    3.13
  -5   5  -8   58.08    3.22
  -5  -5  -8   52.35    3.27
  -5   5  -9   -0.30    0.62
  -5   5  -9    0.77    0.64
  -5  -5  -9   -0.05    0.75
  -5   5 -10   76.31    4.31
  -5   5 -10   73.87    4.32
  -5  -5 -10   83.65    4.54
  -5   5 -11    3.82    0.92
  -5   5 -11    5.62    1.08
  -5  -5 -11    4.97    1.29
  -5   5 -12   11.69    1.52
  -5  -5 -12   11.90    1.71
  -5   6  14    0.90    0.74
  -5   6  13   42.30    2.56
  -5   6  12    3.24    0.87
   5  -6 -12    5.02    0.92
  -5   6  11  113.65    5.10
   5  -6 -11  110.63    5.62
  -5   6  10    2.65    0.75
   5   6 -10    1.63    0.90
   5   6 -10    2.31    0.71
   5  -6 -10    2.13    0.81
  -5   6   9   16.20    1.35
   5   6  -9   15.44    1.37
   5  -6  -9   17.28    1.60
  -5   6   8    0.02    0.43
   5   6  -8   -0.36    0.56
   5  -6  -8    1.30    0.72
  -5   6   7  166.19    7.21
   5   6  -7  180.33    8.22
   5  -6  -7  178.33    8.36
   5   6  -6   14.11    1.19
  -5   6   6   11.01    1.15
   5  -6  -6   14.14    1.31
   5   6  -5  230.64   10.26
  -5   6   5  219.73   10.23
   5  -6  -5  214.64   10.35
   5   6  -4    4.03    0.73
  -5   6   4    3.62    0.66
  -5  -6   4    3.91    0.78
   5  -6  -4    6.18    0.96
   5  -6  -4    3.51    0.81
   5   6  -3   10.48    1.08
  -5   6   3   11.29    1.10
  -5   6   3   11.10    1.01
  -5  -6   3   11.15    1.07
   5  -6  -3   13.55    1.28
   5  -6  -3   10.46    1.19
  -5  -6   3   11.84    0.57
  -5   6   2    6.22    0.82
  -5   6   2    5.59    0.82
   5   6  -2    4.75    0.78
   5  -6  -2    5.41    0.68
  -5  -6   2    5.33    0.81
   5  -6  -2    4.26    0.80
   5   6  -1  126.09    6.08
  -5   6   1  128.23    5.94
  -5   6   1  121.31    6.07
   5  -6  -1  126.31    5.06
   5  -6  -1  120.32    6.11
  -5  -6   1  127.18    6.08
  -5   6   0    8.43    1.02
   5   6   0    5.16    0.85
  -5   6   0    5.61    1.06
  -5  -6   0    6.51    0.95
   5  -6   0    7.98    1.04
   5  -6   0    8.46    0.80
  -5   6  -1  190.65   11.89
  -5   6  -1  209.50    9.32
   5   6   1  200.23    9.26
   5  -6   1  201.57    7.68
   5  -6   1  192.45    9.25
  -5  -6  -1  185.59    9.25
   5   6   2    0.87    0.58
  -5   6  -2    1.24    0.76
  -5   6  -2   -0.44    0.49
  -5   6  -2    0.60    0.53
   5  -6   2    1.20    0.60
  -5  -6  -2    0.97    0.63
  -5   6  -3   30.80    2.01
  -5   6  -3   29.17    2.63
   5   6   3   29.33    1.98
  -5   6  -3   31.05    2.05
  -5  -6  -3   31.32    2.11
   5  -6   3   29.58    2.00
  -5   6  -4    0.78    0.63
  -5   6  -4    1.09    0.84
  -5   6  -4    0.87    0.63
   5   6   4    1.38    0.60
  -5  -6  -4    1.05    0.71
  -5   6  -5   51.69    4.19
  -5   6  -5   55.04    3.09
  -5   6  -5   51.13    3.09
  -5  -6  -5   56.72    3.22
  -5   6  -6    8.89    1.17
  -5   6  -6    7.44    1.16
  -5  -6  -6   10.24    1.33
  -5   6  -7  161.45    7.23
  -5   6  -7  127.49    7.16
  -5  -6  -7  149.54    7.35
  -5   6  -8    2.97    0.89
  -5   6  -8    4.75    1.01
  -5  -6  -8    3.56    1.05
  -5   6  -9   17.91    1.74
  -5   6  -9   20.65    1.85
  -5  -6  -9   23.03    2.07
  -5   6 -10    0.24    0.72
  -5   6 -10    0.55    0.71
  -5  -6 -10    1.34    0.98
  -5   6 -11   27.54    2.16
  -5   6 -11   25.84    2.30
  -5  -6 -11   28.18    2.49
  -5  -6 -12    1.18    1.13
  -5   7  14   33.06    2.35
  -5   7  13    6.95    1.18
  -5   7  12    1.29    0.71
   5  -7 -12    1.42    0.86
  -5   7  11    1.04    0.64
   5  -7 -11    3.70    1.02
  -5   7  10   46.73    2.63
   5   7 -10   48.79    2.82
   5  -7 -10   46.08    2.94
   5   7  -9   23.03    1.80
  -5   7   9   25.65    1.74
   5  -7  -9   25.95    2.02
  -5   7   8  109.92    4.95
   5   7  -8  115.23    5.54
   5  -7  -8  106.89    5.65
   5   7  -7   12.36    1.29
  -5   7   7   12.82    1.22
   5  -7  -7   11.24    1.39
   5   7  -6    7.17    1.00
  -5   7   6    7.25    0.99
   5  -7  -6    7.39    1.18
   5   7  -5    0.09    0.56
  -5   7   5    0.28    0.49
   5  -7  -5   -0.55    0.70
  -5   7   4   84.11    4.44
   5   7  -4   91.45    4.53
   5  -7  -4   88.54    4.62
  -5  -7   4   89.61    4.53
   5  -7  -4   85.41    4.62
   5   7  -3   79.62    4.24
  -5   7   3   84.77    4.27
  -5   7   3   78.73    4.11
  -5  -7   3   86.94    4.33
  -5  -7   3   82.17    3.21
   5  -7  -3   86.13    4.42
   5  -7  -3   83.20    4.39
  -5  -7   3   80.31    3.20
   5   7  -2  239.35   11.39
  -5   7   2  237.76   11.38
   5  -7  -2  244.00    9.57
  -5  -7   2  254.31   11.43
   5  -7  -2  250.66   11.51
  -5   7   1   31.80    2.00
   5   7  -1   28.58    1.94
   5  -7  -1   29.24    2.03
  -5  -7   1   28.20    1.98
   5  -7  -1   28.00    1.57
  -5   7   0   21.71    1.72
   5   7   0   23.59    1.75
  -5  -7   0   24.27    1.79
   5  -7   0   24.97    1.81
   5  -7   0   23.87    1.37
  -5   7  -1    7.28    1.29
  -5   7  -1    6.22    0.99
   5   7   1    6.16    1.01
  -5  -7  -1    5.98    1.02
   5  -7   1    7.31    1.06
   5  -7   1    6.25    0.70
  -5   7  -2   81.90    6.22
  -5   7  -2  102.87    4.98
   5   7   2   97.43    4.89
   5  -7   2   89.78    4.87
  -5  -7  -2  102.58    4.99
  -5   7  -3   41.08    2.62
   5   7   3   39.54    2.54
  -5   7  -3   42.32    3.38
   5  -7   3   39.49    2.48
  -5  -7  -3   39.55    2.58
  -5   7  -4  124.06    7.03
  -5   7  -4  146.87    9.32
  -5   7  -4  147.49    7.03
   5   7   4  152.42    7.12
  -5  -7  -4  148.71    7.21
  -5   7  -5   17.91    1.60
  -5   7  -5   17.92    1.68
  -5  -7  -5   19.47    1.71
  -5   7  -6   14.10    1.57
  -5   7  -6   16.31    1.56
  -5  -7  -6   19.93    1.73
  -5   7  -7    0.93    0.74
  -5   7  -7    0.61    0.72
  -5  -7  -7   -0.54    0.74
  -5   7  -8   35.01    2.56
  -5   7  -8   35.03    2.55
  -5  -7  -8   38.42    2.76
  -5   7  -9   13.80    1.65
  -5   7  -9   16.76    1.87
  -5  -7  -9   14.97    1.93
  -5   7 -10   47.10    3.18
  -5   7 -10   45.22    3.08
  -5  -7 -10   46.22    3.40
  -5   7 -11    5.69    1.27
  -5   7 -11    5.83    1.14
  -5  -7 -11    7.17    1.60
  -5  -7 -12    7.12    1.66
  -5   8  12   40.73    2.66
   5  -8 -12   45.61    2.99
  -5   8  11   41.75    2.58
   5   8 -11   41.69    2.68
   5  -8 -11   43.56    2.95
   5   8 -10   15.40    1.57
  -5   8  10   15.49    1.54
   5  -8 -10   16.37    1.78
  -5   8   9    2.41    0.73
   5   8  -9    1.09    0.81
   5  -8  -9   -0.37    0.87
   5   8  -8    3.71    0.94
  -5   8   8    3.60    0.85
   5  -8  -8    4.21    1.11
  -5   8   7   33.91    2.13
   5   8  -7   36.30    2.38
   5  -8  -7   35.07    2.54
   5   8  -6   67.90    3.64
  -5   8   6   57.90    3.22
   5  -8  -6   66.72    3.78
   5   8  -5   87.82    4.50
  -5   8   5   86.39    4.42
   5  -8  -5   79.27    4.53
  -5   8   4   62.23    3.54
   5   8  -4   65.69    3.61
   5  -8  -4   70.09    3.78
  -5  -8   4   67.06    3.66
   5  -8  -4   61.03    3.67
   5   8  -3   13.98    1.49
  -5   8   3   13.09    1.34
  -5  -8   3   13.39    0.70
   5  -8  -3   15.57    1.56
  -5  -8   3   14.09    1.56
  -5  -8   3   14.42    0.72
   5  -8  -3   13.92    1.57
   5   8  -2    5.81    1.02
  -5   8   2    6.62    1.02
   5  -8  -2    5.85    1.08
   5  -8  -2    4.97    1.02
   5  -8  -2    4.62    0.73
  -5  -8   2    4.55    1.06
   5   8  -1   76.26    4.17
  -5   8   1   73.76    4.11
   5  -8  -1   76.68    4.24
  -5  -8   1   79.43    4.18
   5  -8  -1   77.58    3.37
  -5   8   0   95.43    4.86
   5   8   0   97.28    4.91
  -5  -8   0   91.94    4.88
   5  -8   0   86.89    3.91
   5  -8   0   92.53    4.90
  -5   8  -1  115.19    7.50
   5   8   1  111.30    5.81
  -5   8  -1  111.88    5.84
   5  -8   1  117.79    5.87
  -5  -8  -1  114.26    5.87
   5  -8   1  115.33    4.69
  -5   8  -2   51.71    3.01
  -5   8  -2   48.41    3.81
   5   8   2   49.19    2.95
   5  -8   2   44.75    2.92
  -5  -8  -2   46.92    3.05
   5   8   3    5.60    1.08
  -5   8  -3    7.48    1.23
  -5   8  -3    7.53    1.52
   5  -8   3    5.61    0.99
  -5  -8  -3    6.72    1.18
  -5   8  -4    2.68    0.86
  -5   8  -4    1.99    0.84
   5   8   4    1.58    0.88
  -5  -8  -4    2.44    0.97
  -5   8  -5   25.62    2.07
  -5   8  -5   22.66    2.03
  -5  -8  -5   25.29    2.10
  -5   8  -6   50.58    3.26
  -5   8  -6   51.27    3.23
  -5  -8  -6   52.45    3.41
  -5   8  -7   61.46    3.73
  -5   8  -7   61.16    3.77
  -5  -8  -7   65.13    3.93
  -5   8  -8   23.90    2.09
  -5   8  -8   24.39    2.15
  -5  -8  -8   22.49    2.36
  -5   8  -9    4.02    1.07
  -5   8  -9    3.68    1.08
  -5  -8  -9    3.36    1.31
  -5   8 -10    0.72    0.84
  -5   8 -10    1.09    0.85
  -5  -8 -10    0.26    1.11
  -5   8 -11    9.94    1.41
  -5  -8 -11    9.88    1.90
  -5   9  13   20.43    2.12
   5  -9 -13   26.85    2.33
  -5   9  12    2.45    0.92
   5  -9 -12    3.53    1.20
   5   9 -11    8.54    1.33
  -5   9  11    8.02    1.29
   5  -9 -11    7.61    1.45
   5   9 -10   17.14    1.80
  -5   9  10   15.04    1.59
   5  -9 -10   19.79    2.04
  -5   9   9   66.79    3.50
   5   9  -9   64.86    3.83
   5  -9  -9   64.79    3.98
   5   9  -8   30.52    2.30
  -5   9   8   26.98    2.04
   5  -9  -8   28.02    2.42
   5   9  -7   43.52    2.89
  -5   9   7   44.30    2.61
   5  -9  -7   45.30    3.08
   5   9  -6    1.53    0.82
   5  -9  -6    3.00    1.10
   5   9  -5    7.72    1.26
   5  -9  -5    7.56    1.29
   5   9  -4   15.67    1.57
  -5   9   4   17.29    1.58
   5  -9  -4   13.46    1.71
   5  -9  -4   13.62    1.61
   5   9  -3  156.27    7.22
  -5   9   3  138.91    7.13
   5  -9  -3  140.54    7.27
   5  -9  -3  137.04    7.24
  -5  -9   3  145.84    7.18
  -5   9   2   52.89    3.19
   5   9  -2   51.77    3.16
   5  -9  -2   53.55    2.54
  -5  -9   2   48.47    3.26
   5  -9  -2   50.56    3.23
   5  -9  -2   55.07    3.29
   5   9  -1   56.22    3.29
  -5   9   1   52.08    3.21
   5  -9  -1   53.38    3.33
   5  -9  -1   52.19    2.56
  -5  -9   1   56.04    3.42
   5   9   0    0.89    0.76
  -5   9   0    0.23    0.68
   5  -9   0    0.25    0.66
  -5  -9   0    0.73    0.89
   5  -9   0    0.06    0.45
  -5   9  -1    1.52    0.83
   5   9   1    1.51    0.91
  -5  -9  -1    1.17    0.89
   5  -9   1    2.37    0.55
   5  -9   1    1.17    0.83
   5   9   2   14.54    1.62
  -5   9  -2   10.46    1.81
  -5   9  -2    8.47    1.34
  -5  -9  -2   12.65    1.63
   5  -9   2   10.14    1.40
  -5   9  -3   85.26    5.02
   5   9   3   98.29    5.12
  -5  -9  -3   96.74    5.18
  -5   9  -4   29.76    2.34
  -5  -9  -4   31.01    2.54
  -5   9  -5   57.38    3.61
  -5   9  -5   54.96    3.53
  -5  -9  -5   59.15    3.69
  -5   9  -6   10.05    1.49
  -5   9  -6    4.48    1.15
  -5  -9  -6    5.60    1.43
  -5   9  -7   -0.84    0.73
  -5   9  -7    0.97    0.84
  -5  -9  -7    2.04    1.20
  -5   9  -8    9.55    1.56
  -5   9  -8   13.32    1.69
  -5  -9  -8   10.18    1.82
  -5   9  -9   41.22    3.03
  -5   9  -9   43.97    3.09
  -5  -9  -9   41.97    3.38
  -5   9 -10   17.62    2.07
  -5   9 -10   21.08    2.19
  -5  -9 -10   15.98    2.32
  -5   9 -11   34.42    2.56
   5 -10 -13    4.41    1.14
  -5  10  12   47.50    3.02
   5 -10 -12   48.26    3.37
  -5  10  11    2.47    0.97
   5  10 -11    5.34    1.24
   5 -10 -11    3.37    1.29
  -5  10  10   17.94    1.81
   5  10 -10   22.02    2.11
   5 -10 -10   18.03    2.14
  -5  10   9    0.95    0.79
   5  10  -9   -0.62    0.98
   5 -10  -9    0.52    1.06
  -5  10   8    3.24    1.00
   5  10  -8    3.76    1.15
   5 -10  -8    3.97    1.22
   5  10  -7    0.26    0.92
  -5  10   7    1.07    0.77
   5 -10  -7    1.96    1.11
   5  10  -6   97.58    5.43
   5 -10  -6  104.75    5.61
   5  10  -5   16.48    1.82
   5 -10  -5   13.30    1.74
  -5  10   4   62.73    3.73
   5  10  -4   64.86    3.86
   5 -10  -4   62.84    3.92
   5 -10  -4   65.41    3.96
  -5  10   3    1.03    0.68
   5  10  -3    0.11    0.84
   5 -10  -3    0.69    0.98
  -5 -10   3    1.70    1.01
   5 -10  -3    0.73    0.85
   5  10  -2    8.57    1.44
  -5  10   2    9.90    1.39
   5 -10  -2   10.28    1.02
  -5 -10   2   11.00    1.60
   5 -10  -2   11.49    1.51
   5 -10  -2   10.64    1.52
   5  10  -1   10.12    1.50
  -5  10   1   10.08    1.42
   5 -10  -1   11.62    1.58
  -5 -10   1   11.38    1.72
   5 -10  -1    9.57    1.05
  -5  10   0  100.63    5.72
   5  10   0  111.74    5.83
  -5 -10   0  106.01    5.87
   5 -10   0  112.31    5.88
   5 -10   0  112.68    4.62
   5  10   1    9.70    1.48
  -5  10  -1    9.05    1.39
   5 -10   1   10.06    0.91
   5 -10   1    9.56    1.44
  -5 -10  -1    9.66    1.69
   5  10   2   69.04    4.34
  -5  10  -2   81.65    4.46
   5 -10   2   73.00    4.32
  -5 -10  -2   81.88    4.59
  -5  10  -3    0.05    0.77
   5  10   3   -0.83    0.88
  -5 -10  -3    0.46    1.02
  -5  10  -4    2.91    1.11
  -5 -10  -4    2.56    1.21
  -5  10  -5    2.95    1.12
  -5  10  -5    3.66    1.17
  -5 -10  -5    1.51    1.28
  -5  10  -6   61.68    4.05
  -5  10  -6   68.38    4.12
  -5 -10  -6   67.67    4.37
  -5  10  -7    5.84    1.22
  -5  10  -7    8.44    1.50
  -5 -10  -7    7.46    1.80
  -5  10  -8   33.14    2.74
  -5  10  -8   28.85    2.59
  -5 -10  -8   34.54    3.18
  -5  10  -9    0.94    0.92
  -5  10  -9   -0.46    0.83
  -5 -10  -9   -3.21    1.38
  -5  10 -10   -0.28    0.86
  -5 -10 -10   -3.97    1.46
   5 -11 -13   13.25    2.20
   5  11 -11    6.28    1.36
  -5  11  11    4.53    1.13
   5 -11 -11    6.56    1.52
   5  11 -10   -0.07    0.94
  -5  11  10   -1.15    0.59
   5 -11 -10    2.03    1.30
  -5  11   9   55.94    3.33
   5  11  -9   50.69    3.63
   5 -11  -9   58.58    3.86
  -5  11   8   -0.07    0.77
   5  11  -8    0.00    1.02
   5 -11  -8    2.10    1.24
   5  11  -7   47.81    3.34
  -5  11   7   48.08    3.08
   5 -11  -7   51.30    3.45
   5  11  -6   -1.15    0.93
   5 -11  -6    0.98    1.00
   5  11  -5    7.19    1.39
   5 -11  -5    9.20    1.57
   5 -11  -5    8.01    1.54
   5  11  -4    0.80    1.07
  -5  11   4    0.06    0.64
   5 -11  -4    0.56    1.00
   5 -11  -4    1.24    1.07
  -5  11   3  102.09    5.25
   5  11  -3   95.42    5.28
   5 -11  -3   89.72    5.28
   5 -11  -3   91.41    5.35
   5  11  -2    1.03    1.02
  -5  11   2    0.91    0.84
   5 -11  -2    0.02    0.56
   5 -11  -2    0.14    0.87
  -5 -11   2    0.03    0.39
  -5 -11   2   -1.48    0.94
   5 -11  -2    1.28    0.87
  -5  11   1   44.92    3.01
   5  11  -1   41.87    3.17
  -5 -11   1   42.57    3.20
   5 -11  -1   43.78    3.07
   5 -11  -1   46.00    2.34
   5  11   0    0.00    1.06
  -5  11   0    1.42    0.91
   5 -11   0    1.17    0.90
  -5 -11   0   -2.76    1.15
   5 -11   0    0.47    0.54
   5  11   1    2.13    1.24
  -5  11  -1    2.01    0.91
  -5 -11  -1    1.97    1.41
   5 -11   1    1.18    0.98
  -5  11  -2    0.23    0.88
   5  11   2    1.91    1.19
  -5 -11  -2   -1.47    1.13
   5  11   3   73.85    4.41
  -5  11  -3   73.26    4.45
  -5 -11  -3   68.45    4.57
  -5  11  -4    1.56    1.05
  -5 -11  -4   -0.04    1.27
  -5  11  -5   43.83    3.27
  -5  11  -5   50.93    3.38
  -5 -11  -5   40.90    3.67
  -5  11  -6    0.50    0.91
  -5  11  -6   -0.57    0.96
  -5 -11  -6   -1.32    1.40
  -5  11  -7    1.03    1.01
  -5  11  -7   -0.60    0.87
  -5 -11  -7   -1.28    1.59
  -5  11  -8   -0.54    0.93
  -5  11  -8    0.82    1.01
  -5 -11  -8   -1.27    1.63
  -5  11  -9   36.90    2.94
  -5 -11  -9   30.60    3.52
   5 -12 -12   22.99    2.79
   5  12 -11    2.55    1.12
   5 -12 -11    4.73    1.43
   5  12 -10   15.10    2.07
   5 -12 -10   16.04    2.16
  -5  12   9   -0.17    0.86
   5  12  -9    0.79    1.17
   5 -12  -9    3.85    1.34
  -5  12   8    4.31    1.16
   5  12  -8    3.51    1.38
   5 -12  -8    5.31    1.41
   5  12  -7    3.69    1.45
  -5  12   7    3.57    1.17
   5 -12  -7    7.72    1.51
   5  12  -6   49.51    3.55
  -5  12   6   46.37    3.12
   5 -12  -6   53.41    3.71
   5 -12  -6   50.69    3.57
   5  12  -5    2.18    1.23
   5 -12  -5    1.82    1.38
   5 -12  -5    4.96    1.44
   5  12  -4   39.03    3.01
   5 -12  -4   40.09    3.01
   5 -12  -4   36.96    3.08
   5  12  -3    2.33    1.43
  -5  12   3    2.81    0.96
   5 -12  -3    3.89    1.23
   5 -12  -3    3.01    1.23
  -5  12   2    3.95    1.08
   5  12  -2    2.93    1.27
   5 -12  -2    1.64    1.08
   5 -12  -2    3.44    0.84
  -5 -12   2    2.79    0.47
  -5  12   1    5.49    1.31
   5  12  -1    3.50    1.42
  -5 -12   1    6.83    1.70
   5 -12  -1    4.39    0.82
   5 -12  -1    4.78    1.39
  -5  12   0   64.09    4.05
   5  12   0   60.03    4.17
  -5 -12   0   66.31    4.36
   5 -12   0   61.10    4.03
   5 -12   0   66.99    3.02
   5  12   1    6.02    1.62
  -5  12  -1    9.97    1.62
   5 -12   1    7.97    1.48
  -5 -12  -1    6.83    1.85
  -5  12  -2   44.57    3.28
   5  12   2   40.68    3.22
  -5 -12  -2   44.46    3.70
  -5  12  -3    1.88    1.10
  -5 -12  -3    0.03    1.41
  -5  12  -4    3.64    1.29
  -5 -12  -4    1.87    1.72
  -5  12  -5   -0.03    1.10
  -5  12  -5    2.13    1.13
  -5 -12  -5   -0.05    1.51
  -5  12  -6   41.46    3.24
  -5  12  -6   39.05    3.18
  -5 -12  -6   40.63    3.65
  -5  12  -7    1.41    1.10
  -5  12  -7    3.00    1.20
  -5 -12  -7    2.26    1.93
  -5  12  -8   21.59    2.41
  -5 -12  -8   15.18    3.07
   5  13 -11    4.88    1.19
   5  13 -10    5.90    1.52
   5 -13 -10    2.13    1.74
   5 -13 -10    8.77    1.71
   5  13  -9   22.76    2.52
   5 -13  -9   15.70    2.51
   5 -13  -9   28.55    2.72
  -5  13   8   12.76    1.79
   5  13  -8   15.56    2.22
   5 -13  -8   11.62    2.25
   5 -13  -8   16.44    2.17
   5  13  -7   14.59    2.13
  -5  13   7   15.08    1.90
   5 -13  -7   13.70    2.05
   5 -13  -7    9.80    2.10
  -5  13   6   -0.48    0.94
   5  13  -6   -0.32    1.14
   5 -13  -6   -1.48    1.24
   5 -13  -6    1.80    1.12
   5  13  -5    3.10    1.46
   5 -13  -5    4.74    1.47
   5 -13  -5    2.08    1.37
   5  13  -4    5.76    1.52
   5 -13  -4    3.51    1.44
   5 -13  -4    6.86    1.56
   5  13  -3   30.56    2.89
  -5  13   3   37.28    2.74
   5 -13  -3   36.55    2.98
   5 -13  -3   32.59    2.93
   5  13  -2   14.93    2.28
  -5  13   2   16.94    2.09
   5 -13  -2   14.84    1.44
   5 -13  -2   18.11    2.23
  -5  13   1   27.70    2.47
   5  13  -1   24.46    2.76
  -5 -13   1   27.19    2.91
   5 -13  -1   30.17    1.88
  -5 -13   1   30.01    1.70
   5 -13  -1   31.90    2.79
   5  13   0    3.43    1.48
  -5  13   0    4.22    1.19
   5 -13   0    5.08    0.79
  -5 -13   0    3.89    1.79
   5 -13   0    3.73    1.36
   5  13   1    2.65    1.44
  -5  13  -1    2.56    1.11
  -5 -13  -1    2.34    1.75
  -5  13  -2    7.65    1.66
   5  13   2    5.66    1.78
  -5 -13  -2    5.56    1.97
  -5  13  -3   33.77    2.98
  -5 -13  -3   30.83    3.37
  -5  13  -4   13.82    2.09
  -5  13  -4   13.76    2.14
  -5 -13  -4   12.65    2.39
  -5  13  -5   20.79    2.38
  -5  13  -5   14.10    2.16
  -5 -13  -5   14.44    2.67
  -5  13  -6    2.30    1.08
  -5  13  -6    1.89    1.24
  -5 -13  -6    1.52    1.92
   5  14  -9    2.80    1.49
   5  14  -8    3.68    1.56
   5 -14  -8   -0.19    1.59
   5  14  -7   10.78    2.04
   5 -14  -7    7.16    2.02
   5 -14  -7   15.04    2.06
   5  14  -6   14.31    2.36
   5 -14  -6   17.89    2.30
   5 -14  -6   13.31    2.26
   5  14  -5   21.93    2.60
   5 -14  -5   27.08    2.62
   5 -14  -5   22.43    2.77
   5  14  -4    3.94    1.58
   5 -14  -4    4.69    1.61
   5 -14  -4    6.73    1.49
   5  14  -3    1.39    1.36
   5 -14  -3    3.29    1.37
   5  14  -2   -0.21    1.34
  -5  14   2    1.37    0.88
   5 -14  -2    0.67    1.11
   5  14  -1    9.41    2.00
  -5  14   1   11.96    1.84
   5 -14  -1    9.86    1.82
  -5  14   0   16.92    2.14
   5  14   0   13.14    2.26
   5 -14   0   11.41    1.90
  -5 -14   0   10.09    2.07
  -5  14  -1   28.80    2.61
   5  14   1   23.08    2.81
  -5 -14  -1   20.56    2.89
  -5  14  -2    9.11    1.71
   5  14   2    4.45    1.65
  -5 -14  -2    9.15    2.28
  -5  14  -3    5.04    1.45
  -5 -14  -3    2.97    1.99
  -5  14  -4    1.51    1.11
  -5 -14  -4   -2.81    1.44
  -5  14  -5    7.37    1.58
  -5 -14  -5    5.68    2.19
   5  15  -6    0.89    1.35
   5 -15  -6    1.69    1.33
   5  15  -5   -2.45    1.33
   5 -15  -5    0.98    1.27
   5  15  -4   12.80    2.23
   5 -15  -4   12.29    2.10
   5  15  -3    1.56    1.50
   5 -15  -3    3.67    1.47
  -5  15   2   33.10    2.78
   5  15  -2   30.24    3.31
   5 -15  -2   34.27    3.22
   5  15  -1    2.39    1.73
   5 -15  -1    5.30    1.64
  -5  15   0    6.15    1.43
   5  15   0    3.40    1.78
  -5  15  -1    1.78    1.17
   5  15   1   -1.90    1.45
  -5 -15  -1    1.65    1.60
  -5  15  -2   15.19    2.24
  -5 -15  -2    8.88    2.41
  -5 -15  -3    5.21    1.99
   5 -16  -2    1.70    1.34
  -5  16   1   25.26    2.48
  -6   0  15    0.27    0.71
  -6   0  14  109.88    5.20
  -6   0  13    0.55    0.60
  -6   0  12   51.74    2.77
  -6   0  11    0.67    0.58
  -6   0  10   51.70    2.60
   6   0  -9    0.09    0.22
  -6   0   9    0.08    0.44
  -6   0   8  312.41   12.28
   6   0  -8  314.31   13.95
   6   0  -7   -0.25    0.22
   6   0  -7   -0.08    0.12
  -6   0   7    0.22    0.34
  -6   0   6  167.05    6.62
   6   0  -6  165.12    7.55
  -6   0   5   -0.43    0.24
   6   0  -5    0.00    0.28
  -6   0   4   71.51    3.18
   6   0  -4   61.82    3.87
   6   0  -4   65.25    3.21
  -6   0   4   63.19    2.72
   6   0  -3   -0.06    0.24
   6   0  -3   -0.05    0.30
  -6   0   3    0.00    0.20
   6   0  -3    0.48    0.27
  -6   0   3    0.36    0.31
  -6   0   2  670.87   28.90
   6   0  -2  680.17   29.49
  -6   0   2  668.91   24.88
  -6   0   2  607.64   29.42
   6   0  -2  648.55   37.80
   6   0  -2  663.72   24.91
  -6   0   2  706.81   25.12
   6   0  -1   -0.20    0.33
  -6   0   1    0.09    0.34
   6   0  -1   -0.01    0.32
  -6   0   1   -0.26    0.26
  -6   0   0  333.81   14.91
   6   0   0  324.29   14.91
  -6   0   0  333.66   14.62
   6   0   1   -0.42    0.29
  -6   0  -1   -0.40    0.31
  -6   0  -1   -0.27    0.31
  -6   0  -2   88.05    4.31
  -6   0  -2   82.84    4.39
   6   0   2   96.65    4.43
  -6   0  -3   -0.07    0.37
   6   0   3   -0.29    0.37
  -6   0  -3    0.54    0.44
  -6   0  -4  417.44   18.27
   6   0   4  411.61   18.19
  -6   0  -4  379.48   17.88
  -6   0  -5    0.12    0.46
  -6   0  -5    0.02    0.46
  -6   0  -6   81.35    4.33
  -6   0  -6   89.03    4.47
  -6   0  -7    0.22    0.53
  -6   0  -7    0.74    0.59
  -6   0  -8    7.76    1.12
  -6   0  -8    9.86    1.24
  -6   0  -9   -0.29    0.58
  -6   0  -9    0.44    0.65
  -6   0 -10   83.23    4.67
  -6   0 -10   86.85    4.66
  -6   0 -11    0.11    0.74
  -6   0 -11   -0.45    0.64
  -6   0 -12   38.70    2.79
  -6   0 -12   39.05    2.74
  -6   1  15   23.99    2.02
  -6  -1  15   21.70    2.09
  -6   1  14    0.55    0.70
  -6  -1  14   -0.46    0.64
  -6   1  13   23.90    1.82
  -6  -1  13   23.47    1.76
  -6   1  12    4.81    0.88
  -6  -1  12    6.10    0.98
  -6   1  11  200.66    8.18
  -6  -1  11  192.82    8.14
  -6   1  10   12.64    1.13
  -6  -1  10   16.92    1.27
   6   1  -9  133.31    6.01
  -6   1   9  130.73    5.62
  -6  -1   9  134.05    5.61
   6  -1  -9  134.26    6.08
   6   1  -8    6.47    0.75
  -6   1   8    6.89    0.79
   6   1  -8    7.48    0.58
   6  -1  -8    7.05    0.63
  -6  -1   8    7.15    0.78
   6   1  -7   79.13    3.83
  -6   1   7   80.91    3.55
  -6  -1   7   83.79    3.53
   6  -1  -7   84.26    3.89
  -6   1   6   17.61    1.07
   6   1  -6   17.53    1.07
   6  -1  -6   18.24    1.12
  -6  -1   6   18.52    1.06
   6   1  -5  468.63   21.14
  -6   1   5  477.76   18.21
   6  -1  -5  468.25   21.17
  -6  -1   5  487.74   18.17
   6   1  -4   55.07    2.72
  -6   1   4   54.36    2.36
  -6   1   4   50.53    2.66
  -6  -1   4   54.72    2.30
  -6  -1   4   53.68    2.68
   6  -1  -4   54.77    2.74
   6  -1  -4   56.29    3.22
  -6   1   3  161.01    7.16
  -6   1   3  163.38    7.34
   6   1  -3  168.53    6.17
  -6   1   3  165.42    6.28
   6   1  -3  162.78    7.37
   6  -1  -3  134.79    9.22
   6  -1  -3  161.00    7.38
   6  -1  -3  164.33    6.18
  -6  -1   3  163.89    6.19
  -6  -1   3  154.30    7.32
   6   1  -2    0.77    0.38
  -6   1   2    0.71    0.33
  -6   1   2    1.32    0.42
  -6  -1   2    1.49    0.22
   6  -1  -2    1.50    0.33
   6  -1  -2    0.97    0.42
   6  -1  -2    0.46    0.36
  -6  -1   2    0.73    0.36
  -6  -1   2    1.72    0.30
   6   1  -1   45.83    2.45
  -6   1   1   44.10    2.42
  -6   1   1   49.18    2.38
  -6   1   1   44.04    3.02
   6   1  -1   46.14    3.17
  -6  -1   1   44.48    2.35
   6  -1  -1   44.30    2.44
   6  -1  -1   46.69    3.03
  -6  -1   1   49.24    1.84
  -6  -1   1   46.60    2.42
  -6   1   0   18.87    1.60
  -6   1   0   17.37    1.26
   6   1   0   16.62    1.24
  -6   1   0   21.65    1.29
  -6  -1   0   20.34    1.24
   6  -1   0   19.06    1.28
  -6  -1   0   19.70    1.28
  -6   1  -1  378.59   17.08
  -6   1  -1  385.55   22.43
   6   1   1  402.40   17.43
  -6  -1  -1  392.60   17.43
  -6  -1  -1  388.74   17.08
   6  -1   1  371.83   17.40
  -6   1  -2   16.61    1.32
  -6   1  -2   21.27    1.86
  -6   1  -2   19.61    1.33
   6   1   2   20.09    1.35
  -6  -1  -2   19.63    1.38
  -6  -1  -2   21.01    1.37
   6  -1   2   21.36    1.39
  -6   1  -3  146.51    9.45
  -6   1  -3  161.17    7.17
   6   1   3  157.62    7.26
  -6   1  -3  136.23    7.23
  -6  -1  -3  167.38    7.18
   6  -1   3  159.86    7.27
  -6  -1  -3  146.92    7.27
  -6   1  -4   -0.23    0.64
   6   1   4   -0.03    0.42
  -6   1  -4   -0.07    0.42
  -6   1  -4    0.36    0.49
   6  -1   4    0.44    0.46
  -6  -1  -4   -0.02    0.48
  -6  -1  -4    0.35    0.48
  -6   1  -5   24.00    2.34
  -6   1  -5   23.09    1.64
  -6   1  -5   22.72    1.70
  -6  -1  -5   25.69    1.68
  -6  -1  -5   25.51    1.74
  -6   1  -6   13.77    1.27
  -6   1  -6   10.54    1.20
  -6  -1  -6   10.80    1.21
  -6  -1  -6   12.15    1.30
  -6   1  -7  154.87    7.63
  -6   1  -7  163.11    7.53
  -6  -1  -7  159.32    7.51
  -6  -1  -7  149.26    7.61
  -6   1  -8   12.31    1.37
  -6   1  -8   14.38    1.43
  -6  -1  -8   13.44    1.48
  -6  -1  -8   15.25    1.44
  -6   1  -9   77.70    4.22
  -6   1  -9   74.24    4.18
  -6  -1  -9   75.97    4.25
  -6  -1  -9   78.05    4.22
  -6   1 -10    0.73    0.69
  -6   1 -10    0.41    0.72
  -6  -1 -10    0.26    0.69
  -6  -1 -10    1.25    0.80
  -6   1 -11    6.70    1.19
  -6   1 -11    6.78    1.20
  -6  -1 -11    5.73    1.18
  -6   1 -12    0.88    0.83
  -6  -1 -12    0.30    0.88
  -6   2  15   18.00    1.84
  -6  -2  15   13.05    1.72
  -6   2  14   69.10    3.65
  -6  -2  14   68.48    3.68
  -6   2  13   35.33    2.25
  -6  -2  13   35.41    2.25
  -6   2  12   32.78    2.17
  -6  -2  12   38.73    2.25
  -6   2  11    0.77    0.55
  -6  -2  11    0.91    0.53
  -6   2  10   19.07    1.37
   6  -2 -10   18.41    1.13
  -6  -2  10   18.77    1.35
   6   2  -9   50.56    2.47
  -6   2   9   51.09    2.57
  -6  -2   9   51.34    2.53
   6  -2  -9   52.55    2.57
  -6   2   8  292.45   11.31
   6   2  -8  286.60   12.76
   6  -2  -8  278.47   12.84
  -6  -2   8  286.86   11.26
   6   2  -7   84.77    3.89
  -6   2   7   80.14    3.57
  -6  -2   7   79.11    3.52
   6  -2  -7   84.09    3.95
  -6   2   6  167.02    6.62
   6   2  -6  162.36    7.50
   6  -2  -6  162.22    7.56
  -6  -2   6  167.28    6.56
  -6   2   5    0.84    0.36
  -6   2   5    1.28    0.34
   6   2  -5    0.97    0.33
   6  -2  -5    0.88    0.37
  -6  -2   5    0.86    0.30
  -6   2   4   83.08    3.58
  -6   2   4   72.30    3.11
   6   2  -4   70.09    3.54
  -6  -2   4   71.84    3.51
   6  -2  -4   70.49    3.58
  -6  -2   4   71.59    2.99
   6   2  -3   58.42    2.85
  -6   2   3   60.28    2.84
  -6   2   3   55.66    2.72
  -6   2   3   54.61    3.40
  -6  -2   3   54.79    2.28
   6  -2  -3   52.84    2.84
  -6  -2   3   54.01    2.80
   6  -2  -3   57.69    2.36
  -6   2   2  319.22   13.44
   6   2  -2  290.21   13.39
  -6   2   2  296.14   17.08
  -6   2   2  283.08   13.11
   6  -2  -2  300.23   13.44
  -6  -2   2  292.49   11.22
  -6  -2   2  293.75   13.38
  -6  -2   2  305.75   11.25
   6  -2  -2  289.86   11.30
   6   2  -1  146.50    6.64
  -6   2   1  119.70    8.37
  -6   2   1  144.03    6.48
  -6   2   1  146.91    6.66
   6  -2  -1  144.59    5.56
  -6  -2   1  150.18    6.65
   6  -2  -1  136.90    8.41
   6  -2  -1  146.33    6.67
  -6   2   0  157.25    7.84
  -6   2   0  159.64    7.67
  -6   2   0  180.73   10.09
   6   2   0  174.24    7.86
   6  -2   0  173.64    7.87
  -6  -2   0  167.21    7.85
  -6   2  -1   13.67    1.09
   6   2   1   13.33    1.06
  -6   2  -1   16.52    1.49
  -6   2  -1   14.51    1.15
  -6  -2  -1   12.47    1.01
  -6  -2  -1   14.26    1.10
   6  -2   1   13.98    1.09
  -6   2  -2   18.55    1.81
  -6   2  -2   21.71    1.41
   6   2   2   17.84    1.36
  -6   2  -2   18.74    1.33
  -6  -2  -2   16.37    1.31
   6  -2   2   21.90    1.41
  -6  -2  -2   21.42    1.40
   6   2   3   45.12    2.51
  -6   2  -3   42.21    2.52
  -6   2  -3   53.21    2.58
  -6   2  -3   44.49    3.34
  -6  -2  -3   42.75    2.46
  -6  -2  -3   41.07    2.50
   6  -2   3   45.60    2.50
  -6   2  -4  226.30   12.40
   6   2   4  199.18    9.36
  -6   2  -4  189.34    9.23
  -6   2  -4  205.74    9.46
  -6  -2  -4  187.24    9.41
   6  -2   4  203.03    9.37
  -6  -2  -4  199.29    9.26
  -6   2  -5  138.00    6.59
  -6   2  -5  131.06    6.71
  -6   2  -5  141.53    8.88
  -6  -2  -5  144.37    6.65
  -6  -2  -5  137.22    6.74
  -6   2  -6   66.38    3.64
  -6   2  -6   66.46    3.70
  -6   2  -6   74.72    5.09
  -6  -2  -6   71.99    3.71
  -6  -2  -6   64.07    3.71
  -6   2  -7    4.42    0.87
  -6   2  -7    3.69    0.84
  -6  -2  -7    4.67    0.94
  -6  -2  -7    5.83    0.95
  -6   2  -8    4.75    0.96
  -6   2  -8    4.70    0.94
  -6  -2  -8    5.92    1.02
  -6  -2  -8    5.38    0.98
  -6   2  -9   25.10    1.93
  -6   2  -9   25.97    1.99
  -6  -2  -9   22.93    1.96
  -6   2 -10   66.16    3.85
  -6   2 -10   67.50    3.87
  -6  -2 -10   67.35    3.91
  -6   2 -11   29.44    2.21
  -6   2 -11   24.84    2.06
  -6  -2 -11   21.18    2.07
  -6   2 -12   26.73    2.28
  -6  -2 -12   29.78    2.39
  -6   3  15   10.15    1.44
  -6  -3  15   12.28    1.69
  -6   3  14   -0.59    0.64
  -6  -3  14    0.42    0.78
  -6   3  13   15.00    1.50
  -6  -3  13   11.58    1.43
  -6   3  12   48.96    2.74
  -6  -3  12   50.79    2.79
  -6   3  11   56.11    2.94
  -6  -3  11   61.00    3.00
  -6   3  10   87.01    4.06
  -6  -3  10   90.60    4.07
   6  -3 -10   91.26    4.32
  -6   3   9   40.88    2.19
   6   3  -9   41.27    2.09
   6   3  -9   38.96    2.86
   6  -3  -9   43.31    2.23
  -6  -3   9   40.90    2.18
   6   3  -8    2.97    0.47
  -6   3   8    2.48    0.57
   6  -3  -8    3.42    0.57
  -6  -3   8    3.55    0.64
   6   3  -7   30.02    1.67
  -6   3   7   31.68    1.70
  -6  -3   7   30.07    1.63
   6  -3  -7   31.69    1.80
  -6   3   6  107.72    4.49
   6   3  -6  109.85    5.02
  -6  -3   6  108.31    4.41
   6  -3  -6  101.30    5.09
  -6   3   5  183.67    7.38
  -6   3   5  188.12    8.46
   6   3  -5  181.93    8.47
  -6  -3   5  189.27    7.28
  -6  -3   5  182.81    8.42
   6  -3  -5  185.36    8.55
   6   3  -4  334.68   14.56
  -6   3   4  312.82   18.42
  -6   3   4  341.94   14.55
  -6  -3   4  321.61   14.51
  -6  -3   4  315.45   12.38
   6  -3  -4  313.82   14.59
  -6   3   3   74.32    3.78
  -6   3   3   83.13    4.66
  -6   3   3   76.98    3.67
   6   3  -3   77.55    3.80
   6  -3  -3   77.20    3.84
  -6  -3   3   72.32    3.75
  -6  -3   3   75.92    3.09
   6  -3  -3   79.49    3.19
  -6   3   2    2.34    0.47
  -6   3   2    2.36    0.54
   6   3  -2    2.20    0.49
  -6   3   2    2.48    0.50
   6  -3  -2    1.97    0.37
  -6  -3   2    2.33    0.32
  -6  -3   2    3.06    0.55
   6  -3  -2    3.25    0.60
  -6   3   1    3.28    0.66
  -6   3   1    5.65    0.73
   6   3  -1    4.45    0.65
  -6   3   1    3.78    0.61
  -6  -3   1    4.80    0.65
   6  -3  -1    4.84    0.70
   6  -3  -1    4.62    0.51
  -6   3   0  209.85    9.09
  -6   3   0  180.11   11.53
   6   3   0  207.56    9.08
  -6   3   0  187.48    8.85
  -6  -3   0  184.69    9.03
   6  -3   0  203.89    9.09
  -6   3  -1  232.30   10.86
  -6   3  -1  238.46   10.64
   6   3   1  243.46   10.85
  -6   3  -1  220.35   13.90
   6  -3   1  237.76   10.85
  -6  -3  -1  241.16   10.86
  -6   3  -2  194.06    8.34
  -6   3  -2  169.32   10.66
   6   3   2  171.51    8.25
  -6   3  -2  178.87    8.14
  -6  -3  -2  172.82    8.29
   6  -3   2  171.48    8.25
  -6   3  -3  105.27    6.35
   6   3   3   91.62    4.75
  -6   3  -3  106.77    4.90
  -6   3  -3   84.02    4.66
  -6  -3  -3   93.35    4.82
   6  -3   3   96.65    4.77
  -6   3  -4   14.15    1.88
   6   3   4   14.41    1.22
  -6   3  -4   11.11    1.22
  -6   3  -4   10.50    1.15
  -6  -3  -4   13.31    1.26
   6  -3   4   11.90    1.13
  -6   3  -5   13.10    1.30
  -6   3  -5   14.08    1.29
  -6   3  -5   13.72    1.75
  -6  -3  -5   13.65    1.43
  -6   3  -6   45.96    2.80
  -6   3  -6   46.30    2.77
  -6   3  -6   52.65    3.91
  -6  -3  -6   44.23    2.80
  -6   3  -7   69.31    3.69
  -6   3  -7   62.51    3.56
  -6  -3  -7   63.19    3.66
  -6   3  -8   96.62    5.07
  -6   3  -8  103.63    5.16
  -6  -3  -8   92.28    5.13
  -6   3  -9   23.48    1.85
  -6   3  -9   19.95    1.85
  -6  -3  -9   21.40    1.89
  -6   3 -10    5.13    1.06
  -6   3 -10    5.33    1.10
  -6  -3 -10    3.83    1.06
  -6   3 -11    0.72    0.83
  -6   3 -11   -0.14    0.70
  -6  -3 -11    0.44    0.84
  -6   3 -12   13.66    1.72
  -6  -3 -12   12.16    1.68
  -6   4  15   38.90    2.57
  -6   4  14   19.42    1.83
  -6  -4  14   13.77    1.65
  -6   4  13   86.47    4.17
  -6  -4  13   81.14    4.21
  -6   4  12    4.26    0.87
  -6  -4  12    3.96    0.95
  -6   4  11    0.19    0.49
  -6  -4  11   -0.10    0.58
   6  -4 -11   -0.51    0.39
   6   4 -10    0.74    0.52
  -6   4  10    1.87    0.58
   6  -4 -10    1.72    0.55
  -6  -4  10    0.71    0.61
  -6   4   9  106.23    4.93
   6   4  -9  118.29    5.38
  -6  -4   9  115.62    4.96
   6  -4  -9  116.01    5.52
   6   4  -8   53.91    2.68
  -6   4   8   49.67    2.54
   6  -4  -8   52.28    2.79
  -6  -4   8   51.34    2.55
  -6   4   7  199.23    8.27
   6   4  -7  208.50    9.40
   6  -4  -7  207.81    9.52
  -6  -4   7  207.03    8.23
  -6   4   6   21.45    1.36
   6   4  -6   21.36    1.40
  -6  -4   6   24.54    1.32
   6  -4  -6   23.76    1.53
   6   4  -5   22.42    1.40
  -6   4   5   22.18    1.46
  -6   4   5   20.16    1.35
  -6   4   5   24.69    1.38
   6  -4  -5   23.43    1.49
  -6  -4   5   22.14    1.22
  -6  -4   5   22.54    1.38
  -6   4   4   12.11    0.89
  -6   4   4   11.51    0.96
  -6   4   4   12.55    0.99
   6   4  -4   11.42    0.97
  -6  -4   4   12.31    0.98
   6  -4  -4   13.11    1.06
  -6   4   3  185.91    8.75
   6   4  -3  200.18    8.78
  -6   4   3  179.16   11.04
  -6   4   3  189.77    8.55
   6  -4  -3  188.38    7.40
  -6  -4   3  191.65    7.14
   6  -4  -3  195.73    8.85
  -6  -4   3  186.47    8.73
  -6   4   2   49.14    2.62
  -6   4   2   47.87    2.51
   6   4  -2   49.48    2.61
  -6   4   2   46.19    3.17
   6  -4  -2   50.18    2.67
  -6  -4   2   49.12    2.61
   6  -4  -2   48.20    2.17
  -6  -4   2   48.23    2.04
  -6   4   1  354.96   16.45
  -6   4   1  368.24   21.52
  -6   4   1  387.79   16.83
   6   4  -1  369.61   16.80
   6  -4  -1  383.42   14.18
  -6  -4   1  364.71   16.79
   6  -4  -1  374.94   16.85
  -6   4   0   29.90    1.84
  -6   4   0   31.45    1.91
   6   4   0   30.62    1.90
  -6   4   0   31.35    2.38
   6  -4   0   31.45    1.92
  -6  -4   0   30.67    1.92
   6  -4   0   32.69    1.55
  -6   4  -1    4.30    0.69
  -6   4  -1    5.35    0.80
   6   4   1    4.45    0.73
  -6   4  -1    6.15    1.03
   6  -4   1    5.66    0.85
  -6  -4  -1    3.88    0.72
  -6   4  -2    2.41    0.67
  -6   4  -2    2.78    0.85
   6   4   2    2.53    0.61
  -6   4  -2    1.89    0.56
  -6  -4  -2    2.68    0.70
   6  -4   2    2.00    0.58
  -6   4  -3   84.96    4.43
   6   4   3   87.05    4.50
  -6   4  -3   97.46    5.99
  -6   4  -3   80.55    4.49
  -6  -4  -3   95.27    4.60
   6  -4   3   89.20    4.50
   6   4   4   33.42    2.08
  -6   4  -4   32.39    2.76
  -6   4  -4   30.27    2.04
  -6   4  -4   33.69    2.09
  -6  -4  -4   28.65    2.06
   6  -4   4   30.40    2.00
  -6   4  -5  220.19   10.29
  -6   4  -5  207.79   10.05
  -6   4  -5  235.15   13.51
  -6  -4  -5  208.11   10.26
  -6   4  -6   23.05    2.60
  -6   4  -6   28.02    1.93
  -6   4  -6   24.42    1.84
  -6  -4  -6   22.23    1.85
  -6   4  -7    8.17    1.17
  -6   4  -7   10.07    1.27
  -6  -4  -7    9.96    1.30
  -6   4  -8    0.63    0.70
  -6   4  -8    0.61    0.65
  -6  -4  -8    0.41    0.72
  -6   4  -9   47.26    3.06
  -6   4  -9   50.60    3.09
  -6  -4  -9   51.90    3.23
  -6   4 -10   16.12    1.72
  -6   4 -10   13.71    1.66
  -6  -4 -10   16.77    1.92
  -6   4 -11   67.51    3.85
  -6   4 -11   61.61    3.85
  -6  -4 -11   63.41    3.96
  -6  -4 -12    6.34    1.39
  -6   5  15    0.97    0.71
  -6   5  14    0.45    0.74
  -6   5  13   -0.57    0.61
  -6   5  12   91.79    4.40
  -6   5  11    0.81    0.64
   6  -5 -11    1.77    0.60
   6  -5 -11    1.71    0.64
   6   5 -10  120.64    5.84
  -6   5  10  123.92    5.42
   6  -5 -10  125.89    6.00
   6  -5 -10  122.78    6.01
   6   5  -9    3.77    0.68
  -6   5   9    4.12    0.76
   6  -5  -9    4.38    0.77
   6  -5  -9    4.56    0.84
   6   5  -8    0.63    0.47
  -6   5   8    1.55    0.54
   6  -5  -8    0.39    0.56
   6  -5  -8    0.65    0.56
  -6   5   7    0.49    0.44
   6   5  -7    0.82    0.48
   6  -5  -7    0.85    0.58
   6  -5  -7    1.53    0.61
  -6   5   6  137.38    5.85
   6   5  -6  142.26    6.64
   6  -5  -6  144.36    6.77
   6  -5  -6  137.30    6.72
   6   5  -5    4.45    0.69
  -6   5   5    4.44    0.69
   6  -5  -5    4.59    0.80
  -6   5   4  320.79   19.13
  -6   5   4  347.85   15.09
   6   5  -4  336.16   15.08
  -6  -5   4  321.04   15.03
   6  -5  -4  337.53   15.17
   6   5  -3    9.86    0.97
  -6   5   3   13.63    1.06
  -6   5   3   10.15    0.90
  -6   5   3   10.43    1.09
  -6  -5   3   10.46    0.98
   6  -5  -3   12.39    1.10
  -6  -5   3   11.27    0.58
  -6   5   2    6.37    0.78
  -6   5   2    7.99    1.00
  -6   5   2    7.24    0.94
   6   5  -2    6.25    0.84
   6  -5  -2    6.31    0.90
   6  -5  -2    7.72    0.75
  -6  -5   2    8.23    0.93
  -6   5   1    1.12    0.49
   6   5  -1    0.31    0.44
  -6   5   1    0.02    0.43
  -6   5   1   -0.15    0.35
   6  -5  -1    0.16    0.32
  -6  -5   1    0.30    0.44
   6  -5  -1    0.04    0.49
  -6   5   0  209.27    9.17
   6   5   0  196.41    9.13
  -6   5   0  189.25    8.92
  -6   5   0  184.29   11.63
  -6  -5   0  202.67    9.15
   6  -5   0  193.54    7.61
   6  -5   0  186.40    9.12
  -6   5  -1    3.28    0.72
   6   5   1    4.07    0.78
  -6   5  -1    3.23    0.68
  -6   5  -1    4.93    1.02
   6  -5   1    4.08    0.81
  -6  -5  -1    3.93    0.77
  -6   5  -2  279.38   13.23
  -6   5  -2  302.39   13.54
   6   5   2  296.84   13.51
  -6   5  -2  293.52   17.43
   6  -5   2  293.48   13.50
  -6  -5  -2  294.04   13.55
  -6   5  -3    0.38    0.56
   6   5   3   -0.49    0.51
  -6   5  -3    0.89    0.61
  -6   5  -3   -0.06    0.69
   6  -5   3    0.61    0.57
  -6  -5  -3    0.12    0.51
   6   5   4   19.68    1.59
  -6   5  -4   19.29    2.14
  -6   5  -4   19.57    1.57
  -6   5  -4   19.86    1.61
  -6  -5  -4   19.80    1.61
  -6   5  -5    0.22    0.58
  -6   5  -5   -0.72    0.63
  -6   5  -5    0.75    0.66
  -6  -5  -5   -0.02    0.54
  -6   5  -6  100.41    5.48
  -6   5  -6  118.29    5.71
  -6  -5  -6  109.47    5.66
  -6   5  -7    2.84    0.85
  -6   5  -7    2.91    0.88
  -6  -5  -7    2.62    0.92
  -6   5  -8  126.41    6.74
  -6   5  -8  150.22    6.83
  -6  -5  -8  125.26    6.84
  -6   5  -9    1.52    0.82
  -6   5  -9    0.81    0.71
  -6  -5  -9   -0.30    0.77
  -6   5 -10    4.53    1.04
  -6   5 -10    7.32    1.21
  -6  -5 -10    4.24    1.20
  -6   5 -11    1.19    0.78
  -6   5 -11    0.20    0.78
  -6  -5 -11   -0.13    0.96
  -6  -5 -12   18.15    2.17
  -6   6  14    1.26    0.80
  -6   6  13   71.36    3.74
  -6   6  12    1.18    0.70
   6  -6 -12   -0.16    0.60
   6  -6 -12    1.43    0.62
  -6   6  11    1.40    0.62
   6  -6 -11    1.22    0.63
   6  -6 -11   -0.38    0.64
   6   6 -10    0.80    0.67
  -6   6  10    0.61    0.62
   6  -6 -10    1.23    0.67
   6  -6 -10   -0.44    0.67
   6   6  -9  106.31    5.01
  -6   6   9   95.44    4.50
   6  -6  -9  100.74    5.12
   6  -6  -9   98.12    5.08
  -6   6   8    7.94    0.99
   6   6  -8    7.46    0.97
   6  -6  -8    7.49    1.04
   6  -6  -8    7.21    1.08
  -6   6   7  186.24    7.55
   6   6  -7  177.99    8.53
   6  -6  -7  178.99    8.67
   6  -6  -7  186.43    8.71
  -6   6   6    2.72    0.72
   6   6  -6    2.47    0.66
   6  -6  -6    1.81    0.73
   6  -6  -6    1.81    0.67
  -6   6   5    3.73    0.72
   6   6  -5    3.63    0.69
   6  -6  -5    5.64    0.94
   6  -6  -5    3.85    0.81
   6   6  -4    5.80    0.86
  -6   6   4    5.98    0.92
  -6  -6   4    5.94    0.87
   6  -6  -4    5.11    0.87
  -6   6   3  256.34   12.39
   6   6  -3  286.69   12.43
  -6   6   3  271.92   12.10
  -6  -6   3  273.61   12.38
  -6  -6   3  263.62   10.14
   6  -6  -3  262.45   12.46
  -6   6   2    9.58    1.13
   6   6  -2   12.24    1.20
  -6   6   2   10.70    1.04
  -6   6   2   12.60    1.33
  -6  -6   2    8.84    1.11
   6  -6  -2   11.41    1.26
   6  -6  -2    9.33    0.87
  -6   6   1  230.91   10.76
   6   6  -1  235.10   10.76
  -6   6   1  212.94   10.46
  -6   6   1  237.42   13.73
   6  -6  -1  230.06    9.00
  -6  -6   1  241.19   10.78
   6  -6  -1  225.46   10.79
  -6   6   0    2.50    0.79
  -6   6   0    3.45    0.77
   6   6   0    3.38    0.77
  -6   6   0    2.74    0.72
   6  -6   0    1.54    0.70
  -6  -6   0    2.97    0.76
   6  -6   0    3.54    0.53
  -6   6  -1    2.32    0.65
  -6   6  -1    3.21    0.78
  -6   6  -1    2.26    0.86
   6   6   1    2.60    0.73
  -6  -6  -1    2.60    0.80
   6  -6   1    2.74    0.73
   6   6   2    6.07    0.99
  -6   6  -2    6.28    1.23
  -6   6  -2    5.46    0.97
  -6   6  -2    5.81    0.96
   6  -6   2    6.09    0.95
  -6  -6  -2    4.38    0.90
   6   6   3  102.42    5.29
  -6   6  -3   92.59    6.84
  -6   6  -3  116.84    5.41
  -6   6  -3  102.98    5.22
   6  -6   3  106.47    5.30
  -6  -6  -3  104.42    5.37
  -6   6  -4    6.51    1.43
   6   6   4    5.02    0.97
  -6   6  -4    3.89    0.85
  -6   6  -4    3.95    0.90
  -6  -6  -4    4.66    0.95
  -6   6  -5  162.58    8.26
  -6   6  -5  173.63    8.16
  -6  -6  -5  171.99    8.36
  -6   6  -6    0.25    0.71
  -6   6  -6    0.31    0.61
  -6  -6  -6   -0.48    0.65
  -6   6  -7    7.91    1.23
  -6   6  -7    7.63    1.25
  -6  -6  -7    7.77    1.30
  -6   6  -8    0.27    0.72
  -6   6  -8   -0.20    0.65
  -6  -6  -8    1.43    0.91
  -6   6  -9   35.59    2.65
  -6   6  -9   41.74    2.84
  -6  -6  -9   39.77    2.92
  -6   6 -10    1.18    0.86
  -6   6 -10    3.73    1.09
  -6  -6 -10    1.87    1.13
  -6   6 -11   64.12    4.00
  -6   6 -11   74.38    4.26
  -6  -6 -11   68.64    4.41
  -6   7  14   -0.05    0.69
  -6   7  13    3.72    0.97
  -6   7  12   56.11    3.22
   6  -7 -12   64.21    3.50
   6  -7 -12   59.43    3.51
  -6   7  11   23.31    1.80
   6  -7 -11   20.30    1.88
   6  -7 -11   21.75    1.84
  -6   7  10   83.14    3.86
   6   7 -10   77.54    4.11
   6  -7 -10   76.38    4.24
   6  -7 -10   75.29    4.26
   6   7  -9    7.96    1.11
  -6   7   9    8.61    1.14
   6  -7  -9    7.43    1.22
   6  -7  -9    7.81    1.18
   6   7  -8   -0.72    0.62
  -6   7   8    0.75    0.62
   6  -7  -8    0.83    0.78
   6  -7  -8   -0.10    0.69
  -6   7   7   17.86    1.49
   6   7  -7   18.67    1.51
   6  -7  -7   20.30    1.69
   6  -7  -7   15.07    1.64
  -6   7   6   95.20    4.37
   6   7  -6  102.37    4.85
   6  -7  -6   87.82    4.90
   6  -7  -6   92.42    4.96
   6   7  -5   30.51    2.05
  -6   7   5   32.19    2.04
   6  -7  -5   31.78    2.23
   6  -7  -5   30.05    2.18
  -6   7   4  180.96    8.49
   6   7  -4  171.15    8.45
  -6  -7   4  178.64    8.48
   6  -7  -4  182.19    8.62
   6   7  -3   14.03    1.38
  -6   7   3   12.95    1.35
  -6  -7   3   15.80    1.46
  -6  -7   3   14.52    0.75
   6  -7  -3   15.45    1.53
   6  -7  -3   14.62    1.21
  -6   7   2    1.74    0.73
   6   7  -2    2.50    0.74
  -6   7   2    1.35    0.55
  -6  -7   2    1.60    0.69
   6  -7  -2    0.89    0.68
   6  -7  -2    1.39    0.51
  -6   7   1    5.86    1.07
  -6   7   1    6.68    1.07
   6   7  -1    5.50    0.96
  -6   7   1    4.94    0.87
   6  -7  -1    5.69    0.69
   6  -7  -1    5.30    0.98
  -6  -7   1    6.83    1.03
   6   7   0  100.47    5.24
  -6   7   0  113.70    6.78
  -6   7   0  105.23    5.34
  -6   7   0  103.43    5.16
   6  -7   0   99.83    4.29
   6  -7   0   94.06    5.23
  -6  -7   0  102.97    5.28
   6   7   1   55.34    3.11
  -6   7  -1   56.03    3.14
  -6   7  -1   52.08    3.02
  -6   7  -1   52.85    3.95
  -6  -7  -1   48.80    3.08
   6  -7   1   51.70    3.13
  -6   7  -2  148.33    7.39
  -6   7  -2  144.34    9.66
   6   7   2  151.34    7.51
  -6   7  -2  149.11    7.55
  -6  -7  -2  163.93    7.63
   6  -7   2  166.06    7.60
   6   7   3    7.36    1.15
  -6   7  -3    7.05    1.08
  -6   7  -3    8.39    1.61
  -6   7  -3    6.87    1.11
  -6  -7  -3    7.69    1.17
   6  -7   3    8.80    1.20
   6   7   4    8.77    1.25
  -6   7  -4    8.52    1.26
  -6   7  -4   11.47    1.81
  -6   7  -4    8.78    1.27
  -6  -7  -4    9.76    1.37
  -6   7  -5    4.70    1.02
  -6   7  -5    3.65    0.92
  -6  -7  -5    5.55    1.13
  -6   7  -6   67.08    3.92
  -6   7  -6   71.55    4.02
  -6  -7  -6   65.56    4.00
  -6   7  -7   19.89    1.81
  -6   7  -7   14.07    1.69
  -6  -7  -7   14.47    1.77
  -6   7  -8   73.60    4.32
  -6   7  -8   69.88    4.32
  -6  -7  -8   82.83    4.61
  -6   7  -9   10.08    1.50
  -6   7  -9    9.39    1.45
  -6  -7  -9    9.14    1.64
  -6   7 -10    5.12    1.16
  -6   7 -10    3.91    1.15
  -6  -7 -10    4.00    1.42
  -6   7 -11    1.82    0.87
  -6  -7 -11    2.25    1.29
  -6   8  13   31.50    2.35
   6  -8 -13   34.20    2.45
  -6   8  12    7.86    1.28
   6  -8 -12   13.20    1.54
   6  -8 -12    8.53    1.42
   6   8 -11    1.86    0.88
  -6   8  11    0.43    0.71
   6  -8 -11    2.22    0.90
   6  -8 -11   -0.72    0.89
   6   8 -10    6.68    1.19
  -6   8  10    9.04    1.26
   6  -8 -10   10.05    1.37
   6  -8 -10    8.14    1.40
   6   8  -9   54.29    3.22
  -6   8   9   52.63    2.92
   6  -8  -9   55.81    3.35
   6  -8  -9   51.15    3.31
   6   8  -8   66.05    3.69
  -6   8   8   72.52    3.44
   6  -8  -8   60.12    3.74
   6  -8  -8   65.17    3.81
   6   8  -7   53.92    3.12
  -6   8   7   49.03    2.85
   6  -8  -7   52.39    3.24
   6  -8  -7   51.51    3.20
   6   8  -6   14.64    1.47
   6  -8  -6   13.42    1.61
   6  -8  -6   13.21    1.53
   6   8  -5    4.53    0.95
  -6   8   5    5.26    0.92
   6  -8  -5    4.72    1.08
   6  -8  -5    5.17    1.02
  -6   8   4   14.15    1.37
   6   8  -4   16.92    1.53
   6  -8  -4   13.54    1.58
   6  -8  -4   15.28    1.65
  -6   8   3   73.21    4.14
   6   8  -3   81.46    4.24
  -6  -8   3   76.59    3.05
  -6  -8   3   79.25    4.21
   6  -8  -3   77.43    4.31
   6   8  -2   90.00    4.79
  -6   8   2   98.77    4.86
  -6   8   2   86.41    4.62
   6  -8  -2   95.18    4.92
  -6  -8   2   87.57    4.82
   6  -8  -2   90.70    3.95
   6   8  -1  103.57    5.70
  -6   8   1  114.55    5.79
  -6   8   1  111.55    5.63
  -6  -8   1  116.94    5.81
   6  -8  -1  115.34    5.85
   6  -8  -1  115.32    4.74
  -6   8   0   45.47    3.74
   6   8   0   52.66    3.08
  -6   8   0   49.79    2.94
  -6   8   0   49.93    3.04
   6  -8   0   51.39    3.12
  -6  -8   0   51.36    3.13
   6  -8   0   47.83    2.37
  -6   8  -1    1.55    0.82
   6   8   1    1.88    0.76
  -6   8  -1    1.16    0.83
  -6   8  -1    4.05    0.99
   6  -8   1    2.17    0.77
  -6  -8  -1    3.60    0.92
   6   8   2   23.89    1.93
  -6   8  -2   22.67    1.97
  -6   8  -2   27.60    2.63
  -6   8  -2   25.47    1.99
   6  -8   2   25.24    2.02
  -6  -8  -2   24.65    2.12
  -6   8  -3   72.03    5.24
  -6   8  -3   62.44    3.96
  -6   8  -3   72.65    4.00
   6   8   3   76.65    4.09
  -6  -8  -3   69.34    4.14
  -6   8  -4   58.81    3.44
  -6   8  -4   49.72    3.28
  -6  -8  -4   58.74    3.57
  -6   8  -5   65.81    3.83
  -6   8  -5   63.36    3.87
  -6  -8  -5   64.60    4.00
  -6   8  -6   24.29    2.13
  -6   8  -6   24.69    2.16
  -6  -8  -6   23.75    2.33
  -6   8  -7    0.63    0.84
  -6   8  -7    2.81    0.97
  -6  -8  -7    0.11    1.01
  -6   8  -8    2.81    1.01
  -6   8  -8    1.96    0.95
  -6  -8  -8    1.12    1.13
  -6   8  -9   18.12    2.02
  -6   8  -9   18.20    2.03
  -6  -8  -9   16.18    2.12
  -6   8 -10   32.99    2.54
  -6   8 -10   30.96    2.63
  -6  -8 -10   25.54    2.80
  -6   8 -11   32.83    2.49
   6  -9 -13   12.21    1.53
   6  -9 -13    6.57    1.45
  -6   9  12   15.18    1.80
   6  -9 -12   13.05    1.80
   6  -9 -12   15.32    1.79
   6   9 -11   41.76    2.86
  -6   9  11   46.67    2.80
   6  -9 -11   40.20    3.02
   6  -9 -11   45.45    3.04
  -6   9  10   18.45    1.83
   6   9 -10   17.54    1.80
   6  -9 -10   16.31    1.87
   6  -9 -10   16.42    1.92
   6   9  -9   30.64    2.36
  -6   9   9   33.47    2.31
   6  -9  -9   34.59    2.58
   6  -9  -9   32.93    2.60
   6   9  -8    0.04    0.84
  -6   9   8    0.19    0.73
   6  -9  -8   -0.20    0.94
   6  -9  -8    0.23    0.85
  -6   9   7   17.97    1.80
   6   9  -7   19.11    1.78
   6  -9  -7   24.36    1.98
   6  -9  -7   18.71    1.91
   6   9  -6   34.46    2.51
   6  -9  -6   32.34    2.60
   6  -9  -6   39.33    2.69
   6   9  -5   95.38    4.96
   6  -9  -5   93.21    5.06
   6  -9  -5   89.72    5.06
   6   9  -4   36.15    2.51
  -6   9   4   36.88    2.41
   6  -9  -4   34.46    2.52
   6  -9  -4   35.35    2.64
   6   9  -3   44.36    2.86
  -6   9   3   46.64    2.85
  -6  -9   3   47.62    2.99
   6  -9  -3   47.60    3.04
  -6  -9   3   44.87    1.82
  -6  -9   3   43.06    1.81
   6   9  -2   -0.72    0.68
  -6   9   2    0.43    0.64
   6  -9  -2   -0.61    0.45
   6  -9  -2    0.25    0.67
  -6  -9   2   -0.66    0.93
  -6   9   1   10.83    1.45
  -6   9   1   11.58    1.39
   6   9  -1   14.21    1.58
  -6  -9   1    9.36    1.43
   6  -9  -1   11.45    1.48
   6  -9  -1   10.89    1.00
   6   9   0   52.41    3.15
  -6   9   0   48.15    3.82
  -6   9   0   45.05    3.00
  -6   9   0   46.94    2.94
   6  -9   0   47.39    3.11
   6  -9   0   47.31    2.35
  -6  -9   0   47.15    3.08
  -6   9  -1  139.05    6.75
  -6   9  -1  130.88    6.85
   6   9   1  134.58    6.83
  -6   9  -1  125.61    8.69
   6  -9   1  140.22    6.89
  -6  -9  -1  133.14    6.89
  -6   9  -2   24.63    2.09
   6   9   2   22.99    2.11
  -6   9  -2   26.64    2.09
   6  -9   2   27.75    2.16
  -6  -9  -2   24.42    2.17
   6   9   3   30.51    2.29
  -6   9  -3   25.70    2.26
  -6   9  -3   26.97    2.25
  -6  -9  -3   32.16    2.45
  -6   9  -4    2.26    0.94
  -6   9  -4    2.01    0.93
  -6  -9  -4    0.47    0.94
  -6   9  -5    7.92    1.32
  -6   9  -5    7.31    1.32
  -6  -9  -5    7.14    1.47
  -6   9  -6   11.28    1.63
  -6   9  -6   11.54    1.63
  -6  -9  -6   10.85    1.80
  -6   9  -7   45.03    3.19
  -6   9  -7   46.65    3.23
  -6  -9  -7   45.11    3.43
  -6   9  -8   25.47    2.31
  -6   9  -8   24.97    2.32
  -6  -9  -8   22.71    2.57
  -6   9  -9   26.06    2.39
  -6   9  -9   23.43    2.32
  -6  -9  -9   21.96    2.64
  -6   9 -10    1.34    1.04
  -6  -9 -10    0.13    1.41
   6 -10 -13    0.83    1.11
  -6  10  12   11.32    1.66
   6 -10 -12   11.88    1.85
   6 -10 -12   18.38    2.00
   6  10 -11    0.94    1.02
  -6  10  11    0.33    0.74
   6 -10 -11    1.61    1.00
   6 -10 -11   -0.73    0.96
   6  10 -10   13.60    1.77
  -6  10  10   13.16    1.62
   6 -10 -10    8.65    1.68
   6 -10 -10   13.64    1.77
   6  10  -9    5.25    1.32
  -6  10   9    6.05    1.24
   6 -10  -9    8.65    1.48
   6 -10  -9    5.45    1.41
   6  10  -8   95.55    5.46
  -6  10   8  100.23    5.01
   6 -10  -8  112.54    5.75
   6 -10  -8  101.25    5.70
   6  10  -7    2.68    1.10
  -6  10   7    3.68    1.00
   6 -10  -7    1.53    0.98
   6 -10  -7    1.82    1.14
   6  10  -6   29.89    2.34
   6 -10  -6   25.21    2.33
   6 -10  -6   23.09    2.35
   6  10  -5   -0.88    0.78
   6 -10  -5    1.31    0.99
   6 -10  -5    0.60    0.87
  -6  10   4   20.30    1.82
   6  10  -4   18.38    2.01
   6 -10  -4   19.55    2.07
   6 -10  -4   17.38    1.97
  -6  10   3    4.95    1.05
   6  10  -3    2.90    1.07
  -6 -10   3    4.45    1.49
   6 -10  -3    5.10    1.27
   6  10  -2   83.24    4.71
  -6  10   2   88.28    4.75
   6 -10  -2   82.93    4.78
   6 -10  -2   76.02    3.74
  -6 -10   2   93.97    4.97
   6  10  -1   11.64    1.63
  -6  10   1   14.35    1.68
   6 -10  -1   11.09    1.05
   6 -10  -1    9.81    1.47
  -6 -10   1   11.64    1.76
  -6  10   0   55.33    3.53
  -6  10   0   56.46    3.46
  -6  10   0   54.03    4.39
   6  10   0   52.61    3.53
   6 -10   0   58.83    3.62
  -6 -10   0   62.21    3.85
   6 -10   0   62.40    2.78
  -6  10  -1    0.10    0.84
  -6  10  -1    0.79    0.87
   6  10   1   -0.57    0.74
  -6 -10  -1   -0.29    1.07
   6 -10   1   -0.62    0.69
   6  10   2   10.79    1.61
  -6  10  -2   10.49    1.61
  -6  10  -2    6.65    1.32
   6 -10   2    8.61    1.39
  -6 -10  -2    9.76    1.69
   6  10   3    9.31    1.62
  -6  10  -3    6.27    1.32
  -6  10  -3    7.90    1.36
  -6 -10  -3    8.61    1.66
  -6  10  -4   85.26    4.85
  -6  10  -4   81.03    4.93
  -6 -10  -4   88.64    5.17
  -6  10  -5    2.44    1.05
  -6  10  -5    2.68    1.09
  -6 -10  -5    1.75    1.20
  -6  10  -6   34.26    2.71
  -6  10  -6   29.66    2.64
  -6 -10  -6   34.78    3.06
  -6  10  -7    1.81    1.09
  -6  10  -7    1.20    1.01
  -6 -10  -7    2.09    1.27
  -6  10  -8    2.86    1.20
  -6  10  -8    3.64    1.19
  -6 -10  -8    3.48    1.58
  -6  10  -9    5.26    1.32
  -6 -10  -9   -0.02    1.61
   6 -11 -13    7.52    1.58
   6 -11 -12   -0.92    1.08
   6 -11 -12    1.92    1.00
  -6  11  11   32.67    2.89
   6  11 -11   33.57    2.81
   6 -11 -11   36.36    3.08
   6 -11 -11   50.09    3.22
  -6  11  10   -0.36    0.76
   6  11 -10   -1.09    1.04
   6 -11 -10   -0.45    1.12
   6 -11 -10    2.06    1.07
  -6  11   9   22.53    2.23
   6  11  -9   21.07    2.25
   6 -11  -9   18.56    2.29
   6 -11  -9   24.54    2.38
  -6  11   8    0.13    0.84
   6  11  -8   -0.87    0.97
   6 -11  -8   -1.15    1.11
   6 -11  -8    1.72    1.09
  -6  11   7   13.15    1.75
   6  11  -7   16.23    1.95
   6 -11  -7   15.72    2.00
   6 -11  -7   12.24    1.85
   6  11  -6    1.24    1.17
   6 -11  -6    1.98    1.03
   6 -11  -6   -0.84    0.89
   6  11  -5   93.43    5.37
   6 -11  -5  100.02    5.50
   6 -11  -5   99.08    5.55
   6  11  -4    1.73    1.06
  -6  11   4    2.87    0.93
   6 -11  -4    1.82    1.09
   6  11  -3   34.78    2.74
  -6  11   3   33.57    2.58
   6 -11  -3   36.89    2.79
   6  11  -2   -0.06    1.07
  -6  11   2    2.78    0.96
   6 -11  -2    0.41    0.60
  -6 -11   2    0.00    1.14
   6 -11  -2    0.43    0.98
   6  11  -1    9.48    1.63
  -6  11   1   11.75    1.59
  -6 -11   1   11.83    1.86
   6 -11  -1   10.21    1.07
   6 -11  -1   10.43    1.63
   6  11   0   -0.73    1.09
  -6  11   0    1.35    0.94
   6 -11   0    1.96    0.62
  -6 -11   0    0.07    1.37
   6 -11   0    1.65    1.00
  -6  11  -1   96.61    5.58
  -6  11  -1   98.19    5.47
   6  11   1   98.20    5.62
   6 -11   1  103.88    5.64
  -6 -11  -1  103.88    5.88
  -6  11  -2    0.18    0.87
   6  11   2   -2.06    0.94
  -6  11  -2    0.80    1.02
  -6 -11  -2   -0.45    1.23
  -6  11  -3   34.05    2.71
  -6  11  -3   33.08    2.73
   6  11   3   34.63    2.85
  -6 -11  -3   33.96    3.04
  -6  11  -4    1.77    1.07
  -6  11  -4    0.46    1.03
  -6 -11  -4    0.56    1.47
  -6  11  -5    6.48    1.39
  -6  11  -5    4.16    1.26
  -6 -11  -5    4.82    1.81
  -6  11  -6   -0.43    0.88
  -6  11  -6   -0.68    0.86
  -6 -11  -6   -1.03    1.44
  -6  11  -7   40.49    3.12
  -6  11  -7   37.19    3.07
  -6 -11  -7   36.29    3.43
  -6  11  -8    0.96    1.01
  -6 -11  -8   -2.78    1.62
   6 -12 -12    5.00    1.53
   6  12 -11    0.32    1.11
   6 -12 -11   -2.56    1.11
   6  12 -10    3.74    1.39
   6 -12 -10    9.34    1.66
   6 -12 -10    4.01    1.57
  -6  12   9    1.98    1.05
   6  12  -9    1.23    1.27
   6 -12  -9   -0.67    1.24
   6  12  -8   44.51    3.31
  -6  12   8   41.09    2.89
   6 -12  -8   36.66    3.22
   6 -12  -8   48.71    3.41
   6  12  -7    4.13    1.43
  -6  12   7    5.91    1.38
   6 -12  -7    5.14    1.54
   6 -12  -7    5.15    1.33
   6  12  -6   20.52    2.32
   6 -12  -6   16.55    2.09
   6 -12  -6   17.04    2.23
   6  12  -5    3.15    1.30
   6 -12  -5    2.02    1.18
   6 -12  -5    3.65    1.18
   6  12  -4    5.05    1.44
   6 -12  -4    7.44    1.63
  -6  12   3    6.48    1.29
   6  12  -3    2.30    1.28
   6 -12  -3    4.47    1.32
   6  12  -2   71.60    4.37
   6 -12  -2   66.13    4.36
  -6 -12   2   71.02    2.84
   6 -12  -2   62.49    3.26
   6  12  -1    7.22    1.71
  -6  12   1    8.51    1.50
   6 -12  -1    5.23    1.33
  -6 -12   1    7.40    1.85
   6 -12  -1    7.94    1.00
  -6  12   0   30.15    2.63
   6  12   0   35.29    2.90
  -6 -12   0   30.77    3.00
   6 -12   0   34.30    1.90
   6 -12   0   31.97    2.80
  -6  12  -1    0.01    0.86
   6  12   1    0.24    1.14
  -6 -12  -1    0.03    1.33
   6 -12   1    0.86    1.03
   6  12   2    3.70    1.41
  -6  12  -2    4.85    1.34
  -6  12  -2    7.27    1.57
  -6 -12  -2    3.68    1.87
  -6  12  -3    1.42    0.99
  -6  12  -3    1.54    1.04
  -6 -12  -3   -0.51    1.66
  -6  12  -4   48.47    3.58
  -6  12  -4   52.92    3.64
  -6 -12  -4   52.23    4.31
  -6  12  -5    4.87    1.42
  -6  12  -5    6.49    1.53
  -6 -12  -5    3.85    1.87
  -6  12  -6   18.25    2.28
  -6  12  -6   19.60    2.40
  -6 -12  -6   14.78    2.75
  -6  12  -7    0.33    0.96
  -6 -12  -7   -5.84    1.65
   6  13 -10    6.57    1.68
   6 -13 -10    8.67    1.84
   6 -13 -10   10.08    1.78
   6  13  -9    4.33    1.58
   6 -13  -9    8.83    1.66
   6 -13  -9    5.64    1.73
   6  13  -8    0.74    1.34
   6 -13  -8    0.40    1.02
   6 -13  -8   -0.41    1.11
   6  13  -7    2.52    1.45
  -6  13   7    2.09    1.20
   6 -13  -7    4.03    1.23
   6 -13  -7    0.91    1.24
   6  13  -6   10.59    1.93
  -6  13   6    6.17    1.44
   6 -13  -6   11.62    1.84
   6 -13  -6    8.05    1.72
   6  13  -5   24.74    2.72
   6 -13  -5   33.18    2.99
   6  13  -4   18.85    2.45
   6 -13  -4   19.03    2.37
  -6  13   3   13.20    1.87
   6  13  -3   11.44    2.11
   6 -13  -3   15.94    2.09
   6  13  -2   -0.16    1.36
  -6  13   2    1.86    1.08
   6 -13  -2    1.60    1.18
   6 -13  -2    0.34    0.66
  -6  13   1    3.53    1.13
   6  13  -1    3.00    1.62
   6 -13  -1    1.24    1.19
  -6 -13   1    0.55    1.59
   6 -13  -1    2.84    0.79
  -6  13   0    6.24    1.42
   6  13   0    9.08    1.91
   6 -13   0    7.32    1.59
  -6 -13   0    5.29    1.81
   6  13   1   23.19    2.82
  -6  13  -1   35.60    2.83
  -6 -13  -1   31.09    3.29
   6  13   2   11.30    2.04
  -6  13  -2   11.02    1.91
  -6 -13  -2   11.35    2.30
  -6  13  -3   21.81    2.53
  -6 -13  -3   17.65    2.69
  -6  13  -4    1.59    1.16
  -6  13  -4    3.42    1.35
  -6 -13  -4    1.27    1.89
  -6  13  -5    0.40    1.12
  -6  13  -5    4.36    1.31
  -6 -13  -5   -0.38    1.90
   6  14  -8   14.23    2.21
   6 -14  -8   14.84    2.06
   6 -14  -8   12.70    2.20
   6  14  -7   13.70    2.32
   6 -14  -7   18.42    2.49
   6 -14  -7   26.41    2.44
   6  14  -6    8.97    2.04
   6 -14  -6    7.98    1.79
   6  14  -5    0.08    1.39
   6 -14  -5    2.05    1.36
   6  14  -4    3.21    1.50
   6 -14  -4    4.80    1.53
   6  14  -3   15.38    2.34
   6 -14  -3   18.94    2.46
  -6  14   2   18.58    2.36
   6  14  -2   15.80    2.39
   6 -14  -2   19.67    2.46
  -6  14   1   20.32    2.47
   6  14  -1   19.15    2.52
   6 -14  -1   19.58    2.48
   6  14   0    1.70    1.57
  -6  14   0    7.22    1.59
  -6 -14   0    3.63    1.74
  -6  14  -1    3.94    1.38
   6  14   1   -0.86    1.47
  -6 -14  -1    1.11    1.87
  -6  14  -2    2.93    1.22
  -6 -14  -2    0.50    1.68
  -6  14  -3   12.94    2.01
  -6 -14  -3    6.39    2.14
  -6  14  -4   12.03    2.04
  -6 -14  -4   10.38    2.41
   6 -15  -6   14.32    2.32
   6  15  -5    2.85    1.76
   6 -15  -5    6.35    1.68
   6  15  -4   19.72    2.76
   6 -15  -4   23.48    2.85
   6  15  -3   -1.34    1.54
   6 -15  -3    1.10    1.32
   6  15  -2    1.29    1.60
  -6  15   2    2.60    1.19
   6 -15  -2    3.04    1.46
   6  15  -1   -1.85    1.51
  -6  15   1    1.69    1.04
   6 -15  -1    0.52    1.29
   6  15   0   14.40    2.37
  -6  15   0   15.05    2.03
   6  15   1    1.34    1.73
  -6  15  -1    8.48    1.64
  -6 -15  -1    2.22    2.03
  -6 -15  -2   20.20    2.86
  -7   0  15   -0.32    0.64
  -7   0  14   20.82    1.81
  -7   0  13    0.95    0.71
  -7   0  12   70.44    3.52
  -7   0  11   -0.13    0.47
  -7   0  10  210.18    8.58
   7   0  -9    0.24    0.28
  -7   0   9   -0.13    0.38
  -7   0   8   40.87    2.09
   7   0  -8   42.10    2.15
  -7   0   7   -0.13    0.35
   7   0  -7   -0.01    0.30
  -7   0   6   90.04    3.83
   7   0  -6   90.27    5.26
   7   0  -6   93.79    4.37
  -7   0   5   -0.21    0.25
   7   0  -5   -0.08    0.30
   7   0  -5    0.01    0.19
  -7   0   5   -0.02    0.24
   7   0  -4  315.01   19.36
  -7   0   4  350.27   15.22
   7   0  -4  347.80   15.27
  -7   0   4  342.57   13.00
  -7   0   3   -0.13    0.28
   7   0  -3   -0.27    0.34
   7   0  -3    0.07    0.29
   7   0  -3    0.36    0.26
  -7   0   3    0.10    0.32
  -7   0   3   -0.05    0.19
  -7   0   2  150.72    5.69
   7   0  -2  145.78    6.86
  -7   0   2  140.77    6.65
   7   0  -2  148.11    8.66
  -7   0   2  146.95    5.67
  -7   0   2  142.42    6.82
  -7   0   1   -0.75    0.28
   7   0  -1   -0.35    0.31
  -7   0   1   -0.50    0.28
  -7   0   0   56.14    2.92
   7   0   0   55.20    2.92
  -7   0   0   53.20    2.82
  -7   0  -1    0.17    0.42
   7   0   1    0.60    0.45
  -7   0  -1    0.03    0.35
   7   0   2  308.13   13.87
  -7   0  -2  316.05   13.92
  -7   0  -2  286.19   13.59
  -7   0  -3    0.14    0.48
   7   0   3   -0.32    0.43
  -7   0  -3    0.18    0.49
   7   0   4  100.20    4.88
  -7   0  -4   91.65    4.92
  -7   0  -4   98.17    4.85
  -7   0  -5   -0.20    0.50
  -7   0  -5   -0.13    0.51
  -7   0  -6   43.69    2.66
  -7   0  -6   43.00    2.70
  -7   0  -7    0.32    0.58
  -7   0  -7   -0.27    0.59
  -7   0  -8  190.73    8.74
  -7   0  -8  170.12    8.79
  -7   0  -9    0.02    0.69
  -7   0  -9    1.17    0.75
  -7   0 -10   17.35    1.87
  -7   0 -10   18.20    1.92
  -7   0 -11    0.55    0.81
  -7   0 -11   -0.41    0.77
  -7   0 -12    8.63    1.42
  -7   1  15   21.87    2.09
  -7  -1  15   25.04    2.09
  -7   1  14    6.50    1.12
  -7  -1  14    8.97    1.26
  -7   1  13  115.27    5.29
  -7  -1  13  113.72    5.28
  -7   1  12    8.83    1.15
  -7  -1  12    6.56    0.99
  -7   1  11   23.12    1.60
  -7  -1  11   23.74    1.60
  -7   1  10    0.77    0.49
   7  -1 -10   -0.29    0.26
  -7  -1  10    0.37    0.50
   7   1  -9   53.95    2.63
  -7   1   9   53.33    2.62
  -7  -1   9   52.36    2.61
   7  -1  -9   54.83    2.68
   7   1  -8   19.04    1.13
  -7   1   8   17.92    1.25
  -7  -1   8   16.64    1.21
   7  -1  -8   17.88    1.17
   7   1  -7  304.76   13.67
  -7   1   7  305.98   11.92
   7  -1  -7  309.82   13.71
  -7  -1   7  297.08   11.87
   7   1  -6   16.42    1.10
  -7   1   6   16.53    1.04
  -7  -1   6   18.04    1.03
   7  -1  -6   16.12    1.14
   7   1  -5   96.42    4.70
  -7   1   5  101.35    4.09
  -7   1   5   99.52    4.66
  -7  -1   5   98.39    4.64
  -7  -1   5   96.79    4.02
   7  -1  -5   99.40    4.74
  -7   1   4    1.16    0.33
   7   1  -4    0.70    0.39
  -7   1   4    1.93    0.44
   7  -1  -4    1.05    0.31
   7  -1  -4    1.18    0.35
  -7  -1   4    1.16    0.38
  -7  -1   4    1.24    0.28
   7  -1  -4    1.32    0.44
  -7   1   3  148.18    5.81
   7   1  -3  147.28    6.87
  -7   1   3  150.22    6.84
  -7   1   3  146.88    6.67
   7  -1  -3  147.37    5.75
  -7  -1   3  149.56    6.84
   7  -1  -3  151.62    6.91
   7  -1  -3  137.04    8.58
  -7  -1   3  143.91    5.71
   7   1  -2   37.86    2.15
  -7   1   2   35.52    2.11
   7  -1  -2   35.68    1.74
   7  -1  -2   38.73    2.59
   7  -1  -2   41.08    2.22
  -7  -1   2   39.64    1.61
  -7  -1   2   40.36    1.70
  -7  -1   2   39.86    2.13
  -7   1   1  404.32   19.95
   7   1  -1  446.31   20.00
  -7   1   1  455.23   19.61
   7  -1  -1  439.22   20.00
  -7  -1   1  448.57   19.61
  -7  -1   1  456.54   19.99
  -7  -1   1  464.14   16.81
   7   1   0   51.25    2.73
  -7   1   0   48.91    2.62
  -7   1   0   45.52    2.68
  -7  -1   0   54.85    1.96
  -7  -1   0   48.22    2.69
  -7  -1   0   50.23    2.64
   7  -1   0   48.28    2.71
   7   1   1   47.06    2.56
  -7   1  -1   44.47    2.53
  -7   1  -1   47.23    2.49
  -7   1  -1   40.96    3.20
   7  -1   1   48.54    2.55
  -7  -1  -1   48.41    2.59
  -7  -1  -1   41.52    2.43
  -7   1  -2    4.74    0.78
  -7   1  -2    5.83    1.09
   7   1   2    6.35    0.87
  -7   1  -2    5.07    0.78
  -7  -1  -2    4.62    0.80
  -7  -1  -2    4.53    0.77
   7  -1   2    5.42    0.85
  -7   1  -3   59.37    3.13
  -7   1  -3   54.07    4.02
   7   1   3   50.68    2.98
  -7   1  -3   58.31    3.04
  -7  -1  -3   58.97    3.10
   7  -1   3   54.35    3.02
  -7  -1  -3   51.07    2.95
   7   1   4   33.95    2.15
  -7   1  -4   37.34    2.23
  -7   1  -4   35.52    2.21
  -7  -1  -4   33.43    2.16
   7  -1   4   32.82    2.13
  -7  -1  -4   34.75    2.20
  -7   1  -5  165.94    8.14
  -7   1  -5  172.54    8.32
  -7  -1  -5  180.85    8.19
  -7  -1  -5  170.55    8.31
  -7   1  -6   14.44    1.40
  -7   1  -6   14.61    1.40
  -7  -1  -6   11.84    1.36
  -7  -1  -6   14.00    1.48
  -7   1  -7   57.03    3.32
  -7   1  -7   58.15    3.28
  -7  -1  -7   52.65    3.29
  -7  -1  -7   54.73    3.27
  -7   1  -8   -0.38    0.62
  -7   1  -8   -0.05    0.64
  -7  -1  -8    0.50    0.71
  -7  -1  -8   -0.28    0.63
  -7   1  -9   20.67    1.83
  -7   1  -9   17.65    1.75
  -7  -1  -9   18.65    1.82
  -7  -1  -9   18.91    1.81
  -7   1 -10    4.93    1.09
  -7   1 -10    3.57    1.03
  -7  -1 -10    5.28    1.16
  -7  -1 -10    2.46    0.96
  -7   1 -11   59.27    3.68
  -7   1 -11   61.92    3.74
  -7  -1 -11   55.09    3.64
  -7   1 -12    3.88    1.14
  -7  -1 -12    6.03    1.27
  -7   2  15   12.15    1.52
  -7  -2  15   11.81    1.56
  -7   2  14   10.65    1.41
  -7  -2  14   11.30    1.46
  -7   2  13    1.43    0.75
  -7  -2  13   -0.33    0.63
  -7   2  12   32.39    2.07
  -7  -2  12   34.63    2.14
  -7   2  11   57.57    2.94
  -7  -2  11   58.31    2.94
  -7   2  10  122.00    5.41
  -7  -2  10  125.65    5.41
   7  -2 -10  127.99    5.85
   7   2  -9   81.50    3.90
  -7   2   9   82.89    3.75
   7  -2  -9   82.66    4.00
  -7  -2   9   83.97    3.71
   7   2  -8   38.37    2.08
  -7   2   8   41.69    2.12
   7  -2  -8   41.60    2.18
  -7  -2   8   39.07    2.04
   7   2  -7    0.26    0.31
  -7   2   7    0.47    0.38
  -7  -2   7    0.49    0.34
   7  -2  -7    0.07    0.33
   7   2  -6   76.38    3.80
  -7   2   6   79.30    3.42
   7  -2  -6   81.16    3.89
  -7  -2   6   77.95    3.33
  -7   2   5  153.91    6.16
   7   2  -5  147.90    7.09
  -7   2   5  155.63    7.07
  -7  -2   5  155.42    6.07
  -7  -2   5  152.93    7.04
   7  -2  -5  152.49    7.15
  -7   2   4  313.41   12.05
   7   2  -4  309.57   14.04
  -7   2   4  319.83   14.02
  -7  -2   4  305.32   14.00
  -7  -2   4  306.60   11.91
   7  -2  -4  308.36   14.09
   7  -2  -4  312.88   11.85
  -7   2   3  119.93    5.76
  -7   2   3  119.85    5.60
   7   2  -3  125.68    5.80
  -7  -2   3  117.99    5.74
   7  -2  -3  124.11    4.84
   7  -2  -3  118.29    5.80
  -7  -2   3  124.35    4.74
  -7   2   2   41.11    2.68
   7   2  -2   39.17    2.23
  -7   2   2   39.66    2.22
  -7   2   2   37.63    2.11
  -7  -2   2   34.33    2.15
  -7  -2   2   40.86    1.60
  -7  -2   2   40.01    1.73
   7  -2  -2   38.76    2.24
   7  -2  -2   45.51    2.72
  -7   2   1   -0.13    0.34
  -7   2   1    0.22    0.41
   7   2  -1    0.48    0.40
  -7   2   1    0.47    0.40
  -7  -2   1    0.64    0.39
   7  -2  -1    0.17    0.38
  -7   2   0   81.24    5.36
   7   2   0   87.54    4.26
  -7   2   0   73.45    4.19
  -7   2   0   83.39    4.12
   7  -2   0   87.68    4.27
  -7  -2   0   94.14    4.28
  -7   2  -1   74.36    3.61
  -7   2  -1   68.47    4.71
   7   2   1   69.15    3.68
  -7   2  -1   76.07    3.75
   7  -2   1   71.24    3.68
  -7  -2  -1   70.61    3.60
  -7  -2  -1   68.71    3.68
  -7   2  -2  229.89   10.23
  -7   2  -2  228.14   10.44
  -7   2  -2  225.75   13.47
   7   2   2  225.26   10.42
   7  -2   2  218.16   10.39
  -7  -2  -2  230.21   10.45
  -7  -2  -2  209.71   10.19
   7   2   3   88.31    4.37
  -7   2  -3   80.63    4.38
  -7   2  -3   89.30    4.32
  -7   2  -3   84.42    5.74
   7  -2   3   80.43    4.32
  -7  -2  -3   86.87    4.43
  -7  -2  -3   86.30    4.31
  -7   2  -4   69.48    4.81
   7   2   4   63.74    3.55
  -7   2  -4   67.94    3.64
  -7   2  -4   71.17    3.61
   7  -2   4   61.41    3.52
  -7  -2  -4   70.06    3.60
  -7  -2  -4   63.32    3.63
  -7   2  -5    2.35    0.74
  -7   2  -5    2.49    0.73
  -7   2  -5    2.30    0.92
  -7  -2  -5    1.58    0.70
  -7  -2  -5    1.25    0.63
  -7   2  -6   27.38    1.94
  -7   2  -6   27.63    1.97
  -7  -2  -6   22.24    1.88
  -7  -2  -6   25.14    1.95
  -7   2  -7   39.58    2.51
  -7   2  -7   36.83    2.51
  -7  -2  -7   40.54    2.54
  -7  -2  -7   33.10    2.47
  -7   2  -8   96.92    5.30
  -7   2  -8  109.24    5.34
  -7  -2  -8   97.55    5.34
  -7  -2  -8   95.71    5.22
  -7   2  -9   32.30    2.49
  -7   2  -9   35.70    2.53
  -7  -2  -9   37.58    2.60
  -7   2 -10   18.40    1.97
  -7   2 -10   20.39    1.87
  -7  -2 -10   18.10    1.96
  -7   2 -11    0.78    0.77
  -7   2 -11    0.94    0.84
  -7  -2 -11    1.63    0.97
  -7  -2 -12    3.78    1.14
  -7   3  15    8.69    1.35
  -7  -3  15   10.80    1.53
  -7   3  14   47.91    2.84
  -7  -3  14   49.74    3.00
  -7   3  13   58.33    3.18
  -7  -3  13   58.68    3.22
  -7   3  12   55.46    2.99
  -7  -3  12   59.29    3.07
  -7   3  11   11.25    1.28
  -7  -3  11   15.27    1.37
   7  -3 -11   13.30    1.09
  -7   3  10    0.42    0.49
   7   3 -10    0.20    0.33
  -7  -3  10   -0.06    0.49
   7  -3 -10   -0.08    0.38
  -7   3   9   33.18    1.92
   7   3  -9   33.10    1.80
   7  -3  -9   32.85    1.90
  -7  -3   9   33.43    1.85
   7   3  -8  149.80    6.88
  -7   3   8  146.74    6.18
   7  -3  -8  151.30    6.98
  -7  -3   8  146.70    6.11
  -7   3   7  100.55    4.27
   7   3  -7  100.92    4.72
  -7  -3   7   97.09    4.17
   7  -3  -7   97.10    4.79
   7   3  -6  166.33    7.46
  -7   3   6  155.55    6.51
   7  -3  -6  158.50    7.50
  -7  -3   6  161.44    6.42
   7   3  -5   37.72    2.06
  -7   3   5   36.94    1.86
  -7   3   5   36.43    2.01
   7  -3  -5   37.43    2.12
  -7  -3   5   35.24    1.98
  -7  -3   5   37.21    1.71
  -7   3   4    9.70    0.84
  -7   3   4    9.16    0.78
  -7   3   4   10.29    0.90
   7   3  -4   10.67    0.93
  -7  -3   4   10.81    0.65
   7  -3  -4   10.39    0.79
  -7  -3   4    9.63    0.88
   7  -3  -4   10.07    0.94
   7   3  -3   32.71    1.97
  -7   3   3   33.44    1.85
  -7   3   3   35.68    1.97
  -7   3   3   35.82    2.30
   7  -3  -3   32.71    1.61
  -7  -3   3   33.53    1.42
  -7  -3   3   33.65    1.46
   7  -3  -3   33.36    2.02
  -7  -3   3   33.68    1.95
  -7   3   2  244.84   10.91
  -7   3   2  224.21   11.12
   7   3  -2  235.34   11.15
  -7   3   2  242.76   14.18
   7  -3  -2  247.31    9.40
  -7  -3   2  260.04   11.17
   7  -3  -2  238.56   11.19
  -7  -3   2  251.28    9.30
  -7   3   1  121.37    5.41
  -7   3   1  109.73    5.21
   7   3  -1  110.12    5.33
  -7   3   1   95.29    6.67
   7  -3  -1  109.54    4.44
   7  -3  -1  110.17    5.37
  -7  -3   1  111.83    5.34
  -7   3   0  202.57    9.43
   7   3   0  201.25    9.40
  -7   3   0  203.64   12.05
  -7   3   0  198.74    9.22
  -7  -3   0  202.41    9.41
   7  -3   0  201.73    9.42
  -7   3  -1   40.74    2.38
  -7   3  -1   33.47    2.37
   7   3   1   43.01    2.45
  -7   3  -1   51.54    3.27
  -7  -3  -1   41.71    2.47
   7  -3   1   43.83    2.46
   7   3   2    4.57    0.79
  -7   3  -2    4.17    0.78
  -7   3  -2    3.84    0.95
  -7   3  -2    5.15    0.88
   7  -3   2    3.86    0.74
  -7  -3  -2    3.32    0.75
   7   3   3   12.42    1.23
  -7   3  -3   12.41    1.73
  -7   3  -3   13.90    1.31
  -7   3  -3   13.74    1.26
  -7  -3  -3   13.58    1.27
   7  -3   3   12.82    1.19
  -7   3  -4  137.72    8.67
  -7   3  -4  121.97    6.56
  -7   3  -4  125.73    6.47
   7   3   4  142.33    6.58
  -7  -3  -4  143.96    6.69
  -7   3  -5  125.83    7.82
  -7   3  -5  102.66    5.69
  -7   3  -5  119.05    5.89
  -7  -3  -5  117.95    5.91
  -7   3  -6   85.01    4.47
  -7   3  -6   82.07    4.55
  -7  -3  -6   87.66    4.62
  -7   3  -7   22.01    1.81
  -7   3  -7   21.58    1.80
  -7  -3  -7   18.01    1.78
  -7   3  -8    3.56    0.92
  -7   3  -8    4.61    1.01
  -7  -3  -8    2.77    0.92
  -7   3  -9   13.13    1.63
  -7   3  -9   12.72    1.57
  -7  -3  -9   11.83    1.60
  -7   3 -10   40.18    2.82
  -7   3 -10   41.48    2.85
  -7  -3 -10   39.55    2.90
  -7   3 -11   26.75    2.24
  -7   3 -11   24.16    2.25
  -7  -3 -11   27.15    2.34
  -7  -3 -12   39.42    3.00
  -7   4  15   33.91    2.42
  -7  -4  15   31.84    2.47
  -7   4  14    2.42    0.81
  -7  -4  14    2.21    1.04
  -7   4  13    0.80    0.65
  -7  -4  13   -0.15    0.64
  -7   4  12    7.32    1.07
  -7  -4  12    4.28    0.97
  -7   4  11  121.78    5.33
   7  -4 -11  112.94    5.68
  -7  -4  11  123.69    5.34
  -7   4  10   26.22    1.70
   7   4 -10   24.98    1.54
   7  -4 -10   26.04    1.66
  -7  -4  10   26.19    1.69
  -7   4   9  114.03    4.98
   7   4  -9  108.14    5.39
  -7  -4   9  118.02    4.96
   7  -4  -9  118.23    5.55
  -7   4   8    7.94    0.94
   7   4  -8    7.20    0.80
   7  -4  -8    7.56    0.92
  -7  -4   8    6.91    0.85
   7   4  -7   -0.02    0.36
  -7   4   7    0.70    0.46
   7  -4  -7    0.65    0.51
  -7  -4   7   -0.02    0.39
   7   4  -6    2.80    0.57
  -7   4   6    1.62    0.53
  -7  -4   6    1.41    0.44
   7  -4  -6    2.27    0.64
  -7   4   5  230.87   13.62
  -7   4   5  250.41   10.90
   7   4  -5  224.85   10.88
  -7   4   5  244.71    9.49
  -7  -4   5  245.04    9.29
   7  -4  -5  235.78   10.98
  -7  -4   5  235.27   10.85
  -7   4   4   82.37    5.09
   7   4  -4   85.53    4.23
  -7   4   4   89.54    4.24
  -7  -4   4   83.62    4.19
   7  -4  -4   84.25    4.29
   7   4  -3  298.99   13.56
  -7   4   3  284.12   13.53
  -7   4   3  266.70   17.15
  -7   4   3  310.27   13.27
   7  -4  -3  298.09   11.44
  -7  -4   3  310.20   13.56
  -7  -4   3  299.46   11.21
   7  -4  -3  313.32   13.65
  -7   4   2   14.21    1.13
  -7   4   2   13.41    1.33
   7   4  -2   17.29    1.24
  -7   4   2   14.98    1.20
  -7  -4   2   15.30    0.86
   7  -4  -2   16.11    1.26
   7  -4  -2   14.94    1.00
  -7  -4   2   15.44    1.21
  -7   4   1    3.05    0.70
  -7   4   1    1.32    0.47
  -7   4   1    2.07    0.58
   7   4  -1    1.57    0.55
   7  -4  -1    2.70    0.52
  -7  -4   1    1.34    0.53
   7  -4  -1    2.21    0.61
  -7   4   0   28.95    2.19
   7   4   0   24.41    1.70
  -7   4   0   27.74    1.74
  -7   4   0   22.43    1.69
   7  -4   0   24.38    1.74
  -7  -4   0   26.77    1.75
  -7   4  -1  338.81   18.28
  -7   4  -1  297.25   13.88
  -7   4  -1  268.03   14.11
   7   4   1  298.16   14.14
  -7  -4  -1  331.33   14.22
   7  -4   1  319.77   14.19
  -7   4  -2   28.67    2.53
  -7   4  -2   25.86    1.90
   7   4   2   29.50    1.97
  -7   4  -2   32.60    1.96
  -7  -4  -2   31.31    2.04
   7  -4   2   26.36    1.88
  -7   4  -3  209.11   10.00
  -7   4  -3  233.85    9.87
   7   4   3  194.67    9.90
  -7   4  -3  212.88   12.95
  -7  -4  -3  206.24   10.00
   7  -4   3  211.55    9.93
  -7   4  -4   11.49    1.32
   7   4   4   12.12    1.20
  -7   4  -4   11.58    1.75
  -7   4  -4    9.43    1.17
  -7  -4  -4   11.93    1.36
  -7   4  -5    1.89    0.97
  -7   4  -5    1.74    0.69
  -7   4  -5    2.11    0.72
  -7  -4  -5    1.66    0.68
  -7   4  -6    3.81    0.95
  -7   4  -6    5.43    0.98
  -7  -4  -6    5.90    1.07
  -7   4  -7   72.98    4.32
  -7   4  -7   81.93    4.34
  -7  -4  -7   80.19    4.45
  -7   4  -8   17.88    1.73
  -7   4  -8   18.33    1.82
  -7  -4  -8   17.59    1.92
  -7   4  -9   85.31    4.73
  -7   4  -9   85.85    4.71
  -7  -4  -9   80.72    4.78
  -7   4 -10    5.78    1.23
  -7   4 -10    6.73    1.25
  -7  -4 -10    9.71    1.51
  -7   4 -11    4.50    1.14
  -7   4 -11    6.25    1.32
  -7  -4 -11    5.30    1.35
  -7   5  15    1.02    0.75
  -7   5  14   72.16    3.85
  -7   5  13    2.38    0.79
  -7   5  12   88.34    4.28
  -7   5  11    0.81    0.57
   7  -5 -11    1.18    0.59
  -7  -5  11   -0.17    0.63
  -7   5  10   -0.20    0.52
   7   5 -10   -0.56    0.48
  -7  -5  10   -0.21    0.56
   7  -5 -10    0.74    0.56
  -7   5   9    2.54    0.67
   7   5  -9    2.83    0.61
   7  -5  -9    2.59    0.69
  -7  -5   9    2.78    0.71
   7   5  -8  220.11   10.18
  -7   5   8  224.49    9.02
   7  -5  -8  219.11   10.30
   7   5  -7   -0.49    0.39
  -7   5   7   -0.09    0.42
   7  -5  -7    0.04    0.50
  -7   5   6  181.48    7.50
   7   5  -6  181.77    8.53
   7  -5  -6  184.82    8.65
  -7   5   5    6.56    0.79
  -7   5   5    5.13    0.68
   7   5  -5    5.93    0.83
   7  -5  -5    4.62    0.87
  -7   5   4    0.27    0.36
  -7   5   4    0.11    0.43
   7   5  -4   -0.63    0.37
  -7  -5   4    0.37    0.44
   7  -5  -4   -0.15    0.46
  -7   5   3    2.97    0.67
   7   5  -3    2.60    0.63
  -7   5   3    3.09    0.67
  -7   5   3    3.57    0.65
   7  -5  -3    2.92    0.55
  -7  -5   3    2.13    0.65
   7  -5  -3    1.85    0.62
  -7  -5   3    3.25    0.35
   7   5  -2  222.72   10.03
  -7   5   2  203.85    9.74
  -7   5   2  217.22   12.69
  -7   5   2  193.34    9.95
  -7  -5   2  216.16   10.01
   7  -5  -2  219.30    8.42
  -7  -5   2  217.80    8.27
   7  -5  -2  226.25   10.11
  -7   5   1   10.03    1.34
  -7   5   1   14.27    1.30
  -7   5   1   13.30    1.20
   7   5  -1   14.36    1.25
   7  -5  -1   14.62    1.01
  -7  -5   1   15.75    1.29
   7  -5  -1   13.88    1.28
  -7   5   0  280.33   12.57
  -7   5   0  240.62   15.97
  -7   5   0  287.19   12.32
   7   5   0  276.05   12.55
  -7  -5   0  273.53   12.57
   7  -5   0  269.59   12.58
  -7   5  -1    0.73    0.51
  -7   5  -1    0.26    0.51
  -7   5  -1    0.31    0.69
   7   5   1    0.16    0.52
  -7  -5  -1    0.68    0.58
   7  -5   1    0.77    0.56
  -7   5  -2    6.83    1.01
   7   5   2    5.54    0.93
  -7   5  -2    5.64    0.94
  -7   5  -2    5.99    1.18
  -7  -5  -2    5.30    0.99
   7  -5   2    7.08    1.03
  -7   5  -3   -0.65    0.51
   7   5   3    0.12    0.56
  -7   5  -3    0.17    0.63
  -7   5  -3    0.22    0.55
   7  -5   3    0.67    0.60
  -7  -5  -3    0.26    0.55
  -7   5  -4  159.00    7.54
   7   5   4  156.63    7.63
  -7   5  -4  159.40    9.99
  -7   5  -4  144.65    7.63
  -7  -5  -4  160.68    7.72
  -7   5  -5    7.17    1.13
  -7   5  -5    6.36    1.13
  -7  -5  -5    5.61    1.07
  -7   5  -6  147.95    7.39
  -7   5  -6  148.01    7.26
  -7  -5  -6  144.47    7.41
  -7   5  -7    2.52    0.83
  -7   5  -7    1.24    0.81
  -7  -5  -7    1.35    0.86
  -7   5  -8    5.75    1.17
  -7   5  -8    4.28    1.05
  -7  -5  -8    5.54    1.25
  -7   5  -9    0.55    0.76
  -7   5  -9   -1.12    0.69
  -7  -5  -9    1.67    1.02
  -7   5 -10   56.62    3.65
  -7   5 -10   59.02    3.65
  -7  -5 -10   57.02    3.78
  -7   5 -11    1.66    0.84
  -7  -5 -11    2.06    1.15
  -7   6  14   -0.15    0.60
  -7   6  13    2.23    0.84
  -7   6  12    2.08    0.76
   7  -6 -12    2.13    0.74
  -7   6  11   88.68    4.23
   7  -6 -11   86.37    4.54
  -7   6  10    1.15    0.66
   7   6 -10    0.44    0.66
   7  -6 -10    1.27    0.66
   7   6  -9  139.90    6.66
  -7   6   9  138.45    6.03
   7  -6  -9  137.47    6.78
  -7   6   8    0.96    0.63
   7   6  -8    0.96    0.58
   7  -6  -8    0.46    0.64
  -7   6   7    0.90    0.54
   7   6  -7    0.16    0.48
   7  -6  -7    0.47    0.62
  -7   6   6    4.62    0.85
   7   6  -6    4.35    0.76
   7  -6  -6    5.32    0.96
   7   6  -5  220.39   10.73
  -7   6   5  242.43   10.76
   7  -6  -5  231.35   10.86
  -7   6   4    4.06    0.76
  -7   6   4    4.42    0.77
   7   6  -4    4.46    0.81
   7  -6  -4    2.44    0.77
  -7  -6   4    3.67    0.79
  -7   6   3  200.15    9.10
  -7   6   3  182.98   11.39
   7   6  -3  191.69    9.08
   7  -6  -3  200.03    7.64
   7  -6  -3  187.97    9.15
  -7  -6   3  193.69    9.07
  -7  -6   3  188.60    7.32
  -7   6   2    0.41    0.47
   7   6  -2    1.06    0.65
  -7   6   2    0.54    0.54
  -7   6   2    0.50    0.55
  -7  -6   2   -0.87    0.54
   7  -6  -2    0.43    0.57
   7  -6  -2    0.38    0.42
   7   6  -1    6.45    1.02
  -7   6   1    6.88    1.02
  -7   6   1    7.86    1.22
  -7   6   1    8.43    1.04
  -7  -6   1    9.28    1.18
   7  -6  -1    6.34    1.01
   7  -6  -1    9.01    0.88
   7   6   0    1.08    0.62
  -7   6   0    1.31    0.62
  -7   6   0    1.24    0.62
  -7   6   0    0.71    0.66
   7  -6   0    1.83    0.76
  -7  -6   0    1.61    0.68
   7  -6   0    0.29    0.43
  -7   6  -1  191.01    9.28
  -7   6  -1  207.55    9.54
  -7   6  -1  180.39   12.09
   7   6   1  205.40    9.51
   7  -6   1  209.33    9.55
  -7  -6  -1  202.08    9.55
  -7   6  -2   12.64    1.43
  -7   6  -2   10.65    1.30
  -7   6  -2   12.97    1.83
   7   6   2   10.85    1.31
   7  -6   2   11.01    1.34
  -7  -6  -2   12.30    1.46
   7   6   3  160.37    7.70
  -7   6  -3  158.39    7.73
  -7   6  -3  146.25    7.50
  -7   6  -3  160.37    9.99
  -7  -6  -3  156.33    7.76
   7  -6   3  157.01    7.65
   7   6   4    1.11    0.64
  -7   6  -4    1.14    0.78
  -7   6  -4    2.01    0.75
  -7   6  -4   -0.37    0.76
  -7  -6  -4    0.06    0.75
  -7   6  -5    0.79    0.77
  -7   6  -5    1.03    0.69
  -7  -6  -5    1.23    0.86
  -7   6  -6    0.60    0.67
  -7   6  -6    0.79    0.77
  -7  -6  -6    1.38    0.89
  -7   6  -7   69.53    4.07
  -7   6  -7   67.28    4.00
  -7  -6  -7   68.92    4.16
  -7   6  -8    1.18    0.78
  -7   6  -8    2.95    0.98
  -7  -6  -8    0.26    0.90
  -7   6  -9   77.26    4.47
  -7   6  -9   76.76    4.46
  -7  -6  -9   73.85    4.59
  -7   6 -10    0.80    0.80
  -7   6 -10   -0.37    0.79
  -7  -6 -10   -1.94    0.84
  -7   6 -11    3.41    1.04
  -7  -6 -11    1.95    1.24
  -7   7  14   50.32    3.10
  -7   7  13    9.79    1.36
  -7   7  12   47.19    2.71
   7  -7 -12   39.04    2.64
   7   7 -11    3.93    0.93
  -7   7  11    3.44    0.84
   7  -7 -11    3.56    0.92
   7   7 -10   -0.28    0.70
  -7   7  10   -0.63    0.57
   7  -7 -10   -0.14    0.64
   7   7  -9    9.26    1.20
  -7   7   9    8.06    1.11
   7  -7  -9    8.15    1.21
   7  -7  -9    8.46    1.20
   7   7  -8  128.07    6.33
  -7   7   8  134.13    5.73
   7  -7  -8  125.37    6.46
  -7   7   7   34.95    2.07
   7   7  -7   30.08    2.10
   7  -7  -7   32.62    2.22
   7   7  -6  137.76    6.68
  -7   7   6  135.58    5.99
   7  -7  -6  135.72    6.78
   7   7  -5    4.23    0.83
  -7   7   5    5.54    0.87
   7  -7  -5    5.08    0.97
  -7   7   4    3.91    0.83
  -7   7   4    4.38    0.85
   7   7  -4    3.32    0.83
  -7  -7   4    4.33    0.91
   7  -7  -4    3.65    0.88
  -7   7   3   15.86    1.49
  -7   7   3   17.51    1.68
   7   7  -3   16.68    1.46
   7  -7  -3   16.52    1.63
  -7  -7   3   16.04    0.85
  -7  -7   3   14.70    1.50
  -7   7   2  123.61    6.29
  -7   7   2  132.98    6.54
   7   7  -2  137.02    6.54
  -7   7   2  133.11    8.18
   7  -7  -2  131.07    5.41
  -7  -7   2  133.46    6.52
   7  -7  -2  125.53    6.56
  -7   7   1   35.51    2.15
  -7   7   1   29.09    2.62
  -7   7   1   33.87    2.24
   7   7  -1   31.20    2.24
   7  -7  -1   35.06    1.80
  -7  -7   1   31.08    2.21
   7  -7  -1   33.42    2.27
  -7   7   0  196.48   11.03
  -7   7   0  161.45    8.53
   7   7   0  182.39    8.60
  -7   7   0  179.28    8.40
   7  -7   0  172.82    8.60
   7  -7   0  172.83    7.08
  -7  -7   0  175.23    8.59
  -7   7  -1    8.82    1.48
  -7   7  -1    8.19    1.13
   7   7   1    8.39    1.24
  -7   7  -1    9.13    1.25
   7  -7   1    8.11    1.24
  -7  -7  -1    6.23    1.13
  -7   7  -2    0.64    0.65
   7   7   2    0.65    0.63
  -7   7  -2    0.65    0.69
  -7   7  -2    0.80    0.84
  -7  -7  -2    1.43    0.85
   7  -7   2    0.80    0.71
   7   7   3    2.69    0.82
  -7   7  -3    2.20    0.82
  -7   7  -3    2.95    1.09
  -7   7  -3    3.38    0.86
  -7  -7  -3    4.19    0.97
  -7   7  -4  100.80    5.39
  -7   7  -4  102.05    5.29
  -7  -7  -4   98.25    5.40
  -7   7  -5   20.54    1.93
  -7   7  -5   20.69    1.90
  -7  -7  -5   24.11    2.14
  -7   7  -6   67.95    3.97
  -7   7  -6   61.98    3.93
  -7  -7  -6   71.76    4.13
  -7   7  -7    6.97    1.33
  -7   7  -7    6.53    1.29
  -7  -7  -7    4.81    1.30
  -7   7  -8    3.96    1.15
  -7   7  -8    4.11    1.16
  -7  -7  -8    4.83    1.34
  -7   7  -9    1.10    0.92
  -7   7  -9    1.54    0.98
  -7  -7  -9    2.97    1.26
  -7   7 -10   31.85    2.51
  -7  -7 -10   25.05    2.75
  -7   8  13    3.36    1.03
   7  -8 -13    0.70    0.80
  -7   8  12   10.96    1.44
   7  -8 -12   10.47    1.45
  -7   8  11   37.57    2.56
   7   8 -11   44.80    2.73
   7  -8 -11   41.68    2.84
   7   8 -10   51.58    3.08
  -7   8  10   47.50    2.85
   7  -8 -10   48.75    3.11
   7  -8 -10   48.81    3.08
   7   8  -9   47.48    2.94
  -7   8   9   53.28    2.89
   7  -8  -9   45.48    3.03
   7  -8  -9   46.37    3.02
  -7   8   8    6.49    1.10
   7   8  -8    9.66    1.30
   7  -8  -8    9.74    1.31
   7  -8  -8    7.94    1.30
  -7   8   7    2.39    0.82
   7   8  -7    1.75    0.79
   7  -8  -7    1.97    0.87
   7   8  -6   10.39    1.33
   7  -8  -6   13.19    1.51
   7   8  -5   73.28    3.98
  -7   8   5   70.46    3.94
   7  -8  -5   72.11    4.11
   7   8  -4   87.75    4.66
  -7   8   4   90.92    4.72
   7  -8  -4   85.80    4.77
  -7   8   3   66.91    4.29
   7   8  -3   58.97    3.47
  -7   8   3   64.36    3.57
  -7  -8   3   58.17    2.45
  -7  -8   3   57.40    3.51
   7  -8  -3   60.65    3.63
   7   8  -2   21.96    1.91
  -7   8   2   22.94    2.21
  -7   8   2   21.16    1.83
   7  -8  -2   27.98    1.57
   7  -8  -2   27.27    2.11
  -7  -8   2   22.14    1.88
  -7   8   1    2.45    0.82
  -7   8   1    3.63    1.02
   7   8  -1    1.23    0.72
  -7   8   1    2.62    0.77
  -7  -8   1    3.46    0.95
   7  -8  -1    2.80    0.62
   7  -8  -1    3.58    0.97
  -7   8   0   19.35    1.76
  -7   8   0   21.27    1.77
   7   8   0   20.94    1.78
  -7   8   0   21.56    2.21
  -7  -8   0   21.13    1.93
   7  -8   0   20.57    1.80
   7  -8   0   17.81    1.33
  -7   8  -1   69.80    3.79
   7   8   1   61.95    3.80
  -7   8  -1   66.89    4.92
  -7   8  -1   75.33    4.02
  -7  -8  -1   68.92    3.96
   7  -8   1   62.05    3.83
   7   8   2   50.24    3.16
  -7   8  -2   49.16    4.09
  -7   8  -2   56.23    3.22
  -7   8  -2   49.04    3.21
  -7  -8  -2   55.14    3.38
   7  -8   2   48.42    3.15
  -7   8  -3   79.62    4.41
   7   8   3   82.95    4.49
  -7   8  -3   75.66    4.50
  -7  -8  -3   81.51    4.60
  -7   8  -4   13.64    1.68
  -7   8  -4   19.23    1.84
  -7  -8  -4   15.27    1.86
  -7   8  -5    1.01    0.82
  -7   8  -5   -0.54    0.72
  -7  -8  -5   -0.78    0.76
  -7   8  -6    7.08    1.36
  -7   8  -6   10.30    1.46
  -7  -8  -6    7.12    1.48
  -7   8  -7   26.58    2.41
  -7   8  -7   29.40    2.44
  -7  -8  -7   28.06    2.65
  -7   8  -8   22.02    2.24
  -7   8  -8   28.31    2.42
  -7  -8  -8   25.36    2.68
  -7   8  -9   28.38    2.52
  -7  -8  -9   31.88    2.93
  -7   8 -10    8.78    1.54
  -7  -8 -10    6.56    1.94
   7  -9 -13   31.39    2.47
  -7   9  12   10.32    1.55
   7  -9 -12    9.47    1.48
   7   9 -11    7.65    1.36
  -7   9  11    4.99    1.12
   7  -9 -11    7.62    1.42
   7  -9 -11    7.58    1.32
  -7   9  10   -0.25    0.64
   7   9 -10   -1.48    0.75
   7  -9 -10    1.79    0.88
   7  -9 -10    0.86    0.84
   7   9  -9   26.14    2.17
  -7   9   9   23.47    1.97
   7  -9  -9   29.69    2.32
   7  -9  -9   26.09    2.25
   7   9  -8   21.04    2.01
  -7   9   8   22.59    1.87
   7  -9  -8   22.68    2.11
   7  -9  -8   26.25    2.17
  -7   9   7   64.09    3.54
   7   9  -7   65.16    3.81
   7  -9  -7   64.39    3.90
   7   9  -6   34.44    2.41
   7  -9  -6   33.98    2.51
   7   9  -5   22.10    2.02
   7  -9  -5   29.93    2.30
   7   9  -4   -0.30    0.69
  -7   9   4   -0.03    0.71
   7  -9  -4   -0.30    0.69
  -7   9   3   23.11    2.04
   7   9  -3   26.32    2.04
   7  -9  -3   23.68    2.04
  -7  -9   3   21.88    2.05
  -7  -9   3   24.33    1.07
  -7  -9   3   24.80    1.07
  -7   9   2   26.32    2.68
   7   9  -2   32.87    2.36
  -7   9   2   35.23    2.47
  -7  -9   2   31.92    2.41
   7  -9  -2   32.77    2.49
   7  -9  -2   32.47    1.85
  -7   9   1  111.44    5.73
   7   9  -1   96.81    5.57
  -7   9   1  113.47    7.16
   7  -9  -1  107.45    5.72
  -7  -9   1  104.34    5.70
   7  -9  -1  105.75    4.57
   7   9   0   32.78    2.47
  -7   9   0   33.12    2.37
  -7   9   0   34.43    2.50
  -7   9   0   37.12    3.15
   7  -9   0   33.01    1.90
   7  -9   0   33.93    2.51
  -7  -9   0   38.84    2.64
  -7   9  -1   27.76    2.31
  -7   9  -1   28.37    2.81
   7   9   1   28.72    2.23
  -7   9  -1   24.28    2.12
   7  -9   1   27.20    2.20
  -7  -9  -1   28.62    2.41
  -7   9  -2    0.09    0.79
  -7   9  -2   -1.31    0.60
   7   9   2    0.36    0.76
  -7  -9  -2    1.23    0.93
   7  -9   2    0.21    0.79
  -7   9  -3   10.04    1.54
  -7   9  -3   12.00    1.61
   7   9   3   12.37    1.68
  -7  -9  -3   13.83    1.81
  -7   9  -4   15.72    1.87
  -7   9  -4   16.73    2.01
  -7  -9  -4   17.66    2.05
  -7   9  -5   79.59    4.61
  -7   9  -5   79.49    4.70
  -7  -9  -5   76.74    4.76
  -7   9  -6   14.49    1.92
  -7   9  -6   11.99    1.71
  -7  -9  -6   12.84    1.92
  -7   9  -7   14.61    1.89
  -7   9  -7   13.81    1.94
  -7  -9  -7   14.59    2.06
  -7   9  -8    1.77    1.07
  -7   9  -8   -0.13    0.88
  -7  -9  -8    1.97    1.41
  -7   9  -9    7.83    1.53
  -7  -9  -9    6.57    1.75
   7 -10 -13    0.51    0.90
   7 -10 -12   11.35    1.71
  -7  10  11    2.79    0.96
   7  10 -11    2.45    1.21
   7 -10 -11    4.20    1.12
   7 -10 -11    2.19    1.16
  -7  10  10   56.88    3.53
   7  10 -10   60.80    3.80
   7 -10 -10   65.68    3.91
   7 -10 -10   60.00    3.87
  -7  10   9    6.08    1.28
   7  10  -9    5.34    1.33
   7 -10  -9    7.58    1.44
   7 -10  -9    7.22    1.35
  -7  10   8   17.22    1.84
   7  10  -8   12.36    1.70
   7 -10  -8   16.17    1.85
   7 -10  -8   12.01    1.72
  -7  10   7    3.12    1.09
   7  10  -7    2.01    1.04
   7 -10  -7    1.76    1.04
   7  10  -6   31.60    2.43
   7 -10  -6   29.65    2.45
   7  10  -5    4.78    1.19
   7 -10  -5    7.12    1.41
   7  10  -4  101.94    5.69
  -7  10   4  102.20    5.62
   7 -10  -4  114.59    5.90
  -7  10   3    4.43    1.07
   7  10  -3    6.13    1.35
   7 -10  -3    6.39    1.31
   7  10  -2   18.66    2.02
  -7  10   2   19.78    1.89
   7 -10  -2   18.86    2.14
   7 -10  -2   20.74    1.49
  -7 -10   2   16.05    2.06
   7  10  -1    0.20    0.90
  -7  10   1    0.02    0.86
  -7  10   1    0.49    0.84
   7 -10  -1    0.60    0.57
  -7 -10   1   -0.35    0.98
   7 -10  -1    0.97    0.95
   7  10   0   26.43    2.31
  -7  10   0   23.74    2.14
   7 -10   0   22.38    2.21
  -7 -10   0   23.40    2.44
   7 -10   0   24.96    1.58
   7  10   1    4.59    1.17
  -7  10  -1    3.52    1.03
  -7  10  -1    4.45    1.21
   7 -10   1    2.99    1.02
  -7 -10  -1    2.64    1.16
  -7  10  -2   68.81    4.43
  -7  10  -2   78.64    4.38
   7  10   2   73.19    4.43
  -7 -10  -2   77.27    4.60
  -7  10  -3   11.04    1.54
   7  10   3   10.24    1.61
  -7  10  -3    8.49    1.46
  -7 -10  -3    7.01    1.63
  -7  10  -4   34.34    2.77
  -7  10  -4   32.52    2.67
  -7 -10  -4   33.18    3.00
  -7  10  -5    0.87    0.98
  -7  10  -5    0.33    0.82
  -7 -10  -5   -0.85    1.11
  -7  10  -6   11.58    1.83
  -7  10  -6   10.29    1.66
  -7 -10  -6    8.85    1.90
  -7  10  -7    2.16    1.14
  -7  10  -7    1.84    1.05
  -7 -10  -7    1.99    1.30
  -7  10  -8   45.90    3.40
  -7 -10  -8   42.09    3.70
   7 -11 -13   29.97    2.59
   7 -11 -12    1.40    1.05
   7  11 -11    6.03    1.48
   7 -11 -11    6.80    1.49
  -7  11  10    1.15    0.99
   7  11 -10   -2.11    1.01
   7 -11 -10    2.49    1.03
   7 -11 -10   -0.33    0.99
   7  11  -9   14.44    1.93
  -7  11   9   15.20    1.92
   7 -11  -9   17.98    2.03
   7 -11  -9   14.56    2.02
  -7  11   8   -0.76    0.68
   7  11  -8    0.18    1.02
   7 -11  -8    1.98    0.95
   7 -11  -8    0.94    1.06
   7  11  -7   61.05    3.94
  -7  11   7   58.25    3.62
   7 -11  -7   63.40    3.98
   7  11  -6   -0.24    1.06
   7 -11  -6    0.31    0.92
   7  11  -5   26.14    2.38
   7 -11  -5   26.08    2.39
  -7  11   4    0.82    0.85
   7  11  -4    1.35    1.04
   7 -11  -4    1.42    1.00
  -7  11   3   26.30    2.27
   7  11  -3   22.43    2.43
   7 -11  -3   22.28    2.23
   7  11  -2   -0.51    1.05
  -7  11   2    1.38    0.84
   7 -11  -2    1.77    1.12
  -7 -11   2   -1.40    1.32
   7 -11  -2    1.61    0.65
  -7  11   1   81.51    5.03
   7  11  -1   85.87    5.15
   7 -11  -1   87.43    5.13
   7 -11  -1   94.07    4.01
  -7 -11   1   90.68    5.27
  -7  11   0    1.35    1.03
   7  11   0   -0.17    1.06
   7 -11   0    0.85    0.94
  -7 -11   0   -2.19    1.04
   7  11   1   20.23    2.37
  -7  11  -1   27.72    2.42
   7 -11   1   24.17    2.22
  -7 -11  -1   21.59    2.65
  -7  11  -2    0.83    1.02
   7  11   2   -2.29    0.98
  -7  11  -2   -0.10    0.86
  -7 -11  -2   -0.29    1.20
  -7  11  -3    9.75    1.68
  -7  11  -3   11.27    1.67
  -7 -11  -3    9.87    2.03
  -7  11  -4   -0.42    0.91
  -7  11  -4   -0.40    0.77
  -7 -11  -4   -1.90    1.22
  -7  11  -5   59.28    3.91
  -7  11  -5   58.20    3.97
  -7 -11  -5   55.02    4.30
  -7  11  -6    1.22    1.08
  -7  11  -6    0.47    0.96
  -7 -11  -6   -1.86    1.42
  -7  11  -7   14.15    2.05
  -7  11  -7   13.44    2.19
  -7 -11  -7   12.60    2.31
   7  12 -11    2.66    1.38
   7 -12 -11    3.20    1.34
   7  12 -10   31.34    2.86
   7 -12 -10   33.32    2.96
  -7  12   9    0.59    1.06
   7  12  -9    1.66    1.31
   7 -12  -9    2.26    1.30
  -7  12   8    8.97    1.58
   7  12  -8    8.95    1.71
   7 -12  -8    8.11    1.64
   7  12  -7    0.14    1.05
  -7  12   7    0.27    0.91
   7 -12  -7   -0.24    1.09
   7  12  -6   11.60    1.96
   7 -12  -6    9.35    1.76
   7  12  -5    3.24    1.30
   7 -12  -5    3.42    1.33
   7  12  -4   53.50    3.87
   7 -12  -4   57.76    3.88
   7  12  -3    2.76    1.33
  -7  12   3    3.12    1.17
   7 -12  -3    3.51    1.23
   7  12  -2   19.48    2.33
  -7  12   2   18.87    2.24
  -7 -12   2   21.58    1.11
   7 -12  -2   20.63    1.66
   7 -12  -2   22.09    2.40
   7  12  -1    0.72    1.16
  -7  12   1    1.22    0.97
  -7 -12   1   -0.12    1.47
   7 -12  -1    0.84    0.66
   7 -12  -1    0.41    1.12
   7  12   0   12.48    2.02
  -7  12   0   13.95    1.97
  -7 -12   0   17.76    2.54
   7 -12   0   14.60    1.94
  -7  12  -1    6.37    1.49
   7  12   1    3.99    1.69
  -7 -12  -1    3.77    1.94
  -7  12  -2   54.15    3.69
   7  12   2   49.75    3.73
  -7 -12  -2   49.34    4.00
  -7  12  -3    5.35    1.38
  -7  12  -3    5.11    1.40
  -7 -12  -3   -0.80    1.72
  -7  12  -4   15.93    2.16
  -7  12  -4   17.20    2.18
  -7 -12  -4   12.60    2.46
  -7  12  -5    0.71    0.98
  -7  12  -5   -0.10    0.90
  -7 -12  -5    0.11    1.79
  -7  12  -6    9.80    1.79
  -7 -12  -6    3.03    1.99
   7  13 -10   -1.64    1.22
   7 -13 -10    1.02    1.19
   7  13  -9    7.37    1.84
   7 -13  -9    8.85    1.72
   7  13  -8    6.04    1.68
   7 -13  -8    8.09    1.72
   7  13  -7   26.73    2.87
   7 -13  -7   29.74    2.90
   7  13  -6    9.08    1.84
   7 -13  -6   11.04    1.93
   7  13  -5    5.07    1.58
   7 -13  -5    6.90    1.67
   7  13  -4   -1.93    1.28
   7 -13  -4    2.14    1.29
  -7  13   3   11.73    1.82
   7  13  -3    5.08    1.62
   7 -13  -3   10.71    1.91
   7  13  -2   10.22    2.08
  -7  13   2   10.59    1.73
   7 -13  -2   19.29    2.33
   7  13  -1   37.25    3.41
  -7  13   1   39.12    3.07
   7 -13  -1   37.25    3.23
   7  13   0   10.24    1.98
  -7  13   0   12.06    1.86
   7 -13   0   13.18    2.00
  -7 -13   0   11.03    2.19
  -7  13  -1    8.42    1.64
   7  13   1    5.60    1.90
  -7 -13  -1    6.59    2.00
  -7  13  -2    2.39    1.21
  -7 -13  -2   -1.99    1.71
  -7  13  -3    2.84    1.23
  -7 -13  -3    3.27    1.88
  -7  13  -4    8.19    1.65
  -7 -13  -4    4.14    2.03
  -7 -13  -5   17.67    2.84
   7  14  -8   -0.55    1.45
   7 -14  -8    2.33    1.38
   7  14  -7   -2.12    1.34
   7 -14  -7   -0.22    1.27
   7  14  -6    0.59    1.53
   7 -14  -6    5.44    1.64
   7  14  -5   20.52    2.74
   7 -14  -5   19.07    2.52
   7  14  -4   16.00    2.44
   7 -14  -4   18.72    2.42
   7  14  -3   11.23    2.12
   7 -14  -3   13.67    2.19
   7  14  -2    3.82    1.85
  -7  14   2   10.64    1.75
   7 -14  -2    6.94    1.69
  -7  14   1    1.75    1.08
   7  14  -1    0.59    1.59
   7 -14  -1    0.10    1.18
  -7  14   0    6.22    1.48
   7  14   0    2.27    1.57
   7  14   1   10.59    2.35
  -7  14  -1    8.80    1.68
  -7 -14  -1    6.90    2.33
  -7  14  -2   12.37    2.04
  -7 -14  -2    8.50    2.28
  -7  14  -3   15.07    2.11
  -7 -14  -3   11.74    2.69
   7 -15  -5    2.22    1.45
   7  15  -4   -1.62    1.31
   7 -15  -4    1.38    1.41
   7  15  -3    0.98    1.73
   7 -15  -3    2.71    1.52
   7  15  -2   17.92    2.66
   7 -15  -2   19.44    2.61
   7  15  -1    2.16    1.65
  -7  15   1    8.82    1.49
  -7  15   0   18.81    2.22
   7  15   0   10.24    2.26
  -7 -15  -1    0.61    2.12
  -8   0  15   -0.45    0.66
  -8   0  14   36.16    2.38
  -8   0  13   -0.59    0.50
  -8   0  12  151.28    6.58
  -8   0  11    0.09    0.53
  -8   0  10    9.15    1.02
   8   0 -10    9.36    0.78
   8   0  -9   -0.16    0.31
  -8   0   9   -0.23    0.42
  -8   0   8  138.31    5.84
   8   0  -8  143.15    6.57
   8   0  -7   -0.12    0.35
  -8   0   7    0.09    0.37
   8   0  -6  235.45   10.67
   8   0  -6  228.89   13.32
  -8   0   6  235.49    9.17
   8   0  -5   -0.37    0.35
  -8   0   5   -0.32    0.26
   8   0  -5    0.03    0.25
  -8   0   5   -0.03    0.25
  -8   0   4   68.68    3.37
  -8   0   4   68.34    2.81
   8   0  -4   66.91    2.80
   8   0  -4   66.06    3.42
   8   0  -4   62.67    4.08
  -8   0   3   -0.17    0.31
   8   0  -3   -0.04    0.33
  -8   0   3   -0.24    0.20
   8   0  -3    0.41    0.40
  -8   0   3    0.07    0.37
  -8   0   2  287.01   13.18
  -8   0   2  281.11   12.88
  -8   0   2  306.94   11.08
  -8   0   2  277.79   11.02
   8   0  -2  291.04   13.21
  -8   0   1   -0.22    0.30
  -8   0   1   -0.28    0.34
   8   0  -1    0.10    0.46
  -8   0   0  365.53   16.66
   8   0   0  374.02   17.03
  -8   0   0  384.10   17.03
  -8   0  -1    0.13    0.43
  -8   0  -1    0.37    0.49
   8   0   1   -0.46    0.40
   8   0   2   45.97    2.63
  -8   0  -2   41.88    2.54
  -8   0  -2   43.85    2.65
  -8   0  -3   -0.22    0.55
   8   0   3    0.28    0.53
  -8   0  -3   -0.23    0.51
  -8   0  -4   46.81    2.85
  -8   0  -4   51.06    2.95
  -8   0  -5    0.24    0.58
  -8   0  -5   -0.47    0.56
  -8   0  -6  227.43   10.69
  -8   0  -6  217.30   10.46
  -8   0  -7   -0.10    0.58
  -8   0  -7   -0.27    0.62
  -8   0  -8   36.34    2.66
  -8   0  -8   39.99    2.76
  -8   0  -9    0.95    0.83
  -8   0  -9   -0.12    0.74
  -8   0 -10   22.32    2.19
  -8   0 -10   21.78    2.13
  -8   0 -11   -0.19    0.80
  -8   1  15   60.58    3.45
  -8  -1  15   58.78    3.44
  -8   1  14    6.63    1.14
  -8  -1  14    5.88    1.12
  -8   1  13   10.31    1.35
  -8  -1  13    9.88    1.26
  -8   1  12    4.67    0.89
  -8  -1  12    1.97    0.74
  -8   1  11  100.70    4.66
  -8  -1  11  104.93    4.66
  -8   1  10   14.20    1.19
   8   1 -10   14.91    0.97
  -8  -1  10   11.93    1.18
   8  -1 -10   13.43    0.99
   8   1  -9  175.49    8.19
  -8   1   9  180.32    7.38
  -8  -1   9  184.44    7.36
   8  -1  -9  177.48    8.24
   8   1  -8   28.09    1.63
  -8   1   8   27.51    1.63
   8  -1  -8   28.25    1.68
  -8  -1   8   27.55    1.60
   8   1  -7   20.49    1.32
  -8   1   7   20.09    1.28
   8  -1  -7   20.02    1.34
  -8  -1   7   19.29    1.22
   8   1  -6    3.12    0.57
  -8   1   6    3.30    0.54
   8  -1  -6    3.21    0.61
  -8  -1   6    3.21    0.50
  -8   1   5   69.13    2.97
  -8   1   5   66.97    3.40
   8   1  -5   68.07    3.46
  -8  -1   5   68.25    2.90
  -8  -1   5   68.84    3.40
   8  -1  -5   67.92    4.06
   8  -1  -5   69.67    3.50
   8   1  -4   16.52    1.23
  -8   1   4   17.14    1.21
  -8   1   4   18.25    1.02
   8   1  -4   16.96    1.38
  -8  -1   4   17.06    1.21
   8  -1  -4   16.38    1.30
   8  -1  -4   18.74    1.32
   8  -1  -4   17.72    1.06
  -8  -1   4   17.67    0.94
  -8   1   3  442.48   21.38
  -8   1   3  493.36   20.99
   8   1  -3  475.85   21.46
  -8   1   3  497.37   18.26
   8  -1  -3  457.21   21.46
   8  -1  -3  472.19   18.10
  -8  -1   3  472.93   21.41
   8  -1  -3  496.82   27.38
  -8  -1   3  489.29   18.14
   8   1  -2   24.66    1.60
  -8   1   2   21.95    1.47
  -8   1   2   25.55    1.58
  -8  -1   2   24.19    1.06
  -8  -1   2   23.79    1.20
   8  -1  -2   25.46    1.62
  -8  -1   2   22.23    1.55
  -8   1   1   47.14    2.66
   8   1  -1   51.89    2.81
  -8   1   1   49.05    2.75
   8  -1  -1   51.20    2.81
  -8  -1   1   51.20    2.69
  -8  -1   1   46.89    2.73
  -8  -1   1   53.74    2.01
  -8   1   0    4.08    0.71
  -8   1   0    3.46    0.71
   8   1   0    3.18    0.73
  -8  -1   0    3.82    0.67
  -8  -1   0    3.92    0.72
   8  -1   0    4.08    0.73
  -8   1  -1  129.27    6.28
  -8   1  -1  130.20    6.14
   8   1   1  129.37    6.26
  -8  -1  -1  125.14    6.12
  -8  -1  -1  127.62    6.26
   8  -1   1  127.33    6.25
  -8   1  -2   33.05    2.14
   8   1   2   34.00    2.14
  -8   1  -2   33.86    2.17
   8  -1   2   32.21    2.11
  -8  -1  -2   34.37    2.17
  -8  -1  -2   34.68    2.11
  -8   1  -3  223.97   10.72
   8   1   3  235.18   10.91
  -8   1  -3  235.71   10.98
  -8  -1  -3  225.54   10.93
   8  -1   3  232.73   10.89
  -8  -1  -3  244.50   10.78
   8   1   4   14.23    1.34
  -8   1  -4   15.81    1.47
  -8   1  -4   16.17    1.51
  -8  -1  -4   15.02    1.42
  -8  -1  -4   18.50    1.52
  -8   1  -5   39.10    2.63
  -8   1  -5   41.74    2.62
  -8  -1  -5   40.77    2.67
  -8  -1  -5   43.16    2.61
  -8   1  -6    1.68    0.77
  -8   1  -6    0.91    0.70
  -8  -1  -6    1.16    0.69
  -8  -1  -6    1.46    0.75
  -8   1  -7   45.35    2.95
  -8   1  -7   46.13    2.95
  -8  -1  -7   45.35    3.02
  -8  -1  -7   46.66    2.99
  -8   1  -8    8.56    1.35
  -8   1  -8    8.99    1.37
  -8  -1  -8    7.85    1.34
  -8  -1  -8    7.44    1.31
  -8   1  -9   88.48    4.98
  -8   1  -9   86.23    5.00
  -8  -1  -9   95.15    5.08
  -8  -1  -9   88.97    5.05
  -8   1 -10    6.60    1.30
  -8   1 -10    3.00    1.06
  -8  -1 -10    6.57    1.31
  -8   1 -11   18.07    2.00
  -8  -1 -11   17.12    2.02
  -8   2  15    2.22    0.91
  -8  -2  15    4.06    1.11
  -8   2  14   25.90    2.10
  -8  -2  14   31.65    2.16
  -8   2  13   29.51    2.09
  -8  -2  13   30.59    2.11
  -8   2  12  105.37    4.85
  -8  -2  12  105.06    4.82
  -8   2  11   34.42    2.05
  -8  -2  11   28.73    1.91
  -8   2  10    7.68    0.95
   8   2 -10    8.67    0.78
   8  -2 -10    8.65    0.86
  -8  -2  10   11.74    1.16
   8   2  -9    0.30    0.36
  -8   2   9    0.28    0.49
   8  -2  -9    0.19    0.40
  -8  -2   9    1.14    0.52
   8   2  -8   94.56    4.53
  -8   2   8  100.41    4.18
  -8  -2   8   91.55    4.06
   8  -2  -8   90.69    4.59
   8   2  -7  127.96    6.30
  -8   2   7  135.45    5.60
  -8  -2   7  134.59    5.50
   8  -2  -7  140.06    6.41
  -8   2   6  226.76    8.93
   8   2  -6  225.21   10.29
   8  -2  -6  226.83   10.36
  -8  -2   6  219.82    8.81
  -8   2   5   70.56    3.52
   8   2  -5   68.74    3.56
  -8   2   5   68.84    3.09
   8  -2  -5   72.75    3.65
  -8  -2   5   70.28    3.52
  -8  -2   5   73.09    2.99
  -8   2   4   41.34    2.35
   8   2  -4   44.45    2.42
  -8   2   4   44.37    2.05
  -8  -2   4   45.21    1.89
   8  -2  -4   42.64    2.44
  -8  -2   4   41.19    2.35
   8   2  -3   27.06    1.68
  -8   2   3   28.63    1.68
  -8   2   3   25.04    1.53
   8  -2  -3   25.37    1.35
  -8  -2   3   26.23    1.17
   8  -2  -3   26.01    1.72
  -8  -2   3   24.93    1.64
  -8   2   2  120.88    5.64
  -8   2   2  115.67    5.47
   8   2  -2  120.97    5.66
  -8  -2   2  114.91    4.59
   8  -2  -2  116.81    5.67
   8  -2  -2  111.03    4.67
  -8  -2   2  109.96    5.58
  -8   2   1   87.84    4.33
  -8   2   1   89.75    4.46
  -8   2   1   77.12    5.52
   8   2  -1   91.77    4.48
   8  -2  -1   90.69    4.49
  -8  -2   1   93.61    4.47
  -8   2   0  218.20    9.73
  -8   2   0  210.55    9.94
  -8   2   0  203.24   12.68
   8   2   0  209.33    9.92
   8  -2   0  217.83    9.96
  -8  -2   0  215.87    9.94
  -8   2  -1  110.75    5.30
  -8   2  -1  104.60    6.91
   8   2   1  114.27    5.45
  -8   2  -1   98.65    5.38
   8  -2   1  114.53    5.45
  -8  -2  -1  105.48    5.41
  -8  -2  -1  110.59    5.29
  -8   2  -2   27.09    2.51
  -8   2  -2   29.28    1.90
   8   2   2   27.60    1.91
  -8   2  -2   30.05    2.02
  -8  -2  -2   27.07    1.93
  -8  -2  -2   28.02    1.87
   8  -2   2   28.27    1.89
  -8   2  -3    4.34    0.83
   8   2   3    5.35    0.93
  -8   2  -3    5.55    0.94
  -8   2  -3    5.55    1.16
  -8  -2  -3    6.23    0.96
  -8  -2  -3    4.96    0.96
   8  -2   3    3.99    0.79
   8   2   4   44.25    2.63
  -8   2  -4   38.74    3.45
  -8   2  -4   39.40    2.57
  -8   2  -4   42.92    2.67
  -8  -2  -4   45.41    2.73
  -8  -2  -4   48.00    2.73
  -8   2  -5   46.20    2.84
  -8   2  -5   48.51    2.81
  -8  -2  -5   43.02    2.82
  -8  -2  -5   44.73    2.79
  -8   2  -6  132.46    6.47
  -8   2  -6  128.11    6.55
  -8  -2  -6  127.60    6.57
  -8  -2  -6  124.35    6.42
  -8   2  -7   38.75    2.66
  -8   2  -7   37.41    2.61
  -8  -2  -7   36.72    2.66
  -8  -2  -7   38.67    2.65
  -8   2  -8   18.83    1.86
  -8   2  -8   22.16    1.95
  -8  -2  -8   18.65    1.90
  -8   2  -9    0.59    0.79
  -8   2  -9    0.05    0.72
  -8  -2  -9   -1.59    0.74
  -8   2 -10   10.95    1.60
  -8   2 -10   14.43    1.80
  -8  -2 -10   13.70    1.79
  -8   2 -11   14.81    1.83
  -8  -2 -11   16.67    2.01
  -8   3  15   24.44    2.26
  -8  -3  15   26.48    2.14
  -8   3  14   35.44    2.29
  -8  -3  14   30.04    2.25
  -8   3  13    4.68    1.00
  -8  -3  13    5.01    0.96
  -8   3  12    7.07    1.09
  -8  -3  12    7.33    1.10
  -8   3  11   31.98    2.02
   8  -3 -11   33.13    1.94
  -8  -3  11   35.03    2.07
   8   3 -10   88.63    4.33
  -8   3  10   90.32    4.16
   8  -3 -10   92.46    4.45
  -8  -3  10   89.86    4.10
   8   3  -9   82.74    3.95
  -8   3   9   79.62    3.70
  -8  -3   9   79.57    3.64
   8  -3  -9   79.49    4.03
  -8   3   8  144.74    5.91
   8   3  -8  138.35    6.55
  -8  -3   8  139.12    5.79
   8  -3  -8  137.38    6.64
  -8   3   7    8.35    0.92
   8   3  -7    7.51    0.84
  -8  -3   7    6.67    0.76
   8  -3  -7    7.39    0.90
  -8   3   6   23.31    1.35
   8   3  -6   21.50    1.44
   8  -3  -6   19.50    1.49
  -8  -3   6   20.92    1.22
   8   3  -5   81.65    4.15
  -8   3   5   80.10    3.60
  -8   3   5   87.34    4.13
  -8  -3   5   86.91    3.45
  -8  -3   5   84.19    4.10
   8  -3  -5   76.64    4.18
   8   3  -4  189.50    8.70
  -8   3   4  187.96    8.66
  -8  -3   4  187.02    7.22
   8  -3  -4  185.79    8.74
  -8  -3   4  179.80    8.63
  -8   3   3  126.50    8.04
   8   3  -3  137.14    6.51
  -8   3   3  141.03    6.50
  -8   3   3  139.37    6.30
   8  -3  -3  135.15    6.55
  -8  -3   3  129.18    6.44
  -8  -3   3  137.07    5.24
   8  -3  -3  138.69    5.45
   8   3  -2  133.35    6.33
  -8   3   2  137.38    6.34
  -8   3   2  125.37    6.12
  -8   3   2  130.47    7.90
   8  -3  -2  126.87    6.33
   8  -3  -2  127.68    5.26
  -8  -3   2  130.25    5.16
  -8  -3   2  133.76    6.31
  -8   3   1   16.39    1.24
   8   3  -1   14.49    1.26
  -8   3   1   13.50    1.44
  -8   3   1   15.28    1.26
  -8  -3   1   13.75    1.24
   8  -3  -1   16.39    1.31
  -8   3   0    2.40    0.66
  -8   3   0    1.12    0.64
  -8   3   0    1.31    0.53
   8   3   0    1.42    0.64
  -8  -3   0    1.30    0.58
   8  -3   0    2.92    0.72
   8   3   1   49.18    3.08
  -8   3  -1   60.57    4.06
  -8   3  -1   56.12    3.03
  -8   3  -1   57.35    3.19
   8  -3   1   54.32    3.11
  -8  -3  -1   56.30    3.16
   8   3   2  160.83    7.67
  -8   3  -2  155.15    7.50
  -8   3  -2  168.66    9.96
  -8   3  -2  150.98    7.67
   8  -3   2  159.66    7.66
  -8  -3  -2  155.75    7.68
  -8   3  -3  112.13    5.70
   8   3   3  108.40    5.63
  -8   3  -3  108.04    5.54
  -8   3  -3  115.01    7.42
  -8  -3  -3  123.52    5.78
   8  -3   3  107.32    5.60
  -8   3  -4  102.68    6.37
  -8   3  -4   87.62    4.76
   8   3   4   80.06    4.75
  -8   3  -4   83.75    4.64
  -8  -3  -4   96.70    4.84
  -8   3  -5   18.75    1.65
  -8   3  -5   15.85    1.59
  -8  -3  -5   17.41    1.69
  -8   3  -6    0.13    0.60
  -8   3  -6   -0.11    0.58
  -8  -3  -6    0.47    0.65
  -8   3  -7   17.08    1.69
  -8   3  -7   13.48    1.69
  -8  -3  -7   17.01    1.69
  -8   3  -8   47.68    3.20
  -8   3  -8   49.50    3.23
  -8  -3  -8   52.14    3.33
  -8   3  -9   50.58    3.30
  -8   3  -9   47.36    3.26
  -8  -3  -9   52.88    3.43
  -8   3 -10   41.97    3.03
  -8   3 -10   42.94    3.08
  -8  -3 -10   43.91    3.20
  -8   3 -11    7.75    1.40
  -8  -3 -11    5.25    1.38
  -8   4  15    8.59    1.36
  -8  -4  15    8.20    1.48
  -8   4  14   11.35    1.42
  -8  -4  14    9.20    1.42
  -8   4  13   79.60    4.17
  -8  -4  13   91.50    4.29
  -8   4  12   20.43    1.68
  -8  -4  12   19.84    1.76
  -8   4  11   77.50    3.66
   8  -4 -11   74.96    3.76
  -8  -4  11   66.75    3.51
  -8   4  10    1.16    0.62
   8   4 -10    0.03    0.42
  -8  -4  10    1.21    0.58
   8  -4 -10    0.55    0.49
  -8   4   9    6.81    0.90
   8   4  -9    6.23    0.80
  -8  -4   9    7.55    0.92
   8  -4  -9    7.52    0.93
  -8   4   8   12.78    1.20
   8   4  -8   11.48    1.06
   8  -4  -8   12.09    1.15
  -8  -4   8   13.93    1.10
  -8   4   7  198.66    8.19
   8   4  -7  201.31    9.34
   8  -4  -7  194.50    9.41
  -8  -4   7  212.33    8.09
  -8   4   6   37.77    2.01
   8   4  -6   39.07    2.25
  -8  -4   6   41.66    1.91
   8  -4  -6   36.28    2.27
   8   4  -5  191.71    8.92
  -8   4   5  197.81    8.92
  -8   4   5  193.11    7.76
  -8  -4   5  173.90    8.96
  -8  -4   5  194.22    7.52
   8  -4  -5  195.53    9.01
  -8   4   4    8.14    0.88
   8   4  -4    7.06    0.94
  -8   4   4   10.19    1.06
  -8  -4   4    9.01    1.01
   8  -4  -4    7.41    0.99
  -8   4   3    1.02    0.42
  -8   4   3    0.97    0.45
  -8   4   3   -0.14    0.39
   8   4  -3    0.21    0.48
   8  -4  -3    0.30    0.41
   8  -4  -3    0.09    0.55
  -8  -4   3    0.63    0.49
  -8  -4   3    0.27    0.25
   8   4  -2   17.13    1.33
  -8   4   2   14.77    1.27
  -8   4   2   13.91    1.17
  -8   4   2   14.23    1.41
   8  -4  -2   15.71    1.07
   8  -4  -2   13.74    1.30
  -8  -4   2   15.75    1.29
   8   4  -1  214.49    9.99
  -8   4   1  224.79   10.02
  -8   4   1  206.20    9.75
  -8   4   1  215.43   12.70
  -8  -4   1  210.47    9.97
   8  -4  -1  205.25   10.00
  -8   4   0   90.19    4.82
   8   4   0   91.95    4.83
  -8   4   0  103.07    6.18
  -8   4   0   93.25    4.71
   8  -4   0   90.17    4.82
  -8  -4   0   97.10    4.85
  -8   4  -1  221.37   13.48
   8   4   1  211.23   10.44
  -8   4  -1  230.65   10.32
  -8   4  -1  225.92   10.52
  -8  -4  -1  223.15   10.50
   8  -4   1  223.90   10.51
   8   4   2    5.24    0.91
  -8   4  -2    6.36    1.04
  -8   4  -2    6.47    1.30
  -8   4  -2    6.28    1.04
   8  -4   2    6.81    1.04
  -8  -4  -2    5.33    0.95
   8   4   3    9.41    1.16
  -8   4  -3    8.60    1.18
  -8   4  -3    6.82    1.13
  -8   4  -3    8.07    1.52
   8  -4   3    7.99    1.10
  -8  -4  -3    9.04    1.21
  -8   4  -4   28.69    2.70
  -8   4  -4   24.85    1.98
  -8   4  -4   23.53    1.91
  -8  -4  -4   22.81    1.95
  -8   4  -5  124.45    6.13
  -8   4  -5  118.85    5.94
  -8  -4  -5  108.24    6.04
  -8   4  -6   21.75    1.87
  -8   4  -6   21.86    1.90
  -8  -4  -6   21.19    1.97
  -8   4  -7   80.06    4.26
  -8   4  -7   68.40    4.17
  -8  -4  -7   69.99    4.26
  -8   4  -8    3.69    1.01
  -8   4  -8    3.71    1.05
  -8  -4  -8    3.04    1.13
  -8   4  -9    1.55    0.86
  -8   4  -9    0.95    0.82
  -8  -4  -9   -0.20    0.85
  -8   4 -10    2.89    1.07
  -8   4 -10    4.32    1.19
  -8  -4 -10    3.56    1.26
  -8   4 -11   31.45    2.49
  -8  -4 -11   30.75    2.73
  -8   5  14   28.28    2.18
  -8   5  13   -0.20    0.61
  -8   5  12    4.68    0.98
   8  -5 -12    4.34    0.79
  -8  -5  12    3.32    0.95
  -8   5  11    1.52    0.72
   8  -5 -11    2.10    0.66
  -8  -5  11    2.15    0.71
   8   5 -10  143.51    6.60
  -8   5  10  134.83    6.01
  -8  -5  10  138.23    5.98
   8  -5 -10  136.08    6.71
  -8   5   9    6.77    0.94
   8   5  -9    8.19    0.95
  -8  -5   9    9.20    1.05
   8  -5  -9    7.22    1.01
   8   5  -8  152.57    7.58
  -8   5   8  164.45    6.80
   8  -5  -8  160.11    7.73
  -8  -5   8  167.71    6.67
   8   5  -7    0.43    0.48
  -8   5   7    0.71    0.50
   8  -5  -7    0.37    0.55
   8   5  -6   20.94    1.52
  -8   5   6   18.05    1.37
   8  -5  -6   21.14    1.62
  -8   5   5   10.43    1.00
   8   5  -5   11.64    1.09
   8  -5  -5   10.78    1.22
   8   5  -4  252.87   11.60
  -8   5   4  255.70   11.58
  -8   5   4  224.62   14.49
  -8  -5   4  260.85   11.58
   8  -5  -4  259.47   11.69
   8   5  -3    3.47    0.81
  -8   5   3    2.87    0.67
  -8   5   3    3.11    0.68
   8  -5  -3    3.39    0.78
   8  -5  -3    3.83    0.60
  -8  -5   3    3.54    0.42
  -8  -5   3    3.88    0.78
  -8   5   2  187.16    8.60
  -8   5   2  193.39    8.85
  -8   5   2  191.38   11.13
   8   5  -2  178.66    8.80
   8  -5  -2  174.10    8.85
  -8  -5   2  193.27    8.86
   8  -5  -2  181.86    7.38
  -8   5   1    0.32    0.49
   8   5  -1    0.04    0.54
  -8   5   1    0.06    0.49
  -8   5   1   -0.26    0.50
   8  -5  -1   -0.28    0.42
   8  -5  -1    0.56    0.64
  -8  -5   1    0.70    0.56
  -8   5   0    4.42    0.98
   8   5   0    3.91    0.82
  -8   5   0    3.54    0.80
  -8   5   0    4.86    0.87
   8  -5   0    3.91    0.84
  -8  -5   0    2.39    0.82
  -8   5  -1    5.72    1.01
   8   5   1    6.21    1.04
  -8   5  -1    6.37    1.19
  -8   5  -1    6.19    1.01
   8  -5   1    6.72    1.03
  -8  -5  -1    5.50    0.97
  -8   5  -2  187.10    8.85
   8   5   2  176.17    8.78
  -8   5  -2  177.24    8.64
  -8   5  -2  199.48   11.44
   8  -5   2  182.50    8.81
  -8  -5  -2  172.58    8.80
   8   5   3    1.84    0.74
  -8   5  -3    1.01    0.70
  -8   5  -3    0.69    0.86
  -8   5  -3    0.30    0.63
   8  -5   3    0.97    0.66
  -8  -5  -3    1.33    0.69
  -8   5  -4  142.02    7.07
  -8   5  -4  149.91    7.25
  -8  -5  -4  136.95    7.20
  -8   5  -5    0.50    0.75
  -8   5  -5    0.04    0.68
  -8  -5  -5    0.48    0.74
  -8   5  -6    0.66    0.66
  -8   5  -6   -0.19    0.67
  -8  -5  -6    0.62    0.84
  -8   5  -7   -0.25    0.68
  -8   5  -7   -0.49    0.62
  -8  -5  -7    0.41    0.75
  -8   5  -8   71.60    4.12
  -8   5  -8   66.51    4.06
  -8  -5  -8   63.70    4.10
  -8   5  -9    5.55    1.22
  -8   5  -9    5.75    1.19
  -8  -5  -9    5.52    1.39
  -8   5 -10   58.33    3.71
  -8  -5 -10   55.34    3.87
  -8   6  14    0.57    0.72
  -8   6  13   66.62    3.63
  -8   6  12    3.36    0.91
   8  -6 -12    3.54    0.81
   8   6 -11   65.77    3.69
  -8   6  11   71.04    3.52
   8  -6 -11   68.00    3.73
  -8   6  10    0.78    0.65
   8   6 -10    0.11    0.55
   8  -6 -10    0.53    0.62
   8   6  -9    5.17    0.86
  -8   6   9    5.17    0.94
   8  -6  -9    6.26    1.01
   8   6  -8    0.84    0.54
  -8   6   8    0.75    0.55
   8  -6  -8   -0.01    0.59
   8   6  -7  194.31    9.07
  -8   6   7  196.81    8.01
   8  -6  -7  185.05    9.16
  -8   6   6    4.05    0.78
   8   6  -6    5.43    0.90
   8  -6  -6    4.22    0.87
   8   6  -5  129.81    6.14
  -8   6   5  118.68    6.03
   8  -6  -5  122.47    6.19
  -8   6   4    4.41    0.83
   8   6  -4    3.60    0.80
   8  -6  -4    3.53    0.87
  -8  -6   4    4.33    0.84
  -8   6   3   10.28    1.20
   8   6  -3    8.39    1.13
  -8   6   3    9.86    1.20
  -8  -6   3   12.17    1.34
  -8  -6   3    9.36    0.64
   8  -6  -3    8.60    1.19
  -8   6   2    0.76    0.60
  -8   6   2    1.16    0.67
   8   6  -2    1.37    0.71
  -8   6   2    1.18    0.53
   8  -6  -2    1.06    0.50
   8  -6  -2    1.70    0.76
  -8  -6   2    0.41    0.64
   8   6  -1  194.40    8.98
  -8   6   1  184.96   11.32
  -8   6   1  185.47    8.72
  -8   6   1  165.85    8.87
   8  -6  -1  194.65    9.05
  -8  -6   1  185.27    8.94
   8  -6  -1  193.54    7.46
  -8   6   0    0.52    0.55
  -8   6   0    0.14    0.59
  -8   6   0    0.27    0.65
   8   6   0    0.62    0.61
  -8  -6   0   -0.34    0.66
   8  -6   0    0.61    0.63
  -8   6  -1  143.86    7.52
   8   6   1  164.72    7.61
  -8   6  -1  151.74    9.63
  -8   6  -1  146.98    7.37
  -8  -6  -1  161.58    7.62
   8  -6   1  149.22    7.56
   8   6   2    3.47    0.90
  -8   6  -2    2.19    0.80
  -8   6  -2    1.19    0.73
  -8   6  -2    2.04    0.96
   8  -6   2    2.52    0.86
  -8  -6  -2    2.98    0.87
   8   6   3   -0.24    0.63
  -8   6  -3    3.34    0.88
  -8   6  -3    0.17    0.73
  -8   6  -3   -0.06    0.63
  -8  -6  -3    0.33    0.66
  -8   6  -4   -0.34    0.72
  -8   6  -4    0.67    0.67
  -8  -6  -4   -0.43    0.63
  -8   6  -5  106.58    5.94
  -8   6  -5  118.21    5.88
  -8  -6  -5  111.37    6.04
  -8   6  -6    4.28    1.05
  -8   6  -6    4.46    1.10
  -8  -6  -6    3.57    1.17
  -8   6  -7   74.33    4.40
  -8   6  -7   72.06    4.36
  -8  -6  -7   75.89    4.54
  -8   6  -8   -0.02    0.79
  -8   6  -8    0.04    0.73
  -8  -6  -8   -0.24    0.92
  -8   6  -9   -0.85    0.75
  -8   6  -9    1.43    0.94
  -8  -6  -9    0.71    1.11
  -8   6 -10    0.90    0.80
  -8  -6 -10   -1.17    0.98
  -8   7  13    1.70    0.88
  -8   7  12    2.08    0.82
   8  -7 -12    3.79    0.90
   8   7 -11    9.57    1.25
  -8   7  11    7.78    1.21
   8  -7 -11    9.88    1.29
  -8   7  10   75.14    3.85
   8   7 -10   80.35    4.18
   8  -7 -10   76.20    4.24
   8   7  -9   18.18    1.54
  -8   7   9   17.13    1.61
   8  -7  -9   17.51    1.69
   8   7  -8   77.95    4.07
  -8   7   8   75.79    3.74
   8  -7  -8   73.40    4.17
  -8   7   7    8.81    1.17
   8   7  -7    8.60    1.13
   8  -7  -7    5.94    1.12
   8   7  -6    1.81    0.69
  -8   7   6    1.66    0.79
   8  -7  -6    1.16    0.80
  -8   7   5   10.70    1.22
   8   7  -5   10.59    1.29
   8  -7  -5   10.91    1.42
  -8   7   4  142.45    6.75
   8   7  -4  136.95    6.76
  -8  -7   4  136.79    6.74
   8  -7  -4  128.12    6.81
  -8   7   3   47.34    3.23
   8   7  -3   39.75    2.66
  -8   7   3   40.93    2.68
  -8  -7   3   44.18    1.86
   8  -7  -3   44.19    2.83
  -8  -7   3   42.84    2.75
  -8   7   2  119.69    7.38
  -8   7   2  114.00    5.91
   8   7  -2  115.16    5.91
  -8  -7   2  122.12    5.96
   8  -7  -2  116.53    6.01
   8  -7  -2  108.34    4.86
  -8   7   1    2.09    0.75
  -8   7   1    2.56    0.91
   8   7  -1    3.40    0.84
  -8   7   1    3.20    0.77
   8  -7  -1    2.65    0.84
  -8  -7   1    1.38    0.74
   8  -7  -1    1.98    0.58
   8   7   0    0.13    0.60
  -8   7   0    0.58    0.65
  -8   7   0    0.07    0.67
  -8   7   0    0.66    0.67
   8  -7   0    0.38    0.71
  -8  -7   0    0.14    0.72
   8   7   1    3.49    0.99
  -8   7  -1    3.51    1.10
  -8   7  -1    3.62    0.87
  -8   7  -1    5.36    1.03
  -8  -7  -1    4.01    0.99
   8  -7   1    4.13    1.02
  -8   7  -2   99.33    7.23
  -8   7  -2  120.04    5.82
   8   7   2  110.35    5.68
  -8   7  -2  102.65    5.55
  -8  -7  -2  104.93    5.71
   8  -7   2  112.09    5.72
  -8   7  -3   12.28    1.58
  -8   7  -3   18.10    1.73
   8   7   3   16.27    1.78
  -8  -7  -3   18.34    1.75
  -8   7  -4   86.65    4.76
  -8   7  -4   82.36    4.87
  -8  -7  -4   92.81    5.02
  -8   7  -5    3.97    1.12
  -8   7  -5    9.53    1.50
  -8  -7  -5    9.69    1.52
  -8   7  -6    0.69    0.86
  -8   7  -6    1.04    0.88
  -8  -7  -6    1.29    0.92
  -8   7  -7    3.17    1.10
  -8   7  -7    1.52    0.98
  -8  -7  -7    1.80    1.16
  -8   7  -8   42.61    3.03
  -8   7  -8   35.58    2.87
  -8  -7  -8   36.75    3.07
  -8   7  -9   14.75    1.97
  -8   7  -9   14.90    1.94
  -8  -7  -9   12.76    1.98
  -8   8  13   28.51    2.31
   8  -8 -13   31.38    2.34
  -8   8  12   29.19    2.27
   8  -8 -12   27.43    2.21
  -8   8  11   28.14    2.11
   8   8 -11   22.80    2.06
   8  -8 -11   24.75    2.10
  -8   8  10   -0.93    0.68
   8   8 -10    0.33    0.86
   8  -8 -10    1.97    0.87
  -8   8   9   -1.04    0.58
   8   8  -9    2.23    0.89
   8  -8  -9    0.91    0.81
   8   8  -8   12.00    1.42
  -8   8   8   11.46    1.38
   8  -8  -8    9.90    1.40
   8   8  -7   68.04    3.81
  -8   8   7   67.38    3.56
   8  -8  -7   65.74    3.87
   8   8  -6   55.87    3.15
   8  -8  -6   46.35    3.12
   8   8  -5   60.21    3.43
   8  -8  -5   57.32    3.56
  -8   8   4   19.62    1.63
   8   8  -4   16.24    1.76
   8  -8  -4   17.47    1.74
   8   8  -3    1.31    0.79
  -8   8   3    1.11    0.68
   8  -8  -3    1.26    0.79
  -8  -8   3    1.71    0.32
  -8  -8   3    0.76    0.82
  -8   8   2   25.26    2.05
  -8   8   2   28.11    2.48
   8   8  -2   29.83    2.16
   8  -8  -2   28.14    1.70
   8  -8  -2   29.23    2.20
  -8  -8   2   27.86    2.17
   8   8  -1   71.67    4.00
  -8   8   1   66.22    3.93
  -8   8   1   76.81    5.01
  -8   8   1   67.31    4.03
   8  -8  -1   67.24    3.18
   8  -8  -1   63.06    3.95
  -8  -8   1   71.90    4.08
  -8   8   0   81.05    4.55
  -8   8   0   75.12    4.36
   8   8   0   82.00    4.55
  -8   8   0   83.06    5.70
   8  -8   0   80.34    4.59
  -8  -8   0   84.02    4.63
  -8   8  -1   50.16    3.78
  -8   8  -1   45.45    2.95
   8   8   1   43.64    2.89
  -8   8  -1   44.09    2.84
   8  -8   1   41.21    2.88
  -8  -8  -1   39.80    2.91
  -8   8  -2   10.56    1.46
  -8   8  -2    8.05    1.32
   8   8   2    8.11    1.34
   8  -8   2    9.06    1.39
  -8  -8  -2    9.18    1.45
  -8   8  -3    2.76    1.00
   8   8   3    0.30    0.85
  -8   8  -3   -0.22    0.68
  -8  -8  -3   -0.57    0.79
  -8   8  -4   13.87    1.72
  -8   8  -4   13.57    1.76
  -8  -8  -4   15.22    1.91
  -8   8  -5   35.39    2.81
  -8   8  -5   41.00    2.90
  -8  -8  -5   42.54    3.13
  -8   8  -6   39.13    3.08
  -8   8  -6   43.09    3.09
  -8  -8  -6   42.68    3.16
  -8   8  -7   34.45    2.76
  -8   8  -7   35.08    2.81
  -8  -8  -7   31.58    2.92
  -8   8  -8    2.80    1.15
  -8   8  -8    5.28    1.32
  -8  -8  -8    4.37    1.62
  -8   8  -9    0.90    0.93
  -8  -8  -9   -0.46    1.21
   8  -9 -13    4.54    1.11
  -8   9  12    2.00    0.88
   8  -9 -12    0.52    0.82
  -8   9  11   23.98    2.29
   8   9 -11   22.48    2.14
   8  -9 -11   24.48    2.15
  -8   9  10   17.01    1.87
   8   9 -10   20.01    2.05
   8  -9 -10   19.53    1.92
  -8   9   9   49.39    3.13
   8   9  -9   55.79    3.39
   8  -9  -9   52.77    3.41
   8   9  -8   10.55    1.51
  -8   9   8    8.71    1.31
   8  -9  -8    8.71    1.40
  -8   9   7    9.84    1.40
   8   9  -7    9.34    1.39
   8  -9  -7    9.15    1.45
   8   9  -6   -0.79    0.71
   8  -9  -6   -0.08    0.81
   8   9  -5   31.77    2.40
   8  -9  -5   31.76    2.51
   8   9  -4   31.34    2.33
  -8   9   4   31.59    2.30
   8  -9  -4   31.69    2.46
   8   9  -3   82.65    4.64
  -8   9   3   80.52    4.61
  -8  -9   3   85.08    4.76
   8  -9  -3   86.19    4.82
  -8   9   2   22.04    1.98
   8   9  -2   27.18    2.17
  -8  -9   2   23.39    2.09
   8  -9  -2   25.44    2.15
   8  -9  -2   23.64    1.62
   8   9  -1   14.45    1.70
  -8   9   1   14.95    1.90
  -8   9   1   15.12    1.78
   8  -9  -1   14.62    1.79
  -8  -9   1   13.88    1.75
   8  -9  -1   16.67    1.34
  -8   9   0   -0.91    0.62
  -8   9   0    0.41    0.73
  -8   9   0    0.64    0.74
   8   9   0    0.63    0.82
  -8  -9   0    1.01    0.88
   8  -9   0    0.50    0.88
   8   9   1   20.32    1.95
  -8   9  -1   22.43    2.10
  -8   9  -1   22.63    2.03
  -8  -9  -1   20.34    2.08
   8  -9   1   21.74    2.00
   8   9   2   23.73    2.15
  -8   9  -2   24.01    2.17
  -8   9  -2   23.95    2.25
  -8  -9  -2   25.41    2.31
   8   9   3   68.76    4.28
  -8   9  -3   80.33    4.45
  -8   9  -3   70.48    4.20
  -8  -9  -3   69.85    4.43
  -8   9  -4   20.02    2.22
  -8   9  -4   15.63    1.94
  -8  -9  -4   16.80    2.12
  -8   9  -5   14.59    1.87
  -8   9  -5   12.87    1.85
  -8  -9  -5   16.19    2.19
  -8   9  -6   -0.90    0.78
  -8   9  -6   -0.37    0.89
  -8  -9  -6   -1.29    1.06
  -8   9  -7   11.84    1.75
  -8   9  -7   12.59    1.93
  -8  -9  -7    8.81    1.86
  -8   9  -8    9.52    1.74
  -8  -9  -8   13.15    2.18
   8 -10 -13    5.07    1.25
   8 -10 -12   42.81    3.14
   8  10 -11    0.07    1.05
  -8  10  11    0.53    0.81
   8 -10 -11    2.67    1.13
   8  10 -10    5.81    1.37
  -8  10  10    7.33    1.45
   8 -10 -10    5.96    1.32
   8  10  -9   -0.43    1.02
  -8  10   9    0.60    0.84
   8 -10  -9   -0.01    0.87
   8  10  -8   21.95    2.23
  -8  10   8   24.38    2.29
   8 -10  -8   23.88    2.27
  -8  10   7    4.12    1.10
   8  10  -7    4.45    1.29
   8 -10  -7    6.39    1.37
   8  10  -6   97.83    5.42
   8 -10  -6   98.53    5.54
   8  10  -5    5.29    1.28
   8 -10  -5    4.80    1.22
   8  10  -4   12.14    1.63
  -8  10   4   12.93    1.65
   8 -10  -4   12.56    1.75
  -8  10   3    0.46    0.70
   8  10  -3    1.23    0.88
   8 -10  -3    1.02    1.01
  -8  10   2   33.03    2.58
   8  10  -2   36.25    2.76
   8 -10  -2   35.52    2.72
   8 -10  -2   37.17    2.10
  -8 -10   2   35.85    2.82
  -8  10   1    5.04    1.24
   8  10  -1    4.12    1.21
   8 -10  -1    7.06    1.38
  -8 -10   1    6.23    1.39
   8 -10  -1    5.14    0.87
  -8  10   0   89.70    4.90
   8  10   0   70.16    4.70
  -8 -10   0   88.86    4.99
   8 -10   0   87.52    4.94
   8  10   1    1.57    1.00
  -8  10  -1    2.87    1.07
  -8  10  -1    2.77    1.02
   8 -10   1    2.50    1.10
  -8 -10  -1    2.38    1.16
  -8  10  -2   12.32    1.66
  -8  10  -2   13.71    1.80
   8  10   2   12.46    1.77
  -8 -10  -2   12.06    1.83
  -8  10  -3   -0.56    0.84
  -8  10  -3    1.45    1.06
  -8 -10  -3   -0.02    1.09
  -8  10  -4   17.77    2.23
  -8  10  -4   17.62    2.05
  -8 -10  -4   18.33    2.39
  -8  10  -5    2.97    1.22
  -8  10  -5    3.32    1.14
  -8 -10  -5    3.75    1.44
  -8  10  -6   51.94    3.60
  -8  10  -6   46.24    3.60
  -8 -10  -6   53.95    3.87
  -8  10  -7    3.33    1.25
  -8  10  -7    3.41    1.27
  -8 -10  -7    1.10    1.32
   8 -11 -13    3.46    1.16
   8 -11 -12   -0.89    0.88
   8  11 -11   21.46    2.34
   8 -11 -11   19.05    2.21
  -8  11  10   -0.78    0.85
   8  11 -10   -1.35    1.01
   8 -11 -10    0.59    1.05
   8  11  -9   50.00    3.46
  -8  11   9   42.82    3.13
   8 -11  -9   49.46    3.48
   8  11  -8    0.19    1.12
  -8  11   8    0.77    0.93
   8 -11  -8   -0.11    0.87
  -8  11   7    9.72    1.52
   8  11  -7    6.42    1.43
   8 -11  -7    9.11    1.61
   8  11  -6    0.72    1.18
   8 -11  -6   -1.01    0.81
   8  11  -5   30.29    2.70
   8 -11  -5   28.93    2.59
   8  11  -4   -0.90    1.04
   8 -11  -4   -1.67    0.90
   8  11  -3   87.72    4.94
  -8  11   3   77.93    4.80
   8 -11  -3   83.52    4.96
  -8  11   2   -0.07    0.84
   8  11  -2    1.77    1.20
   8 -11  -2    2.27    1.06
  -8 -11   2   -2.84    1.11
   8 -11  -2    1.54    0.70
  -8  11   1   16.06    2.01
   8  11  -1   11.85    1.84
   8 -11  -1   12.61    1.19
   8 -11  -1   11.96    1.76
  -8 -11   1   10.08    1.91
  -8  11   0    0.65    0.90
   8  11   0    1.32    1.05
  -8 -11   0    0.04    1.39
   8 -11   0    0.11    0.96
   8  11   1   28.57    2.55
  -8  11  -1   23.96    2.35
   8 -11   1   27.04    2.72
  -8 -11  -1   26.82    2.89
   8  11   2   -0.55    1.03
  -8  11  -2    1.04    1.04
  -8 -11  -2   -1.30    1.30
  -8  11  -3   66.11    4.22
  -8  11  -3   65.76    4.28
  -8 -11  -3   65.27    4.47
  -8  11  -4   -0.09    0.95
  -8  11  -4    0.77    0.96
  -8 -11  -4    0.15    1.39
  -8  11  -5   11.25    1.84
  -8  11  -5    7.45    1.59
  -8 -11  -5    6.39    1.78
  -8  11  -6    1.86    1.15
  -8  11  -6    0.63    1.04
  -8 -11  -6   -1.32    1.22
   8  12 -11    4.07    1.47
   8 -12 -11    5.38    1.47
   8  12 -10    0.62    1.29
   8 -12 -10    2.55    1.33
   8  12  -9    0.75    1.24
   8 -12  -9    1.05    1.15
  -8  12   8   24.11    2.44
   8  12  -8   20.25    2.39
   8 -12  -8   18.64    2.29
   8  12  -7    5.79    1.60
  -8  12   7    6.53    1.51
   8 -12  -7    6.68    1.63
   8  12  -6   43.83    3.44
   8 -12  -6   44.96    3.39
   8  12  -5    1.36    1.35
   8 -12  -5    5.61    1.52
   8  12  -4    8.80    1.75
   8 -12  -4    8.23    1.71
  -8  12   3    2.50    1.06
   8  12  -3   -1.50    1.04
   8 -12  -3   -0.25    1.08
   8  12  -2   19.57    2.53
  -8  12   2   21.56    2.45
   8 -12  -2   22.64    2.53
  -8 -12   2   24.09    1.10
   8 -12  -2   23.05    1.76
   8  12  -1    1.95    1.50
  -8  12   1    5.40    1.32
   8 -12  -1    7.53    1.53
  -8 -12   1    1.94    1.56
   8 -12  -1    7.22    0.95
  -8  12   0   60.15    3.95
   8  12   0   50.08    3.87
  -8 -12   0   49.43    4.26
   8 -12   0   58.63    3.86
   8  12   1    0.30    1.47
  -8  12  -1    1.85    1.16
  -8 -12  -1   -2.15    1.56
  -8  12  -2    9.15    1.64
   8  12   2    7.13    1.92
  -8 -12  -2    6.00    2.14
  -8  12  -3    0.10    1.00
  -8 -12  -3   -1.25    1.47
  -8  12  -4   13.49    1.96
  -8  12  -4   17.43    2.19
  -8 -12  -4    9.48    2.43
  -8  12  -5    1.18    1.17
  -8  12  -5    2.20    1.28
  -8 -12  -5   -1.03    1.61
   8  13 -10    5.76    1.68
   8  13  -9   21.34    2.59
   8 -13  -9   22.82    2.60
   8  13  -8    5.07    1.68
   8 -13  -8    4.39    1.41
   8  13  -7    3.12    1.41
   8 -13  -7    2.50    1.34
   8  13  -6   -1.61    1.32
   8 -13  -6   -0.40    1.17
   8  13  -5    9.44    2.01
   8 -13  -5   13.97    2.04
   8  13  -4   11.22    2.09
   8 -13  -4    8.40    1.79
   8  13  -3   34.24    3.18
   8 -13  -3   39.11    3.29
   8  13  -2   10.40    2.12
  -8  13   2   12.26    1.86
   8 -13  -2   11.41    1.85
  -8  13   1    4.58    1.36
   8  13  -1    1.50    1.47
   8 -13  -1    4.81    1.48
  -8  13   0    0.29    1.00
   8  13   0   -0.49    1.24
  -8 -13   0   -2.43    1.50
  -8  13  -1   13.20    2.04
   8  13   1   11.62    2.16
  -8 -13  -1   10.77    2.30
  -8  13  -2   17.02    2.20
  -8 -13  -2   11.01    2.46
  -8  13  -3   20.82    2.52
  -8 -13  -3   18.50    3.05
  -8 -13  -4    3.49    2.51
   8  14  -7   21.23    2.84
   8 -14  -7   24.56    2.86
   8  14  -6    8.85    2.03
   8 -14  -6   12.01    2.11
   8  14  -5    7.05    1.98
   8 -14  -5    9.47    1.83
   8  14  -4    2.05    1.71
   8 -14  -4    3.54    1.53
   8  14  -3    0.76    1.70
   8 -14  -3    2.55    1.38
  -8  14   2    4.89    1.29
   8  14  -2    3.92    1.74
   8 -14  -2    8.39    1.80
  -8  14   1   21.33    2.55
   8  14  -1   11.27    2.34
   8 -14  -1   17.36    2.36
  -8  14   0   16.96    2.31
   8  14   0   12.43    2.41
   8  14   1    7.83    2.00
  -8  14  -1   15.85    2.13
  -8 -14  -1   10.74    2.62
  -8 -14  -2    0.59    2.10
   8 -15  -3    4.37    1.83
   8 -15  -2   15.21    2.35
  -9   0  15   -0.17    0.83
  -9   0  14   78.18    4.04
  -9   0  13   -0.77    0.57
  -9   0  12    3.06    0.82
  -9   0  11   -0.55    0.49
  -9   0  10  107.53    4.74
   9   0 -10  106.66    5.11
   9   0  -9    0.24    0.37
  -9   0   9    0.12    0.42
  -9   0   8  350.57   13.41
   9   0  -8  333.55   15.44
  -9   0   7   -0.05    0.37
   9   0  -7   -0.22    0.38
   9   0  -6   28.78    1.82
  -9   0   6   28.39    1.53
   9   0  -5   -0.37    0.40
  -9   0   5   -0.16    0.30
  -9   0   5   -0.26    0.37
   9   0  -4  208.35   12.63
  -9   0   4  225.04   10.04
   9   0  -4  221.16   10.09
  -9   0   4  213.27    8.44
  -9   0   3   -0.14    0.23
  -9   0   3   -0.25    0.37
  -9   0   3   -0.41    0.40
   9   0  -3    0.02    0.47
  -9   0   2  383.95   14.16
   9   0  -2  370.01   16.90
  -9   0   2  379.36   16.51
  -9   0   2  348.56   16.82
  -9   0   1   -0.13    0.41
   9   0  -1   -0.34    0.46
  -9   0   1   -0.21    0.44
   9   0   0   58.16    3.26
  -9   0   0   56.24    3.13
  -9   0   0   60.90    3.31
   9   0   1   -0.07    0.50
  -9   0  -1   -0.39    0.47
  -9   0  -1   -0.18    0.47
   9   0   2  205.00    9.95
  -9   0  -2  218.01   10.04
  -9   0  -2  207.93    9.79
  -9   0  -3   -0.28    0.50
   9   0   3   -0.18    0.51
  -9   0  -3   -0.74    0.43
  -9   0  -4  178.27    9.00
  -9   0  -4  190.45    8.84
  -9   0  -5    1.54    0.79
  -9   0  -5    0.43    0.65
  -9   0  -6   18.91    1.77
  -9   0  -6   15.94    1.83
  -9   0  -7    0.03    0.79
  -9   0  -7    0.38    0.78
  -9   0  -8   30.84    2.48
  -9   0  -8   29.15    2.44
  -9   0  -9    1.97    0.96
  -9   0  -9    0.46    0.88
  -9   0 -10   99.39    5.61
  -9   1  15    1.10    0.81
  -9  -1  15    0.87    0.87
  -9   1  14   -0.10    0.71
  -9  -1  14    1.28    0.76
  -9   1  13   69.22    3.68
  -9  -1  13   76.08    3.76
  -9   1  12   14.09    1.46
  -9  -1  12   15.00    1.51
  -9   1  11  148.79    6.40
  -9  -1  11  147.89    6.37
   9   1 -10    6.22    0.71
  -9   1  10    4.99    0.85
  -9  -1  10    3.51    0.78
   9  -1 -10    5.60    0.73
  -9   1   9   10.52    1.05
   9   1  -9   10.57    0.96
   9  -1  -9   10.48    0.97
  -9  -1   9   12.39    1.12
  -9   1   8    3.76    0.65
   9   1  -8    5.08    0.70
   9  -1  -8    3.71    0.68
  -9  -1   8    5.63    0.73
  -9   1   7  235.72    9.26
   9   1  -7  228.20   10.67
  -9  -1   7  229.85    9.19
   9  -1  -7  235.82   10.73
   9   1  -6   20.82    1.44
  -9   1   6   19.39    1.21
   9  -1  -6   18.02    1.42
  -9  -1   6   19.68    1.15
   9   1  -5  280.08   15.78
  -9   1   5  266.60   10.57
  -9   1   5  273.53   12.36
   9   1  -5  260.40   12.40
  -9  -1   5  282.33   10.51
  -9  -1   5  258.85   12.33
   9  -1  -5  272.11   12.45
   9   1  -4    6.87    0.91
  -9   1   4    7.48    0.92
  -9   1   4    6.27    0.64
   9  -1  -4    6.52    0.94
  -9  -1   4    8.16    0.94
  -9  -1   4    7.00    0.59
   9  -1  -4    7.40    0.86
   9   1  -3   18.20    1.41
  -9   1   3   17.39    1.35
  -9   1   3   18.10    1.05
  -9   1   3   17.54    1.26
   9  -1  -3   21.02    1.52
  -9  -1   3   21.22    0.96
  -9  -1   3   15.75    1.36
   9   1  -2    5.40    0.85
  -9   1   2    3.74    0.78
  -9   1   2    4.14    0.70
   9  -1  -2    3.82    0.76
  -9  -1   2    4.05    0.74
   9   1  -1  105.10    5.21
  -9   1   1  103.54    5.04
  -9   1   1   99.33    5.16
  -9  -1   1  102.91    5.05
   9  -1  -1  100.52    5.19
  -9  -1   1  108.54    5.22
   9   1   0   27.01    1.81
  -9   1   0   21.40    1.62
  -9   1   0   24.29    1.75
  -9  -1   0   23.54    1.77
   9  -1   0   24.06    1.76
  -9  -1   0   25.39    1.70
   9   1   1  389.03   17.47
  -9   1  -1  377.75   17.11
  -9   1  -1  371.20   17.46
  -9  -1  -1  350.29   17.41
  -9  -1  -1  403.78   17.16
   9  -1   1  397.73   17.49
   9   1   2    9.34    1.18
  -9   1  -2   10.81    1.29
  -9   1  -2   10.37    1.25
  -9  -1  -2   10.56    1.27
  -9  -1  -2   11.44    1.23
   9  -1   2    9.35    1.17
  -9   1  -3   28.20    1.97
  -9   1  -3   26.95    2.00
   9   1   3   27.87    1.96
  -9  -1  -3   26.00    1.98
  -9  -1  -3   27.29    2.01
   9  -1   3   26.96    1.93
  -9   1  -4    1.03    0.67
  -9   1  -4   -0.08    0.52
  -9  -1  -4    0.86    0.67
  -9  -1  -4   -0.71    0.51
  -9   1  -5   84.03    4.75
  -9   1  -5   88.60    4.91
  -9  -1  -5   90.11    4.94
  -9  -1  -5   97.42    4.91
  -9   1  -6   19.10    1.85
  -9   1  -6   18.95    1.87
  -9  -1  -6   20.54    1.84
  -9  -1  -6   20.17    1.85
  -9   1  -7  124.45    6.36
  -9  -1  -7  118.46    6.26
  -9  -1  -7  114.12    6.33
  -9   1  -8    2.64    1.01
  -9   1  -8    2.95    1.00
  -9  -1  -8    2.03    1.00
  -9  -1  -8    0.96    0.92
  -9   1  -9   19.21    2.16
  -9   1  -9   22.85    2.18
  -9  -1  -9   25.96    2.30
  -9   1 -10    0.07    0.88
  -9   1 -10    0.31    0.89
  -9  -1 -10    0.35    0.92
  -9   2  15   25.98    2.14
  -9  -2  15   25.36    2.30
  -9   2  14   47.23    2.94
  -9  -2  14   51.09    2.94
  -9   2  13   11.74    1.41
  -9  -2  13   13.02    1.47
  -9   2  12    3.46    0.80
  -9  -2  12    1.80    0.68
  -9   2  11    5.46    0.95
  -9  -2  11    6.55    0.94
   9  -2 -11    7.48    0.83
   9   2 -10   71.92    3.58
  -9   2  10   68.33    3.43
  -9  -2  10   73.42    3.41
   9  -2 -10   72.87    3.64
  -9   2   9   71.39    3.37
   9   2  -9   71.49    3.61
  -9  -2   9   77.00    3.35
   9  -2  -9   68.23    3.65
  -9   2   8  223.03    8.79
   9   2  -8  210.17    9.98
   9  -2  -8  218.41   10.06
  -9  -2   8  217.18    8.68
   9   2  -7   27.78    1.79
  -9   2   7   31.33    1.72
  -9  -2   7   31.42    1.60
   9  -2  -7   28.06    1.87
   9   2  -6    2.16    0.59
  -9   2   6    1.71    0.51
  -9  -2   6    1.89    0.45
   9  -2  -6    1.44    0.56
  -9   2   5    1.87    0.52
   9   2  -5    2.42    0.58
  -9   2   5    1.36    0.43
  -9  -2   5    2.20    0.43
  -9  -2   5    1.69    0.55
   9  -2  -5    1.59    0.60
  -9   2   4  163.38    6.57
  -9   2   4  156.59    7.68
   9   2  -4  160.28    7.75
  -9  -2   4  163.36    7.71
   9  -2  -4  164.63    7.81
  -9  -2   4  170.94    6.39
   9   2  -3  127.81    6.08
  -9   2   3  128.43    6.05
  -9   2   3  118.33    5.83
   9  -2  -3  125.58    5.06
   9  -2  -3  127.41    6.11
  -9  -2   3  117.51    6.00
  -9   2   2  223.36   10.41
  -9   2   2  218.42   10.15
   9   2  -2  223.87   10.45
  -9  -2   2  225.96   10.42
   9  -2  -2  224.28   10.47
   9   2  -1   18.56    1.53
  -9   2   1   21.54    1.62
  -9   2   1   19.45    1.45
   9  -2  -1   20.75    1.58
  -9  -2   1   20.91    1.58
  -9   2   0   41.94    2.62
  -9   2   0   44.82    2.55
   9   2   0   44.05    2.60
   9  -2   0   43.30    2.61
  -9  -2   0   40.37    2.60
   9   2   1    4.41    0.89
  -9   2  -1    5.34    0.85
  -9   2  -1    5.09    0.97
  -9  -2  -1    5.00    0.91
   9  -2   1    4.54    0.87
   9   2   2  115.32    6.18
  -9   2  -2  121.87    6.11
  -9   2  -2  134.94    6.33
   9  -2   2  119.10    6.19
  -9  -2  -2  120.42    6.25
  -9  -2  -2  134.94    6.17
   9   2   3   39.17    2.54
  -9   2  -3   43.87    2.57
  -9   2  -3   34.41    2.49
  -9  -2  -3   42.63    2.58
  -9  -2  -3   38.79    2.62
   9  -2   3   39.63    2.54
  -9   2  -4  164.69    8.01
  -9   2  -4  152.41    7.78
  -9  -2  -4  157.18    7.99
  -9  -2  -4  169.76    7.87
  -9   2  -5   34.49    2.42
  -9   2  -5   34.47    2.49
  -9  -2  -5   34.13    2.43
  -9  -2  -5   32.46    2.42
  -9   2  -6   12.00    1.58
  -9   2  -6   14.01    1.62
  -9  -2  -6   13.05    1.64
  -9   2  -7    2.91    0.96
  -9   2  -7    3.86    1.04
  -9  -2  -7    1.62    0.93
  -9   2  -8   22.33    2.09
  -9   2  -8   20.26    2.02
  -9  -2  -8   21.39    2.09
  -9   2  -9   23.35    2.22
  -9   2  -9   22.34    2.19
  -9  -2  -9   24.70    2.37
  -9   2 -10   62.77    4.04
  -9  -2 -10   64.27    4.12
  -9   3  15   -0.32    0.69
  -9  -3  15   -0.26    0.83
  -9   3  14    5.59    1.13
  -9  -3  14    5.35    1.08
  -9   3  13   26.36    1.95
  -9  -3  13   28.52    2.05
  -9   3  12   86.74    4.31
  -9  -3  12   94.14    4.30
  -9   3  11   53.57    2.93
  -9  -3  11   55.92    2.91
   9  -3 -11   59.30    3.03
  -9   3  10   27.98    1.81
   9   3 -10   26.76    1.67
  -9  -3  10   29.02    1.76
   9  -3 -10   26.10    1.75
  -9   3   9    9.64    1.09
   9   3  -9   10.16    0.96
  -9  -3   9    8.44    0.94
   9  -3  -9    9.61    1.06
   9   3  -8   13.07    1.11
  -9   3   8   11.98    1.16
   9  -3  -8   12.85    1.19
  -9  -3   8   14.61    1.09
   9   3  -7  102.68    4.82
  -9   3   7   90.83    4.21
  -9  -3   7   96.61    4.11
   9  -3  -7   97.00    4.87
  -9   3   6  138.72    5.77
   9   3  -6  138.18    6.65
  -9  -3   6  137.66    5.59
   9  -3  -6  140.10    6.73
   9   3  -5  134.54    6.68
  -9   3   5  135.16    6.62
  -9   3   5  142.20    5.76
  -9  -3   5  141.83    5.53
   9  -3  -5  139.70    6.74
  -9  -3   5  139.65    6.64
  -9   3   4  129.90    5.21
   9   3  -4  123.55    6.07
  -9   3   4  123.32    6.01
   9  -3  -4  120.62    6.09
  -9  -3   4  123.00    6.02
   9   3  -3    9.11    1.11
  -9   3   3    8.52    1.02
   9  -3  -3    8.23    1.08
  -9  -3   3   10.26    0.68
   9  -3  -3    9.40    0.90
  -9  -3   3    9.18    1.12
  -9   3   2   22.97    1.63
  -9   3   2   25.24    1.75
   9   3  -2   25.50    1.78
  -9   3   2   24.41    2.02
   9  -3  -2   24.71    1.81
  -9  -3   2   24.02    1.72
  -9   3   1   63.71    4.35
  -9   3   1   63.67    3.39
  -9   3   1   65.55    3.54
   9   3  -1   66.49    3.57
  -9  -3   1   62.93    3.51
   9  -3  -1   64.30    3.55
  -9   3   0  169.05    8.01
   9   3   0  160.82    7.97
  -9   3   0  167.58   10.18
  -9   3   0  166.94    7.81
   9  -3   0  170.63    8.03
  -9  -3   0  156.84    7.97
   9   3   1  130.22    6.53
  -9   3  -1  139.25    8.42
  -9   3  -1  127.89    6.38
  -9   3  -1  120.00    6.49
   9  -3   1  131.60    6.55
  -9  -3  -1  140.33    6.61
   9   3   2   33.71    2.35
  -9   3  -2   38.46    3.13
  -9   3  -2   35.05    2.42
  -9   3  -2   38.84    2.42
  -9  -3  -2   38.64    2.46
   9  -3   2   37.10    2.43
  -9   3  -3    7.88    1.12
   9   3   3    7.04    1.07
  -9   3  -3    8.17    1.53
  -9   3  -3    7.71    1.16
  -9  -3  -3    7.85    1.19
   9  -3   3    8.74    1.19
  -9   3  -4    1.59    0.74
  -9   3  -4    0.89    0.73
  -9  -3  -4   -0.30    0.61
  -9   3  -5   34.58    2.51
  -9   3  -5   35.45    2.52
  -9  -3  -5   39.02    2.70
  -9   3  -6   89.58    4.96
  -9   3  -6   83.31    4.82
  -9  -3  -6   92.31    5.01
  -9   3  -7   33.93    2.61
  -9   3  -7   36.06    2.70
  -9  -3  -7   38.10    2.79
  -9   3  -8   19.06    2.09
  -9   3  -8   23.21    2.09
  -9  -3  -8   19.34    2.14
  -9   3  -9    9.21    1.56
  -9   3  -9    8.57    1.48
  -9  -3  -9    7.55    1.51
  -9   3 -10   -0.34    0.84
  -9  -3 -10    1.48    1.09
  -9   4  15   56.08    3.42
  -9  -4  15   62.09    3.51
  -9   4  14   12.48    1.56
  -9  -4  14   11.05    1.51
  -9   4  13   39.69    2.50
  -9  -4  13   34.79    2.42
  -9   4  12   -0.21    0.63
  -9  -4  12   -0.20    0.59
  -9   4  11   24.23    1.77
  -9  -4  11   24.23    1.72
   9  -4 -11   28.62    1.81
   9   4 -10   29.91    1.85
  -9   4  10   28.48    1.87
  -9  -4  10   31.16    1.89
   9  -4 -10   31.08    1.98
   9   4  -9  139.10    6.72
  -9   4   9  141.75    6.07
   9  -4  -9  139.06    6.82
  -9  -4   9  144.89    5.96
   9   4  -8   33.50    2.05
  -9   4   8   31.82    1.92
  -9  -4   8   37.92    1.90
   9  -4  -8   32.89    2.14
   9   4  -7   41.00    2.39
  -9   4   7   41.90    2.23
   9  -4  -7   41.01    2.48
  -9  -4   7   40.14    2.04
   9   4  -6    1.12    0.55
  -9   4   6    0.31    0.49
   9  -4  -6    0.32    0.57
  -9  -4   6    0.29    0.36
   9   4  -5    9.39    1.11
  -9   4   5   11.05    1.06
  -9   4   5   11.06    1.06
   9  -4  -5    9.53    1.17
  -9   4   4   17.23    1.44
   9   4  -4   21.78    1.58
  -9   4   4   21.09    1.61
  -9  -4   4   21.45    1.57
   9  -4  -4   19.46    1.65
  -9   4   3  290.90   17.04
  -9   4   3  311.22   13.54
   9   4  -3  281.34   13.49
   9  -4  -3  291.26   13.57
  -9  -4   3  292.39   13.48
  -9  -4   3  288.47   11.12
   9   4  -2   43.41    2.70
  -9   4   2   47.22    2.59
  -9   4   2   43.26    3.19
  -9   4   2   44.98    2.71
   9  -4  -2   46.25    2.23
  -9  -4   2   45.29    2.70
   9  -4  -2   44.81    2.75
  -9   4   1   75.79    4.92
   9   4  -1   74.49    3.97
  -9   4   1   71.62    3.79
  -9   4   1   72.25    3.95
   9  -4  -1   74.31    3.97
  -9  -4   1   68.10    3.88
  -9   4   0    7.81    1.03
   9   4   0    7.89    1.09
  -9   4   0    6.13    1.02
  -9   4   0    6.93    1.26
   9  -4   0    8.43    1.14
  -9  -4   0    6.32    1.00
  -9   4  -1   15.55    1.44
   9   4   1   15.33    1.48
  -9   4  -1   13.53    1.44
  -9   4  -1   15.52    1.82
  -9  -4  -1   12.05    1.45
   9  -4   1   16.17    1.46
  -9   4  -2   16.53    1.98
  -9   4  -2   16.68    1.54
  -9   4  -2   17.95    1.69
   9   4   2   17.58    1.53
  -9  -4  -2   17.77    1.65
   9  -4   2   15.32    1.55
  -9   4  -3  138.31    6.63
   9   4   3  128.42    6.51
  -9   4  -3  122.79    8.47
  -9   4  -3  127.68    6.42
   9  -4   3  132.51    6.53
  -9  -4  -3  124.42    6.57
  -9   4  -4   43.90    2.95
  -9   4  -4   44.14    2.86
  -9  -4  -4   46.39    3.01
  -9   4  -5   90.00    4.98
  -9   4  -5   90.02    4.87
  -9  -4  -5   87.60    4.96
  -9   4  -6    0.58    0.77
  -9   4  -6    3.00    1.01
  -9  -4  -6    2.28    0.94
  -9   4  -7    4.81    1.12
  -9   4  -7    2.80    0.99
  -9  -4  -7    3.28    1.15
  -9   4  -8    9.10    1.49
  -9   4  -8    6.29    1.31
  -9  -4  -8    8.77    1.56
  -9   4  -9   49.33    3.67
  -9   4  -9   59.84    3.81
  -9  -4  -9   68.34    4.09
  -9   4 -10    8.38    1.53
  -9  -4 -10   11.30    1.81
  -9   5  14    7.01    1.21
  -9   5  13    1.86    0.74
  -9  -5  13   -0.31    0.71
  -9   5  12  116.45    5.51
   9  -5 -12  116.71    5.88
  -9  -5  12  126.35    5.52
   9   5 -11    2.26    0.66
  -9   5  11    2.01    0.78
   9  -5 -11    2.62    0.73
  -9  -5  11    1.68    0.78
  -9   5  10   42.56    2.34
   9   5 -10   37.34    2.27
   9  -5 -10   35.76    2.36
  -9  -5  10   37.11    2.22
   9   5  -9   -0.45    0.45
  -9   5   9    0.14    0.50
  -9  -5   9    0.37    0.53
   9  -5  -9    0.39    0.60
  -9   5   8   10.59    1.15
   9   5  -8   11.46    1.22
   9  -5  -8   13.03    1.30
  -9   5   7    3.11    0.74
   9   5  -7    2.13    0.65
   9  -5  -7    2.13    0.77
   9   5  -6  185.56    8.70
  -9   5   6  187.78    7.61
   9  -5  -6  176.15    8.75
  -9   5   5    6.72    0.93
   9   5  -5    7.22    1.00
   9  -5  -5    7.14    1.11
  -9   5   4  134.24    6.55
   9   5  -4  135.74    6.59
  -9  -5   4  137.07    6.58
   9  -5  -4  129.16    6.64
   9   5  -3    0.00    0.51
  -9   5   3    0.07    0.45
  -9   5   3    0.48    0.53
   9  -5  -3   -1.25    0.56
  -9  -5   3    0.03    0.51
  -9  -5   3    0.03    0.26
   9   5  -2   28.31    2.04
  -9   5   2   32.83    2.49
  -9   5   2   31.80    2.13
  -9   5   2   28.47    1.95
  -9  -5   2   30.58    2.08
   9  -5  -2   27.69    2.10
   9  -5  -2   32.74    1.74
  -9   5   1   18.66    1.86
  -9   5   1   16.78    1.51
  -9   5   1   16.01    1.48
   9   5  -1   16.18    1.48
   9  -5  -1   15.46    1.53
  -9  -5   1   19.94    1.59
   9   5   0  206.86    9.83
  -9   5   0  201.12   12.51
  -9   5   0  201.62    9.61
  -9   5   0  193.37    9.81
  -9  -5   0  217.47    9.88
   9  -5   0  210.68    9.87
  -9   5  -1    1.18    0.74
  -9   5  -1    3.05    0.98
   9   5   1    2.58    0.81
  -9   5  -1    1.46    0.76
   9  -5   1    2.03    0.80
  -9  -5  -1    1.37    0.72
  -9   5  -2   67.96    3.90
  -9   5  -2   65.88    3.79
   9   5   2   64.31    3.83
  -9   5  -2   72.45    5.03
   9  -5   2   69.91    3.89
  -9  -5  -2   62.81    3.86
  -9   5  -3   -0.70    0.52
  -9   5  -3    0.77    0.71
   9   5   3    0.25    0.59
  -9  -5  -3   -0.78    0.61
  -9   5  -4    1.89    0.86
  -9   5  -4    2.59    0.90
  -9  -5  -4    3.04    0.97
  -9   5  -5    0.60    0.80
  -9   5  -5    1.85    0.80
  -9  -5  -5    1.69    0.90
  -9   5  -6  102.23    5.72
  -9  -5  -6  106.55    5.83
  -9   5  -7    1.33    0.84
  -9   5  -7    2.22    0.97
  -9  -5  -7    0.39    0.81
  -9   5  -8   40.73    3.00
  -9   5  -8   42.39    3.04
  -9  -5  -8   38.27    3.02
  -9   5  -9   -0.95    0.67
  -9   5  -9    0.31    0.87
  -9  -5  -9   -0.45    0.96
  -9   6  14   -0.13    0.77
  -9   6  13   34.04    2.35
  -9   6  12   -0.27    0.65
   9  -6 -12    0.25    0.58
   9   6 -11   18.43    1.54
  -9   6  11   16.10    1.67
   9  -6 -11   18.04    1.57
  -9   6  10    0.91    0.63
   9   6 -10    0.03    0.55
   9  -6 -10    1.50    0.67
   9   6  -9  114.80    5.85
  -9   6   9  117.03    5.34
   9  -6  -9  122.91    6.01
   9   6  -8    4.36    0.85
  -9   6   8    4.31    0.88
   9  -6  -8    3.82    0.91
   9   6  -7   82.91    4.18
  -9   6   7   76.29    3.75
   9  -6  -7   75.10    4.23
   9   6  -6   -0.17    0.55
  -9   6   6    0.20    0.59
   9  -6  -6   -0.40    0.59
  -9   6   5   13.23    1.39
   9   6  -5   11.94    1.33
   9  -6  -5   13.77    1.38
  -9   6   4    3.45    0.80
   9   6  -4    3.36    0.88
  -9  -6   4    3.82    0.82
   9  -6  -4    2.54    0.88
   9   6  -3  215.92    9.82
  -9   6   3  213.72    9.77
  -9  -6   3  193.34    7.84
  -9  -6   3  198.77    9.72
   9  -6  -3  202.87    9.83
  -9   6   2    0.73    0.64
   9   6  -2    0.95    0.66
  -9   6   2    2.48    0.79
   9  -6  -2    2.38    0.84
   9  -6  -2    2.30    0.59
  -9  -6   2    1.67    0.70
   9   6  -1   80.17    4.22
  -9   6   1   75.16    4.01
  -9   6   1   71.30    4.12
  -9   6   1   72.06    5.07
  -9  -6   1   74.07    4.17
   9  -6  -1   76.68    4.22
  -9   6   0    3.18    0.86
  -9   6   0    2.92    0.93
   9   6   0    2.12    0.77
  -9   6   0    3.75    0.88
   9  -6   0    2.29    0.82
  -9  -6   0    2.24    0.86
  -9   6  -1    7.38    1.15
  -9   6  -1    5.37    1.07
   9   6   1    7.13    1.18
  -9   6  -1    7.25    1.37
   9  -6   1    6.96    1.17
  -9  -6  -1    6.89    1.19
  -9   6  -2    3.63    0.96
   9   6   2    3.52    0.91
  -9   6  -2    3.54    0.92
  -9   6  -2    4.79    1.29
  -9  -6  -2    2.60    0.90
   9  -6   2    4.64    1.01
  -9   6  -3  124.75    6.23
   9   6   3  115.18    6.12
  -9   6  -3  115.75    6.06
  -9  -6  -3  112.36    6.17
  -9   6  -4    1.85    0.87
  -9   6  -4    3.15    1.02
  -9  -6  -4    2.61    0.97
  -9   6  -5   58.18    3.73
  -9   6  -5   62.97    3.83
  -9  -6  -5   60.64    3.90
  -9   6  -6    0.56    0.80
  -9   6  -6    0.40    0.77
  -9  -6  -6    0.72    0.92
  -9   6  -7    2.40    1.04
  -9   6  -7    2.98    1.01
  -9  -6  -7    2.67    1.11
  -9   6  -8   -0.18    0.85
  -9   6  -8    0.29    0.82
  -9  -6  -8   -0.27    1.02
  -9   6  -9   60.09    3.86
  -9  -6  -9   53.16    3.97
  -9   7  13    4.68    1.06
  -9   7  12   67.05    3.60
   9  -7 -12   62.84    3.69
  -9   7  11   11.83    1.39
   9   7 -11    9.42    1.32
   9  -7 -11    9.94    1.35
   9   7 -10   24.53    1.93
  -9   7  10   23.32    1.86
   9  -7 -10   27.90    2.07
   9   7  -9    4.94    0.94
  -9   7   9    4.32    0.95
   9  -7  -9    5.48    1.04
   9   7  -8    9.60    1.22
  -9   7   8    8.99    1.22
   9  -7  -8    7.30    1.18
  -9   7   7   12.06    1.39
   9   7  -7   11.19    1.35
   9  -7  -7   11.34    1.45
  -9   7   6  111.47    5.23
   9   7  -6  115.04    5.84
   9  -7  -6  115.96    5.96
   9   7  -5   27.53    2.06
   9  -7  -5   27.73    2.11
  -9   7   4   60.62    3.50
   9   7  -4   61.42    3.55
   9  -7  -4   62.68    3.69
  -9   7   3    3.78    0.87
   9   7  -3    3.38    0.86
  -9  -7   3    4.21    0.46
  -9  -7   3    2.86    0.95
   9  -7  -3    4.18    1.03
  -9   7   2   12.54    1.47
  -9   7   2   12.33    1.60
   9   7  -2   11.90    1.46
  -9  -7   2   12.59    1.52
   9  -7  -2   12.02    1.16
   9  -7  -2   11.71    1.47
  -9   7   1   22.38    1.89
  -9   7   1   19.48    1.81
  -9   7   1   19.17    2.07
   9   7  -1   19.92    1.77
   9  -7  -1   19.99    1.90
  -9  -7   1   19.45    1.78
   9   7   0  106.88    5.74
  -9   7   0  106.00    5.57
  -9   7   0  100.27    5.68
  -9   7   0  122.45    7.32
  -9  -7   0  108.02    5.74
   9  -7   0  108.98    5.82
   9   7   1   29.88    2.28
  -9   7  -1   25.53    2.67
  -9   7  -1   29.41    2.23
  -9   7  -1   30.69    2.25
   9  -7   1   27.18    2.25
  -9  -7  -1   26.34    2.19
  -9   7  -2   60.69    3.76
  -9   7  -2   57.91    3.63
   9   7   2   60.44    3.76
   9  -7   2   64.27    3.79
  -9  -7  -2   68.18    3.92
  -9   7  -3    0.98    0.76
   9   7   3    0.37    0.80
  -9   7  -3    1.87    0.92
  -9  -7  -3    1.17    0.89
  -9   7  -4    4.21    1.17
  -9   7  -4    2.71    0.93
  -9  -7  -4    2.93    1.15
  -9   7  -5    4.26    1.26
  -9   7  -5    7.30    1.38
  -9  -7  -5    4.93    1.28
  -9   7  -6   67.98    4.41
  -9   7  -6   77.39    4.47
  -9  -7  -6   71.38    4.49
  -9   7  -7   13.14    1.90
  -9   7  -7   11.51    1.68
  -9  -7  -7   14.43    2.07
  -9   7  -8   34.54    2.86
  -9   7  -8   33.49    2.80
  -9   8  13   13.38    1.78
   9  -8 -13   14.42    1.63
  -9   8  12    1.91    0.85
   9  -8 -12    2.02    0.88
   9   8 -11    6.78    1.30
  -9   8  11    7.23    1.28
   9  -8 -11    7.97    1.31
  -9   8  10   23.93    2.18
   9   8 -10   25.45    2.12
   9  -8 -10   24.98    2.11
  -9   8   9   35.08    2.34
   9   8  -9   34.89    2.44
   9  -8  -9   32.29    2.50
   9   8  -8   47.27    3.07
  -9   8   8   48.29    2.92
   9  -8  -8   54.36    3.30
   9   8  -7   42.62    2.75
  -9   8   7   42.20    2.64
   9  -8  -7   40.62    2.87
   9   8  -6    3.94    0.91
   9  -8  -6    3.08    0.94
   9   8  -5    3.38    0.89
   9  -8  -5    3.03    1.00
  -9   8   4   14.92    1.64
   9   8  -4   20.14    1.81
   9  -8  -4   16.94    1.73
  -9   8   3   82.89    4.63
   9   8  -3   83.03    4.70
  -9  -8   3   94.00    4.80
   9  -8  -3   80.02    4.72
  -9  -8   3   84.29    3.36
   9   8  -2   64.17    3.74
  -9   8   2   63.39    3.71
   9  -8  -2   60.50    2.98
   9  -8  -2   64.06    3.81
  -9  -8   2   59.33    3.70
  -9   8   1   41.66    3.46
   9   8  -1   48.09    2.96
  -9   8   1   40.44    2.83
   9  -8  -1   41.57    2.99
  -9  -8   1   42.79    2.90
  -9   8   0   10.14    1.52
  -9   8   0   12.58    1.86
  -9   8   0    9.57    1.41
   9   8   0   10.48    1.50
  -9  -8   0   10.75    1.52
   9  -8   0   11.91    1.63
  -9   8  -1    7.66    1.31
   9   8   1    7.50    1.30
  -9   8  -1    5.11    1.21
   9  -8   1    6.58    1.25
  -9  -8  -1    8.76    1.52
  -9   8  -2   29.54    2.33
  -9   8  -2   26.61    2.37
   9   8   2   28.66    2.38
  -9  -8  -2   26.49    2.35
  -9   8  -3   44.24    3.13
  -9   8  -3   44.31    3.03
  -9  -8  -3   46.25    3.29
  -9   8  -4   41.58    3.10
  -9   8  -4   45.67    3.12
  -9  -8  -4   43.66    3.22
  -9   8  -5   24.85    2.44
  -9   8  -5   30.53    2.53
  -9  -8  -5   27.24    2.56
  -9   8  -6    3.15    1.12
  -9   8  -6    5.94    1.35
  -9  -8  -6    2.78    1.37
  -9   8  -7    0.49    0.92
  -9   8  -7    1.26    0.90
  -9  -8  -7    0.45    1.20
  -9   8  -8   13.16    1.95
  -9  -8  -8   11.50    2.11
   9  -9 -13   18.08    1.99
  -9   9  12   16.57    1.92
   9  -9 -12   20.04    2.09
  -9   9  11   41.82    2.81
   9   9 -11   29.66    2.70
   9  -9 -11   47.10    3.00
  -9   9  10    7.54    1.30
   9   9 -10    7.16    1.44
   9  -9 -10    9.68    1.49
  -9   9   9    3.59    0.98
   9   9  -9    1.54    1.06
   9  -9  -9    3.27    1.10
   9   9  -8    3.73    1.08
  -9   9   8    3.91    1.06
   9  -9  -8    4.58    1.18
   9   9  -7   54.00    3.32
  -9   9   7   47.16    3.02
   9  -9  -7   52.70    3.45
   9   9  -6   20.95    1.97
   9  -9  -6   19.79    1.98
   9   9  -5   71.63    4.11
   9  -9  -5   69.62    4.27
  -9   9   4   20.99    1.93
   9   9  -4   21.25    1.91
   9  -9  -4   21.19    2.12
   9   9  -3    5.44    1.18
  -9   9   3    7.64    1.26
   9  -9  -3    7.75    1.35
  -9   9   2    0.32    0.74
   9   9  -2    0.93    0.80
  -9  -9   2    1.50    0.95
   9  -9  -2    2.96    0.73
   9  -9  -2    2.36    1.07
   9   9  -1   40.05    2.88
  -9   9   1   42.97    2.97
  -9  -9   1   42.35    3.06
   9  -9  -1   40.29    3.03
   9   9   0   21.84    2.06
  -9   9   0   21.89    2.05
  -9  -9   0   20.78    2.11
   9  -9   0   23.42    2.12
  -9   9  -1   73.09    4.43
   9   9   1   70.26    4.41
  -9   9  -1   77.12    4.35
   9  -9   1   76.64    4.54
  -9  -9  -1   73.86    4.51
  -9   9  -2   15.91    1.92
   9   9   2   13.23    1.82
  -9   9  -2   16.14    1.95
  -9  -9  -2   18.73    2.23
  -9   9  -3    5.44    1.22
  -9   9  -3    4.54    1.29
  -9  -9  -3    4.83    1.48
  -9   9  -4    1.98    1.01
  -9   9  -4    0.46    1.00
  -9  -9  -4    1.64    1.24
  -9   9  -5   25.16    2.61
  -9   9  -5   24.28    2.48
  -9  -9  -5   27.03    2.88
  -9   9  -6   15.73    2.02
  -9   9  -6   11.23    1.92
  -9  -9  -6   14.85    2.15
  -9   9  -7   29.88    3.05
  -9   9  -7   34.38    3.01
  -9  -9  -7   36.05    3.33
   9 -10 -13    0.96    0.96
   9 -10 -12    1.60    1.08
   9  10 -11   -1.32    1.00
  -9  10  11   -0.50    0.84
   9 -10 -11    1.18    0.96
   9  10 -10   29.04    2.51
  -9  10  10   27.94    2.57
   9 -10 -10   28.35    2.50
  -9  10   9    0.96    0.99
   9  10  -9    3.09    1.22
   9 -10  -9    4.39    1.23
   9  10  -8   65.94    4.01
  -9  10   8   59.72    3.66
   9 -10  -8   63.24    4.05
  -9  10   7    2.09    1.00
   9  10  -7    2.85    1.14
   9 -10  -7    1.08    1.09
   9  10  -6    1.27    1.03
   9 -10  -6    2.55    1.08
   9  10  -5    1.52    1.02
   9 -10  -5    0.00    0.88
   9  10  -4   56.22    3.50
  -9  10   4   50.32    3.51
   9 -10  -4   50.28    3.50
  -9  10   3    3.74    1.09
   9  10  -3    5.03    1.25
   9 -10  -3    5.19    1.36
  -9  10   2   66.51    4.33
   9  10  -2   73.25    4.42
  -9 -10   2   76.26    4.51
   9 -10  -2   71.34    4.51
   9 -10  -2   77.65    3.52
  -9  10   1    6.50    1.32
   9  10  -1    6.52    1.35
   9 -10  -1    4.74    1.36
  -9 -10   1    5.92    1.53
  -9  10   0    8.12    1.55
   9  10   0    7.21    1.53
  -9 -10   0    7.08    1.53
   9 -10   0    8.54    1.51
  -9  10  -1    1.68    1.02
   9  10   1    0.57    0.98
  -9 -10  -1    1.40    1.25
   9 -10   1    1.40    0.97
   9  10   2   31.53    2.74
  -9  10  -2   28.78    2.75
  -9  10  -2   40.17    2.84
  -9 -10  -2   36.36    3.00
  -9  10  -3    3.05    1.18
  -9  10  -3    3.19    1.13
  -9 -10  -3    1.06    1.16
  -9  10  -4   57.19    3.96
  -9  10  -4   60.20    3.86
  -9 -10  -4   56.69    4.11
  -9  10  -5    5.49    1.45
  -9  10  -5    3.62    1.27
  -9 -10  -5    2.76    1.44
  -9  10  -6    4.72    1.50
  -9  10  -6    5.63    1.46
  -9 -10  -6    1.84    1.59
   9 -11 -12    1.06    1.02
   9  11 -11   29.17    2.80
   9 -11 -11   37.17    2.89
   9  11 -10   -2.00    1.06
   9 -11 -10    0.39    1.03
   9  11  -9   -1.47    1.04
  -9  11   9   -0.36    0.93
   9 -11  -9    2.18    1.15
   9  11  -8   -0.45    1.15
  -9  11   8   -0.55    0.83
   9 -11  -8    0.53    1.08
   9  11  -7   38.22    3.03
  -9  11   7   31.92    2.62
   9 -11  -7   35.65    3.00
   9  11  -6   -0.16    1.05
   9 -11  -6    0.22    1.09
   9  11  -5   53.88    3.72
   9 -11  -5   60.51    4.01
   9  11  -4    1.21    1.15
   9 -11  -4   -0.57    1.01
   9  11  -3    3.71    1.37
  -9  11   3    3.66    1.10
   9 -11  -3    4.68    1.40
  -9  11   2    1.10    0.88
   9  11  -2    0.62    1.10
   9 -11  -2    0.92    1.10
   9 -11  -2    0.34    0.66
  -9  11   1   30.04    2.70
   9  11  -1   29.09    2.67
   9 -11  -1   34.86    2.91
  -9 -11   1   33.71    3.01
   9  11   0    0.48    1.15
  -9  11   0    0.36    0.83
   9 -11   0    0.60    1.08
  -9 -11   0   -1.65    1.32
   9  11   1   61.37    4.20
  -9  11  -1   60.17    4.11
  -9 -11  -1   70.39    4.45
   9  11   2   -1.38    1.06
  -9  11  -2   -0.94    0.85
  -9 -11  -2   -2.42    1.22
  -9  11  -3    2.46    1.09
  -9 -11  -3    3.92    1.73
  -9  11  -4   -0.16    0.84
  -9  11  -4    0.13    0.96
  -9 -11  -4   -2.08    1.31
  -9  11  -5   22.19    2.59
  -9  11  -5   27.70    2.63
  -9 -11  -5   21.64    2.78
   9  12 -11   -0.40    1.30
   9 -12 -11    0.14    1.08
   9  12 -10   16.20    2.28
   9 -12 -10   21.19    2.46
   9  12  -9    3.61    1.55
   9 -12  -9    2.33    1.30
   9  12  -8   32.95    3.06
   9 -12  -8   33.72    3.03
   9  12  -7    0.48    1.30
  -9  12   7    0.96    1.10
   9 -12  -7    1.26    1.19
   9  12  -6    1.66    1.45
   9 -12  -6    1.38    1.11
   9  12  -5    0.80    1.24
   9 -12  -5    0.40    1.04
   9  12  -4   26.93    2.95
   9 -12  -4   33.29    2.97
   9  12  -3    7.64    1.86
  -9  12   3   11.72    1.80
   9 -12  -3    9.15    1.77
   9  12  -2   39.15    3.52
  -9  12   2   49.53    3.40
   9 -12  -2   41.65    3.44
  -9  12   1    3.07    1.15
   9  12  -1    2.40    1.40
   9 -12  -1    0.50    1.03
   9  12   0    1.82    1.54
  -9  12   0    5.47    1.46
  -9 -12   0    2.29    1.86
   9 -12   0    4.70    1.34
   9  12   1   -0.15    1.43
  -9  12  -1    1.70    1.18
  -9 -12  -1   -1.15    1.46
  -9  12  -2   24.03    2.65
  -9 -12  -2   20.07    2.96
  -9  12  -3    3.42    1.30
  -9 -12  -3    2.27    2.01
  -9  12  -4   38.72    3.11
  -9 -12  -4   22.66    3.35
   9  13  -9   -2.76    1.29
   9 -13  -9    0.90    1.21
   9  13  -8    1.15    1.56
   9 -13  -8    5.23    1.61
   9  13  -7   13.93    2.34
   9 -13  -7   16.54    2.24
   9  13  -6    7.63    1.83
   9 -13  -6   11.52    1.88
   9  13  -5   22.58    2.84
   9 -13  -5   25.52    2.81
   9  13  -4    3.48    1.61
   9 -13  -4    4.62    1.52
   9  13  -3    1.08    1.44
   9 -13  -3    2.19    1.38
   9  13  -2   -1.44    1.24
  -9  13   2    2.26    1.03
   9 -13  -2    2.07    1.21
  -9  13   1   13.13    1.94
   9  13  -1   12.09    2.38
   9 -13  -1   14.18    2.12
   9  13   0    7.75    2.04
  -9  13   0    9.26    1.80
  -9 -13   0    9.15    2.52
  -9  13  -1   29.80    2.86
   9  13   1   25.73    3.09
  -9 -13  -1   23.39    3.16
  -9  13  -2    7.67    1.68
  -9 -13  -2   -0.12    2.19
   9  14  -6   -1.31    1.49
   9 -14  -6    0.37    1.06
   9  14  -5   -1.47    1.47
   9 -14  -5    3.02    1.46
   9  14  -4    5.49    1.94
   9 -14  -4    7.33    1.78
   9  14  -3   14.85    2.47
   9 -14  -3   17.57    2.48
   9  14  -2    7.43    1.92
   9 -14  -2    9.14    1.81
   9  14  -1    8.42    2.31
  -9  14   1   11.29    1.71
   9  14   0   -2.47    1.35
  -9  14   0    2.65    0.98
  -9 -14  -1   -4.82    2.04
 -10   0  15    0.12    0.80
 -10   0  14    1.63    0.77
 -10   0  13   -0.45    0.59
 -10   0  12  120.58    5.46
  10   0 -11   -0.29    0.38
 -10   0  11    0.56    0.59
 -10   0  10  153.82    6.41
  10   0 -10  148.16    7.11
 -10   0   9    0.19    0.47
  10   0  -9   -0.17    0.42
  10   0  -8    0.04    0.45
 -10   0   8    0.02    0.42
 -10   0   7   -0.04    0.35
  10   0  -7    0.24    0.47
 -10   0   6  168.81    6.78
  10   0  -6  168.63    8.02
 -10   0   5   -0.22    0.43
  10   0  -5    0.65    0.56
 -10   0   5    0.00    0.31
  10   0  -4  333.48   15.39
 -10   0   4  329.94   15.29
 -10   0   4  342.01   12.92
  10   0  -3    0.21    0.60
 -10   0   3    0.52    0.58
  10   0  -2    8.58    1.13
 -10   0   2    8.89    1.04
 -10   0   2    9.55    1.12
  10   0  -1   -0.06    0.55
 -10   0   1    0.29    0.47
 -10   0   1   -0.15    0.50
  10   0   0  220.79   10.96
 -10   0   0  239.27   10.77
 -10   0   0  238.32   11.02
 -10   0  -1    0.13    0.54
 -10   0  -1   -0.23    0.53
  10   0   1   -0.30    0.52
 -10   0  -2  242.25   11.91
  10   0   2  254.87   11.86
 -10   0  -2  254.33   11.65
 -10   0  -3    0.71    0.65
 -10   0  -3   -0.45    0.58
  10   0   3    0.04    0.60
 -10   0  -4   12.16    1.55
 -10   0  -4   14.89    1.66
 -10   0  -5    0.36    0.74
 -10   0  -5    0.79    0.85
 -10   0  -6  104.76    5.56
 -10   0  -6   91.64    5.33
 -10   0  -7    0.51    0.78
 -10   0  -7    0.40    0.80
 -10   0  -8   95.14    5.45
 -10   0  -8   96.62    5.55
 -10   0  -9   -0.84    0.84
 -10   0  -9   -1.01    0.77
 -10   1  15   66.35    3.80
 -10  -1  15   72.85    3.87
 -10   1  14    7.91    1.24
 -10  -1  14    9.46    1.35
 -10   1  13   97.39    4.60
 -10  -1  13   91.54    4.53
 -10   1  12    3.71    0.83
 -10  -1  12    3.99    0.88
 -10   1  11    0.22    0.56
  10   1 -11    0.47    0.44
 -10  -1  11    1.12    0.62
  10  -1 -11    1.30    0.51
  10   1 -10    5.94    0.81
 -10   1  10    6.67    0.96
 -10  -1  10    6.65    0.91
  10  -1 -10    7.44    0.90
 -10   1   9  165.88    6.67
  10   1  -9  153.67    7.47
  10  -1  -9  163.36    7.54
 -10  -1   9  152.15    6.56
 -10   1   8   21.01    1.38
  10   1  -8   21.17    1.46
  10  -1  -8   18.01    1.45
 -10  -1   8   21.33    1.33
  10   1  -7  266.40   12.38
 -10   1   7  273.24   10.66
 -10  -1   7  276.02   10.60
  10  -1  -7  260.86   12.40
  10   1  -6    7.86    0.96
 -10   1   6    6.72    0.76
 -10  -1   6    7.21    0.71
  10  -1  -6    5.99    0.93
 -10   1   5    2.75    0.64
 -10   1   5    3.19    0.54
  10   1  -5    2.51    0.67
  10  -1  -5    3.11    0.72
 -10  -1   5    2.90    0.46
 -10  -1   5    2.42    0.63
  10   1  -4    4.95    0.87
 -10   1   4    5.81    0.88
 -10   1   4    5.63    0.63
 -10  -1   4    4.47    0.85
  10  -1  -4    4.94    0.92
 -10   1   3  235.89    9.22
 -10   1   3  241.52   11.03
  10   1  -3  241.25   11.08
 -10  -1   3  237.06   11.01
  10  -1  -3  224.65   11.05
 -10   1   2    7.88    1.09
 -10   1   2    8.23    0.75
  10   1  -2    7.23    1.07
 -10   1   2    7.85    0.98
 -10  -1   2    6.48    0.98
  10  -1  -2    8.41    1.11
  10   1  -1  258.72   11.85
 -10   1   1  247.69   11.51
 -10   1   1  256.73   11.82
 -10  -1   1  251.31   11.52
 -10  -1   1  243.71   11.78
  10  -1  -1  253.68   11.83
 -10   1   0   16.26    1.53
 -10   1   0   18.98    1.48
  10   1   0   16.03    1.51
 -10  -1   0   18.26    1.61
  10  -1   0   17.26    1.60
 -10  -1   0   20.10    1.57
 -10   1  -1    3.21    0.83
 -10   1  -1    3.46    0.85
  10   1   1    4.36    0.94
 -10  -1  -1    3.76    0.85
 -10  -1  -1    4.94    0.90
  10  -1   1    2.82    0.80
  10   1   2    0.54    0.60
 -10   1  -2    1.46    0.74
 -10   1  -2    0.17    0.56
 -10  -1  -2    1.34    0.72
 -10  -1  -2    0.78    0.69
  10  -1   2    0.26    0.54
 -10   1  -3   88.69    4.78
 -10   1  -3   83.04    4.59
  10   1   3   84.37    4.63
  10  -1   3   84.66    4.63
 -10  -1  -3   91.39    4.81
 -10  -1  -3   82.97    4.59
 -10   1  -4   19.79    1.83
 -10   1  -4   15.37    1.69
 -10  -1  -4   16.30    1.83
 -10  -1  -4   15.84    1.78
 -10   1  -5  172.01    8.38
 -10   1  -5  158.69    8.51
 -10  -1  -5  169.55    8.40
 -10  -1  -5  177.20    8.59
 -10   1  -6    3.94    1.07
 -10   1  -6    3.93    1.06
 -10  -1  -6    3.53    1.04
 -10  -1  -6    2.56    1.07
 -10   1  -7    7.32    1.38
 -10   1  -7    6.06    1.36
 -10  -1  -7    5.19    1.26
 -10  -1  -7    5.19    1.22
 -10   1  -8    1.06    0.95
 -10   1  -8    2.02    0.98
 -10  -1  -8    0.20    0.87
 -10   1  -9   39.89    3.14
 -10  -1  -9   43.78    3.21
 -10   2  15    6.93    1.27
 -10  -2  15    4.50    1.13
 -10   2  14    1.57    0.87
 -10  -2  14    0.12    0.73
 -10   2  13    9.96    1.36
 -10  -2  13    9.99    1.29
 -10   2  12   72.02    3.62
 -10  -2  12   70.72    3.54
 -10   2  11   31.31    2.04
  10   2 -11   30.86    1.92
  10  -2 -11   33.96    2.01
 -10  -2  11   36.34    2.07
 -10   2  10  117.79    5.40
  10   2 -10  125.62    5.94
 -10  -2  10  122.02    5.34
  10  -2 -10  127.28    6.00
 -10   2   9   13.10    1.29
  10   2  -9   14.49    1.22
  10  -2  -9   15.31    1.27
 -10  -2   9   16.19    1.20
 -10   2   8    1.96    0.55
  10   2  -8    3.22    0.65
  10  -2  -8    2.14    0.67
 -10  -2   8    3.68    0.62
 -10   2   7   14.22    1.16
  10   2  -7   16.36    1.31
 -10  -2   7   16.05    1.06
  10  -2  -7   15.91    1.32
  10   2  -6  151.64    7.58
 -10   2   6  163.91    6.52
 -10  -2   6  161.45    6.37
  10  -2  -6  158.91    7.66
 -10   2   5   82.31    4.22
  10   2  -5   81.63    4.28
 -10   2   5   81.51    3.61
  10  -2  -5   85.99    4.37
 -10   2   4  225.72    8.56
  10   2  -4  211.37   10.12
 -10   2   4  222.79   10.10
  10  -2  -4  213.09   10.17
 -10  -2   4  204.29   10.05
 -10   2   3   17.53    1.51
 -10   2   3   20.92    1.22
  10   2  -3   18.57    1.54
  10  -2  -3   19.43    1.58
 -10  -2   3   19.75    1.56
 -10   2   2    2.52    0.66
 -10   2   2    3.56    0.79
  10   2  -2    3.09    0.76
 -10  -2   2    1.91    0.72
  10  -2  -2    2.84    0.78
  10   2  -1   14.81    1.55
 -10   2   1   16.11    1.49
 -10   2   1   15.01    1.31
  10  -2  -1   16.86    1.55
 -10  -2   1   14.77    1.40
 -10   2   0   99.40    5.05
  10   2   0  100.44    5.22
 -10   2   0   95.66    5.18
  10  -2   0  101.38    5.22
 -10  -2   0  102.72    5.22
 -10   2  -1   63.77    3.82
  10   2   1   66.86    3.84
 -10   2  -1   72.52    3.80
 -10  -2  -1   71.10    3.90
  10  -2   1   69.76    3.88
 -10   2  -2  151.79    7.15
  10   2   2  143.33    7.24
 -10   2  -2  147.96    7.30
  10  -2   2  143.83    7.23
 -10  -2  -2  138.21    7.26
 -10   2  -3   19.41    1.78
 -10   2  -3   17.91    1.67
  10   2   3   18.00    1.62
 -10  -2  -3   15.38    1.75
  10  -2   3   17.24    1.65
 -10   2  -4    5.66    1.24
 -10   2  -4    7.33    1.24
 -10  -2  -4    7.82    1.31
 -10   2  -5    7.40    1.31
 -10   2  -5    4.84    1.09
 -10  -2  -5    5.68    1.28
 -10   2  -6   55.98    3.54
 -10   2  -6   53.65    3.57
 -10  -2  -6   56.61    3.65
 -10   2  -7   14.91    1.88
 -10   2  -7   17.19    2.02
 -10  -2  -7   14.42    1.86
 -10   2  -8   65.69    4.17
 -10   2  -8   66.58    4.13
 -10  -2  -8   64.77    4.22
 -10   2  -9   12.62    1.86
 -10   2  -9   17.18    2.12
 -10  -2  -9   15.49    2.03
 -10   3  15   31.37    2.28
 -10  -3  15   27.14    2.32
 -10   3  14   41.52    2.74
 -10  -3  14   45.40    2.72
 -10   3  13   33.85    2.32
 -10  -3  13   35.24    2.31
 -10   3  12   19.81    1.67
 -10  -3  12   18.14    1.59
  10   3 -11    1.21    0.50
 -10   3  11    0.16    0.50
 -10  -3  11    0.03    0.51
  10  -3 -11    0.43    0.50
  10   3 -10   32.06    1.90
 -10   3  10   26.86    1.87
  10  -3 -10   28.48    1.94
 -10  -3  10   30.58    1.82
 -10   3   9   42.86    2.45
  10   3  -9   47.26    2.63
 -10  -3   9   46.43    2.37
  10  -3  -9   49.26    2.75
 -10   3   8   84.88    3.92
  10   3  -8   82.01    4.35
  10  -3  -8   89.55    4.47
 -10  -3   8   88.01    3.78
 -10   3   7   87.04    3.92
  10   3  -7   83.31    4.44
 -10  -3   7   90.07    3.76
  10  -3  -7   88.45    4.54
 -10   3   6   41.45    2.14
  10   3  -6   39.41    2.41
  10  -3  -6   41.25    2.49
 -10   3   5    1.10    0.54
 -10   3   5    1.20    0.50
  10   3  -5    1.42    0.63
  10  -3  -5    0.93    0.61
 -10   3   4   34.98    1.92
  10   3  -4   35.52    2.31
 -10   3   4   39.10    2.34
  10  -3  -4   39.75    2.44
 -10  -3   4   37.90    2.32
 -10   3   3   76.92    4.06
  10   3  -3   73.99    4.06
  10  -3  -3   81.34    4.15
 -10  -3   3   70.78    3.11
 -10  -3   3   78.67    4.06
 -10   3   2  113.88    5.90
  10   3  -2  123.08    5.99
 -10   3   2  111.12    5.71
 -10  -3   2  123.78    5.96
  10  -3  -2  117.84    5.97
 -10   3   1   97.27    5.06
  10   3  -1  101.91    5.27
 -10   3   1  104.19    5.30
 -10  -3   1   96.14    5.23
  10  -3  -1  109.43    5.33
 -10   3   0   60.63    4.18
 -10   3   0   56.46    3.32
  10   3   0   56.66    3.31
 -10   3   0   55.49    3.20
  10  -3   0   57.17    3.36
 -10  -3   0   53.80    3.28
  10   3   1    4.66    0.97
 -10   3  -1    5.62    1.06
 -10   3  -1    7.00    1.33
 -10   3  -1    6.97    1.14
  10  -3   1    6.02    1.08
 -10  -3  -1    6.57    1.10
  10   3   2   17.05    1.67
 -10   3  -2   25.40    1.82
 -10   3  -2   21.71    1.87
 -10   3  -2   18.81    2.19
 -10  -3  -2   20.77    1.80
  10  -3   2   22.24    1.82
  10   3   3   63.69    3.66
 -10   3  -3   63.58    3.69
 -10   3  -3   59.87    3.60
 -10  -3  -3   59.16    3.67
 -10   3  -4   79.35    4.78
 -10   3  -4   90.40    4.78
 -10  -3  -4   88.50    4.92
 -10   3  -5   63.78    3.91
 -10   3  -5   63.06    3.80
 -10  -3  -5   61.29    3.87
 -10   3  -6   25.48    2.30
 -10   3  -6   27.59    2.29
 -10  -3  -6   25.59    2.36
 -10   3  -7    1.43    0.92
 -10   3  -7    0.79    0.91
 -10  -3  -7    0.17    0.83
 -10   3  -8    2.77    1.20
 -10   3  -8    3.32    1.15
 -10  -3  -8    2.88    1.20
 -10   3  -9   14.62    1.99
 -10  -3  -9   14.90    2.11
 -10   4  15   11.67    1.76
 -10  -4  15    9.88    1.52
 -10   4  14    0.98    0.79
 -10  -4  14    0.42    0.82
 -10   4  13   25.42    1.92
 -10  -4  13   21.41    1.89
 -10   4  12   16.12    1.61
 -10  -4  12   19.16    1.72
  10  -4 -12   16.39    1.40
 -10   4  11   95.70    4.71
  10   4 -11  103.83    5.05
 -10  -4  11  103.52    4.68
  10  -4 -11  103.87    5.16
  10   4 -10   23.40    1.67
 -10   4  10   23.01    1.72
  10  -4 -10   22.29    1.74
 -10  -4  10   27.42    1.69
 -10   4   9   36.77    2.20
  10   4  -9   36.56    2.26
  10  -4  -9   38.65    2.39
 -10  -4   9   39.42    2.09
  10   4  -8    0.72    0.53
 -10   4   8    0.26    0.48
 -10  -4   8    0.59    0.46
  10  -4  -8    0.06    0.58
  10   4  -7   35.17    2.24
 -10   4   7   36.44    2.03
  10  -4  -7   37.09    2.38
 -10   4   6   36.29    2.02
  10   4  -6   37.11    2.29
  10  -4  -6   35.04    2.37
  10   4  -5  156.89    7.62
 -10   4   5  158.55    7.54
 -10   4   5  156.75    6.53
  10  -4  -5  155.75    7.67
 -10   4   4   38.14    2.37
  10   4  -4   39.74    2.45
 -10  -4   4   36.83    2.36
  10  -4  -4   35.66    2.41
 -10   4   3   71.21    3.95
  10   4  -3   76.23    4.04
 -10   4   3   79.21    4.80
 -10  -4   3   71.92    3.01
 -10  -4   3   70.54    3.95
  10  -4  -3   69.57    4.03
 -10   4   2   -0.20    0.48
 -10   4   2   -0.30    0.50
  10   4  -2    0.32    0.59
  10  -4  -2   -0.07    0.56
 -10  -4   2    0.18    0.55
 -10   4   1   24.99    2.34
 -10   4   1   28.50    2.05
 -10   4   1   26.56    1.91
  10   4  -1   30.57    2.07
 -10  -4   1   29.72    2.08
  10  -4  -1   24.55    1.98
 -10   4   0   12.48    1.71
  10   4   0   12.03    1.41
 -10   4   0   13.36    1.43
 -10   4   0   12.06    1.45
  10  -4   0   12.09    1.47
 -10  -4   0   13.88    1.53
 -10   4  -1  143.27    6.98
 -10   4  -1  130.95    8.79
 -10   4  -1  140.13    6.79
  10   4   1  139.14    6.94
 -10  -4  -1  133.95    6.95
  10  -4   1  135.57    6.91
  10   4   2   27.88    2.11
 -10   4  -2   26.90    2.11
 -10   4  -2   24.99    2.10
 -10   4  -2   32.57    2.87
 -10  -4  -2   27.30    2.22
  10  -4   2   29.77    2.15
 -10   4  -3   48.74    3.11
 -10   4  -3   45.16    3.00
  10   4   3   48.67    3.03
 -10  -4  -3   47.68    3.16
 -10   4  -4    3.38    0.98
 -10   4  -4    2.92    1.02
 -10  -4  -4    3.68    1.02
 -10   4  -5   14.48    1.82
 -10   4  -5   12.73    1.68
 -10  -4  -5   13.62    1.78
 -10   4  -6    6.96    1.38
 -10   4  -6    9.31    1.49
 -10  -4  -6    7.00    1.42
 -10   4  -7   58.14    3.79
 -10   4  -7   55.37    3.81
 -10  -4  -7   63.74    4.01
 -10   4  -8   15.96    2.02
 -10   4  -8   14.98    1.99
 -10  -4  -8   14.06    2.02
 -10   4  -9   38.42    2.91
 -10  -4  -9   27.87    2.82
 -10   5  14   60.69    3.52
 -10   5  13    3.36    0.97
 -10  -5  13    0.06    0.91
 -10   5  12   23.17    1.81
  10  -5 -12   20.38    1.66
 -10  -5  12   21.31    1.85
 -10   5  11    0.12    0.64
  10   5 -11    0.06    0.54
 -10  -5  11   -0.77    0.64
  10  -5 -11    0.86    0.62
 -10   5  10   30.97    2.09
  10   5 -10   35.37    2.16
  10  -5 -10   31.06    2.20
 -10  -5  10   33.11    2.02
 -10   5   9    0.02    0.60
  10   5  -9    0.91    0.59
 -10  -5   9   -0.14    0.54
  10  -5  -9    0.94    0.70
 -10   5   8  138.32    6.03
  10   5  -8  142.80    6.84
  10  -5  -8  136.97    6.91
 -10   5   7    4.16    0.82
  10   5  -7    4.46    0.86
  10  -5  -7    4.26    0.89
 -10   5   6   47.64    2.54
  10   5  -6   49.43    2.89
  10  -5  -6   48.93    3.00
  10   5  -5    3.18    0.81
 -10   5   5    2.61    0.68
 -10   5   5    2.19    0.71
  10  -5  -5    2.74    0.85
 -10   5   4   35.80    2.19
  10   5  -4   28.01    2.09
 -10  -5   4   33.53    2.20
  10  -5  -4   29.48    2.22
 -10   5   3    2.41    0.76
  10   5  -3    2.86    0.80
 -10  -5   3    2.22    0.80
 -10  -5   3    2.68    0.43
  10  -5  -3    3.34    0.92
 -10   5   2  193.05    9.08
 -10   5   2  188.17   11.36
  10   5  -2  192.81    9.09
 -10  -5   2  190.35    9.07
  10  -5  -2  170.55    9.03
  10   5  -1    2.17    0.76
 -10   5   1    1.91    0.77
 -10   5   1    1.97    0.84
 -10   5   1    2.80    0.72
  10  -5  -1    3.88    0.91
 -10  -5   1    1.60    0.71
 -10   5   0   73.96    4.04
 -10   5   0   75.59    5.28
 -10   5   0   70.37    4.16
  10   5   0   76.25    4.20
  10  -5   0   77.15    4.24
 -10  -5   0   77.19    4.24
 -10   5  -1    1.31    0.87
 -10   5  -1    2.05    0.86
 -10   5  -1    0.56    0.59
  10   5   1    1.26    0.78
 -10  -5  -1    1.44    0.85
  10  -5   1    1.44    0.84
 -10   5  -2   30.72    2.24
 -10   5  -2   32.30    2.38
  10   5   2   30.71    2.35
  10  -5   2   29.41    2.33
 -10  -5  -2   33.28    2.41
 -10   5  -3   -0.38    0.60
 -10   5  -3    0.82    0.80
  10   5   3    1.37    0.79
 -10  -5  -3    0.66    0.80
 -10   5  -4  112.51    6.13
 -10   5  -4  115.51    6.03
 -10  -5  -4  113.06    6.17
 -10   5  -5    0.88    0.76
 -10   5  -5    1.07    0.87
 -10  -5  -5    2.30    0.98
 -10   5  -6   40.18    2.92
 -10   5  -6   36.09    2.87
 -10  -5  -6   39.40    2.97
 -10   5  -7   -0.16    0.75
 -10   5  -7   -0.53    0.79
 -10  -5  -7    0.47    1.05
 -10   5  -8    7.42    1.52
 -10   5  -8    4.62    1.28
 -10  -5  -8    5.84    1.52
 -10   6  14    1.06    0.88
 -10   6  13   14.14    1.70
 -10   6  12    0.97    0.71
  10  -6 -12    1.42    0.71
  10   6 -11   87.46    4.52
 -10   6  11   86.33    4.31
  10  -6 -11   84.98    4.62
 -10   6  10    4.91    1.01
  10   6 -10    4.86    0.91
  10  -6 -10    4.59    0.98
 -10   6   9   38.18    2.33
  10   6  -9   35.25    2.32
  10  -6  -9   35.00    2.44
 -10   6   8   -0.29    0.54
  10   6  -8    0.12    0.61
  10  -6  -8    0.03    0.71
 -10   6   7   44.11    2.53
  10   6  -7   51.21    2.89
  10  -6  -7   43.65    2.87
 -10   6   6    2.71    0.74
  10   6  -6    3.54    0.87
  10  -6  -6    3.14    0.93
  10   6  -5  150.09    7.20
  10  -6  -5  137.66    7.20
  10   6  -4    3.62    0.88
 -10   6   4    3.54    0.86
  10  -6  -4    3.26    0.91
  10   6  -3   54.04    3.21
 -10   6   3   51.73    3.16
  10  -6  -3   54.90    3.31
 -10  -6   3   51.89    3.20
  10   6  -2   -0.49    0.62
 -10   6   2    0.29    0.65
  10  -6  -2    0.05    0.75
  10  -6  -2    0.54    0.52
 -10  -6   2   -0.99    0.63
 -10   6   1   33.15    2.80
 -10   6   1   28.91    2.26
  10   6  -1   32.21    2.36
  10  -6  -1   30.06    2.32
 -10  -6   1   32.07    2.32
 -10   6   0    2.78    0.87
 -10   6   0    1.43    0.77
 -10   6   0    2.88    1.04
  10   6   0    2.29    0.92
 -10  -6   0    2.56    0.95
  10  -6   0    1.92    0.92
 -10   6  -1  140.86    7.58
 -10   6  -1  156.53    7.51
  10   6   1  160.00    7.68
 -10   6  -1  150.40    9.72
 -10  -6  -1  148.69    7.65
  10  -6   1  145.37    7.59
 -10   6  -2    4.27    1.11
  10   6   2    3.84    1.02
 -10   6  -2    3.61    0.99
 -10  -6  -2    3.72    1.04
  10  -6   2    3.64    1.03
 -10   6  -3   50.05    3.23
 -10   6  -3   55.68    3.44
  10   6   3   48.62    3.29
 -10  -6  -3   50.85    3.47
 -10   6  -4   -0.90    0.72
 -10   6  -4   -0.16    0.74
 -10  -6  -4    0.32    0.95
 -10   6  -5   11.26    1.63
 -10   6  -5   13.37    1.79
 -10  -6  -5    9.20    1.66
 -10   6  -6    2.09    1.00
 -10   6  -6    2.12    1.04
 -10  -6  -6    2.72    1.14
 -10   6  -7   61.34    4.15
 -10   6  -7   65.95    4.16
 -10  -6  -7   67.19    4.33
 -10   6  -8    2.89    1.12
 -10  -6  -8    2.80    1.30
 -10   7  13   10.35    1.51
  10  -7 -13    9.86    1.35
 -10   7  12   15.35    1.72
  10  -7 -12   14.93    1.65
 -10   7  11   -0.80    0.61
  10   7 -11    0.66    0.74
  10  -7 -11    0.09    0.73
 -10   7  10   14.01    1.57
  10   7 -10   15.67    1.55
  10  -7 -10   16.44    1.65
  10   7  -9   12.79    1.48
 -10   7   9   11.17    1.39
  10  -7  -9   13.52    1.60
 -10   7   8  110.45    5.06
  10   7  -8  102.63    5.53
  10  -7  -8  108.18    5.68
  10   7  -7   26.50    2.03
 -10   7   7   25.51    1.94
  10  -7  -7   24.24    2.03
 -10   7   6   26.69    2.05
  10   7  -6   29.86    2.21
  10  -7  -6   32.24    2.38
  10   7  -5    2.60    0.82
  10  -7  -5    2.17    0.86
 -10   7   4   22.90    1.81
  10   7  -4   19.01    1.76
  10  -7  -4   21.05    1.90
  10   7  -3   26.39    2.11
 -10   7   3   25.73    2.08
  10  -7  -3   28.93    2.25
 -10  -7   3   30.38    2.20
  10   7  -2  126.43    6.40
 -10   7   2  120.73    6.38
  10  -7  -2  118.23    5.21
  10  -7  -2  123.26    6.49
 -10  -7   2  124.88    6.38
 -10   7   1   33.39    2.47
  10   7  -1   29.77    2.46
  10  -7  -1   38.60    2.69
 -10  -7   1   34.84    2.50
 -10   7   0   37.73    2.68
  10   7   0   36.06    2.69
 -10   7   0   40.04    3.37
 -10   7   0   40.43    2.82
  10  -7   0   40.39    2.81
 -10  -7   0   41.44    2.87
 -10   7  -1   -0.14    0.76
 -10   7  -1   -0.03    0.76
  10   7   1    1.51    0.92
  10  -7   1    0.48    0.82
 -10  -7  -1   -0.27    0.77
 -10   7  -2   12.16    1.69
  10   7   2   12.02    1.69
 -10   7  -2   18.40    1.95
 -10  -7  -2   18.29    2.00
 -10   7  -3   14.09    1.86
 -10   7  -3   13.37    1.75
 -10  -7  -3   16.56    1.98
 -10   7  -4   76.47    4.61
 -10   7  -4   73.67    4.46
 -10  -7  -4   73.93    4.65
 -10   7  -5   11.52    1.73
 -10   7  -5   13.93    1.73
 -10  -7  -5   12.48    1.92
 -10   7  -6   19.21    2.23
 -10   7  -6   20.82    2.36
 -10  -7  -6   26.96    2.59
 -10   7  -7    1.63    0.99
 -10   7  -7   -1.39    0.76
 -10  -7  -7    0.38    1.20
  10  -8 -13   11.07    1.51
 -10   8  12   24.43    2.30
  10  -8 -12   23.21    2.10
  10   8 -11   37.59    2.76
 -10   8  11   39.44    2.64
  10  -8 -11   39.37    2.79
  10   8 -10   30.65    2.33
 -10   8  10   24.48    2.10
  10  -8 -10   31.99    2.38
  10   8  -9    8.23    1.28
 -10   8   9    5.48    1.15
  10  -8  -9    8.14    1.40
 -10   8   8    0.04    0.74
  10   8  -8   -0.04    0.71
  10  -8  -8   -0.28    0.79
  10   8  -7    9.41    1.36
 -10   8   7   10.73    1.45
  10  -8  -7   10.15    1.49
  10   8  -6   40.29    2.69
 -10   8   6   33.48    2.47
  10  -8  -6   37.55    2.70
  10   8  -5   60.65    3.65
  10  -8  -5   58.10    3.67
 -10   8   4   53.83    3.33
  10   8  -4   55.85    3.40
  10  -8  -4   52.52    3.46
  10   8  -3   29.31    2.30
 -10   8   3   29.56    2.27
 -10  -8   3   28.57    2.31
  10  -8  -3   30.92    2.43
 -10  -8   3   28.54    1.31
 -10   8   2   -0.27    0.64
  10   8  -2    0.13    0.81
  10  -8  -2    0.53    0.61
  10  -8  -2    0.24    0.83
 -10  -8   2    0.13    0.80
  10   8  -1   11.71    1.57
 -10   8   1    9.86    1.51
 -10  -8   1   10.83    1.57
  10  -8  -1   10.62    1.58
 -10   8   0   35.95    2.72
  10   8   0   37.33    2.79
 -10  -8   0   37.13    2.78
  10  -8   0   35.82    2.72
 -10   8  -1   68.83    4.23
  10   8   1   78.90    4.51
 -10   8  -1   80.85    4.51
 -10  -8  -1   74.41    4.47
  10  -8   1   67.11    4.33
  10   8   2   43.85    3.25
 -10   8  -2   45.27    3.28
 -10   8  -2   46.26    3.17
 -10  -8  -2   47.95    3.32
 -10   8  -3   20.29    2.20
 -10   8  -3   15.87    2.03
 -10  -8  -3   14.34    1.98
 -10   8  -4    1.09    0.96
 -10   8  -4    1.70    1.03
 -10  -8  -4   -0.85    1.00
 -10   8  -5    4.89    1.29
 -10   8  -5    6.76    1.48
 -10  -8  -5    6.41    1.51
 -10   8  -6   20.39    2.33
 -10   8  -6   22.13    2.47
 -10  -8  -6   17.24    2.32
 -10  -8  -7   33.78    3.23
  10  -9 -13   22.59    2.14
  10  -9 -12    5.16    1.25
 -10   9  11    0.88    0.94
  10   9 -11   -1.57    0.98
  10  -9 -11    0.98    0.93
 -10   9  10    2.35    1.05
  10   9 -10    1.09    1.10
  10  -9 -10    4.35    1.11
 -10   9   9   35.86    2.63
  10   9  -9   33.77    2.66
  10  -9  -9   38.45    2.81
 -10   9   8   21.57    2.14
  10   9  -8   25.78    2.19
  10  -9  -8   23.66    2.14
 -10   9   7   50.36    3.04
  10   9  -7   50.31    3.28
  10  -9  -7   47.15    3.33
  10   9  -6    4.81    1.15
  10  -9  -6    4.09    1.20
  10   9  -5   -0.44    0.69
  10  -9  -5   -0.57    0.88
 -10   9   4    6.30    1.21
  10   9  -4    6.93    1.31
  10  -9  -4    8.01    1.50
 -10   9   3   43.17    3.07
  10   9  -3   47.35    3.24
  10  -9  -3   50.12    3.34
  10   9  -2   36.56    2.80
 -10   9   2   37.13    2.78
  10  -9  -2   38.90    2.94
  10  -9  -2   40.43    2.28
 -10  -9   2   41.78    2.96
  10   9  -1   65.96    4.14
 -10   9   1   66.23    4.15
 -10  -9   1   68.20    4.33
  10  -9  -1   74.07    4.34
  10   9   0    4.95    1.32
 -10   9   0    5.55    1.34
 -10  -9   0    7.04    1.54
  10  -9   0    5.18    1.32
  10   9   1    1.70    1.00
 -10   9  -1    1.99    1.09
  10  -9   1    3.06    1.16
 -10  -9  -1    1.97    1.24
 -10   9  -2    3.90    1.18
  10   9   2    5.00    1.31
 -10   9  -2    6.37    1.33
 -10  -9  -2    3.30    1.29
 -10   9  -3   39.38    2.95
 -10   9  -3   31.04    2.90
 -10  -9  -3   37.76    3.09
 -10   9  -4   18.03    2.27
 -10   9  -4   19.88    2.32
 -10  -9  -4   19.35    2.48
 -10   9  -5   46.07    3.39
 -10   9  -5   43.54    3.37
 -10  -9  -5   40.56    3.59
 -10   9  -6    5.92    1.48
 -10   9  -6    5.91    1.50
 -10  -9  -6   11.30    2.11
  10 -10 -13    0.84    0.95
  10 -10 -12   27.35    2.44
  10  10 -11    5.36    1.48
  10 -10 -11    6.83    1.44
  10  10 -10   41.24    3.17
 -10  10  10   38.06    2.83
  10 -10 -10   39.34    3.06
 -10  10   9    1.32    1.00
  10  10  -9   -0.46    1.07
  10 -10  -9    1.28    1.07
 -10  10   8    0.77    0.93
  10  10  -8   -1.33    0.89
  10 -10  -8   -0.27    0.92
 -10  10   7    0.71    0.88
  10  10  -7    1.32    1.05
  10 -10  -7    0.13    0.92
  10  10  -6   52.86    3.59
  10 -10  -6   53.67    3.68
  10  10  -5    7.66    1.43
  10 -10  -5    8.67    1.56
  10  10  -4   71.78    4.48
  10 -10  -4   75.19    4.63
  10  10  -3    2.21    1.13
 -10  10   3    3.35    1.12
  10 -10  -3    1.64    1.05
 -10  10   2    0.24    0.89
  10  10  -2   -0.32    0.89
  10 -10  -2    0.45    0.98
  10 -10  -2    0.68    0.67
 -10 -10   2    0.09    1.07
  10  10  -1    0.33    0.92
 -10  10   1    0.88    0.93
  10 -10  -1    0.44    0.96
 -10 -10   1    0.59    1.06
 -10  10   0   48.21    3.35
  10  10   0   42.90    3.26
  10 -10   0   40.25    3.24
 -10 -10   0   50.42    3.50
  10  10   1    7.52    1.64
 -10  10  -1    7.54    1.53
 -10 -10  -1    6.66    1.54
  10  10   2   56.68    3.93
 -10  10  -2   56.91    4.01
 -10 -10  -2   59.53    4.11
 -10  10  -3    1.41    1.01
 -10 -10  -3    0.86    1.34
 -10  10  -4    2.56    1.19
 -10  10  -4    0.03    0.97
 -10 -10  -4   -0.87    1.27
 -10  10  -5    0.91    0.98
 -10  10  -5    2.03    1.08
 -10 -10  -5    0.07    1.35
  10 -11 -12    1.34    1.02
  10  11 -11   -1.86    1.11
  10 -11 -11    1.58    1.11
  10  11 -10   -0.60    1.22
  10 -11 -10   -0.76    0.91
  10  11  -9   36.37    3.09
  10 -11  -9   36.66    3.05
 -10  11   8   -2.12    0.76
  10  11  -8   -1.11    1.17
  10 -11  -8   -0.46    0.89
  10  11  -7   34.37    2.99
 -10  11   7   41.09    2.91
  10 -11  -7   45.73    3.33
  10  11  -6   -0.18    1.04
  10 -11  -6    0.45    0.99
  10  11  -5   -0.96    1.04
  10 -11  -5    1.07    1.09
  10  11  -4    0.69    1.13
  10 -11  -4    0.25    1.11
 -10  11   3   48.81    3.28
  10  11  -3   40.52    3.36
  10 -11  -3   45.60    3.42
  10  11  -2   -1.99    0.79
 -10  11   2    0.91    0.90
  10 -11  -2    0.45    1.02
  10  11  -1   56.29    3.84
 -10  11   1   52.55    3.77
  10 -11  -1   52.91    3.91
 -10 -11   1   53.30    4.10
  10  11   0    0.53    1.07
 -10  11   0    0.12    0.94
 -10 -11   0   -1.61    1.33
  10 -11   0   -0.53    0.98
  10  11   1    1.06    1.24
 -10  11  -1    2.55    1.15
 -10 -11  -1    2.09    1.49
 -10  11  -2   -1.11    0.89
 -10 -11  -2   -0.13    1.19
 -10  11  -3   34.02    2.98
 -10 -11  -3   34.09    3.44
 -10  11  -4    3.01    1.25
 -10 -11  -4   -0.78    1.40
  10  12 -11    2.17    1.47
  10  12 -10   20.15    2.49
  10 -12 -10   21.18    2.46
  10  12  -9   -0.09    1.35
  10 -12  -9    2.35    1.23
  10  12  -8   -2.48    1.18
  10 -12  -8   -0.39    1.03
  10  12  -7   -1.17    1.22
  10 -12  -7    1.62    1.27
  10  12  -6   29.19    3.09
  10 -12  -6   27.89    2.70
  10  12  -5    0.84    1.47
  10 -12  -5    1.54    1.17
  10  12  -4   39.86    3.42
  10 -12  -4   37.25    3.28
  10  12  -3    3.52    1.62
  10 -12  -3    5.17    1.54
 -10  12   2    1.67    1.01
  10  12  -2   -0.08    1.17
  10 -12  -2    1.25    1.28
 -10  12   1    0.57    1.04
  10  12  -1   -2.57    1.01
  10 -12  -1    0.86    1.26
  10  12   0   32.96    3.41
 -10  12   0   37.05    3.00
 -10 -12   0   28.31    3.36
 -10  12  -1    4.91    1.43
  10  12   1    2.86    1.57
 -10 -12  -1    0.57    1.87
 -10  12  -2   34.07    3.04
 -10 -12  -2   27.44    3.30
 -10  12  -3    5.35    1.30
 -10 -12  -3   -2.95    1.69
  10  13  -8   10.01    2.15
  10 -13  -8   11.64    1.97
  10  13  -7   12.77    2.26
  10 -13  -7   18.90    2.50
  10  13  -6    3.95    1.77
  10 -13  -6    5.09    1.57
  10  13  -5   -1.21    1.47
  10 -13  -5   -0.21    1.17
  10  13  -4    0.04    1.43
  10 -13  -4    4.37    1.51
  10  13  -3   14.55    2.51
  10 -13  -3   17.49    2.35
  10  13  -2    6.63    2.08
 -10  13   2   10.25    1.72
  10 -13  -2   11.77    2.02
 -10  13   1   26.53    2.92
  10  13  -1   24.11    3.16
  10 -13  -1   23.66    2.79
  10  13   0    1.10    1.67
 -10  13   0    8.22    1.60
  10 -14  -4    9.25    1.85
  10 -14  -3    5.11    1.57
  10 -14  -2    0.13    1.28
 -11   0  15   -0.84    0.73
 -11   0  14   96.82    4.74
 -11   0  13    1.09    0.73
 -11   0  12  104.46    4.86
  11   0 -11   -0.38    0.41
 -11   0  11    1.11    0.59
  11   0 -10   14.90    1.28
 -11   0  10   14.86    1.29
 -11   0   9    0.10    0.43
  11   0  -9    0.19    0.48
  11   0  -8  144.83    7.22
 -11   0   8  155.05    6.24
 -11   0   7   -0.12    0.35
  11   0  -7   -0.20    0.48
 -11   0   6  176.66    6.90
  11   0  -6  165.04    8.22
  11   0  -5    0.30    0.57
 -11   0   4    0.08    0.52
  11   0  -4    1.67    0.72
 -11   0   3    0.63    0.54
  11   0  -3    0.33    0.62
  11   0  -2  234.39   10.84
 -11   0   2  220.31   10.75
 -11   0   1   -0.12    0.52
  11   0  -1   -1.05    0.53
 -11   0   1   -0.11    0.49
  11   0   0  124.56    6.42
 -11   0   0  132.08    6.48
 -11   0   0  121.50    6.23
 -11   0  -1    0.00    0.60
 -11   0  -1    0.02    0.64
  11   0   1   -0.91    0.51
 -11   0  -2    0.31    0.63
  11   0   2   -0.38    0.60
 -11   0  -2    1.15    0.72
 -11   0  -3   -0.70    0.59
 -11   0  -3   -0.28    0.66
 -11   0  -4  116.02    6.18
 -11   0  -4  118.96    6.33
 -11   0  -5   -0.60    0.60
 -11   0  -5    1.15    0.90
 -11   0  -6   89.40    5.30
 -11   0  -6   92.94    5.25
 -11   0  -7    0.09    0.87
 -11   0  -7   -0.36    0.87
 -11   0  -8    1.23    0.99
 -11   0  -8   -0.43    0.92
 -11   1  15   41.43    2.87
 -11  -1  15   49.05    2.97
 -11   1  14   -0.21    0.65
 -11  -1  14    0.25    0.75
 -11   1  13    1.40    0.77
 -11  -1  13    0.30    0.67
 -11   1  12    0.51    0.68
 -11  -1  12    0.95    0.61
 -11   1  11  133.10    6.02
  11   1 -11  136.59    6.63
  11  -1 -11  142.89    6.69
 -11  -1  11  141.04    6.03
 -11   1  10   12.60    1.30
  11   1 -10   11.84    1.17
  11  -1 -10   14.35    1.25
 -11  -1  10   14.59    1.31
  11   1  -9   79.77    4.19
 -11   1   9   79.21    3.74
  11  -1  -9   83.65    4.25
 -11  -1   9   83.49    3.71
 -11   1   8    4.37    0.72
  11   1  -8    3.85    0.78
  11  -1  -8    4.25    0.82
 -11  -1   8    5.04    0.71
 -11   1   7    0.19    0.39
  11   1  -7   -0.18    0.46
 -11  -1   7    0.58    0.39
  11  -1  -7    0.00    0.52
 -11   1   6   13.93    1.02
  11   1  -6   12.11    1.33
  11  -1  -6   13.81    1.31
  11   1  -5  200.29    9.35
 -11   1   5  195.24    9.38
 -11   1   5  191.41    7.79
  11  -1  -5  196.53    9.37
  11   1  -4   11.01    1.31
 -11   1   4   14.47    1.01
 -11   1   4   12.76    1.23
 -11  -1   4   13.79    1.26
  11  -1  -4   13.85    1.35
 -11   1   3  194.98    9.34
  11   1  -3  200.64    9.40
 -11  -1   3  194.09    9.32
  11  -1  -3  192.14    9.39
 -11   1   2    2.88    0.78
  11   1  -2    2.37    0.78
 -11  -1   2    3.18    0.79
  11  -1  -2    2.73    0.79
  11   1  -1    3.94    0.92
 -11   1   1    5.58    0.95
 -11   1   1    7.69    1.17
 -11  -1   1    5.63    1.00
  11  -1  -1    6.04    1.10
 -11   1   0    4.47    0.89
  11   1   0    5.29    1.05
 -11   1   0    4.24    0.95
 -11  -1   0    4.87    0.90
  11  -1   0    4.57    0.99
 -11  -1   0    5.71    1.09
 -11   1  -1  144.83    7.36
 -11   1  -1  140.92    7.11
  11   1   1  149.01    7.32
 -11  -1  -1  144.49    7.33
 -11  -1  -1  140.51    7.12
  11  -1   1  150.22    7.31
  11   1   2   22.81    1.93
 -11   1  -2   22.67    1.90
 -11   1  -2   20.66    1.88
  11  -1   2   22.07    1.91
 -11  -1  -2   20.97    1.87
 -11  -1  -2   20.23    1.86
 -11   1  -3  106.17    5.75
 -11   1  -3  107.57    5.63
 -11  -1  -3  103.70    5.63
 -11  -1  -3  108.14    5.79
 -11   1  -4    4.59    1.11
 -11   1  -4    5.20    1.27
 -11  -1  -4    4.74    1.14
 -11  -1  -4    4.90    1.16
 -11   1  -5    0.00    0.74
 -11   1  -5    0.66    0.79
 -11  -1  -5   -0.28    0.80
 -11  -1  -5    2.63    0.98
 -11   1  -6    2.34    0.98
 -11   1  -6    1.11    0.94
 -11  -1  -6    0.49    0.86
 -11  -1  -6    0.16    0.92
 -11   1  -7   73.59    4.32
 -11   1  -7   62.16    4.23
 -11  -1  -7   64.67    4.28
 -11   1  -8    7.09    1.51
 -11   1  -8    9.18    1.72
 -11  -1  -8   10.76    1.85
 -11   2  15   10.86    1.54
 -11  -2  15   13.10    1.60
 -11   2  14   55.72    3.21
 -11  -2  14   53.24    3.13
 -11   2  13   28.27    2.09
 -11  -2  13   27.41    2.03
 -11   2  12   59.63    3.18
 -11  -2  12   58.77    3.12
 -11   2  11    5.38    1.00
  11   2 -11    6.65    0.92
 -11  -2  11    6.35    0.95
  11  -2 -11    7.20    0.97
  11   2 -10    2.53    0.68
 -11   2  10    2.22    0.68
 -11  -2  10    2.50    0.67
  11  -2 -10    2.44    0.67
 -11   2   9   11.44    1.19
  11   2  -9   12.64    1.22
  11  -2  -9   13.03    1.26
 -11  -2   9   11.93    1.12
  11   2  -8  102.79    5.15
 -11   2   8   95.71    4.47
 -11  -2   8  107.29    4.42
  11  -2  -8  103.23    5.22
  11   2  -7   83.81    4.42
 -11   2   7   84.88    3.81
  11  -2  -7   87.42    4.52
 -11   2   6  113.63    4.70
  11   2  -6  110.01    5.54
  11  -2  -6  105.75    5.58
 -11   2   5    8.93    0.87
 -11   2   5    8.28    1.17
  11   2  -5    7.20    1.09
  11  -2  -5    8.09    1.14
  11   2  -4    0.86    0.59
 -11   2   4    0.21    0.51
 -11   2   4    0.02    0.38
  11  -2  -4    0.38    0.59
 -11  -2   4    1.61    0.64
 -11   2   3    4.59    0.94
  11   2  -3    5.13    0.95
 -11   2   3    5.62    0.67
  11  -2  -3    5.27    1.03
 -11  -2   3    4.13    0.88
 -11   2   2  154.88    7.75
  11   2  -2  162.13    7.84
  11  -2  -2  148.17    7.78
 -11  -2   2  169.47    7.83
 -11   2   1   77.70    4.33
  11   2  -1   82.75    4.39
 -11   2   1   73.88    4.15
 -11  -2   1   83.68    4.39
  11  -2  -1   80.29    4.37
 -11   2   0   86.07    4.68
 -11   2   0   87.38    4.55
  11   2   0   81.25    4.64
 -11  -2   0   87.69    4.71
  11  -2   0   87.02    4.69
 -11   2  -1   21.51    1.85
 -11   2  -1   21.52    1.90
  11   2   1   24.31    1.99
 -11  -2  -1   22.13    1.99
  11  -2   1   23.77    1.97
 -11   2  -2   -0.25    0.55
  11   2   2    0.34    0.61
 -11   2  -2    0.52    0.78
  11  -2   2    0.27    0.70
 -11  -2  -2   -0.06    0.71
 -11   2  -3   11.79    1.54
 -11   2  -3   15.45    1.82
 -11  -2  -3   14.57    1.85
 -11   2  -4   74.77    4.19
 -11   2  -4   69.01    4.27
 -11  -2  -4   67.43    4.24
 -11   2  -5   39.16    2.96
 -11   2  -5   39.00    2.87
 -11  -2  -5   42.38    3.06
 -11   2  -6   67.99    4.16
 -11   2  -6   62.80    3.96
 -11  -2  -6   58.07    4.04
 -11   2  -7    6.70    1.46
 -11   2  -7    5.60    1.35
 -11  -2  -7    9.72    1.62
 -11   2  -8    0.88    0.99
 -11   2  -8    0.16    0.91
 -11  -2  -8   -0.21    0.99
 -11   3  15   21.60    2.17
 -11  -3  15   27.39    2.23
 -11   3  14    2.34    0.92
 -11  -3  14    1.91    0.91
 -11   3  13    2.41    0.86
 -11  -3  13    0.29    0.65
 -11   3  12   14.80    1.57
  11  -3 -12   16.58    1.39
 -11  -3  12   18.18    1.52
 -11   3  11   58.81    3.11
  11   3 -11   58.87    3.18
 -11  -3  11   58.46    2.99
  11  -3 -11   56.37    3.22
  11   3 -10   99.09    4.92
 -11   3  10   96.98    4.49
 -11  -3  10   97.16    4.37
  11  -3 -10   95.42    4.97
  11   3  -9   44.67    2.66
 -11   3   9   43.57    2.45
  11  -3  -9   48.46    2.77
 -11  -3   9   45.93    2.34
 -11   3   8   24.97    1.64
  11   3  -8   27.49    1.89
  11  -3  -8   26.50    1.92
 -11   3   7    0.37    0.46
  11   3  -7    0.51    0.51
  11  -3  -7    1.62    0.72
 -11   3   6   55.22    2.64
  11   3  -6   52.46    3.08
  11  -3  -6   51.35    3.14
  11   3  -5   61.38    3.47
 -11   3   5   59.39    2.86
  11  -3  -5   63.03    3.52
 -11   3   4  120.26    6.24
  11   3  -4  127.15    6.35
 -11   3   4  127.67    5.29
  11  -3  -4  127.17    6.40
 -11  -3   4  126.89    6.26
 -11   3   3   80.38    4.25
  11   3  -3   82.04    4.32
  11  -3  -3   76.92    4.33
 -11  -3   3   75.22    4.21
  11   3  -2   35.10    2.27
 -11   3   2   26.10    2.12
 -11  -3   2   30.03    2.19
  11  -3  -2   31.31    2.21
 -11   3   1    0.85    0.65
  11   3  -1    0.53    0.70
 -11   3   1    0.91    0.62
 -11  -3   1    1.04    0.66
  11  -3  -1    0.38    0.63
 -11   3   0   23.06    1.98
  11   3   0   24.13    1.94
 -11   3   0   24.56    1.85
  11  -3   0   23.55    1.93
 -11  -3   0   22.31    1.89
 -11   3  -1   52.06    3.27
  11   3   1   49.37    3.19
 -11   3  -1   55.05    3.20
  11  -3   1   50.23    3.22
 -11  -3  -1   50.92    3.23
 -11   3  -2   95.40    5.37
  11   3   2   93.78    5.28
 -11   3  -2  103.14    5.27
  11  -3   2   97.65    5.33
 -11  -3  -2  104.75    5.49
 -11   3  -3   47.16    3.11
 -11   3  -3   44.57    3.02
 -11  -3  -3   46.58    3.15
 -11   3  -4   16.49    2.01
 -11   3  -4   20.70    1.97
 -11  -3  -4   23.41    2.22
 -11   3  -5    1.25    0.79
 -11   3  -5    1.10    0.83
 -11  -3  -5    1.56    1.03
 -11   3  -6    6.20    1.33
 -11   3  -6    5.42    1.37
 -11  -3  -6    6.36    1.37
 -11   3  -7   35.29    2.89
 -11   3  -7   32.91    2.73
 -11  -3  -7   30.10    2.81
 -11   3  -8   51.80    3.65
 -11  -3  -8   50.53    3.76
 -11  -4  15   22.29    2.15
 -11   4  14    9.79    1.45
 -11  -4  14    8.24    1.37
 -11   4  13   60.14    3.29
 -11  -4  13   57.03    3.23
 -11   4  12    8.92    1.23
 -11  -4  12    7.57    1.16
  11  -4 -12    7.14    1.04
 -11   4  11   13.05    1.43
  11   4 -11   12.80    1.32
 -11  -4  11   11.42    1.28
  11  -4 -11   14.12    1.36
 -11   4  10    0.51    0.55
  11   4 -10    0.73    0.56
 -11  -4  10   -0.33    0.52
  11  -4 -10    0.05    0.60
  11   4  -9   34.30    2.18
 -11   4   9   33.26    2.07
  11  -4  -9   32.32    2.24
  11   4  -8   20.13    1.58
 -11   4   8   16.38    1.40
  11  -4  -8   18.92    1.64
  11   4  -7  164.53    8.04
 -11   4   7  170.27    7.00
  11  -4  -7  164.43    8.13
 -11   4   6   25.94    1.68
  11   4  -6   26.85    1.93
  11  -4  -6   27.96    2.07
 -11   4   5   24.39    1.59
  11   4  -5   23.50    1.86
  11  -4  -5   22.74    1.92
  11   4  -4    0.85    0.61
 -11   4   4    0.00    0.56
 -11  -4   4    0.85    0.60
  11  -4  -4    1.09    0.72
 -11   4   3   44.35    2.65
  11   4  -3   38.98    2.66
 -11  -4   3   44.14    2.68
  11  -4  -3   35.69    2.62
  11   4  -2   31.75    2.27
 -11   4   2   31.87    2.23
  11  -4  -2   31.20    2.30
 -11  -4   2   30.83    2.21
 -11   4   1  205.05   12.16
 -11   4   1  200.27    9.63
  11   4  -1  201.75    9.64
 -11  -4   1  193.82    9.59
  11  -4  -1  188.21    9.62
 -11   4   0   21.30    1.81
 -11   4   0   20.42    1.83
  11   4   0   18.91    1.78
 -11   4   0   23.84    2.31
 -11  -4   0   22.43    1.88
  11  -4   0   20.05    1.89
 -11   4  -1   42.34    3.50
 -11   4  -1   37.83    2.67
  11   4   1   41.57    2.76
 -11   4  -1   39.47    2.76
 -11  -4  -1   39.35    2.77
  11  -4   1   43.71    2.86
 -11   4  -2    1.26    0.74
 -11   4  -2    0.21    0.78
  11   4   2   -0.31    0.69
  11  -4   2    0.22    0.64
 -11  -4  -2    0.49    0.85
 -11   4  -3   31.24    2.44
 -11   4  -3   32.09    2.46
 -11  -4  -3   30.65    2.57
 -11   4  -4    8.33    1.41
 -11   4  -4    8.43    1.46
 -11  -4  -4   10.24    1.61
 -11   4  -5   94.88    5.23
 -11   4  -5   80.44    4.96
 -11  -4  -5   90.93    5.23
 -11   4  -6   13.89    1.93
 -11   4  -6   15.31    1.92
 -11  -4  -6   14.01    2.04
 -11   4  -7   24.50    2.47
 -11  -4  -7   23.12    2.62
 -11   4  -8    0.13    0.90
 -11  -4  -8    0.49    1.10
 -11   5  14    3.91    1.06
 -11   5  13   -0.67    0.69
 -11  -5  13   -0.54    0.81
 -11   5  12   30.32    2.18
 -11  -5  12   29.73    2.10
  11  -5 -12   27.70    2.05
  11   5 -11   -0.27    0.59
 -11   5  11    0.49    0.64
  11  -5 -11    0.92    0.65
 -11  -5  11   -0.39    0.62
 -11   5  10  129.07    5.77
  11   5 -10  135.05    6.41
  11  -5 -10  120.97    6.44
  11   5  -9    0.91    0.67
 -11   5   9    1.48    0.65
  11  -5  -9    1.04    0.78
  11   5  -8   23.65    1.84
 -11   5   8   25.64    1.72
  11  -5  -8   25.04    2.01
  11   5  -7    0.08    0.59
 -11   5   7    0.22    0.57
  11  -5  -7   -0.65    0.63
 -11   5   6   55.45    2.90
  11   5  -6   55.48    3.31
  11  -5  -6   59.09    3.47
 -11   5   5    0.35    0.55
  11   5  -5    0.79    0.67
  11  -5  -5    0.30    0.66
  11   5  -4  172.55    8.41
 -11   5   4  176.70    8.39
  11  -5  -4  167.23    8.46
 -11  -5   4  167.13    8.55
 -11   5   3    2.28    0.77
  11   5  -3    2.14    0.87
 -11  -5   3    2.25    0.79
  11  -5  -3    2.17    0.84
  11   5  -2   45.89    2.95
 -11   5   2   44.39    2.89
 -11  -5   2   43.23    2.86
  11  -5  -2   46.47    2.97
  11   5  -1    0.65    0.74
 -11   5   1    0.25    0.65
 -11   5   1    0.50    0.67
  11  -5  -1    0.36    0.70
 -11  -5   1    0.62    0.66
 -11   5   0   27.55    2.72
 -11   5   0   28.22    2.21
  11   5   0   29.74    2.24
 -11   5   0   29.28    2.13
  11  -5   0   26.28    2.26
 -11  -5   0   29.57    2.26
  11   5   1    0.53    0.78
 -11   5  -1    1.29    0.73
 -11   5  -1    1.99    0.83
 -11  -5  -1    2.63    0.98
  11  -5   1    0.63    0.82
  11   5   2  169.44    8.64
 -11   5  -2  165.68    8.45
 -11   5  -2  181.48    8.76
  11  -5   2  171.81    8.63
 -11  -5  -2  172.39    8.75
 -11   5  -3    0.76    0.79
 -11   5  -3    2.67    0.96
 -11  -5  -3    0.80    0.89
 -11   5  -4   31.03    2.51
 -11   5  -4   29.41    2.46
 -11  -5  -4   29.17    2.63
 -11   5  -5    0.33    0.79
 -11   5  -5    1.96    1.04
 -11  -5  -5    0.88    0.99
 -11   5  -6   21.60    2.40
 -11   5  -6   17.54    2.13
 -11  -5  -6   16.88    2.18
 -11   5  -7    1.36    0.96
 -11   5  -7    1.98    1.02
 -11  -5  -7   -0.30    1.09
 -11   6  13   58.60    3.44
 -11   6  12    1.41    0.80
  11  -6 -12   -0.20    0.63
  11   6 -11   17.05    1.58
 -11   6  11   14.45    1.58
  11  -6 -11   15.80    1.58
  11   6 -10    0.69    0.70
 -11   6  10    1.00    0.72
  11  -6 -10    1.12    0.75
 -11   6   9   41.63    2.60
  11   6  -9   43.35    2.75
  11  -6  -9   46.03    2.91
 -11   6   8    7.05    1.06
  11   6  -8    5.78    1.06
  11  -6  -8    4.57    1.09
  11   6  -7  169.60    8.48
 -11   6   7  175.48    7.43
  11  -6  -7  175.61    8.61
  11   6  -6    1.91    0.84
 -11   6   6    3.16    0.82
  11  -6  -6    2.41    0.88
  11   6  -5   21.00    1.80
  11  -6  -5   22.45    2.03
 -11   6   4    0.69    0.64
  11   6  -4    2.56    0.88
  11  -6  -4    1.37    0.80
 -11   6   3   48.06    3.13
  11   6  -3   50.19    3.18
  11  -6  -3   49.57    3.22
 -11  -6   3   52.88    3.21
 -11   6   2    8.47    1.29
  11   6  -2    8.34    1.28
 -11  -6   2    6.97    1.29
  11  -6  -2    7.02    1.29
 -11   6   1  127.90    6.65
  11   6  -1  130.25    6.69
  11  -6  -1  123.28    6.66
 -11  -6   1  129.46    6.70
 -11   6   0    0.07    0.69
 -11   6   0    0.89    0.81
  11   6   0    0.29    0.83
 -11  -6   0    0.60    0.76
  11  -6   0   -0.45    0.64
 -11   6  -1   37.81    2.76
  11   6   1   44.36    3.00
 -11   6  -1   40.41    2.97
  11  -6   1   42.72    2.92
 -11  -6  -1   41.49    2.95
  11   6   2   -0.40    0.82
 -11   6  -2   -0.08    0.76
 -11   6  -2   -0.16    0.64
 -11  -6  -2   -1.06    0.72
 -11   6  -3   24.62    2.28
 -11   6  -3   29.33    2.35
 -11  -6  -3   29.26    2.61
 -11   6  -4    3.65    1.10
 -11   6  -4    3.28    1.14
 -11  -6  -4    1.67    1.14
 -11   6  -5   70.61    4.60
 -11   6  -5   80.03    4.63
 -11  -6  -5   77.42    4.83
 -11   6  -6    0.85    0.95
 -11   6  -6    0.15    0.89
 -11  -6  -6    0.08    1.12
 -11   6  -7   22.05    2.45
 -11  -6  -7   18.06    2.46
 -11   7  13    0.13    0.81
  11  -7 -13   -0.14    0.71
 -11   7  12   18.10    1.92
  11  -7 -12   20.97    1.91
 -11   7  11   19.32    1.88
  11   7 -11   18.20    1.79
  11  -7 -11   18.16    1.81
 -11   7  10   66.37    3.65
  11   7 -10   67.04    3.87
  11  -7 -10   67.44    3.97
  11   7  -9    5.08    1.07
 -11   7   9    4.03    1.03
  11  -7  -9    6.04    1.21
  11   7  -8   15.13    1.71
 -11   7   8   18.56    1.76
  11  -7  -8   18.02    1.92
 -11   7   7   -0.91    0.65
  11   7  -7    0.98    0.70
  11  -7  -7    1.35    0.90
  11   7  -6   42.52    2.79
 -11   7   6   39.12    2.50
  11  -7  -6   38.48    2.79
  11   7  -5   18.99    1.85
  11  -7  -5   19.22    1.91
  11   7  -4  111.81    5.89
 -11   7   4  110.40    5.83
  11  -7  -4  110.16    5.98
  11   7  -3   19.60    2.06
 -11   7   3   20.74    1.85
  11  -7  -3   18.45    2.08
 -11  -7   3   19.94    1.88
  11   7  -2   21.15    1.95
 -11   7   2   21.44    2.02
  11  -7  -2   19.24    1.98
 -11  -7   2   23.57    2.10
  11   7  -1   -0.03    0.73
 -11   7   1    1.88    0.84
 -11  -7   1   -0.35    0.72
  11  -7  -1    0.17    0.89
  11   7   0   25.88    2.24
 -11   7   0   24.82    2.21
 -11  -7   0   28.31    2.34
  11  -7   0   24.68    2.24
  11   7   1   24.06    2.28
 -11   7  -1   25.01    2.20
  11  -7   1   22.51    2.15
 -11  -7  -1   26.47    2.42
 -11   7  -2  116.64    6.01
 -11   7  -2  108.56    6.15
  11   7   2  111.58    6.14
 -11  -7  -2  111.12    6.22
 -11   7  -3   11.21    1.66
 -11   7  -3   13.10    1.83
 -11  -7  -3   15.44    2.07
 -11   7  -4   16.62    2.07
 -11   7  -4   12.12    1.92
 -11  -7  -4   16.80    2.23
 -11   7  -5    0.72    1.00
 -11   7  -5    0.24    0.83
 -11  -7  -5    0.20    1.17
 -11   7  -6   14.94    1.98
 -11   7  -6   15.68    2.15
 -11  -7  -6   14.61    2.21
  11  -8 -13   28.48    2.35
 -11   8  12   15.31    1.83
  11  -8 -12   17.68    1.92
 -11   8  11    5.33    1.29
  11   8 -11    5.33    1.24
  11  -8 -11    7.79    1.36
 -11   8  10    1.23    0.84
  11   8 -10    1.01    0.88
  11  -8 -10    1.11    0.96
 -11   8   9   22.06    2.13
  11   8  -9   21.41    1.95
  11  -8  -9   20.47    2.05
  11   8  -8   35.24    2.57
 -11   8   8   34.43    2.44
  11  -8  -8   34.51    2.70
  11   8  -7   56.18    3.54
 -11   8   7   52.22    3.15
  11  -8  -7   59.50    3.70
  11   8  -6   31.73    2.46
 -11   8   6   28.74    2.28
  11  -8  -6   31.70    2.52
  11   8  -5    8.01    1.35
  11  -8  -5    6.92    1.36
  11   8  -4   -0.05    0.73
 -11   8   4   -0.66    0.57
  11  -8  -4    0.09    0.83
  11   8  -3   23.31    2.19
 -11   8   3   21.51    2.00
  11  -8  -3   23.97    2.36
  11   8  -2   56.35    3.66
 -11   8   2   51.72    3.49
  11  -8  -2   57.42    3.75
 -11  -8   2   56.84    3.63
 -11   8   1   57.98    3.70
  11   8  -1   52.57    3.58
  11  -8  -1   56.58    3.76
 -11  -8   1   55.73    3.74
 -11   8   0   27.61    2.39
  11   8   0   23.69    2.31
 -11  -8   0   26.99    2.43
  11  -8   0   32.28    2.59
  11   8   1   17.29    2.07
 -11   8  -1   24.35    2.20
 -11  -8  -1   19.03    2.23
  11  -8   1   16.34    2.10
 -11   8  -2    0.75    0.96
  11   8   2   -0.47    0.99
 -11  -8  -2   -0.36    0.90
 -11   8  -3   14.13    2.03
 -11   8  -3   15.06    1.89
 -11  -8  -3   13.02    2.05
 -11   8  -4   18.18    2.20
 -11   8  -4   22.12    2.46
 -11  -8  -4   20.24    2.44
 -11   8  -5   40.72    3.09
 -11   8  -5   38.08    3.09
 -11  -8  -5   30.34    3.16
 -11   8  -6   26.37    2.86
 -11  -8  -6   18.69    2.62
  11  -9 -13    0.93    0.89
  11  -9 -12    7.88    1.48
  11   9 -11   41.38    3.06
 -11   9  11   37.10    2.82
  11  -9 -11   39.08    3.00
  11   9 -10   20.60    2.09
 -11   9  10   20.94    2.21
  11  -9 -10   19.79    2.20
 -11   9   9   29.01    2.37
  11   9  -9   26.38    2.35
  11  -9  -9   26.49    2.42
 -11   9   8    5.10    1.26
  11   9  -8    5.08    1.25
  11  -9  -8    5.05    1.25
 -11   9   7    1.56    0.95
  11   9  -7    1.97    0.90
  11  -9  -7    1.34    1.04
  11   9  -6   10.27    1.61
 -11   9   6   12.26    1.63
  11  -9  -6   12.39    1.72
  11   9  -5   52.90    3.49
  11  -9  -5   49.05    3.49
  11   9  -4   30.36    2.56
  11  -9  -4   28.80    2.59
 -11   9   3   45.30    3.26
  11   9  -3   48.49    3.36
  11  -9  -3   45.44    3.41
  11   9  -2    4.52    1.33
 -11   9   2    5.87    1.34
 -11  -9   2    7.17    1.48
  11  -9  -2    9.39    1.68
  11   9  -1   -0.13    0.86
 -11   9   1    0.39    0.78
 -11  -9   1    1.12    1.04
  11  -9  -1   -0.89    0.76
 -11   9   0   11.04    1.72
  11   9   0   10.83    1.77
  11  -9   0    9.01    1.67
 -11  -9   0    8.13    1.72
  11   9   1   45.72    3.41
 -11   9  -1   48.38    3.51
 -11  -9  -1   43.60    3.52
 -11   9  -2   19.07    2.31
 -11  -9  -2   18.59    2.33
 -11   9  -3   32.42    2.78
 -11  -9  -3   32.10    3.08
 -11   9  -4    3.56    1.33
 -11   9  -4    4.85    1.29
 -11  -9  -4    2.89    1.59
 -11   9  -5    1.15    1.05
 -11   9  -5    0.24    0.93
 -11  -9  -5    1.29    1.35
  11 -10 -13    2.38    1.03
  11 -10 -12   22.00    2.38
  11  10 -11   -2.06    1.09
  11 -10 -11    0.78    0.95
  11  10 -10   -2.12    1.11
  11 -10 -10    2.25    1.07
 -11  10   9    2.68    1.15
  11  10  -9    3.23    1.30
  11 -10  -9    5.03    1.33
 -11  10   8   43.61    3.08
  11  10  -8   49.03    3.35
  11 -10  -8   44.11    3.38
 -11  10   7    4.68    1.31
  11  10  -7    2.37    1.08
  11 -10  -7    6.08    1.41
 -11  10   6   37.33    2.77
  11  10  -6   32.94    2.81
  11 -10  -6   32.70    2.93
  11  10  -5   -0.41    0.99
  11 -10  -5    1.50    1.20
  11  10  -4    2.48    1.21
  11 -10  -4    0.72    1.02
  11  10  -3    2.26    1.20
 -11  10   3    4.17    1.19
  11 -10  -3    2.14    1.25
 -11  10   2   49.86    3.70
  11  10  -2   64.14    3.91
  11 -10  -2   53.96    3.94
  11  10  -1    9.62    1.79
 -11  10   1   10.50    1.75
 -11 -10   1    8.28    1.85
  11 -10  -1    9.63    1.74
 -11  10   0   53.43    3.70
  11  10   0   48.82    3.56
  11 -10   0   44.62    3.49
 -11 -10   0   51.35    3.73
  11  10   1    1.16    1.20
 -11  10  -1    2.14    1.14
 -11 -10  -1    0.30    1.15
 -11  10  -2    0.30    0.92
 -11 -10  -2   -1.23    1.26
 -11  10  -3    2.30    1.32
 -11 -10  -3   -0.05    1.22
 -11 -10  -4   35.53    3.66
  11  11 -11   28.50    2.79
  11 -11 -11   31.14    2.84
  11  11 -10   -1.85    1.20
  11 -11 -10   -0.08    1.02
  11  11  -9   27.93    2.97
  11 -11  -9   31.58    2.85
  11  11  -8    0.50    1.26
  11 -11  -8    0.67    1.05
  11  11  -7   -0.42    1.15
 -11  11   7    0.76    0.97
  11 -11  -7    1.36    1.06
 -11  11   6   -0.68    1.03
  11  11  -6   -0.42    1.13
  11 -11  -6    0.61    1.16
  11  11  -5   45.46    3.42
  11 -11  -5   46.21    3.50
  11  11  -4    0.20    1.05
  11 -11  -4    0.93    1.08
  11  11  -3   42.67    3.48
  11 -11  -3   46.32    3.49
  11  11  -2   -1.16    1.10
 -11  11   2    1.45    1.07
  11 -11  -2    1.13    1.14
 -11  11   1    0.87    1.06
  11  11  -1    0.58    1.20
  11 -11  -1    0.03    1.18
 -11  11   0    0.65    1.08
  11  11   0    1.14    1.26
 -11 -11   0   -1.06    1.38
 -11  11  -1   29.54    2.98
  11  11   1   35.93    3.23
 -11 -11  -1   39.08    3.49
 -11  11  -2   -0.61    0.90
 -11 -11  -2    0.06    1.50
 -11  11  -3   34.64    3.02
 -11 -11  -3   27.88    3.36
  11  12 -10    0.53    1.44
  11  12  -9   -0.39    1.32
  11 -12  -9    1.47    1.16
  11  12  -8   19.22    2.54
  11 -12  -8   18.15    2.32
  11  12  -7    1.36    1.57
  11 -12  -7    6.13    1.64
  11  12  -6   22.85    2.85
  11 -12  -6   28.17    2.72
  11  12  -5    0.95    1.28
  11 -12  -5    1.80    1.20
  11  12  -4   -0.53    1.11
  11 -12  -4    0.42    1.20
  11  12  -3    1.37    1.41
  11 -12  -3    0.42    1.27
 -11  12   2   33.54    2.97
  11  12  -2   33.39    3.26
  11 -12  -2   32.66    3.02
  11  12  -1    1.14    1.47
 -11  12   1    4.46    1.45
  11 -12  -1    2.79    1.49
  11  12   0   30.08    3.24
 -11  12   0   28.99    3.14
 -11 -12   0   20.53    3.19
 -11  12  -1    3.12    1.11
 -11 -12  -1   -2.33    1.68
 -11 -12  -2   -3.35    1.64
  11  13  -6   -1.28    1.55
  11 -13  -6    2.43    1.35
  11  13  -5   15.77    2.62
  11 -13  -5   17.53    2.41
  11  13  -4    9.95    2.26
  11 -13  -4   12.04    2.17
  11  13  -3   14.04    2.65
  11 -13  -3   16.95    2.45
  11  13  -2   -0.24    1.50
  11 -13  -2    3.74    1.58
  11  13  -1   -4.82    1.41
 -12   0  15    0.45    0.73
 -12   0  14   34.90    2.43
 -12   0  13    1.39    0.74
 -12   0  12   10.26    1.26
 -12   0  11    0.29    0.60
  12   0 -11   -0.66    0.48
  12   0 -10  113.12    5.76
 -12   0  10  118.97    5.13
 -12   0   9    0.23    0.46
  12   0  -9    0.38    0.54
 -12   0   8   97.09    4.25
  12   0  -8   96.15    5.01
  12   0  -7   -0.14    0.57
  12   0  -6   31.76    2.23
  12   0  -5    0.45    0.63
 -12   0   4  148.92    7.26
  12   0  -4  144.55    7.35
  12   0  -3   -0.31    0.63
 -12   0   3    0.48    0.66
  12   0  -2  112.33    5.94
 -12   0   2  116.31    5.92
  12   0  -1   -0.13    0.61
 -12   0   1   -0.48    0.54
 -12   0   0    8.51    1.32
  12   0   0    9.79    1.39
 -12   0  -1    0.21    0.70
  12   0   1   -1.31    0.63
 -12   0  -1    0.41    0.71
 -12   0  -2  137.99    7.13
  12   0   2  135.77    7.20
 -12   0  -2  147.30    7.36
 -12   0  -3   -0.25    0.76
 -12   0  -3   -0.45    0.74
 -12   0  -4   58.95    3.88
 -12   0  -4   68.64    4.16
 -12   0  -5   -0.97    0.89
 -12   0  -5   -0.33    0.84
 -12   0  -6    1.93    1.07
 -12   0  -6    0.56    1.01
 -12   0  -7   -0.23    1.00
 -12   0  -7    0.63    0.97
 -12   1  15   10.06    1.49
 -12  -1  15   10.42    1.46
 -12   1  14    3.28    1.00
 -12  -1  14    3.93    1.06
 -12   1  13   69.99    3.68
 -12  -1  13   69.05    3.62
 -12   1  12    9.54    1.26
  12  -1 -12    9.76    1.13
 -12  -1  12    8.67    1.16
 -12   1  11   51.78    2.76
  12   1 -11   48.13    2.86
  12  -1 -11   49.62    2.91
 -12  -1  11   52.37    2.72
 -12   1  10    1.50    0.63
  12   1 -10    1.72    0.65
  12  -1 -10    2.06    0.70
 -12  -1  10    2.68    0.69
  12   1  -9   11.03    1.25
 -12   1   9   11.64    1.18
  12  -1  -9   10.80    1.29
 -12  -1   9   10.82    1.10
  12   1  -8    7.44    1.08
 -12   1   8    8.08    0.93
  12  -1  -8    5.64    0.98
  12   1  -7  166.35    8.10
 -12   1   7  166.53    6.83
  12  -1  -7  166.95    8.13
  12   1  -6   21.90    1.82
  12  -1  -6   25.72    1.92
  12   1  -5   80.30    4.25
  12  -1  -5   73.99    4.21
 -12   1   4    8.07    1.17
  12   1  -4    6.15    1.13
  12  -1  -4    7.41    1.20
 -12  -1   4    8.10    1.18
  12   1  -3    6.92    1.16
 -12   1   3    6.91    1.08
 -12  -1   3    8.38    1.22
  12  -1  -3    6.15    1.17
 -12   1   2    9.96    1.31
  12   1  -2   10.60    1.37
 -12  -1   2    9.96    1.34
  12  -1  -2    8.31    1.32
 -12   1   1  150.15    7.37
  12   1  -1  147.77    7.39
 -12  -1   1  150.41    7.37
  12  -1  -1  132.95    7.29
 -12   1   0   13.85    1.67
  12   1   0   10.88    1.47
 -12   1   0   11.32    1.42
  12  -1   0   14.12    1.63
 -12  -1   0   14.25    1.66
 -12   1  -1  103.90    5.39
  12   1   1   98.61    5.47
 -12   1  -1  106.65    5.58
 -12  -1  -1  101.76    5.55
 -12  -1  -1  100.61    5.34
  12  -1   1   97.99    5.46
 -12   1  -2    3.34    1.10
 -12   1  -2    2.25    0.90
  12   1   2    3.28    1.04
  12  -1   2    4.31    1.11
 -12  -1  -2    2.22    0.93
 -12  -1  -2    3.73    1.12
 -12   1  -3    7.69    1.39
 -12   1  -3   10.82    1.65
 -12  -1  -3    9.40    1.49
 -12  -1  -3   12.46    1.73
 -12   1  -4    5.46    1.22
 -12   1  -4    4.92    1.20
 -12  -1  -4    4.65    1.27
 -12  -1  -4    4.16    1.18
 -12   1  -5   61.38    4.03
 -12   1  -5   60.24    3.98
 -12  -1  -5   64.30    4.18
 -12   1  -6    8.60    1.57
 -12   1  -6    5.23    1.33
 -12  -1  -6    4.13    1.31
 -12   1  -7   46.32    3.46
 -12   1  -7   48.02    3.56
 -12  -1  -7   44.40    3.53
 -12   2  15   17.27    1.94
 -12  -2  15   18.86    1.92
 -12   2  14   16.01    1.73
 -12  -2  14   17.72    1.83
 -12   2  13    5.24    1.08
 -12  -2  13    3.97    0.96
 -12   2  12    5.91    1.04
 -12  -2  12    6.23    1.01
  12  -2 -12    5.26    0.92
  12   2 -11   30.49    1.97
 -12   2  11   25.31    1.88
 -12  -2  11   29.66    1.92
  12  -2 -11   27.20    1.96
 -12   2  10   82.42    3.92
  12   2 -10   81.18    4.32
 -12  -2  10   85.70    3.86
  12  -2 -10   80.33    4.36
  12   2  -9   37.86    2.48
 -12   2   9   42.83    2.29
  12  -2  -9   41.51    2.57
 -12   2   8   67.55    3.29
  12   2  -8   71.49    3.84
  12  -2  -8   70.62    3.90
 -12   2   7    4.87    0.75
  12   2  -7    5.54    0.93
  12  -2  -7    5.13    1.00
  12   2  -6   13.21    1.35
 -12   2   6   13.83    1.12
  12  -2  -6   16.62    1.50
 -12   2   5   27.53    1.72
  12   2  -5   27.58    2.05
  12  -2  -5   31.48    2.18
  12   2  -4  109.76    5.66
 -12   2   4  107.77    5.57
 -12  -2   4  106.63    5.55
  12  -2  -4  109.14    5.68
 -12   2   3   66.69    3.83
  12   2  -3   66.95    3.89
  12  -2  -3   65.01    3.90
 -12  -2   3   69.92    3.87
 -12   2   2   82.10    4.39
  12   2  -2   76.88    4.36
  12  -2  -2   70.52    4.30
 -12  -2   2   82.84    4.40
  12   2  -1    7.51    1.26
 -12   2   1    7.22    1.20
  12  -2  -1    6.71    1.25
 -12  -2   1    5.85    1.18
 -12   2   0    3.10    0.91
  12   2   0    2.95    0.94
 -12  -2   0    3.05    0.88
  12  -2   0    2.21    0.82
 -12   2  -1   10.30    1.50
 -12   2  -1   13.03    1.60
  12   2   1   15.36    1.76
  12  -2   1   10.89    1.46
 -12  -2  -1   14.75    1.78
  12   2   2  100.25    5.66
 -12   2  -2  104.05    5.77
 -12   2  -2  104.86    5.59
  12  -2   2   99.97    5.61
 -12  -2  -2  114.99    5.91
 -12   2  -3   57.29    3.77
 -12   2  -3   55.21    3.58
 -12  -2  -3   59.70    3.84
 -12   2  -4   34.57    2.96
 -12   2  -4   47.33    3.08
 -12  -2  -4   40.02    3.10
 -12   2  -5   10.97    1.69
 -12   2  -5   10.52    1.65
 -12  -2  -5   11.50    1.86
 -12   2  -6    1.43    1.04
 -12   2  -6    2.62    1.05
 -12  -2  -6    1.63    1.13
 -12   2  -7   16.46    2.12
 -12   2  -7   11.12    1.90
 -12  -2  -7   10.69    1.93
 -12  -3  15    1.49    0.94
 -12   3  14   17.28    1.84
 -12  -3  14   20.95    1.95
 -12   3  13   28.63    2.15
 -12  -3  13   28.79    2.09
 -12   3  12   61.61    3.26
 -12  -3  12   63.89    3.21
  12  -3 -12   56.48    3.34
 -12   3  11   27.03    1.91
  12   3 -11   29.53    1.95
 -12  -3  11   24.77    1.77
  12  -3 -11   24.24    1.91
 -12   3  10    5.73    0.98
  12   3 -10    5.20    0.92
  12  -3 -10    5.36    1.04
 -12   3   9    5.14    0.89
  12   3  -9    5.54    0.98
  12  -3  -9    7.06    1.09
 -12   3   8   33.43    2.00
  12   3  -8   36.65    2.33
  12  -3  -8   33.60    2.37
 -12   3   7   63.42    3.18
  12   3  -7   68.30    3.78
  12  -3  -7   70.99    3.90
 -12   3   6  117.31    5.01
  12   3  -6  115.20    5.96
  12  -3  -6  116.34    6.01
 -12   3   5   27.05    1.61
  12   3  -5   27.68    2.09
  12  -3  -5   26.59    2.08
  12   3  -4   28.53    2.14
 -12   3   4   30.92    2.11
 -12   3   4   29.09    1.70
  12  -3  -4   30.23    2.27
 -12  -3   4   27.16    2.10
 -12   3   3    9.09    1.28
  12   3  -3    7.52    1.20
  12  -3  -3    6.39    1.16
 -12  -3   3    7.65    1.20
 -12   3   2   83.87    4.66
  12   3  -2   86.39    4.74
 -12  -3   2   85.01    4.69
  12  -3  -2   82.81    4.70
 -12   3   1   62.06    3.54
  12   3  -1   53.71    3.45
  12  -3  -1   52.81    3.45
 -12  -3   1   59.01    3.55
 -12   3   0   98.33    5.35
  12   3   0   94.43    5.31
 -12  -3   0   98.78    5.38
  12  -3   0  100.59    5.36
  12   3   1   40.40    2.98
 -12   3  -1   47.50    2.96
 -12   3  -1   48.75    3.14
  12  -3   1   45.74    3.04
 -12  -3  -1   44.55    3.08
 -12   3  -2   12.29    1.67
 -12   3  -2   15.08    1.78
  12   3   2   15.08    1.79
 -12  -3  -2   14.13    1.86
  12  -3   2   14.19    1.73
 -12   3  -3    2.13    1.01
 -12   3  -3    1.76    0.92
 -12  -3  -3    2.59    1.14
 -12   3  -4   28.39    2.35
 -12   3  -4   28.04    2.50
 -12  -3  -4   24.78    2.42
 -12   3  -5   41.04    3.10
 -12   3  -5   34.92    2.88
 -12  -3  -5   39.82    3.08
 -12   3  -6   49.50    3.73
 -12  -3  -6   56.72    3.89
 -12   3  -7   22.62    2.53
 -12   3  -7   17.78    2.22
 -12  -3  -7   17.27    2.33
 -12  -4  15   40.37    3.05
 -12   4  14    3.70    1.00
 -12  -4  14    5.37    1.13
 -12   4  13    5.44    1.16
 -12  -4  13    4.43    1.06
 -12   4  12    0.10    0.68
  12  -4 -12    0.93    0.71
  12   4 -11   66.49    3.71
 -12   4  11   70.10    3.55
  12  -4 -11   65.47    3.77
  12   4 -10   16.35    1.53
 -12   4  10   16.73    1.59
  12  -4 -10   16.01    1.59
 -12   4   9   94.39    4.51
  12   4  -9   95.43    5.10
  12  -4  -9  104.27    5.24
  12   4  -8    6.03    1.01
 -12   4   8    6.51    0.97
  12  -4  -8    7.01    1.10
 -12   4   7   19.27    1.48
  12   4  -7   20.09    1.73
  12  -4  -7   21.73    1.80
  12   4  -6   -0.08    0.60
 -12   4   6    0.03    0.49
  12  -4  -6    0.00    0.66
  12   4  -5   55.68    3.43
 -12   4   5   58.69    2.90
  12  -4  -5   61.89    3.61
  12   4  -4   27.24    2.08
 -12   4   4   26.67    1.68
 -12   4   4   28.70    2.11
  12  -4  -4   24.45    2.10
  12   4  -3  195.16    9.21
 -12   4   3  175.92    9.05
  12  -4  -3  189.79    9.22
 -12  -4   3  184.51    9.09
  12   4  -2   14.85    1.75
 -12   4   2   15.06    1.68
  12  -4  -2   14.04    1.67
 -12  -4   2   14.12    1.64
  12   4  -1   20.21    1.84
 -12   4   1   16.78    1.92
 -12  -4   1   20.42    1.84
  12  -4  -1   17.25    1.91
  12   4   0    1.47    0.79
 -12   4   0    0.22    0.66
  12  -4   0   -0.07    0.70
 -12  -4   0    1.43    0.91
 -12   4  -1   43.83    2.96
 -12   4  -1   41.35    3.03
  12   4   1   44.93    3.03
 -12  -4  -1   43.93    3.14
  12  -4   1   45.81    3.08
  12   4   2   20.35    2.03
 -12   4  -2   23.12    1.99
 -12   4  -2   19.59    1.97
 -12  -4  -2   18.14    2.11
 -12   4  -3  100.75    5.46
 -12   4  -3   95.23    5.56
 -12  -4  -3   97.97    5.65
 -12   4  -4   11.33    1.65
 -12   4  -4   15.21    2.00
 -12  -4  -4    8.35    1.67
 -12   4  -5   25.99    2.29
 -12   4  -5   20.71    2.44
 -12  -4  -5   22.33    2.55
 -12   4  -6    0.50    0.85
 -12   4  -6    1.67    1.04
 -12  -4  -6    1.95    1.19
 -12   4  -7   21.07    2.48
 -12  -4  -7   23.84    2.79
 -12   5  14   36.39    2.89
 -12   5  13    3.00    0.95
 -12   5  12   83.61    4.25
  12  -5 -12   81.72    4.48
  12   5 -11    0.81    0.73
 -12   5  11    0.66    0.74
  12  -5 -11    2.23    0.85
  12   5 -10    6.48    1.11
 -12   5  10    6.90    1.14
  12  -5 -10    7.44    1.20
 -12   5   9   -0.30    0.54
  12   5  -9    0.34    0.64
  12  -5  -9   -0.46    0.67
  12   5  -8   72.60    3.98
 -12   5   8   70.69    3.54
  12  -5  -8   67.57    4.04
  12   5  -7    0.82    0.74
 -12   5   7    1.82    0.69
  12  -5  -7   -0.15    0.64
 -12   5   6  143.97    6.28
  12   5  -6  143.34    7.33
  12  -5  -6  152.14    7.47
  12   5  -5    7.65    1.22
 -12   5   5    8.95    1.08
  12  -5  -5    8.11    1.32
  12   5  -4   21.61    1.89
 -12   5   4   24.11    1.94
  12  -5  -4   21.15    2.03
 -12   5   3    0.24    0.58
  12   5  -3   -0.86    0.66
 -12  -5   3   -0.73    0.64
  12  -5  -3   -1.10    0.64
 -12   5   2   71.06    4.20
  12   5  -2   77.62    4.35
 -12  -5   2   72.59    4.24
  12  -5  -2   72.31    4.31
  12   5  -1    4.70    1.12
 -12   5   1    4.05    1.08
 -12  -5   1    3.46    1.02
  12  -5  -1    5.10    1.14
  12   5   0  137.15    7.27
 -12   5   0  146.12    7.32
  12  -5   0  136.51    7.28
 -12  -5   0  139.81    7.32
  12   5   1    0.04    0.72
 -12   5  -1    0.17    0.71
  12  -5   1    0.54    0.78
 -12  -5  -1   -0.18    0.79
 -12   5  -2   26.85    2.25
 -12   5  -2   21.58    2.13
  12   5   2   20.07    2.05
 -12  -5  -2   23.01    2.19
 -12   5  -3    0.70    0.80
 -12   5  -3   -0.36    0.81
 -12  -5  -3   -0.19    1.00
 -12   5  -4   30.22    2.60
 -12   5  -4   29.15    2.62
 -12  -5  -4   30.04    2.69
 -12   5  -5    1.59    0.97
 -12   5  -5    1.82    1.03
 -12  -5  -5    1.65    1.22
 -12   5  -6   93.64    5.46
 -12   5  -6   97.27    5.65
 -12  -5  -6   86.71    5.62
 -12   6  13    2.38    0.99
  12  -6 -13    2.08    0.88
 -12   6  12    0.24    0.77
  12  -6 -12    0.12    0.72
  12   6 -11   37.36    2.58
 -12   6  11   39.45    2.56
  12  -6 -11   35.28    2.59
 -12   6  10    0.91    0.76
  12   6 -10    0.40    0.74
  12  -6 -10    0.90    0.81
  12   6  -9  102.20    5.38
 -12   6   9   99.82    4.78
  12  -6  -9  100.36    5.48
 -12   6   8    6.79    1.08
  12   6  -8    3.34    0.95
  12  -6  -8    4.04    1.03
 -12   6   7   15.90    1.59
  12   6  -7   14.78    1.66
  12  -6  -7   15.50    1.84
 -12   6   6   -0.21    0.58
  12   6  -6    0.79    0.69
  12  -6  -6    0.93    0.79
  12   6  -5   61.66    3.79
 -12   6   5   68.85    3.39
  12  -6  -5   64.34    3.93
 -12   6   4    0.21    0.75
  12   6  -4    0.51    0.80
  12  -6  -4    0.52    0.88
 -12   6   3  149.12    7.50
  12   6  -3  152.94    7.57
 -12  -6   3  146.63    7.50
  12  -6  -3  137.84    7.53
 -12   6   2    1.23    0.88
  12   6  -2    3.59    1.09
  12  -6  -2    1.21    0.87
 -12  -6   2    1.37    0.88
 -12   6   1   12.32    1.67
  12   6  -1   13.31    1.74
 -12  -6   1   13.94    1.84
  12  -6  -1   20.17    2.08
  12   6   0    0.90    0.97
 -12   6   0   -0.03    0.70
 -12  -6   0    0.03    0.85
  12  -6   0    0.19    0.85
 -12   6  -1   53.13    3.56
  12   6   1   56.93    3.68
 -12  -6  -1   56.97    3.69
  12  -6   1   50.22    3.51
 -12   6  -2    1.98    1.02
 -12   6  -2    1.09    0.88
  12   6   2    1.83    1.08
 -12  -6  -2    2.47    1.08
 -12   6  -3   83.05    4.97
 -12   6  -3   90.29    5.16
 -12  -6  -3   83.92    5.18
 -12   6  -4    2.17    1.04
 -12   6  -4    3.15    1.17
 -12  -6  -4   -0.35    1.03
 -12   6  -5   18.87    2.37
 -12   6  -5   18.63    2.28
 -12  -6  -5   16.36    2.29
 -12   6  -6   -0.81    0.98
 -12   6  -6    1.62    1.08
 -12  -6  -6    0.62    1.22
  12  -7 -13    8.05    1.33
 -12   7  12   50.31    3.16
  12  -7 -12   48.91    3.26
 -12   7  11    6.58    1.24
  12   7 -11    9.33    1.40
  12  -7 -11    7.57    1.35
  12   7 -10    4.28    1.06
 -12   7  10    5.56    1.11
  12  -7 -10    4.51    1.16
  12   7  -9    0.74    0.81
 -12   7   9    2.51    0.93
  12  -7  -9    0.43    0.87
 -12   7   8   39.22    2.67
  12   7  -8   47.74    3.05
  12  -7  -8   47.27    3.17
 -12   7   7   21.04    1.82
  12   7  -7   19.78    1.99
  12  -7  -7   26.33    2.29
  12   7  -6   94.24    5.30
 -12   7   6  100.59    4.69
  12  -7  -6   94.07    5.43
  12   7  -5   10.89    1.57
  12  -7  -5   10.40    1.65
  12   7  -4   11.40    1.65
 -12   7   4   12.41    1.71
  12  -7  -4   13.03    1.82
 -12   7   3    2.56    0.94
  12   7  -3    1.86    0.93
  12  -7  -3    2.09    1.04
  12   7  -2   31.20    2.53
 -12   7   2   31.79    2.47
 -12  -7   2   34.25    2.58
  12  -7  -2   30.01    2.54
  12   7  -1    9.82    1.61
 -12   7   1    9.72    1.60
  12  -7  -1    7.41    1.51
 -12  -7   1   10.57    1.59
  12   7   0   92.80    5.35
 -12   7   0   93.69    5.34
  12  -7   0   98.60    5.43
 -12  -7   0   83.06    5.22
 -12   7  -1   16.18    2.03
  12   7   1   10.96    1.74
  12  -7   1   12.69    1.75
 -12  -7  -1   10.80    1.80
 -12   7  -2   13.22    1.82
 -12  -7  -2   14.13    1.97
 -12   7  -3   -0.65    0.76
 -12   7  -3   -0.48    0.76
 -12  -7  -3    0.95    1.13
 -12   7  -4   18.70    2.34
 -12   7  -4   21.28    2.41
 -12  -7  -4   16.32    2.22
 -12   7  -5    7.38    1.54
 -12   7  -5    8.65    1.70
 -12  -7  -5    5.20    1.53
  12  -8 -13    0.34    0.84
  12   8 -12    0.28    1.03
  12  -8 -12    2.96    1.08
 -12   8  11   15.35    1.82
  12   8 -11   16.79    1.87
  12  -8 -11   15.00    1.88
 -12   8  10   23.08    2.18
  12   8 -10   20.58    2.04
  12  -8 -10   22.37    2.21
  12   8  -9   42.65    3.02
 -12   8   9   43.05    2.89
  12  -8  -9   44.55    3.17
  12   8  -8   18.57    2.01
 -12   8   8   17.82    1.88
  12  -8  -8   18.63    2.18
  12   8  -7    3.02    1.09
 -12   8   7    2.88    0.98
  12  -8  -7    4.24    1.26
  12   8  -6    2.95    1.12
 -12   8   6    2.18    0.89
  12  -8  -6    3.57    1.22
  12   8  -5   27.46    2.46
  12  -8  -5   29.64    2.66
  12   8  -4   35.08    2.77
  12  -8  -4   40.91    3.12
  12   8  -3   61.52    3.96
 -12   8   3   58.23    3.84
  12  -8  -3   61.42    4.04
 -12   8   2   23.51    2.26
  12   8  -2   21.52    2.19
 -12  -8   2   22.21    2.23
  12  -8  -2   24.43    2.45
 -12   8   1    4.73    1.20
  12   8  -1    5.84    1.30
  12  -8  -1    5.24    1.29
 -12  -8   1    5.56    1.35
 -12   8   0    1.80    1.05
  12   8   0    0.60    0.99
 -12  -8   0   -0.21    0.94
  12  -8   0    0.95    1.12
  12   8   1   21.71    2.43
 -12   8  -1   16.32    2.11
 -12  -8  -1   16.75    2.20
 -12   8  -2   28.63    2.69
 -12  -8  -2   28.61    2.73
 -12   8  -3   29.72    2.73
 -12  -8  -3   35.91    3.05
 -12   8  -4   17.88    2.32
 -12  -8  -4   14.26    2.27
 -12  -8  -5    7.47    1.77
  12  -9 -13   29.42    2.58
  12   9 -12    5.07    1.57
  12  -9 -12   10.89    1.64
  12   9 -11   14.80    1.95
  12  -9 -11   15.72    1.94
 -12   9  10   -0.46    0.93
  12   9 -10   -0.24    1.03
  12  -9 -10   -0.55    0.91
  12   9  -9    2.04    1.11
 -12   9   9    0.89    1.02
  12  -9  -9    3.22    1.22
  12   9  -8    8.92    1.55
 -12   9   8    6.07    1.33
  12  -9  -8    7.28    1.52
  12   9  -7   46.41    3.31
 -12   9   7   51.25    3.13
  12  -9  -7   42.78    3.29
 -12   9   6   17.08    1.95
  12   9  -6   18.48    2.13
  12  -9  -6   27.75    2.53
  12   9  -5   33.89    2.81
  12  -9  -5   33.89    2.97
  12   9  -4    2.58    1.10
  12  -9  -4    1.19    1.14
 -12   9   3    2.58    1.01
  12   9  -3    2.94    1.28
  12  -9  -3    3.90    1.37
 -12   9   2   13.22    1.84
  12   9  -2   11.31    1.85
  12  -9  -2   13.68    2.03
  12   9  -1   40.09    3.17
 -12   9   1   40.28    3.15
  12  -9  -1   36.53    3.07
 -12  -9   1   39.02    3.18
  12   9   0   22.02    2.52
 -12   9   0   22.75    2.56
 -12  -9   0   21.26    2.47
  12  -9   0   20.78    2.43
 -12   9  -1   35.60    2.98
  12   9   1   31.47    2.93
 -12  -9  -1   31.56    3.05
 -12   9  -2    1.99    1.19
 -12  -9  -2    1.06    1.16
 -12   9  -3    1.06    1.11
 -12  -9  -3    1.93    1.41
 -12   9  -4    2.45    1.07
 -12  -9  -4    2.57    1.66
  12  10 -12    0.19    1.33
  12 -10 -12    2.12    1.13
  12  10 -11   -0.49    1.26
  12 -10 -11    1.72    1.13
  12  10 -10   39.31    3.20
  12 -10 -10   43.54    3.29
  12  10  -9    3.78    1.34
  12 -10  -9    5.27    1.43
 -12  10   8   30.49    2.42
  12  10  -8   27.28    2.64
  12 -10  -8   29.68    2.78
 -12  10   7    1.73    1.07
  12  10  -7    0.54    1.07
  12 -10  -7    0.51    0.96
 -12  10   6    4.21    1.29
  12  10  -6    5.42    1.40
  12 -10  -6    3.98    1.41
  12  10  -5    1.09    1.05
  12 -10  -5    2.74    1.31
  12  10  -4   49.45    3.54
  12 -10  -4   49.59    3.66
  12  10  -3    3.25    1.30
  12 -10  -3    6.36    1.57
  12  10  -2   21.63    2.54
 -12  10   2   24.16    2.36
  12 -10  -2   24.51    2.65
 -12  10   1    2.48    1.06
  12  10  -1   -0.43    0.90
 -12 -10   1   -1.83    1.14
  12 -10  -1    0.44    1.16
 -12  10   0   -0.18    0.91
  12  10   0    0.37    1.17
 -12 -10   0   -0.11    1.34
  12  10   1   -0.21    1.15
 -12  10  -1    1.73    1.10
 -12 -10  -1    0.16    1.19
 -12  10  -2   38.39    3.27
 -12 -10  -2   38.86    3.63
 -12  10  -3    7.55    1.55
 -12 -10  -3    1.82    1.66
  12  11 -11    9.83    1.93
  12  11 -10   -4.23    1.05
  12 -11 -10   -0.75    1.00
  12  11  -9   -2.16    1.15
  12 -11  -9    0.62    1.15
  12  11  -8   -0.60    1.13
  12 -11  -8    0.27    1.10
  12  11  -7   44.36    3.46
  12 -11  -7   41.66    3.37
  12  11  -6    0.41    1.20
  12 -11  -6    0.04    1.03
  12  11  -5   24.27    2.75
  12 -11  -5   32.74    2.89
  12  11  -4   -0.16    1.12
  12 -11  -4    0.25    1.19
  12  11  -3    2.32    1.40
  12 -11  -3    0.85    1.15
  12  11  -2   -1.21    1.10
 -12  11   2    2.62    1.07
  12 -11  -2   -1.66    0.98
  12  11  -1   40.99    3.45
 -12  11   1   45.96    3.47
  12 -11  -1   43.94    3.50
  12  11   0   -1.69    1.18
 -12  11   0    1.62    1.21
 -12 -11   0   -0.62    1.48
 -12 -11  -1   28.58    3.22
 -12 -11  -2   -0.90    1.53
  12  12  -8   15.32    2.44
  12 -12  -8   17.47    2.45
  12  12  -7   -0.82    1.38
  12 -12  -7   -0.46    1.13
  12  12  -6   -0.49    1.36
  12 -12  -6    1.93    1.34
  12  12  -5    1.00    1.21
  12 -12  -5    1.02    1.27
  12  12  -4   36.41    3.35
  12 -12  -4   31.73    3.09
  12  12  -3    2.88    1.66
  12 -12  -3    4.84    1.53
  12  12  -2   15.49    2.48
  12 -12  -2   21.56    2.66
  12  12  -1   -0.60    1.29
 -12  12   0    3.96    1.15
  12  12   0   -2.62    1.15
 -13   0  15   -0.27    0.70
 -13   0  14   13.29    1.59
 -13   0  13    1.00    0.72
  13   0 -12  105.72    5.41
 -13   0  12  107.49    4.97
 -13   0  11    0.69    0.62
  13   0 -11    0.08    0.59
 -13   0  10   42.52    2.34
  13   0 -10   40.63    2.61
  13   0  -9    0.37    0.62
  13   0  -8   23.79    1.92
  13   0  -7   -0.23    0.64
  13   0  -6  183.81    9.02
  13   0  -5   -0.50    0.65
 -13   0   4   82.05    4.58
  13   0  -4   86.93    4.75
  13   0  -3   -0.31    0.62
 -13   0   3   -0.22    0.64
  13   0  -2   15.19    1.75
 -13   0   2   15.28    1.70
  13   0  -1    0.39    0.71
 -13   0   1   -0.68    0.65
  13   0   0  154.16    7.83
 -13   0   0  149.29    7.80
  13   0   1    0.47    0.73
 -13   0  -1   -0.28    0.79
 -13   0  -2   65.53    4.12
 -13   0  -2   61.06    3.93
 -13   0  -3   -1.17    0.81
 -13   0  -3   -0.74    0.79
 -13   0  -4    2.05    1.10
 -13   0  -4    2.42    1.16
 -13   0  -5   -1.06    0.88
 -13   0  -5    0.41    1.00
 -13   0  -6   76.05    4.93
 -13  -1  15   59.21    3.44
 -13   1  14    5.97    1.21
 -13  -1  14    5.07    1.11
 -13   1  13   22.06    1.86
 -13  -1  13   22.38    1.83
  13   1 -12   -0.79    0.54
 -13   1  12    0.08    0.62
  13  -1 -12   -0.14    0.53
 -13  -1  12    0.25    0.64
 -13   1  11   15.55    1.52
  13   1 -11   16.51    1.52
 -13  -1  11   16.35    1.50
  13  -1 -11   16.96    1.54
  13   1 -10    5.72    1.00
 -13   1  10    4.08    0.84
  13  -1 -10    4.12    0.92
  13   1  -9  135.16    6.75
 -13   1   9  132.83    5.78
  13  -1  -9  135.47    6.78
  13   1  -8    7.79    1.18
  13  -1  -8   10.55    1.30
  13   1  -7   45.80    2.90
  13  -1  -7   44.72    2.92
  13   1  -6   -0.93    0.59
  13  -1  -6   -0.26    0.67
  13   1  -5   21.55    1.81
  13  -1  -5   17.41    1.74
  13   1  -4    5.54    1.14
 -13   1   4    5.68    1.01
 -13  -1   4    5.08    1.00
  13  -1  -4    5.69    1.15
  13   1  -3  172.23    9.01
 -13   1   3  184.46    9.00
  13  -1  -3  190.16    9.12
 -13  -1   3  183.87    8.99
  13   1  -2   13.35    1.65
 -13   1   2   12.20    1.57
  13  -1  -2   12.13    1.59
 -13  -1   2   12.03    1.59
 -13   1   1   54.11    3.59
  13   1  -1   59.63    3.68
  13  -1  -1   56.63    3.65
 -13  -1   1   62.95    3.69
  13   1   0    3.96    1.06
 -13   1   0    2.28    0.94
 -13  -1   0    3.42    1.06
  13  -1   0    1.61    0.94
  13   1   1   11.81    1.61
 -13   1  -1    9.16    1.56
  13  -1   1    9.05    1.42
 -13  -1  -1   10.93    1.65
 -13   1  -2   14.21    1.79
  13   1   2   11.02    1.68
 -13   1  -2   12.67    1.81
 -13  -1  -2   14.27    1.97
 -13   1  -3  110.40    5.93
 -13   1  -3  106.12    6.06
 -13  -1  -3  103.98    6.06
 -13   1  -4   12.66    1.88
 -13   1  -4   10.82    1.68
 -13  -1  -4   11.45    1.80
 -13   1  -5   43.20    3.24
 -13   1  -5   38.41    3.22
 -13  -1  -5   39.04    3.26
 -13   1  -6   -0.46    0.96
 -13   1  -6   -0.57    0.90
 -13  -1  -6   -0.13    1.02
 -13  -2  15    1.61    0.89
 -13   2  14    9.26    1.34
 -13  -2  14    9.49    1.33
 -13   2  13   18.81    1.82
 -13  -2  13   16.82    1.69
 -13   2  12   65.46    3.38
  13   2 -12   61.44    3.52
  13  -2 -12   62.25    3.55
  13   2 -11   32.71    2.28
 -13   2  11   36.92    2.22
  13  -2 -11   32.96    2.30
 -13   2  10   30.78    1.97
  13   2 -10   29.87    2.15
  13  -2 -10   29.31    2.16
 -13   2   9    2.12    0.68
  13   2  -9    2.05    0.76
  13  -2  -9    2.26    0.82
  13   2  -8   20.57    1.74
 -13   2   8   19.16    1.42
  13  -2  -8   18.84    1.78
  13   2  -7   44.21    2.84
  13  -2  -7   45.92    2.93
  13   2  -6  125.50    6.50
  13  -2  -6  127.54    6.55
  13   2  -5   58.73    3.55
  13  -2  -5   57.74    3.55
 -13   2   4   34.50    2.52
  13   2  -4   38.31    2.67
  13  -2  -4   38.52    2.67
 -13   2   3   -0.27    0.59
  13   2  -3    0.01    0.75
 -13  -2   3   -0.63    0.66
  13  -2  -3   -0.23    0.66
 -13   2   2   11.27    1.55
  13   2  -2   10.30    1.47
  13  -2  -2    9.30    1.41
 -13  -2   2   12.43    1.53
  13   2  -1   30.87    2.38
 -13   2   1   22.86    2.12
 -13  -2   1   24.55    2.16
  13  -2  -1   27.46    2.23
 -13   2   0  107.89    6.09
  13   2   0  112.31    6.14
 -13  -2   0  117.43    6.19
  13  -2   0  114.56    6.11
 -13   2  -1   35.18    2.75
  13   2   1   37.36    2.76
  13  -2   1   38.13    2.76
 -13  -2  -1   38.14    2.94
 -13   2  -2   46.53    3.25
 -13   2  -2   41.92    3.03
  13   2   2   40.90    3.02
 -13  -2  -2   43.49    3.18
 -13   2  -3    0.78    1.03
 -13   2  -3    0.03    0.87
 -13  -2  -3    1.40    0.99
 -13   2  -4    3.08    1.28
 -13   2  -4    5.42    1.37
 -13  -2  -4    3.31    1.34
 -13   2  -5    8.23    1.53
 -13   2  -5   11.61    1.87
 -13  -2  -5    7.29    1.57
 -13   2  -6   58.69    3.91
 -13   2  -6   50.85    3.89
 -13  -2  -6   51.95    3.85
 -13   3  14   36.86    2.57
 -13   3  13    5.65    1.14
 -13   3  12    0.00    0.69
  13   3 -12   -0.39    0.60
  13  -3 -12   -0.12    0.62
 -13   3  11    5.89    1.04
  13   3 -11    6.13    1.07
  13  -3 -11    8.50    1.21
 -13   3  10   39.45    2.40
  13   3 -10   40.74    2.64
  13  -3 -10   42.39    2.71
  13   3  -9   66.99    3.82
 -13   3   9   69.93    3.36
  13  -3  -9   63.21    3.81
 -13   3   8   73.07    3.62
  13   3  -8   77.79    4.31
  13  -3  -8   82.49    4.42
 -13   3   7   24.05    1.63
  13   3  -7   25.15    2.04
  13  -3  -7   26.86    2.07
  13   3  -6    1.45    0.83
  13  -3  -6    2.84    0.97
  13   3  -5   12.14    1.54
  13  -3  -5   14.34    1.67
 -13   3   4   50.77    3.24
  13   3  -4   52.35    3.32
  13  -3  -4   53.96    3.36
 -13   3   3   55.56    3.52
  13   3  -3   57.26    3.60
 -13  -3   3   60.26    3.62
  13  -3  -3   61.02    3.72
  13   3  -2  100.25    5.30
 -13   3   2   85.08    5.09
  13  -3  -2   95.93    5.23
 -13  -3   2   94.26    5.17
  13   3  -1   37.02    2.74
 -13   3   1   34.04    2.67
 -13  -3   1   35.28    2.72
  13  -3  -1   36.88    2.67
 -13   3   0    3.90    1.10
  13   3   0    2.44    1.02
 -13  -3   0    5.36    1.23
  13  -3   0    5.78    1.24
 -13   3  -1    3.25    1.05
  13   3   1    4.72    1.26
  13  -3   1    3.87    1.17
 -13  -3  -1    5.46    1.25
  13   3   2   42.52    3.28
 -13   3  -2   40.57    3.06
 -13  -3  -2   43.78    3.27
 -13   3  -3   49.63    3.41
 -13  -3  -3   48.90    3.53
 -13   3  -4   41.12    3.22
 -13  -3  -4   47.36    3.52
 -13   3  -5   15.14    2.01
 -13   3  -5   16.93    2.33
 -13  -3  -5   16.37    2.21
 -13   3  -6    1.89    1.07
 -13   3  -6    0.91    1.03
 -13  -3  -6    0.15    1.18
 -13   4  14    3.47    1.09
 -13   4  13   40.37    2.65
 -13   4  12   10.36    1.41
  13   4 -12   15.20    1.55
  13  -4 -12   12.87    1.48
  13   4 -11   71.48    3.93
 -13   4  11   70.02    3.64
  13  -4 -11   67.37    3.98
 -13   4  10    4.67    0.95
  13   4 -10    5.64    1.07
  13  -4 -10    6.49    1.18
 -13   4   9    1.58    0.70
  13   4  -9    1.05    0.74
  13  -4  -9    1.36    0.83
 -13   4   8    6.34    1.00
  13   4  -8    6.19    1.11
  13  -4  -8    5.25    1.16
 -13   4   7   66.39    3.25
  13   4  -7   64.28    3.81
  13  -4  -7   63.69    3.90
  13   4  -6   30.00    2.31
 -13   4   6   29.15    1.87
  13  -4  -6   29.60    2.40
  13   4  -5  114.46    6.04
  13  -4  -5  113.99    6.11
 -13   4   4    7.64    1.26
  13   4  -4    8.19    1.32
  13  -4  -4    8.64    1.38
  13   4  -3    2.99    0.99
 -13   4   3    5.30    1.08
 -13  -4   3    1.79    0.95
  13  -4  -3    3.35    1.01
  13   4  -2    1.55    0.86
 -13   4   2    1.73    0.84
  13  -4  -2    3.15    1.11
 -13  -4   2    1.45    0.91
  13   4  -1   74.78    4.38
 -13   4   1   66.46    4.20
  13  -4  -1   74.02    4.40
 -13  -4   1   72.58    4.30
  13   4   0   29.15    2.39
 -13   4   0   25.38    2.35
  13  -4   0   30.72    2.41
 -13  -4   0   27.45    2.38
 -13   4  -1   90.23    5.36
  13   4   1   93.10    5.41
  13  -4   1  100.18    5.49
 -13  -4  -1   96.69    5.47
 -13   4  -2    7.73    1.55
 -13  -4  -2    9.22    1.62
 -13   4  -3    4.26    1.18
 -13   4  -3    4.62    1.35
 -13  -4  -3    6.93    1.54
 -13   4  -4    3.57    1.31
 -13   4  -4    2.31    1.12
 -13  -4  -4    3.04    1.29
 -13   4  -5   28.97    2.81
 -13   4  -5   34.42    2.85
 -13  -4  -5   29.57    2.91
 -13   4  -6    9.94    2.15
 -13   5  13    0.47    0.82
  13  -5 -13   -0.11    0.71
  13   5 -12    0.03    0.73
 -13   5  12    0.56    0.71
  13  -5 -12    0.85    0.77
  13   5 -11    0.76    0.77
 -13   5  11   -0.22    0.71
  13  -5 -11   -0.49    0.73
  13   5 -10   74.14    4.03
 -13   5  10   64.44    3.54
  13  -5 -10   66.69    4.00
 -13   5   9    1.76    0.72
  13   5  -9    1.04    0.78
  13  -5  -9    2.72    0.96
  13   5  -8  108.21    5.67
 -13   5   8  106.38    4.92
  13  -5  -8  105.23    5.75
 -13   5   7    0.46    0.62
  13   5  -7    0.05    0.77
  13  -5  -7    0.79    0.74
 -13   5   6    3.14    0.80
  13   5  -6    3.77    1.01
  13  -5  -6    3.56    1.07
  13   5  -5    2.08    0.95
 -13   5   5    3.55    0.81
  13  -5  -5    5.58    1.25
  13   5  -4   80.52    4.77
 -13   5   4   92.68    4.83
  13  -5  -4   81.40    4.86
  13   5  -3    2.72    0.96
 -13   5   3    2.86    0.98
 -13  -5   3    2.13    1.00
  13  -5  -3    1.79    0.94
  13   5  -2  117.32    6.35
 -13   5   2  115.00    6.26
  13  -5  -2  117.21    6.36
 -13  -5   2  119.45    6.35
  13   5  -1    2.97    1.13
 -13   5   1    1.92    0.94
  13  -5  -1    2.86    1.01
 -13  -5   1    3.18    1.19
  13   5   0    5.14    1.29
 -13   5   0    2.81    1.03
  13  -5   0    4.34    1.18
 -13  -5   0    3.16    1.17
 -13   5  -1    1.44    0.99
  13   5   1    1.69    0.95
  13  -5   1    4.05    1.17
 -13  -5  -1    2.45    1.09
 -13   5  -2   40.61    3.15
 -13  -5  -2   40.44    3.25
 -13   5  -3    2.12    1.03
 -13  -5  -3    0.15    0.93
 -13   5  -4   73.07    4.74
 -13   5  -4   83.01    5.03
 -13  -5  -4   79.40    5.03
 -13   5  -5    1.84    1.07
 -13   5  -5    0.17    1.07
 -13  -5  -5    0.90    1.22
  13  -6 -13   40.55    2.78
  13   6 -12    1.65    0.90
 -13   6  12    0.62    0.78
  13  -6 -12    2.82    0.97
  13   6 -11   61.97    3.67
 -13   6  11   62.16    3.46
  13  -6 -11   58.75    3.73
 -13   6  10   -0.08    0.71
  13   6 -10    0.53    0.76
  13  -6 -10    1.27    0.85
  13   6  -9    1.11    0.83
 -13   6   9    0.44    0.74
  13  -6  -9    0.72    0.86
  13   6  -8    0.34    0.81
 -13   6   8    1.28    0.75
  13  -6  -8    0.63    0.85
 -13   6   7   56.35    3.20
  13   6  -7   62.79    3.74
  13  -6  -7   63.24    3.90
  13   6  -6    1.24    0.89
 -13   6   6    1.54    0.76
  13  -6  -6    2.89    1.02
 -13   6   5  110.32    5.19
  13   6  -5  118.94    6.19
  13  -6  -5  113.70    6.24
  13   6  -4    1.42    0.87
  13  -6  -4    2.07    1.01
 -13   6   3    5.86    1.14
  13   6  -3    4.76    1.27
  13  -6  -3    6.60    1.42
 -13   6   2   -0.33    0.75
  13   6  -2    1.15    0.96
  13  -6  -2   -0.49    0.79
 -13  -6   2    0.20    0.83
  13   6  -1   55.84    3.87
 -13   6   1   66.28    3.92
  13  -6  -1   59.39    3.94
 -13  -6   1   56.86    3.89
 -13   6   0    1.77    0.94
  13   6   0    1.19    0.96
  13  -6   0    0.81    0.95
 -13  -6   0    1.14    1.09
 -13   6  -1   82.15    5.13
  13   6   1   91.12    5.23
 -13  -6  -1   85.67    5.19
 -13   6  -2    0.90    0.93
 -13  -6  -2    0.97    1.04
 -13   6  -3    6.18    1.47
 -13  -6  -3    5.70    1.56
 -13   6  -4   -0.16    0.82
 -13  -6  -4   -1.01    0.97
 -13   6  -5   37.00    3.08
 -13  -6  -5   35.20    3.32
  13  -7 -13    1.38    0.94
 -13   7  12    0.43    0.78
  13   7 -12    0.43    0.88
  13  -7 -12    0.71    0.88
  13   7 -11    0.65    0.93
 -13   7  11    0.81    0.83
  13  -7 -11   -0.13    0.83
 -13   7  10   36.56    2.57
  13   7 -10   35.06    2.76
  13  -7 -10   38.86    2.85
 -13   7   9   10.67    1.50
  13   7  -9   10.03    1.53
  13  -7  -9   11.33    1.65
  13   7  -8   54.49    3.52
 -13   7   8   58.21    3.26
  13  -7  -8   55.66    3.65
  13   7  -7    9.86    1.54
 -13   7   7    8.25    1.27
  13  -7  -7    7.52    1.47
  13   7  -6    3.37    1.11
 -13   7   6    2.31    0.91
  13  -7  -6    3.03    1.10
  13   7  -5    0.93    0.89
 -13   7   5    0.38    0.73
  13  -7  -5    0.71    1.00
  13   7  -4   57.28    3.81
  13  -7  -4   60.30    3.98
  13   7  -3   22.93    2.30
 -13   7   3   21.27    2.14
  13  -7  -3   24.84    2.60
 -13   7   2   66.63    4.15
  13   7  -2   67.33    4.25
 -13  -7   2   62.90    4.11
  13  -7  -2   66.29    4.24
  13   7  -1    1.91    1.07
 -13   7   1    4.18    1.19
  13  -7  -1    4.52    1.36
 -13  -7   1    4.32    1.32
  13   7   0    4.31    1.36
 -13   7   0    2.34    0.97
  13  -7   0    5.61    1.43
 -13  -7   0    2.60    1.16
  13   7   1    0.90    1.11
 -13   7  -1    1.44    1.10
 -13  -7  -1    1.40    1.24
 -13   7  -2   20.82    2.42
 -13  -7  -2   25.09    2.77
 -13   7  -3    8.32    1.60
 -13  -7  -3    6.42    1.78
 -13   7  -4   54.66    3.89
 -13  -7  -4   47.15    3.82
  13  -8 -13   16.11    1.89
  13   8 -12   20.24    2.16
  13  -8 -12   21.16    2.23
  13   8 -11   23.13    2.29
  13  -8 -11   24.52    2.40
 -13   8  10    6.33    1.30
  13   8 -10    8.30    1.50
  13  -8 -10    7.62    1.53
  13   8  -9    0.75    0.96
 -13   8   9    1.78    0.97
  13  -8  -9    0.53    0.88
 -13   8   8    3.90    1.09
  13   8  -8    2.31    1.12
  13  -8  -8    2.95    1.17
 -13   8   7   15.05    1.75
  13   8  -7   15.52    1.93
  13  -8  -7   18.56    2.24
 -13   8   6   30.34    2.34
  13   8  -6   30.86    2.66
  13  -8  -6   35.16    2.88
  13   8  -5   47.52    3.39
 -13   8   5   45.65    2.94
  13  -8  -5   47.90    3.53
  13   8  -4   18.29    2.19
  13  -8  -4   14.32    2.02
 -13   8   3    1.78    0.89
  13   8  -3    2.40    1.15
  13  -8  -3    0.92    1.07
  13   8  -2   -1.77    0.91
 -13   8   2    1.32    0.94
  13  -8  -2    1.40    1.14
 -13   8   1   24.56    2.64
  13   8  -1   19.01    2.44
 -13  -8   1   24.29    2.66
  13  -8  -1   26.38    2.79
  13   8   0   31.28    2.75
 -13   8   0   27.68    2.68
  13  -8   0   35.84    2.95
 -13  -8   0   28.21    2.75
 -13   8  -1   31.67    2.79
  13   8   1   31.46    2.86
 -13  -8  -1   24.24    2.78
 -13   8  -2   10.84    1.84
 -13  -8  -2    9.30    1.85
 -13   8  -3    4.15    1.34
 -13  -8  -3    9.55    1.92
  13  -9 -13    6.79    1.45
  13   9 -12   -0.79    1.17
  13  -9 -12   -0.04    0.95
  13   9 -11    2.65    1.28
  13  -9 -11    4.55    1.35
  13   9 -10    7.18    1.51
  13  -9 -10    7.44    1.62
 -13   9   9   32.86    2.70
  13   9  -9   38.88    3.02
  13  -9  -9   39.46    3.12
  13   9  -8   12.41    1.79
 -13   9   8   10.50    1.57
  13  -9  -8    9.48    1.79
  13   9  -7   15.26    2.01
 -13   9   7   11.45    1.59
  13  -9  -7   14.62    2.05
  13   9  -6    3.10    1.27
 -13   9   6    3.57    1.10
  13  -9  -6    4.11    1.45
  13   9  -5    5.03    1.46
  13  -9  -5    3.32    1.38
  13   9  -4   10.99    1.88
  13  -9  -4    9.05    1.71
  13   9  -3   46.21    3.58
  13  -9  -3   48.96    3.68
 -13   9   2   14.00    2.00
  13   9  -2   20.38    2.40
  13  -9  -2   16.49    2.22
 -13   9   1   25.27    2.41
  13   9  -1   21.36    2.52
  13  -9  -1   26.61    2.81
 -13  -9   1   23.73    2.67
 -13   9   0    0.34    0.96
  13   9   0    0.49    1.02
 -13  -9   0   -2.13    1.12
 -13   9  -1    4.29    1.30
  13   9   1    1.58    1.39
 -13  -9  -1    1.58    1.40
 -13   9  -2    4.01    1.34
 -13  -9  -2    5.71    1.68
  13  10 -12   22.08    2.59
  13  10 -11    0.17    1.37
  13 -10 -11    0.88    1.14
  13  10 -10   16.08    2.24
  13 -10 -10   16.86    2.18
  13  10  -9   -0.18    1.10
  13 -10  -9    0.08    1.05
  13  10  -8    5.85    1.49
  13 -10  -8    7.71    1.66
  13  10  -7    1.85    1.20
  13 -10  -7    1.62    1.12
  13  10  -6   52.18    3.85
 -13  10   6   54.03    3.45
  13 -10  -6   60.33    4.14
  13  10  -5    5.38    1.49
  13 -10  -5    5.37    1.57
  13  10  -4   15.37    2.10
  13 -10  -4   15.60    2.24
  13  10  -3    0.97    1.05
  13 -10  -3   -0.65    0.93
  13  10  -2    5.59    1.52
 -13  10   2    6.19    1.43
  13 -10  -2    5.69    1.69
 -13  10   1    0.84    1.04
  13  10  -1   -0.33    0.98
  13 -10  -1    0.61    1.15
 -13  10   0   42.57    3.57
  13  10   0   48.83    3.66
 -13 -10   0   50.10    3.98
 -13  10  -1    4.96    1.34
 -13 -10  -1    0.36    1.50
  13  11  -9   33.70    3.19
  13 -11  -9   35.04    3.05
  13  11  -8   -1.27    1.20
  13 -11  -8   -0.10    0.99
  13  11  -7   14.50    2.24
  13 -11  -7   10.28    1.98
  13  11  -6   -0.21    1.12
  13 -11  -6    0.80    1.08
  13  11  -5    2.13    1.37
  13 -11  -5    3.26    1.40
  13  11  -4    1.10    1.33
  13 -11  -4    1.16    1.28
  13  11  -3   40.58    3.43
  13 -11  -3   45.64    3.71
  13  11  -2   -1.27    1.03
  13 -11  -2   -0.10    1.06
  13  11  -1   25.55    2.92
  13  11   0   -2.28    1.17
  13 -12  -4   15.27    2.66
  13 -12  -3    1.43    1.46
 -14   0  14   68.37    3.73
 -14   0  13    0.08    0.75
  14   0 -12   22.72    1.87
  14   0 -11   -0.34    0.62
  14   0 -10   31.92    2.31
  14   0  -9   -0.52    0.61
  14   0  -8  122.35    6.37
  14   0  -7   -0.89    0.57
  14   0  -6   61.82    3.79
  14   0  -5    0.36    0.81
  14   0  -4   42.94    3.03
 -14   0   3    0.29    0.82
  14   0  -3    0.78    0.82
 -14   0   2  164.79    8.62
  14   0  -2  176.03    8.74
 -14   0   1   -0.25    0.68
  14   0  -1    0.70    0.91
 -14   0   0   49.59    3.41
  14   0   0   49.02    3.34
 -14   0  -1   -1.23    0.74
  14   0   1   -0.36    0.89
 -14   0  -2   19.92    2.33
 -14   0  -3    0.07    0.92
 -14   0  -4   83.91    5.24
 -14   0  -5    0.59    1.06
 -14   1  14    1.19    0.82
 -14   1  13   28.68    2.12
  14   1 -12    6.79    1.12
 -14   1  12    6.22    1.11
  14  -1 -12    7.65    1.18
  14   1 -11  101.02    5.30
  14  -1 -11   99.31    5.30
  14   1 -10   10.10    1.37
  14  -1 -10    8.94    1.34
  14   1  -9   34.61    2.39
  14  -1  -9   29.20    2.32
  14   1  -8    0.95    0.76
  14  -1  -8    0.01    0.73
  14   1  -7   32.02    2.35
  14  -1  -7   30.07    2.41
  14   1  -6   10.89    1.47
  14  -1  -6    7.42    1.30
  14   1  -5  150.52    7.91
  14  -1  -5  161.18    8.01
  14   1  -4    6.51    1.35
  14  -1  -4    5.74    1.25
  14   1  -3   58.44    3.67
 -14   1   3   63.59    3.64
  14  -1  -3   52.68    3.60
 -14  -1   3   55.85    3.63
 -14   1   2    0.22    0.72
  14   1  -2    0.14    0.79
 -14  -1   2    0.25    0.80
  14  -1  -2    0.43    0.82
  14   1  -1   28.63    2.45
 -14   1   1   29.26    2.33
  14  -1  -1   23.43    2.23
 -14  -1   1   25.37    2.38
  14   1   0    4.11    1.20
 -14   1   0    4.84    1.16
 -14  -1   0    3.02    1.11
  14  -1   0    4.50    1.18
 -14   1  -1  120.74    6.40
  14   1   1  107.03    6.26
  14  -1   1  113.25    6.29
 -14  -1  -1  114.50    6.40
 -14   1  -2    9.17    1.57
 -14  -1  -2    5.32    1.50
 -14   1  -3   43.75    3.28
 -14  -1  -3   38.60    3.21
 -14   1  -4   -1.50    0.93
 -14  -1  -4   -0.21    0.94
 -14   1  -5    8.85    1.85
 -14   1  -5    8.73    1.78
 -14  -1  -5   12.18    2.01
 -14   2  14   47.96    2.98
 -14   2  13    8.51    1.29
 -14   2  12   15.98    1.64
  14   2 -12   16.91    1.68
  14  -2 -12   18.91    1.72
 -14   2  11    0.20    0.62
  14   2 -11   -1.02    0.60
  14  -2 -11   -0.79    0.61
  14   2 -10   25.52    2.13
  14  -2 -10   28.48    2.16
  14   2  -9   22.13    1.91
  14  -2  -9   22.35    1.95
  14   2  -8  103.47    5.66
  14  -2  -8  109.70    5.74
  14   2  -7   30.48    2.35
  14  -2  -7   29.66    2.38
  14   2  -6   34.60    2.55
  14  -2  -6   36.13    2.68
  14   2  -5   -0.91    0.74
  14  -2  -5   -0.44    0.78
  14   2  -4   25.28    2.25
  14  -2  -4   24.32    2.18
  14   2  -3   36.04    2.85
 -14   2   3   40.21    2.77
 -14  -2   3   39.24    2.84
  14  -2  -3   39.36    2.91
 -14   2   2  105.56    5.86
  14   2  -2  110.33    5.98
  14  -2  -2  103.77    5.92
 -14  -2   2  109.02    5.87
  14   2  -1   29.29    2.47
 -14   2   1   27.32    2.29
  14  -2  -1   23.50    2.23
 -14  -2   1   23.01    2.20
 -14   2   0   35.64    2.83
  14   2   0   34.52    2.85
 -14  -2   0   38.21    2.90
  14  -2   0   39.59    2.87
  14   2   1    0.32    0.89
 -14   2  -1    0.01    0.84
 -14  -2  -1   -0.24    0.82
  14  -2   1    0.71    0.94
 -14   2  -2   10.20    1.76
 -14  -2  -2   11.64    1.92
 -14   2  -3   23.60    2.63
 -14  -2  -3   23.36    2.72
 -14  -2  -4   64.16    4.45
 -14   2  -5   11.66    2.07
 -14  -2  -5   17.94    2.33
 -14   3  13    6.86    1.23
  14   3 -12   37.77    2.52
 -14   3  12   32.77    2.32
  14  -3 -12   35.65    2.50
 -14   3  11   40.06    2.49
  14   3 -11   41.21    2.75
  14  -3 -11   40.45    2.78
  14   3 -10   37.31    2.63
 -14   3  10   39.53    2.34
  14  -3 -10   35.33    2.62
 -14   3   9   13.38    1.36
  14   3  -9   12.35    1.56
  14  -3  -9   13.46    1.65
  14   3  -8    0.22    0.71
  14  -3  -8    0.71    0.81
  14   3  -7   16.85    1.84
  14  -3  -7   16.02    1.88
  14   3  -6   56.79    3.59
  14  -3  -6   56.06    3.59
  14   3  -5   70.04    4.14
  14  -3  -5   64.90    4.08
  14   3  -4   52.23    3.37
  14  -3  -4   49.09    3.35
 -14   3   3   19.75    1.98
  14   3  -3   17.75    2.05
  14  -3  -3   21.44    2.12
 -14  -3   3   18.72    1.89
 -14   3   2    0.26    0.81
  14   3  -2    0.67    0.87
 -14  -3   2   -0.03    0.75
  14  -3  -2    0.16    0.78
 -14   3   1   13.96    1.82
  14   3  -1   18.52    2.07
  14  -3  -1   14.84    1.98
 -14  -3   1   15.65    1.95
 -14   3   0   40.74    3.15
  14   3   0   45.54    3.24
 -14  -3   0   43.78    3.24
  14  -3   0   40.51    3.07
 -14   3  -1   47.47    3.41
  14   3   1   44.41    3.22
  14  -3   1   43.16    3.25
 -14  -3  -1   44.39    3.33
 -14   3  -2   47.80    3.44
 -14  -3  -2   45.65    3.56
 -14   3  -3   21.14    2.54
 -14  -3  -3   22.33    2.62
 -14   3  -4   -0.74    0.94
 -14  -3  -4    0.34    1.05
 -14   3  -5    2.18    1.18
 -14  -3  -5    4.35    1.43
 -14   4  13   29.69    2.29
  14  -4 -13   32.75    2.38
 -14   4  12    1.52    0.82
  14   4 -12    1.20    0.87
  14  -4 -12    1.46    0.86
 -14   4  11   -0.81    0.63
  14   4 -11    0.16    0.75
  14  -4 -11    1.26    0.79
 -14   4  10    5.10    1.01
  14   4 -10    4.36    1.08
  14  -4 -10    5.34    1.18
  14   4  -9   68.36    3.95
 -14   4   9   62.80    3.37
  14  -4  -9   68.06    4.03
 -14   4   8   19.87    1.59
  14   4  -8   20.81    1.94
  14  -4  -8   21.25    2.04
  14   4  -7   70.64    4.16
  14  -4  -7   69.00    4.23
  14   4  -6    4.67    1.17
  14  -4  -6    4.63    1.15
  14   4  -5    0.19    0.74
  14  -4  -5   -0.19    0.84
  14   4  -4    5.59    1.32
  14  -4  -4    5.85    1.34
  14   4  -3   76.78    4.50
 -14   4   3   72.68    4.39
  14  -4  -3   74.17    4.57
 -14   4   2   26.05    2.22
  14   4  -2   26.84    2.32
  14  -4  -2   26.04    2.31
 -14  -4   2   21.34    2.16
 -14   4   1   63.61    4.18
  14   4  -1   64.61    4.26
  14  -4  -1   70.46    4.34
 -14  -4   1   74.37    4.38
 -14   4   0    8.45    1.53
  14   4   0    4.83    1.30
  14  -4   0    4.45    1.23
 -14  -4   0    5.13    1.32
  14   4   1   -0.37    0.86
 -14   4  -1    1.87    1.07
 -14  -4  -1    1.39    1.12
 -14   4  -2    1.64    1.12
 -14  -4  -2    1.33    1.18
 -14   4  -3   45.11    3.44
 -14  -4  -3   45.13    3.51
 -14   4  -4   18.54    2.36
 -14  -4  -4   19.23    2.57
  14  -5 -13    0.26    0.78
 -14   5  12   53.82    3.06
  14   5 -12   46.81    3.12
  14  -5 -12   45.88    3.17
  14   5 -11    2.02    0.93
 -14   5  11    1.69    0.78
  14  -5 -11    2.33    1.01
  14   5 -10   55.52    3.51
 -14   5  10   56.46    3.15
  14  -5 -10   52.69    3.52
 -14   5   9    1.35    0.72
  14   5  -9   -0.25    0.73
  14  -5  -9    1.18    0.88
  14   5  -8   -0.59    0.66
 -14   5   8   -0.50    0.60
  14  -5  -8   -0.19    0.81
  14   5  -7    0.18    0.79
 -14   5   7    0.94    0.69
  14  -5  -7    0.55    0.96
  14   5  -6   84.70    4.90
  14  -5  -6   85.30    5.02
  14   5  -5    7.08    1.35
  14  -5  -5    6.36    1.35
  14   5  -4   76.48    4.67
  14  -5  -4   83.08    4.81
 -14   5   3    1.12    0.80
  14   5  -3   -0.46    0.79
  14  -5  -3    0.06    0.85
  14   5  -2   -0.20    0.87
 -14   5   2   -0.03    0.74
 -14  -5   2   -0.18    0.80
  14  -5  -2   -0.75    0.86
  14   5  -1   -1.65    0.73
 -14   5   1    0.53    0.88
  14  -5  -1   -0.94    0.89
 -14  -5   1   -0.32    0.95
  14   5   0   72.01    4.41
 -14   5   0   64.10    4.28
  14  -5   0   66.52    4.33
 -14  -5   0   73.71    4.49
  14   5   1   -0.36    0.86
 -14   5  -1    1.13    0.98
 -14  -5  -1   -0.44    0.89
 -14   5  -2   67.32    4.30
 -14  -5  -2   54.69    4.16
 -14   5  -3    0.95    1.08
 -14  -5  -3    1.90    1.20
 -14   5  -4    2.43    1.19
 -14  -5  -4   -0.36    1.12
  14  -6 -13   31.66    2.49
 -14   6  12    1.83    0.92
  14   6 -12    2.75    1.05
  14  -6 -12    1.78    0.93
 -14   6  11   -0.02    0.70
  14   6 -11    1.02    0.87
  14  -6 -11   -0.14    0.85
  14   6 -10    1.32    0.98
 -14   6  10    0.34    0.71
  14  -6 -10    1.19    0.95
  14   6  -9   60.44    3.79
 -14   6   9   59.79    3.33
  14  -6  -9   60.52    3.90
  14   6  -8    1.53    0.93
 -14   6   8    1.51    0.84
  14  -6  -8    2.55    1.02
  14   6  -7   60.03    3.95
 -14   6   7   66.37    3.41
  14  -6  -7   65.39    4.15
 -14   6   6   -0.27    0.70
  14   6  -6    0.46    0.88
  14  -6  -6   -0.14    0.97
  14   6  -5    0.69    0.93
  14  -6  -5    1.08    0.95
  14   6  -4   -0.49    0.85
  14  -6  -4   -0.17    1.03
  14   6  -3   54.06    3.54
 -14   6   3   46.66    3.40
  14  -6  -3   50.51    3.61
  14   6  -2   -0.40    0.96
 -14   6   2    1.23    0.97
 -14  -6   2    0.75    0.95
  14  -6  -2    1.76    1.04
 -14   6   1   62.05    4.13
  14   6  -1   64.34    4.27
 -14  -6   1   61.81    4.23
  14  -6  -1   67.50    4.26
 -14   6   0    1.81    1.06
  14   6   0    1.43    1.16
 -14  -6   0    2.30    1.27
  14  -6   0    2.27    1.10
  14   6   1    1.32    1.16
 -14   6  -1   -0.20    0.84
 -14  -6  -1    0.79    1.03
 -14   6  -2    0.16    0.97
 -14  -6  -2    1.06    1.24
 -14   6  -3   49.52    3.64
 -14  -6  -3   47.70    3.76
  14  -7 -13    2.61    1.03
  14   7 -12   32.27    2.58
  14  -7 -12   30.95    2.55
  14   7 -11   10.88    1.63
 -14   7  11    8.34    1.41
  14  -7 -11    8.46    1.49
 -14   7  10   37.33    2.60
  14   7 -10   32.36    2.72
  14  -7 -10   38.49    2.92
  14   7  -9    2.78    1.12
 -14   7   9    2.11    0.93
  14  -7  -9    4.56    1.24
 -14   7   8    0.12    0.78
  14   7  -8    0.10    0.86
  14  -7  -8   -0.44    0.89
 -14   7   7    2.33    0.91
  14   7  -7    0.68    0.91
  14  -7  -7    3.45    1.27
 -14   7   6   49.71    2.97
  14   7  -6   51.40    3.47
  14  -7  -6   49.78    3.63
  14   7  -5   11.66    1.86
  14  -7  -5   14.29    1.99
  14   7  -4   43.47    3.41
  14  -7  -4   51.97    3.58
 -14   7   3   11.58    1.82
  14   7  -3   12.51    1.86
  14  -7  -3   12.91    1.99
  14   7  -2    1.29    1.05
 -14   7   2    0.88    0.91
  14  -7  -2    1.50    1.20
  14   7  -1    4.70    1.43
 -14   7   1    6.37    1.44
 -14  -7   1    5.11    1.40
  14  -7  -1    8.00    1.71
  14   7   0   38.12    3.25
 -14   7   0   37.02    3.15
 -14  -7   0   42.96    3.29
  14  -7   0   40.08    3.31
 -14   7  -1   14.41    2.09
  14   7   1   13.19    2.07
 -14  -7  -1   10.40    2.00
 -14   7  -2   42.42    3.40
 -14  -7  -2   40.26    3.52
 -14   7  -3    6.47    1.57
 -14  -7  -3    2.29    1.35
  14  -8 -13   12.71    1.75
  14   8 -12    6.45    1.48
  14  -8 -12    4.98    1.29
  14   8 -11   -0.84    0.86
  14  -8 -11    0.80    1.03
  14   8 -10    7.79    1.58
  14  -8 -10   10.08    1.71
  14   8  -9   22.89    2.43
 -14   8   9   24.24    2.28
  14  -8  -9   20.98    2.43
 -14   8   8   19.07    2.01
  14   8  -8   20.79    2.33
  14  -8  -8   21.54    2.46
 -14   8   7   28.09    2.24
  14   8  -7   27.73    2.59
  14  -8  -7   27.61    2.69
 -14   8   6    4.84    1.13
  14   8  -6    8.75    1.56
  14  -8  -6    9.76    1.80
 -14   8   5   -0.57    0.71
  14   8  -5    0.40    1.07
  14  -8  -5    0.24    1.08
  14   8  -4    5.94    1.45
  14  -8  -4    4.49    1.37
  14   8  -3   23.24    2.67
  14  -8  -3   25.20    2.78
  14   8  -2   34.54    3.11
 -14   8   2   36.22    2.90
  14  -8  -2   36.20    3.18
 -14   8   1   30.86    2.76
  14   8  -1   29.10    2.76
 -14  -8   1   28.31    3.02
  14  -8  -1   28.66    2.83
 -14   8   0   10.86    1.86
  14   8   0    6.14    1.65
 -14  -8   0    8.64    1.76
 -14   8  -1   -0.09    1.01
 -14  -8  -1    0.28    1.27
 -14   8  -2    7.61    1.45
 -14  -8  -2    4.18    1.51
  14   9 -12    4.50    1.58
  14   9 -11   37.43    3.02
  14  -9 -11   36.46    3.07
  14   9 -10    6.90    1.58
  14  -9 -10    6.89    1.60
  14   9  -9    7.64    1.60
  14  -9  -9    8.96    1.71
  14   9  -8   -0.66    0.96
  14  -9  -8    0.37    1.10
 -14   9   7    9.34    1.47
  14   9  -7   12.73    1.95
  14  -9  -7   12.92    1.98
  14   9  -6    6.85    1.55
 -14   9   6    5.50    1.28
  14  -9  -6    8.96    1.75
  14   9  -5   36.46    3.20
 -14   9   5   37.76    2.71
  14  -9  -5   42.20    3.43
  14   9  -4   11.02    1.98
  14  -9  -4   14.24    2.21
  14   9  -3   15.31    2.24
  14  -9  -3   21.40    2.56
  14   9  -2   -1.25    1.10
 -14   9   2    3.77    1.25
  14  -9  -2   -0.58    1.17
 -14   9   1   12.32    1.82
  14   9  -1   10.32    1.90
  14  -9  -1   10.10    1.95
  14   9   0    9.53    1.81
 -14   9   0   11.02    1.79
 -14  -9   0   15.17    2.38
 -14  -9  -1   33.56    3.36
  14  10 -10   10.87    1.91
  14  10  -9    1.34    1.31
  14 -10  -9    1.77    1.24
  14  10  -8   35.61    3.15
  14 -10  -8   38.28    3.20
  14  10  -7    0.38    1.05
  14 -10  -7    4.21    1.46
  14  10  -6   13.75    2.13
  14 -10  -6   15.37    2.22
  14  10  -5    0.95    1.09
  14 -10  -5    0.27    1.04
  14  10  -4    5.77    1.53
  14 -10  -4    6.29    1.69
  14  10  -3    3.17    1.35
  14 -10  -3    3.89    1.51
  14  10  -2   51.40    3.95
  14 -10  -2   50.06    3.88
  14  10  -1    5.31    1.58
 -14  10   1    8.31    1.44
  14  10   0   11.09    2.05
  14 -11  -6    2.21    1.40
  14 -11  -5   39.59    3.53
  14 -11  -4   -0.12    1.25
  14 -11  -3   10.84    2.06
  15   0 -12   38.48    2.64
  15   0 -11    1.62    0.87
  15   0 -10  100.10    5.46
  15   0  -9    1.23    0.81
  15   0  -8   20.08    1.91
  15   0  -7    0.42    0.85
  15   0  -6   39.48    2.88
  15   0  -5   -0.35    0.84
  15   0  -4  172.62    8.88
 -15   0   3    0.70    0.89
  15   0  -3    1.12    0.87
  15   0  -2   23.17    2.46
 -15   0   2   22.84    2.19
  15   0  -1    0.62    0.91
 -15   0   1   -0.75    0.75
  15   0   0   28.71    2.60
 -15   0   0   34.92    2.88
 -15   0  -1   -0.73    0.79
  15   0   1    0.67    1.03
 -15   0  -2   92.59    5.64
 -15   0  -3   -1.92    0.93
 -15   0  -4   15.69    2.23
  15   1 -12    5.82    1.17
  15  -1 -12    5.21    1.11
  15   1 -11    8.23    1.38
  15  -1 -11   10.69    1.45
  15   1 -10   -1.07    0.65
  15  -1 -10   -0.36    0.74
  15   1  -9   32.82    2.50
  15  -1  -9   34.06    2.56
  15   1  -8    5.75    1.26
  15  -1  -8    7.40    1.31
  15   1  -7  126.50    6.80
  15  -1  -7  131.81    6.86
  15   1  -6    4.12    1.11
  15  -1  -6    4.29    1.19
  15   1  -5   17.22    2.01
  15  -1  -5   19.08    2.14
  15   1  -4    2.65    1.12
  15  -1  -4    0.53    1.03
  15   1  -3   43.84    3.12
 -15   1   3   41.27    3.04
  15  -1  -3   42.30    3.17
 -15  -1   3   41.62    3.03
 -15   1   2    5.77    1.28
  15   1  -2    7.16    1.42
 -15  -1   2    4.79    1.28
  15  -1  -2    5.63    1.36
 -15   1   1  118.58    6.31
  15   1  -1  110.22    6.26
  15  -1  -1  108.04    6.22
 -15  -1   1  106.48    6.23
 -15   1   0    6.51    1.45
  15   1   0    4.52    1.28
 -15  -1   0    5.55    1.35
  15  -1   0    3.47    1.17
 -15   1  -1   18.94    2.27
  15   1   1   17.19    2.22
 -15  -1  -1   18.54    2.26
 -15   1  -2   -0.19    1.07
 -15  -1  -2   -0.17    0.95
 -15   1  -3   17.60    2.39
 -15  -1  -3   17.81    2.41
 -15   1  -4    3.14    1.38
 -15  -1  -4    2.97    1.44
  15   2 -12   21.40    1.94
  15  -2 -12   18.88    1.95
  15   2 -11   26.45    2.17
  15  -2 -11   22.60    2.07
  15   2 -10   66.00    4.00
  15  -2 -10   68.43    4.07
  15   2  -9    9.98    1.48
  15  -2  -9   12.31    1.67
  15   2  -8   15.80    1.88
  15  -2  -8   16.36    1.97
  15   2  -7    1.67    0.94
  15  -2  -7   -0.09    0.82
  15   2  -6   31.53    2.54
  15  -2  -6   32.76    2.60
  15   2  -5   28.95    2.43
  15  -2  -5   27.26    2.41
  15   2  -4  102.15    5.75
  15  -2  -4  101.45    5.79
  15   2  -3   25.44    2.33
 -15   2   3   23.76    2.28
  15  -2  -3   23.59    2.38
  15   2  -2   10.49    1.68
 -15   2   2   10.48    1.61
 -15  -2   2   12.95    1.75
  15  -2  -2   11.22    1.81
 -15   2   1   -0.40    0.88
  15   2  -1    0.05    0.97
  15  -2  -1    0.12    0.79
 -15  -2   1   -0.42    0.94
 -15   2   0   22.47    2.23
  15   2   0   20.17    2.30
 -15  -2   0   24.30    2.59
  15  -2   0   17.03    2.22
 -15   2  -1   27.35    2.61
  15   2   1   23.91    2.64
 -15  -2  -1   26.11    2.90
 -15  -2  -2   68.00    4.64
 -15   2  -3   12.79    2.10
 -15  -2  -3   14.12    2.24
 -15   3  13   28.76    2.20
  15  -3 -13   30.00    2.33
  15   3 -12   25.39    2.16
  15  -3 -12   25.30    2.19
  15   3 -11    2.55    0.96
  15  -3 -11    1.54    0.87
  15   3 -10    1.77    0.88
  15  -3 -10    3.51    1.06
  15   3  -9   15.95    1.78
  15  -3  -9   10.63    1.57
  15   3  -8   46.83    3.18
  15  -3  -8   46.93    3.25
  15   3  -7   52.87    3.53
  15  -3  -7   54.55    3.61
  15   3  -6   42.36    3.06
  15  -3  -6   40.45    3.00
  15   3  -5   11.22    1.67
  15  -3  -5   10.22    1.61
  15   3  -4    0.16    0.80
  15  -3  -4    0.63    0.91
 -15   3   3   16.97    2.02
  15   3  -3   15.07    2.04
  15  -3  -3   17.23    2.14
  15   3  -2   52.15    3.67
 -15   3   2   54.88    3.69
 -15  -3   2   52.91    3.71
  15  -3  -2   56.46    3.81
  15   3  -1   40.11    3.18
 -15   3   1   44.14    3.18
  15  -3  -1   41.95    3.18
 -15  -3   1   42.66    3.27
 -15   3   0   35.85    2.95
  15   3   0   33.20    2.81
  15  -3   0   32.21    2.78
 -15  -3   0   35.24    3.01
  15   3   1    9.09    1.70
 -15   3  -1   10.47    1.84
 -15  -3  -1   10.78    1.93
 -15   3  -2    1.17    1.14
 -15  -3  -2    1.49    1.32
 -15   3  -3    8.09    1.71
 -15  -3  -3   10.41    1.95
  15  -4 -13    1.13    0.87
  15   4 -12    9.04    1.40
 -15   4  12    5.00    1.11
  15  -4 -12    8.76    1.41
  15   4 -11   59.26    3.72
  15  -4 -11   61.09    3.80
  15   4 -10   11.76    1.63
  15  -4 -10    9.48    1.52
  15   4  -9   32.09    2.55
  15  -4  -9   33.21    2.64
  15   4  -8    2.95    1.06
  15  -4  -8    2.46    1.03
  15   4  -7    3.72    1.14
  15  -4  -7    3.34    1.10
  15   4  -6    4.35    1.17
  15  -4  -6    4.09    1.27
  15   4  -5   68.90    4.27
  15  -4  -5   68.53    4.35
  15   4  -4   21.02    2.37
  15  -4  -4   16.77    2.10
  15   4  -3   53.74    3.64
 -15   4   3   53.42    3.60
  15  -4  -3   51.34    3.69
  15   4  -2    1.32    1.05
 -15   4   2   -0.29    0.88
  15  -4  -2    0.79    0.96
 -15  -4   2    1.24    0.98
 -15   4   1    2.20    1.11
  15   4  -1    1.62    1.00
 -15  -4   1    1.13    1.03
  15  -4  -1    1.91    1.19
 -15   4   0    0.18    0.84
  15   4   0    2.17    1.20
 -15  -4   0    0.45    1.06
  15  -4   0    2.14    1.10
 -15   4  -1   50.44    3.87
 -15  -4  -1   58.82    4.00
 -15   4  -2   15.51    2.14
 -15  -4  -2   10.80    2.08
 -15   4  -3   35.41    3.19
 -15  -4  -3   36.12    3.18
  15  -5 -13    1.23    0.92
  15   5 -12   29.55    2.50
 -15   5  12   36.18    2.44
  15  -5 -12   32.74    2.56
  15   5 -11   -0.10    0.78
 -15   5  11   -0.70    0.67
  15  -5 -11    0.00    0.87
  15   5 -10    3.27    1.09
 -15   5  10    3.70    0.97
  15  -5 -10    5.20    1.26
  15   5  -9   -0.22    0.76
  15  -5  -9    0.03    0.90
  15   5  -8   73.83    4.27
  15  -5  -8   62.95    4.25
  15   5  -7    0.13    0.89
  15  -5  -7    0.25    0.95
  15   5  -6   41.18    3.15
  15  -5  -6   44.63    3.23
  15   5  -5    1.10    0.94
  15  -5  -5    2.78    1.20
  15   5  -4    0.07    0.93
  15  -5  -4    0.99    1.01
  15   5  -3    2.73    1.22
  15  -5  -3    2.28    1.21
 -15   5   2   81.23    4.80
  15   5  -2   75.53    4.82
 -15  -5   2   79.11    5.14
  15  -5  -2   70.33    4.68
  15   5  -1    0.33    0.95
 -15   5   1    1.25    1.02
  15  -5  -1    0.46    0.99
 -15  -5   1    1.20    1.10
  15   5   0   50.68    3.81
 -15   5   0   62.88    4.09
  15  -5   0   56.90    4.02
 -15  -5   0   55.83    4.06
 -15   5  -1   -0.09    0.98
 -15  -5  -1    0.65    1.08
 -15   5  -2    0.73    1.07
 -15  -5  -2   -0.26    1.00
  15  -6 -13   -0.36    0.85
  15   6 -12   -0.52    0.83
  15  -6 -12   -1.19    0.74
 -15   6  11   54.29    3.27
  15   6 -11   57.08    3.70
  15  -6 -11   54.72    3.70
  15   6 -10    3.92    1.16
 -15   6  10    2.82    0.99
  15  -6 -10    2.88    1.12
 -15   6   9   41.49    2.80
  15   6  -9   49.56    3.35
  15  -6  -9   43.46    3.31
  15   6  -8    0.35    1.02
  15  -6  -8    1.35    1.07
  15   6  -7    4.14    1.23
  15  -6  -7    7.06    1.54
  15   6  -6    0.46    0.97
  15  -6  -6    3.54    1.25
  15   6  -5   58.98    3.95
  15  -6  -5   62.72    4.10
  15   6  -4    2.63    1.13
  15  -6  -4    3.61    1.38
  15   6  -3   50.29    3.72
  15  -6  -3   59.35    4.01
 -15   6   2   -0.11    0.83
  15   6  -2   -0.46    1.02
  15  -6  -2   -1.35    0.82
  15   6  -1    0.07    0.99
 -15   6   1    1.31    0.91
 -15  -6   1    0.54    1.18
  15  -6  -1   -0.25    1.01
  15   6   0   -0.76    0.88
 -15   6   0    0.61    0.91
 -15  -6   0    1.09    1.14
 -15   6  -1   52.81    3.93
 -15  -6  -1   54.49    4.01
 -15   6  -2    4.70    1.41
 -15  -6  -2    0.96    1.26
  15  -7 -13    8.76    1.54
  15   7 -12   21.04    2.22
  15  -7 -12   17.14    2.11
  15   7 -11    0.72    1.02
  15  -7 -11    2.16    1.09
  15   7 -10    3.41    1.23
 -15   7  10    1.77    0.94
  15  -7 -10    2.41    1.16
  15   7  -9    3.99    1.35
 -15   7   9    1.94    0.95
  15  -7  -9    3.41    1.31
  15   7  -8   51.00    3.63
  15  -7  -8   58.62    3.93
  15   7  -7   20.14    2.32
  15  -7  -7   15.81    2.24
  15   7  -6   24.07    2.46
  15  -7  -6   25.73    2.77
  15   7  -5    0.38    0.97
  15  -7  -5    0.25    1.21
  15   7  -4   -0.49    0.89
  15  -7  -4   -0.53    0.88
  15   7  -3    5.60    1.52
  15  -7  -3    5.98    1.49
 -15   7   2   50.26    3.61
  15   7  -2   51.56    3.77
  15  -7  -2   53.72    3.93
  15   7  -1   16.73    2.32
 -15   7   1   13.42    2.08
 -15  -7   1   11.91    2.08
  15  -7  -1   16.42    2.31
  15   7   0   35.76    3.22
 -15   7   0   34.08    3.08
 -15  -7   0   34.91    3.16
 -15   7  -1    3.79    1.16
 -15  -7  -1    0.53    1.17
  15   8 -12    7.54    1.63
  15   8 -11   22.74    2.48
  15  -8 -11   27.04    2.60
  15   8 -10   21.68    2.42
  15  -8 -10   19.04    2.33
  15   8  -9   14.35    2.07
  15  -8  -9   19.29    2.31
 -15   8   8    2.76    1.10
  15   8  -8    4.35    1.36
  15  -8  -8    5.41    1.44
  15   8  -7    2.96    1.29
  15  -8  -7    2.38    1.37
  15   8  -6   12.84    2.03
  15  -8  -6   13.28    2.04
  15   8  -5   24.61    2.72
  15  -8  -5   24.06    2.83
  15   8  -4   36.08    3.14
  15  -8  -4   33.92    3.07
  15   8  -3   26.21    2.86
  15  -8  -3   22.75    2.63
 -15   8   2    4.11    1.32
  15   8  -2    2.82    1.30
  15  -8  -2    4.45    1.53
  15   8  -1    0.48    1.22
 -15   8   1    1.33    1.02
  15  -8  -1   -1.09    1.10
  15   8   0    2.90    1.43
 -15   8   0    7.81    1.44
 -15  -8   0    2.11    1.36
  15   9 -10    0.34    1.14
  15  -9 -10   -0.19    1.07
  15   9  -9    8.47    1.74
  15  -9  -9   10.61    1.83
  15   9  -8   15.54    2.18
  15  -9  -8   16.74    2.25
  15   9  -7   42.73    3.46
  15  -9  -7   45.10    3.58
  15   9  -6    5.32    1.57
  15  -9  -6    8.25    1.83
  15   9  -5    1.40    1.21
  15  -9  -5    2.71    1.43
  15   9  -4   -1.40    1.06
  15  -9  -4    0.31    1.17
  15   9  -3   12.70    2.11
  15  -9  -3   17.28    2.35
  15   9  -2   12.59    2.12
  15  -9  -2   12.48    2.13
  15   9  -1   32.45    3.45
 -15   9   1   35.77    2.93
  15 -10  -6   15.64    2.37
  15 -10  -5    3.37    1.47
  15 -10  -4   36.83    3.48
  16   0 -12   62.32    3.83
  16   0 -11    1.41    0.89
  16   0 -10    0.87    0.93
  16   0  -9   -0.52    0.80
  16   0  -8   49.16    3.43
  16   0  -7   -1.12    0.83
  16   0  -6   75.70    4.64
  16   0  -5    0.27    0.97
  16   0  -4    8.59    1.63
  16   0  -3   -0.83    0.83
  16   0  -2   53.23    3.81
 -16   0   2   53.46    3.80
 -16   0   1    0.28    1.12
  16   0  -1   -1.15    0.93
  16   0   0   82.21    5.22
 -16   0   0   87.09    5.37
 -16   0  -1   -1.92    0.78
 -16   0  -2    7.70    1.72
  16  -1 -13    2.30    1.03
  16   1 -12   -0.13    0.81
  16  -1 -12   -0.40    0.82
  16   1 -11   51.01    3.33
  16  -1 -11   49.28    3.36
  16   1 -10    6.98    1.37
  16  -1 -10    8.26    1.46
  16   1  -9   68.12    4.19
  16  -1  -9   68.29    4.21
  16   1  -8    3.45    1.20
  16  -1  -8    4.45    1.26
  16   1  -7    6.25    1.34
  16  -1  -7    6.48    1.46
  16   1  -6    1.84    0.97
  16  -1  -6   -0.60    0.91
  16   1  -5   55.80    3.79
  16  -1  -5   56.37    3.81
  16   1  -4    5.90    1.41
  16  -1  -4    6.77    1.50
  16   1  -3   87.44    5.26
  16  -1  -3   82.93    5.13
  16   1  -2    7.54    1.64
 -16   1   2    7.93    1.55
 -16  -1   2    7.46    1.59
  16  -1  -2    6.10    1.55
  16   1  -1    4.73    1.37
 -16   1   1    6.09    1.51
  16  -1  -1    6.57    1.47
 -16  -1   1    6.34    1.55
 -16   1   0    1.22    1.14
  16   1   0    0.03    1.07
 -16  -1   0   -0.52    1.06
  16  -1   0    1.04    1.16
 -16   1  -1   33.27    3.16
 -16  -1  -1   40.45    3.31
 -16   1  -2    6.35    1.58
 -16  -1  -2    6.51    1.73
  16  -2 -13   12.48    1.62
  16   2 -12   40.07    2.85
  16  -2 -12   40.82    2.91
  16   2 -11   12.32    1.67
  16  -2 -11   12.65    1.73
  16   2 -10    1.98    0.99
  16  -2 -10    1.50    0.99
  16   2  -9    2.36    1.10
  16  -2  -9    2.96    1.04
  16   2  -8   39.51    3.01
  16  -2  -8   40.20    3.07
  16   2  -7   27.74    2.51
  16  -2  -7   27.00    2.43
  16   2  -6   53.43    3.85
  16  -2  -6   64.22    4.00
  16   2  -5    9.03    1.68
  16  -2  -5   11.14    1.76
  16   2  -4    6.56    1.49
  16  -2  -4    7.76    1.66
  16   2  -3    0.30    0.99
  16  -2  -3    0.29    0.94
 -16   2   2   32.94    2.80
  16   2  -2   30.88    2.87
 -16  -2   2   36.15    2.96
  16  -2  -2   28.02    2.83
  16   2  -1   25.43    2.50
 -16   2   1   27.37    2.61
 -16  -2   1   21.98    2.53
  16  -2  -1   28.87    2.60
 -16   2   0   54.10    3.96
  16   2   0   55.17    3.89
  16  -2   0   56.39    3.98
 -16  -2   0   55.19    4.06
 -16   2  -1   11.57    2.05
 -16  -2  -1   15.16    2.29
 -16   2  -2    4.86    1.44
 -16  -2  -2    3.54    1.46
  16  -3 -13    1.63    0.95
  16   3 -12    2.16    1.07
  16  -3 -12    2.68    1.03
  16   3 -11   15.58    1.92
  16  -3 -11   16.61    1.98
  16   3 -10   41.11    3.04
  16  -3 -10   45.69    3.19
  16   3  -9   27.09    2.39
  16  -3  -9   26.85    2.47
  16   3  -8   25.98    2.36
  16  -3  -8   23.19    2.51
  16   3  -7    0.32    0.87
  16  -3  -7    0.30    0.99
  16   3  -6    3.61    1.21
  16  -3  -6    3.13    1.28
  16   3  -5   16.95    2.17
  16  -3  -5   15.96    2.19
  16   3  -4   46.00    3.47
  16  -3  -4   52.63    3.70
  16   3  -3   30.61    2.89
  16  -3  -3   37.45    2.99
 -16   3   2   30.99    2.85
  16   3  -2   35.85    3.05
  16  -3  -2   35.46    2.95
 -16   3   1    5.16    1.46
  16   3  -1    6.13    1.50
 -16  -3   1    4.05    1.46
  16  -3  -1    4.80    1.43
 -16   3   0    1.02    1.06
  16   3   0    0.31    1.13
 -16  -3   0    1.22    1.16
  16  -3   0    1.89    1.25
 -16   3  -1   18.70    2.31
 -16  -3  -1   17.49    2.45
 -16   3  -2   28.10    2.91
 -16  -3  -2   35.86    3.21
  16  -4 -13   38.13    2.86
  16   4 -12    7.79    1.43
  16  -4 -12    7.92    1.42
  16   4 -11   23.51    2.23
  16  -4 -11   25.43    2.31
  16   4 -10    0.20    0.89
  16  -4 -10    1.16    0.97
  16   4  -9    5.86    1.39
  16  -4  -9    7.68    1.49
  16   4  -8    7.08    1.44
  16  -4  -8    8.12    1.56
  16   4  -7   77.18    4.60
  16  -4  -7   68.37    4.48
  16   4  -6   10.24    1.62
  16  -4  -6    9.62    1.72
  16   4  -5   51.85    3.56
  16  -4  -5   46.22    3.50
  16   4  -4    2.64    1.21
  16  -4  -4    1.42    1.05
  16   4  -3    1.84    1.27
  16  -4  -3    3.99    1.42
 -16   4   2    6.92    1.49
  16   4  -2    6.63    1.55
  16  -4  -2    6.50    1.59
  16   4  -1   56.82    4.06
 -16   4   1   64.68    4.14
  16  -4  -1   60.42    4.21
 -16  -4   1   54.85    4.12
  16   4   0   10.71    1.91
 -16   4   0   10.41    1.90
 -16  -4   0   10.43    1.98
 -16   4  -1   33.99    3.02
 -16  -4  -1   32.71    3.02
  16  -5 -13    0.95    0.84
  16   5 -12    6.40    1.38
  16  -5 -12    8.34    1.48
  16   5 -11    0.29    0.93
  16  -5 -11   -1.00    0.89
  16   5 -10   59.86    3.82
  16  -5 -10   55.68    3.86
  16   5  -9    1.00    0.98
  16  -5  -9    0.87    1.06
  16   5  -8   30.57    2.66
  16  -5  -8   30.41    2.78
  16   5  -7   -0.69    0.92
  16  -5  -7   -0.01    0.91
  16   5  -6    6.79    1.55
  16  -5  -6    4.82    1.44
  16   5  -5   -0.80    0.96
  16  -5  -5   -0.01    0.92
  16   5  -4   71.88    4.76
  16  -5  -4   78.09    4.88
  16   5  -3    3.65    1.39
  16  -5  -3    2.98    1.20
 -16   5   2   44.75    3.30
  16   5  -2   35.67    3.20
  16  -5  -2   35.97    3.17
  16   5  -1    0.62    1.12
 -16   5   1    0.36    1.01
 -16  -5   1   -0.69    1.08
  16  -5  -1   -0.41    0.96
  16   5   0    1.46    1.28
 -16   5   0    0.31    0.90
 -16  -5   0   -0.01    1.05
 -16   5  -1    0.76    1.03
 -16  -5  -1    2.00    1.36
  16  -6 -13   35.73    2.89
  16   6 -12   -0.54    0.96
  16  -6 -12   -0.54    0.87
  16   6 -11   20.93    2.27
  16  -6 -11   18.01    2.26
  16   6 -10    0.71    0.98
  16  -6 -10   -0.72    0.94
  16   6  -9    6.20    1.45
  16  -6  -9    2.13    1.24
  16   6  -8    1.23    1.13
  16  -6  -8    1.02    1.12
  16   6  -7   68.52    4.47
  16  -6  -7   68.86    4.57
  16   6  -6    1.43    1.16
  16  -6  -6    4.32    1.42
  16   6  -5   38.40    3.22
  16  -6  -5   41.68    3.30
  16   6  -4   -0.60    1.05
  16  -6  -4    0.76    1.09
  16   6  -3   10.54    1.92
  16  -6  -3    9.02    1.76
 -16   6   2    0.35    0.97
  16   6  -2    0.61    1.23
  16  -6  -2    2.74    1.32
 -16   6   1   56.65    3.98
  16   6  -1   52.27    3.92
  16  -6  -1   50.85    4.01
 -16   6   0    2.45    1.19
  16   6   0   -0.12    1.03
 -16  -6   0    0.90    1.18
  16   7 -12    6.30    1.52
  16   7 -11    6.41    1.54
  16  -7 -11    6.13    1.45
  16   7 -10   36.57    3.03
  16  -7 -10   36.97    3.13
  16   7  -9    7.50    1.58
  16  -7  -9    8.34    1.74
  16   7  -8   27.29    2.70
  16  -7  -8   30.42    2.92
  16   7  -7   -0.88    0.99
  16  -7  -7    1.32    1.19
  16   7  -6    3.80    1.39
  16  -7  -6    4.49    1.49
  16   7  -5   11.46    1.95
  16  -7  -5   10.55    2.00
  16   7  -4   58.47    4.11
  16  -7  -4   57.34    4.21
  16   7  -3    9.23    1.91
  16  -7  -3   10.15    1.98
  16   7  -2   21.91    2.73
  16  -7  -2   22.82    2.65
  16   7  -1   -1.01    1.19
  16  -7  -1    1.06    1.02
 -16  -7   0    0.79    1.27
  16   8 -10   -0.21    1.06
  16   8  -9    2.67    1.34
  16  -8  -9    1.69    1.30
  16   8  -8   10.10    1.90
  16  -8  -8   11.16    2.00
  16   8  -7   33.83    3.08
  16  -8  -7   33.89    3.17
  16   8  -6   23.27    2.80
  16  -8  -6   20.00    2.53
  16   8  -5   18.80    2.43
  16  -8  -5   11.70    2.05
  16   8  -4    1.72    1.17
  16  -8  -4    1.74    1.22
  16   8  -3    1.81    1.40
  16  -8  -3    5.48    1.52
  16   8  -2   10.95    2.07
  16  -8  -2   14.68    2.39
  17   0 -13   -1.30    0.78
  17   0 -12   -0.86    0.76
  17   0 -11    0.37    0.92
  17   0 -10   58.24    3.83
  17   0  -9   -0.15    0.86
  17   0  -8   61.64    4.12
  17   0  -7   -1.10    0.90
  17   0  -6    0.61    0.94
  17   0  -5    1.07    1.11
  17   0  -4   47.69    3.65
  17   0  -3    0.49    1.01
  17   0  -2   71.56    4.77
  17   0  -1   -1.91    0.99
 -17   0   1   -0.29    1.11
 -17   0   0    0.43    1.19
 -17   0  -1   -0.39    1.00
  17  -1 -13   27.76    2.37
  17   1 -12    3.93    1.25
  17  -1 -12    4.01    1.22
  17   1 -11   46.10    3.31
  17  -1 -11   48.72    3.35
  17   1 -10    1.71    1.02
  17  -1 -10    1.16    1.00
  17   1  -9    0.29    0.94
  17  -1  -9    0.57    0.99
  17   1  -8    0.54    1.01
  17  -1  -8    0.95    1.06
  17   1  -7   49.98    3.57
  17  -1  -7   50.64    3.69
  17   1  -6    7.26    1.60
  17  -1  -6    8.81    1.66
  17   1  -5   61.16    4.09
  17  -1  -5   51.33    3.93
  17   1  -4    2.01    1.31
  17  -1  -4    3.36    1.27
  17   1  -3    2.74    1.25
  17  -1  -3    2.53    1.29
  17   1  -2    2.35    1.20
  17  -1  -2    1.82    1.22
  17   1  -1   45.09    3.71
 -17   1   1   44.78    3.60
 -17  -1   1   58.98    3.91
  17  -1  -1   48.31    3.78
 -17   1   0    4.39    1.57
 -17  -1   0    5.46    1.58
  17  -2 -13    4.23    1.17
  17   2 -12   -0.02    0.88
  17  -2 -12    0.52    0.92
  17   2 -11    3.50    1.19
  17  -2 -11    2.45    1.06
  17   2 -10   32.39    2.73
  17  -2 -10   34.42    2.88
  17   2  -9   25.64    2.42
  17  -2  -9   21.60    2.48
  17   2  -8   35.68    3.05
  17  -2  -8   43.02    3.24
  17   2  -7   11.70    1.84
  17  -2  -7   11.79    1.84
  17   2  -6    1.27    1.17
  17  -2  -6    1.54    1.14
  17   2  -5    4.89    1.35
  17  -2  -5    4.70    1.37
  17   2  -4   31.55    2.93
  17  -2  -4   31.16    2.91
  17   2  -3   28.17    2.68
  17  -2  -3   26.71    2.66
  17   2  -2   49.16    3.73
  17  -2  -2   52.28    3.88
  17   2  -1    7.89    1.67
 -17   2   1    6.39    1.52
 -17  -2   1    7.04    1.65
  17  -2  -1    8.58    1.83
 -17   2   0    0.09    1.03
 -17  -2   0   -0.89    1.14
  17  -3 -13   11.21    1.62
  17   3 -12   31.11    2.62
  17  -3 -12   30.89    2.66
  17   3 -11   20.85    2.29
  17  -3 -11   23.35    2.27
  17   3 -10    9.53    1.63
  17  -3 -10   10.29    1.71
  17   3  -9   -0.78    0.85
  17  -3  -9   -0.08    0.95
  17   3  -8    3.54    1.27
  17  -3  -8    3.83    1.26
  17   3  -7   26.64    2.61
  17  -3  -7   26.17    2.66
  17   3  -6   64.82    4.33
  17  -3  -6   63.43    4.36
  17   3  -5   24.42    2.54
  17  -3  -5   32.01    2.93
  17   3  -4   18.47    2.36
  17  -3  -4   17.54    2.31
  17   3  -3    0.49    1.17
  17  -3  -3    0.16    1.13
  17   3  -2    5.22    1.52
  17  -3  -2    7.50    1.69
 -17   3   1   15.68    2.21
  17   3  -1   12.94    2.09
 -17  -3   1   14.55    2.14
  17  -3  -1   14.45    2.24
 -17  -3   0   36.75    3.33
  17  -4 -13    8.86    1.56
  17   4 -12    0.89    0.93
  17  -4 -12   -0.59    0.94
  17   4 -11    9.14    1.63
  17  -4 -11    7.80    1.57
  17   4 -10    6.16    1.42
  17  -4 -10    4.43    1.39
  17   4  -9   44.21    3.38
  17  -4  -9   47.95    3.44
  17   4  -8    8.18    1.62
  17  -4  -8    9.68    1.72
  17   4  -7   26.67    2.63
  17  -4  -7   29.17    2.69
  17   4  -6    0.44    1.05
  17  -4  -6    0.09    1.04
  17   4  -5   11.53    1.94
  17  -4  -5   13.31    2.02
  17   4  -4    9.01    1.82
  17  -4  -4   13.00    2.05
  17   4  -3   70.40    4.77
  17  -4  -3   71.73    4.84
  17   4  -2    8.81    1.78
  17  -4  -2   10.32    1.98
 -17   4   1   17.47    2.44
  17   4  -1   23.31    2.63
  17  -4  -1   19.14    2.44
 -17   4   0    2.44    1.14
 -17  -4   0    6.19    1.31
  17   5 -12   50.07    3.47
  17  -5 -12   44.86    3.35
  17   5 -11    0.01    1.01
  17  -5 -11    1.14    1.06
  17   5 -10   18.33    2.27
  17  -5 -10   18.83    2.28
  17   5  -9    0.38    0.98
  17  -5  -9   -0.62    0.97
  17   5  -8    8.31    1.70
  17  -5  -8    4.92    1.40
  17   5  -7   -0.86    0.94
  17  -5  -7   -0.83    1.01
  17   5  -6   79.94    5.04
  17  -5  -6   77.98    5.01
  17   5  -5    0.72    1.12
  17  -5  -5    0.27    1.17
  17   5  -4   21.89    2.71
  17  -5  -4   26.00    2.90
  17   5  -3    0.08    1.14
  17  -5  -3   -0.62    1.00
  17   5  -2   10.37    1.95
  17  -5  -2    7.82    1.84
  17   5  -1    0.39    1.22
  17  -5  -1    0.57    1.13
  17   6 -11    8.53    1.68
  17   6 -10    0.78    1.08
  17  -6 -10    1.48    1.21
  17   6  -9   51.94    3.78
  17  -6  -9   53.39    3.94
  17   6  -8    0.48    1.11
  17  -6  -8    1.06    1.27
  17   6  -7   22.89    2.62
  17  -6  -7   18.75    2.45
  17   6  -6    0.15    0.94
  17  -6  -6    0.39    1.01
  17   6  -5   11.90    2.02
  17  -6  -5   10.95    2.03
  17   6  -4   -1.32    1.10
  17  -6  -4    0.18    1.10
  17   6  -3   57.65    4.23
  17  -6  -3   59.35    4.35
  17   6  -2    1.76    1.40
  17  -6  -2    2.59    1.41
  17   7  -8    6.49    1.63
  17  -7  -8    4.76    1.57
  17   7  -7    0.40    1.15
  17  -7  -7    2.66    1.41
  17   7  -6   48.01    3.71
  17  -7  -6   42.46    3.68
  17   7  -5    5.65    1.58
  17  -7  -5    4.35    1.61
  17  -7  -4   14.30    2.36
  18   0 -12   38.18    3.01
  18   0 -11   -0.89    0.90
  18   0 -10   34.78    2.93
  18   0  -9   -0.45    1.00
  18   0  -8    0.83    0.99
  18   0  -7    1.12    1.10
  18   0  -6   63.36    4.34
  18   0  -5    0.12    1.15
  18   0  -4   48.68    3.83
  18   0  -3   -0.76    1.01
  18   0  -2    0.15    1.13
  18   0  -1   -1.44    1.17
  18   1 -12   -0.43    0.90
  18  -1 -12   -0.26    0.86
  18   1 -11    0.58    1.02
  18  -1 -11    2.20    1.16
  18   1 -10    2.22    1.18
  18  -1 -10    3.29    1.28
  18   1  -9   41.65    3.32
  18  -1  -9   42.10    3.35
  18   1  -8    4.83    1.53
  18  -1  -8    6.04    1.47
  18   1  -7   47.45    3.80
  18  -1  -7   57.96    3.99
  18   1  -6    0.95    1.06
  18  -1  -6    1.64    1.28
  18   1  -5   -0.18    0.99
  18  -1  -5    0.60    1.07
  18   1  -4   -0.06    1.03
  18  -1  -4    2.28    1.31
  18   1  -3   58.26    4.17
  18  -1  -3   49.87    3.97
  18   1  -2    7.82    1.83
  18  -1  -2    5.69    1.56
  18  -1  -1   35.23    3.25
  18   2 -12   29.69    2.59
  18  -2 -12   24.90    2.53
  18   2 -11   19.17    2.29
  18  -2 -11   20.84    2.40
  18   2 -10   24.38    2.41
  18  -2 -10   22.99    2.60
  18   2  -9    4.79    1.43
  18  -2  -9    3.54    1.40
  18   2  -8    1.42    1.20
  18  -2  -8    0.06    1.05
  18   2  -7    8.21    1.74
  18  -2  -7    9.43    1.81
  18   2  -6   47.16    3.78
  18  -2  -6   54.82    3.96
  18   2  -5   14.82    2.18
  18  -2  -5   15.05    2.16
  18   2  -4   35.27    3.07
  18  -2  -4   31.90    3.15
  18   2  -3    5.56    1.55
  18  -2  -3    5.16    1.47
  18   2  -2    0.52    1.08
  18  -2  -2    1.20    1.21
  18   3 -11   -0.77    0.98
  18  -3 -11   -0.49    0.87
  18   3 -10   11.76    1.84
  18  -3 -10   11.93    1.85
  18   3  -9   20.75    2.50
  18  -3  -9   23.02    2.57
  18   3  -8   33.25    2.99
  18  -3  -8   33.49    3.06
  18   3  -7   23.77    2.80
  18  -3  -7   26.02    2.84
  18   3  -6    8.44    1.81
  18  -3  -6    6.36    1.67
  18   3  -5    0.08    1.17
  18  -3  -5    1.99    1.32
  18   3  -4    8.90    1.87
  18  -3  -4    9.87    1.92
  18   3  -3   18.64    2.50
  18  -3  -3   21.71    2.76
  18  -3  -2   42.89    3.68
  18   4 -10    5.55    1.50
  18  -4 -10    5.90    1.49
  18   4  -9    3.58    1.37
  18  -4  -9    7.00    1.62
  18   4  -8   -0.82    1.03
  18  -4  -8    1.10    1.08
  18   4  -7   14.82    2.28
  18  -4  -7   19.73    2.51
  18   4  -6   10.95    1.99
  18  -4  -6   10.70    1.99
  18   4  -5   45.11    3.55
  18  -4  -5   42.47    3.56
  18   4  -4    7.38    1.69
  18  -4  -4    8.31    1.82
  18  -4  -3   14.95    2.29
  18   5  -8   48.10    3.77
  18  -5  -8   48.44    4.18
  18   5  -7    1.29    1.28
  18  -5  -7    1.55    1.31
  18   5  -6    9.41    1.87
  18  -5  -6    8.42    1.92
  18  -5  -5    0.00    1.35
  19   0  -7    2.21    1.40
   0   0   0    0.00    0.00
;
_shelx_hkl_checksum              16521
loop_
_space_group_symop_operation_xyz
'x, y, z'
'-x, y+1/2, -z+1/2'
'-x, -y, -z'
'x, -y-1/2, z-1/2'
loop_
_atom_site_label
_atom_site_type_symbol
_atom_site_fract_x
_atom_site_fract_y
_atom_site_fract_z
_atom_site_U_iso_or_equiv
_atom_site_adp_type
_atom_site_occupancy
_atom_site_site_symmetry_order
_atom_site_calc_flag
_atom_site_refinement_flags_occupancy
Pu1 Pu 0.31041(2) 0.95433(2) 0.16848(2) 0.01244(4) Uani 1 1 d .
O2 O 0.5301(3) 1.0252(3) 0.1782(3) 0.0229(6) Uani 1 1 d .
O5 O 0.1077(3) 1.0715(3) 0.1610(3) 0.0216(5) Uani 1 1 d .
O1 O 0.4909(3) 0.8587(3) 0.3905(3) 0.0213(5) Uani 1 1 d .
O3 O 0.1059(2) 0.8921(3) -0.0382(3) 0.0242(6) Uani 1 1 d .
O4 O 0.3741(3) 1.1028(3) 0.3827(3) 0.0282(6) Uani 1 1 d .
O6 O 0.6598(3) 1.0636(3) 0.0653(3) 0.0268(7) Uani 1 1 d .
C1 C 0.5546(3) 1.0261(4) 0.0698(4) 0.0184(6) Uani 1 1 d .
C2 C 0.5340(3) 0.9294(4) 0.5026(4) 0.0185(6) Uani 1 1 d .
C3 C 0.0001(3) 0.9484(4) -0.0568(4) 0.0158(6) Uani 1 1 d .
O7 O 0.2893(3) 1.1959(4) 0.0739(4) 0.0380(8) Uani 1 1 d .
O9 O 0.2015(3) 0.8096(4) 0.2955(4) 0.0391(8) Uani 1 1 d .
O8 O 0.3302(4) 0.7045(4) 0.1135(4) 0.0406(9) Uani 1 1 d .
O12 O 0.0607(10) 0.2110(19) 0.3696(14) 0.095(5) Uani 0.5 1 d P
O11 O 0.0780(9) 0.3149(12) 0.2911(12) 0.064(3) Uani 0.5 1 d P
O13 O 0.1608(16) 0.401(2) 0.184(3) 0.058(6) Uani 0.25 1 d P
O14 O 0.109(5) 0.480(6) 0.097(4) 0.19(3) Uani 0.25 1 d P
loop_
_atom_site_aniso_label
_atom_site_aniso_U_11
_atom_site_aniso_U_22
_atom_site_aniso_U_33
_atom_site_aniso_U_23
_atom_site_aniso_U_13
_atom_site_aniso_U_12
Pu1 0.00800(5) 0.01797(6) 0.00995(6) 0.00021(4) 0.00231(4) 0.00002(4)
O2 0.0183(12) 0.0342(16) 0.0167(12) -0.0032(11) 0.0076(10) -0.0051(10)
O5 0.0101(10) 0.0292(14) 0.0206(12) -0.0069(11) 0.0013(9) 0.0021(9)
O1 0.0213(12) 0.0228(13) 0.0161(11) -0.0040(10) 0.0041(9) 0.0051(10)
O3 0.0126(10) 0.0333(16) 0.0228(12) -0.0080(11) 0.0034(9) 0.0045(10)
O4 0.0282(14) 0.0288(15) 0.0175(12) -0.0029(11) -0.0010(10) 0.0130(12)
O6 0.0172(12) 0.0452(19) 0.0207(13) -0.0094(12) 0.0106(10) -0.0143(11)
C1 0.0142(14) 0.0248(18) 0.0168(15) -0.0028(12) 0.0071(11) -0.0047(11)
C2 0.0150(14) 0.0232(17) 0.0156(14) -0.0007(12) 0.0045(11) 0.0033(11)
C3 0.0105(12) 0.0210(15) 0.0138(13) -0.0011(11) 0.0029(10) 0.0009(10)
O7 0.0297(16) 0.0302(17) 0.053(2) 0.0188(16) 0.0162(15) -0.0020(13)
O9 0.0289(16) 0.044(2) 0.0471(19) 0.0222(17) 0.0186(15) 0.0018(14)
O8 0.058(2) 0.0294(17) 0.0244(15) 0.0029(13) 0.0063(15) 0.0147(16)
O12 0.042(5) 0.149(13) 0.081(8) -0.077(9) 0.011(5) -0.001(7)
O11 0.041(5) 0.064(6) 0.073(7) -0.046(5) 0.011(4) 0.009(4)
O13 0.028(7) 0.041(9) 0.077(14) -0.037(10) -0.007(8) 0.004(7)
O14 0.24(5) 0.27(5) 0.11(3) -0.12(3) 0.12(4) -0.22(5)
loop_
_atom_type_symbol
_atom_type_description
_atom_type_scat_dispersion_real
_atom_type_scat_dispersion_imag
_atom_type_scat_source
C C 0.0033 0.0016 'International Tables Vol C Tables 4.2.6.8 and 6.1.1.4'
O O 0.0106 0.0060 'International Tables Vol C Tables 4.2.6.8 and 6.1.1.4'
Pu Pu -9.4100 4.3056 'International Tables Vol C Tables 4.2.6.8 and 6.1.1.4'
H H 0.0000 0.0000 'International Tables Vol C Tables 4.2.6.8 and 6.1.1.4'
loop_
_geom_angle_atom_site_label_1
_geom_angle_atom_site_label_2
_geom_angle_atom_site_label_3
_geom_angle
_geom_angle_site_symmetry_1
_geom_angle_site_symmetry_3
O4 Pu1 O3 136.97(9) . .
O4 Pu1 O7 75.91(12) . .
O3 Pu1 O7 89.09(11) . .
O4 Pu1 O8 137.48(10) . .
O3 Pu1 O8 73.17(11) . .
O7 Pu1 O8 144.16(13) . .
O4 Pu1 O5 72.15(9) . .
O3 Pu1 O5 64.83(9) . .
O7 Pu1 O5 68.34(11) . .
O8 Pu1 O5 126.02(12) . .
O4 Pu1 O2 83.70(10) . .
O3 Pu1 O2 130.16(10) . .
O7 Pu1 O2 72.39(11) . .
O8 Pu1 O2 95.28(12) . .
O5 Pu1 O2 137.67(10) . .
O4 Pu1 O1 64.73(9) . .
O3 Pu1 O1 143.62(10) . .
O7 Pu1 O1 127.28(11) . .
O8 Pu1 O1 75.02(10) . .
O5 Pu1 O1 124.80(9) . .
O2 Pu1 O1 69.82(10) . .
O4 Pu1 O9 83.14(13) . .
O3 Pu1 O9 80.67(11) . .
O7 Pu1 O9 136.31(12) . .
O8 Pu1 O9 72.33(14) . .
O5 Pu1 O9 68.88(11) . .
O2 Pu1 O9 142.92(10) . .
O1 Pu1 O9 73.20(10) . .
O4 Pu1 O6 140.65(11) . 3_675
O3 Pu1 O6 67.10(9) . 3_675
O7 Pu1 O6 74.01(12) . 3_675
O8 Pu1 O6 70.44(12) . 3_675
O5 Pu1 O6 117.87(10) . 3_675
O2 Pu1 O6 63.40(9) . 3_675
O1 Pu1 O6 117.30(10) . 3_675
O9 Pu1 O6 136.16(12) . 3_675
C1 O2 Pu1 122.4(2) . .
C3 O5 Pu1 119.9(2) 3_575 .
C2 O1 Pu1 119.9(2) . .
C3 O3 Pu1 121.0(2) . .
C2 O4 Pu1 121.6(3) 3_676 .
C1 O6 Pu1 120.2(2) . 3_675
O6 C1 O2 126.1(3) . .
O6 C1 C1 117.3(4) . 3_675
O2 C1 C1 116.5(4) . 3_675
O4 C2 O1 126.4(4) 3_676 .
O4 C2 C2 117.1(4) 3_676 3_676
O1 C2 C2 116.5(4) . 3_676
O3 C3 O5 125.9(3) . 3_575
O3 C3 C3 117.7(4) . 3_575
O5 C3 C3 116.5(4) 3_575 3_575
loop_
_geom_bond_atom_site_label_1
_geom_bond_atom_site_label_2
_geom_bond_distance
_geom_bond_site_symmetry_2
Pu1 O4 2.471(3) .
Pu1 O3 2.474(3) .
Pu1 O7 2.490(3) .
Pu1 O8 2.496(4) .
Pu1 O5 2.510(3) .
Pu1 O2 2.518(3) .
Pu1 O1 2.519(3) .
Pu1 O9 2.539(3) .
Pu1 O6 2.566(3) 3_675
O2 C1 1.254(5) .
O5 C3 1.257(4) 3_575
O1 C2 1.252(4) .
O3 C3 1.245(4) .
O4 C2 1.244(4) 3_676
O6 C1 1.253(4) .
O6 Pu1 2.566(3) 3_675
C1 C1 1.537(7) 3_675
C2 O4 1.244(4) 3_676
C2 C2 1.546(7) 3_676
C3 O5 1.257(4) 3_575
C3 C3 1.533(7) 3_575
O12 O11 1.348(18) .
O13 O14 1.14(6) .
