#------------------------------------------------------------------------------
#$Date: 2019-11-23 02:10:03 +0200 (Sat, 23 Nov 2019) $
#$Revision: 231839 $
#$URL: file:///home/coder/svn-repositories/cod/cif/4/34/65/4346561.cif $
#------------------------------------------------------------------------------
#
# This file is available in the Crystallography Open Database (COD),
# http://www.crystallography.net/
#
# All data on this site have been placed in the public domain by the
# contributors.
#
data_4346561
loop_
_publ_author_name
'North, Andrea J.'
'Hayne, David J.'
'Schieber, Christine'
'Price, Katherine'
'White, Anthony R.'
'Crouch, Peter J.'
'Rigopoulos, Angela'
'O'Keefe, Graeme J'
'Tochon-Danguy, Henri'
'Scott, Andrew M.'
'White, Jonathan M.'
'Ackermann, Uwe'
'Donnelly, Paul S.'
_publ_section_title
;
 Toward hypoxia-selective rhenium and technetium tricarbonyl complexes.
;
_journal_issue                   19
_journal_name_full               'Inorganic chemistry'
_journal_page_first              9594
_journal_page_last               9610
_journal_paper_doi               10.1021/acs.inorgchem.5b01691
_journal_volume                  54
_journal_year                    2015
_chemical_formula_sum            'C15 H10 Br N4 O5 Re'
_chemical_formula_weight         592.38
_space_group_crystal_system      triclinic
_space_group_IT_number           2
_space_group_name_Hall           '-P 1'
_space_group_name_H-M_alt        'P -1'
_atom_sites_solution_hydrogens   geom
_audit_creation_method           SHELXL-2014/7
_cell_angle_alpha                77.386(5)
_cell_angle_beta                 88.360(5)
_cell_angle_gamma                86.942(5)
_cell_formula_units_Z            2
_cell_length_a                   7.0457(4)
_cell_length_b                   7.2712(5)
_cell_length_c                   16.6373(6)
_cell_measurement_reflns_used    3025
_cell_measurement_temperature    130.0(2)
_cell_measurement_theta_max      72.7751
_cell_measurement_theta_min      4.0979
_cell_volume                     830.46(8)
_computing_cell_refinement
;
CrysAlis RED, Oxford Diffraction Ltd.,
Version 1.171.32.15 (release 10-01-2008 CrysAlis171 .NET)
(compiled Jan 10 2008,16:37:18)
;
_computing_data_collection
;
CrysAlis CCD, Oxford Diffraction Ltd.,
Version 1.171.32.15 (release 10-01-2008 CrysAlis171 .NET)
(compiled Jan 10 2008,16:37:18)
;
_computing_data_reduction
;
CrysAlis RED, Oxford Diffraction Ltd.,
Version 1.171.32.15 (release 10-01-2008 CrysAlis171 .NET)
(compiled Jan 10 2008,16:37:18)
;
_computing_structure_refinement  'SHELXL-2014/7 (Sheldrick, 2014)'
_diffrn_ambient_temperature      130.0(2)
_diffrn_measured_fraction_theta_full 0.982
_diffrn_measured_fraction_theta_max 0.982
_diffrn_measurement_device_type  'XCalibur CCD diffractometer'
_diffrn_measurement_method       'phi and omega scans'
_diffrn_radiation_monochromator  graphite
_diffrn_radiation_source         'Enhance (Cu) X-ray Source'
_diffrn_radiation_type           'Cu K\a'
_diffrn_radiation_wavelength     1.5418
_diffrn_reflns_av_R_equivalents  0.0450
_diffrn_reflns_av_unetI/netI     0.0519
_diffrn_reflns_Laue_measured_fraction_full 0.982
_diffrn_reflns_Laue_measured_fraction_max 0.982
_diffrn_reflns_limit_h_max       8
_diffrn_reflns_limit_h_min       -7
_diffrn_reflns_limit_k_max       8
_diffrn_reflns_limit_k_min       -8
_diffrn_reflns_limit_l_max       15
_diffrn_reflns_limit_l_min       -19
_diffrn_reflns_number            4628
_diffrn_reflns_point_group_measured_fraction_full 0.982
_diffrn_reflns_point_group_measured_fraction_max 0.982
_diffrn_reflns_theta_full        67.491
_diffrn_reflns_theta_max         67.491
_diffrn_reflns_theta_min         5.450
_exptl_absorpt_coefficient_mu    17.476
_exptl_absorpt_correction_T_max  1.00000
_exptl_absorpt_correction_T_min  0.55619
_exptl_absorpt_correction_type   multi-scan
_exptl_absorpt_process_details
;
CrysAlis RED, Oxford Diffraction Ltd.,
Version 1.171.32.15 (release 10-01-2008 CrysAlis171 .NET)
(compiled Jan 10 2008,16:37:18)
Empirical absorption correction using spherical harmonics,
 implemented in SCALE3 ABSPACK scaling algorithm.
;
_exptl_crystal_colour            colourless
_exptl_crystal_density_diffrn    2.369
_exptl_crystal_description       'small block'
_exptl_crystal_F_000             556
_exptl_crystal_size_max          0.1
_exptl_crystal_size_mid          0.05
_exptl_crystal_size_min          0.04
_refine_diff_density_max         1.661
_refine_diff_density_min         -1.584
_refine_diff_density_rms         0.241
_refine_ls_extinction_method     none
_refine_ls_goodness_of_fit_ref   1.121
_refine_ls_hydrogen_treatment    constr
_refine_ls_matrix_type           full
_refine_ls_number_parameters     235
_refine_ls_number_reflns         2947
_refine_ls_number_restraints     0
_refine_ls_restrained_S_all      1.121
_refine_ls_R_factor_all          0.0525
_refine_ls_R_factor_gt           0.0418
_refine_ls_shift/su_max          0.000
_refine_ls_shift/su_mean         0.000
_refine_ls_structure_factor_coef Fsqd
_refine_ls_weighting_details
'w=1/[\s^2^(Fo^2^)+(0.0186P)^2^+18.8569P] where P=(Fo^2^+2Fc^2^)/3'
_refine_ls_weighting_scheme      calc
_refine_ls_wR_factor_gt          0.1018
_refine_ls_wR_factor_ref         0.1075
_reflns_Friedel_coverage         0.000
_reflns_number_gt                2626
_reflns_number_total             2947
_reflns_threshold_expression     'I > 2\s(I)'
_cod_data_source_file            ic5b01691_si_003.cif
_cod_data_source_block           shelx
_cod_database_code               4346561
_shelx_shelxl_version_number     2014/7
_shelx_space_group_comment
;
The symmetry employed for this shelxl refinement is uniquely defined
by the following loop, which should always be used as a source of
symmetry information in preference to the above space-group names.
They are only intended as comments.
;
_shelx_res_file
;

    shelx.res created by SHELXL-2014/7

TITL JMWPD77 in P-1
CELL  1.54184   7.0457   7.2712  16.6373   77.386   88.360   86.942
ZERR     2.00   0.0004   0.0005   0.0006    0.005    0.005    0.005
LATT   1
SFAC  C    H    N    O    BR   RE
UNIT  30 20 8 10 2 2
MERG   2
OMIT     0.00 135.00
OMIT    -7   4   4
OMIT     0   3   2
OMIT    -1   2   4
OMIT     1   3   1
OMIT     0  -1   8
FMAP   2
PLAN   20
ACTA
BOND   $H
CONF
L.S.  12
WGHT    0.018600   18.856899
FVAR       3.74123
C1    1    0.484988    0.290597    0.379470    11.00000    0.02395    0.02223 =
         0.02860   -0.01306    0.00107   -0.00232
C2    1    0.295092    0.362843    0.387715    11.00000    0.02774    0.02433 =
         0.03031   -0.01295   -0.01002    0.00095
AFIX  43
H2    2    0.224940    0.417949    0.341379    11.00000   -1.20000
AFIX   0
C3    1    0.218056    0.349688    0.464850    11.00000    0.02453    0.01875 =
         0.02908   -0.00792   -0.00250    0.00085
AFIX  43
H3    2    0.092302    0.390396    0.471356    11.00000   -1.20000
AFIX   0
C4    1    0.326731    0.275929    0.533308    11.00000    0.03302    0.02426 =
         0.01910   -0.00771    0.00194   -0.00295
C5    1    0.514467    0.221612    0.526335    11.00000    0.03014    0.02468 =
         0.02356   -0.00401   -0.00224    0.00081
AFIX  43
H5    2    0.586091    0.176969    0.573301    11.00000   -1.20000
AFIX   0
C6    1    0.595461    0.233287    0.450486    11.00000    0.02439    0.01915 =
         0.03148   -0.00690   -0.00306   -0.00048
AFIX  43
H6    2    0.724592    0.203255    0.445449    11.00000   -1.20000
AFIX   0
C7    1    0.576712    0.301693    0.299104    11.00000    0.02114    0.02244 =
         0.01831   -0.00257    0.00238   -0.00230
AFIX  43
H7    2    0.699956    0.343122    0.292388    11.00000   -1.20000
AFIX   0
C8    1    0.552125    0.259616    0.093980    11.00000    0.02419    0.01668 =
         0.02386   -0.00215   -0.00036    0.00145
C9    1    0.665296    0.305049    0.022893    11.00000    0.02489    0.02696 =
         0.02343   -0.01017    0.00544   -0.00187
AFIX  43
H9    2    0.788236    0.344443    0.024682    11.00000   -1.20000
AFIX   0
C10   1    0.587181    0.289047   -0.049877    11.00000    0.03464    0.01968 =
         0.01685   -0.00591    0.00560   -0.00284
AFIX  43
H10   2    0.658503    0.315639   -0.098572    11.00000   -1.20000
AFIX   0
C11   1    0.402489    0.233408   -0.050837    11.00000    0.03217    0.01958 =
         0.02623   -0.00816   -0.00446    0.00123
AFIX  43
H11   2    0.347109    0.227441   -0.100221    11.00000   -1.20000
AFIX   0
C12   1    0.303432    0.187690    0.021387    11.00000    0.02599    0.02343 =
         0.01451   -0.00176   -0.00014    0.00164
AFIX  43
H12   2    0.180748    0.147057    0.020403    11.00000   -1.20000
AFIX   0
C13   1    0.130824    0.044027    0.325420    11.00000    0.01316    0.04770 =
         0.02036   -0.00836   -0.00086   -0.00398
C14   1    0.033990   -0.002211    0.176450    11.00000    0.03052    0.01788 =
         0.02240   -0.00399    0.00171   -0.00275
C15   1    0.372899   -0.127511    0.237273    11.00000    0.02523    0.00558 =
         0.03003   -0.00407   -0.00766    0.00447
N1    3    0.499831    0.258215    0.235958    11.00000    0.02188    0.01309 =
         0.02607   -0.00279    0.00461    0.00283
N2    3    0.616504    0.281060    0.168409    11.00000    0.01297    0.03457 =
         0.02410   -0.00945    0.00310   -0.00213
AFIX  43
H2A   2    0.732356    0.309359    0.172307    11.00000   -1.20000
AFIX   0
N3    3    0.375468    0.198604    0.095172    11.00000    0.01937    0.01842 =
         0.02199   -0.00753    0.00561   -0.00284
N4    3    0.236414    0.255719    0.615819    11.00000    0.03265    0.02721 =
         0.01629   -0.00599   -0.00013    0.00185
O1    4    0.066553    0.003380    0.389671    11.00000    0.03645    0.04123 =
         0.02441   -0.00833    0.00785   -0.01463
O2    4   -0.083410   -0.069869    0.149682    11.00000    0.03350    0.03154 =
         0.04042   -0.00648   -0.01249   -0.00595
O3    4    0.442404   -0.281344    0.249513    11.00000    0.03774    0.01803 =
         0.03867   -0.01025   -0.00439    0.00056
O4    4    0.113083    0.371294    0.626915    11.00000    0.04549    0.03727 =
         0.03449   -0.00772    0.00641    0.01339
O5    4    0.288865    0.114534    0.668024    11.00000    0.03279    0.03758 =
         0.03161   -0.00633   -0.00434   -0.00183
MOLE    1
BR1   5    0.053549    0.442455    0.179458    11.00000    0.02185    0.02010 =
         0.03094   -0.00568    0.00074   -0.00008
RE1   6    0.241525    0.113354    0.215895    11.00000    0.01930    0.01419 =
         0.01816   -0.00433    0.00024   -0.00138
HKLF    4

REM  JMWPD77 in P-1
REM R1 =  0.0418 for    2626 Fo > 4sig(Fo)  and  0.0525 for all    2947 data
REM    235 parameters refined using      0 restraints

END

WGHT      0.0200     18.5444

REM Highest difference peak  1.661,  deepest hole -1.584,  1-sigma level  0.241
Q1    1   0.0752  0.1298  0.2245  11.00000  0.05    1.66
Q2    1   0.1999  0.2223  0.2230  11.00000  0.05    1.60
Q3    1   0.4166  0.0967  0.2149  11.00000  0.05    1.46
Q4    1   0.3080  0.1317  0.2560  11.00000  0.05    1.24
Q5    1   0.1702  0.0831  0.1804  11.00000  0.05    1.17
Q6    1   0.1691  0.1310  0.2793  11.00000  0.05    1.07
Q7    1   0.2872  0.5402  0.3563  11.00000  0.05    1.05
Q8    1   0.0505  0.4157  0.2559  11.00000  0.05    1.04
Q9    1   0.3384  0.0326  0.1923  11.00000  0.05    1.02
Q10   1   0.2524  0.1457  0.1394  11.00000  0.05    1.02
Q11   1   0.1080 -0.1538  0.3832  11.00000  0.05    1.00
Q12   1   0.2578  0.3090  0.1192  11.00000  0.05    0.91
Q13   1   0.1630  0.3460  0.7204  11.00000  0.05    0.90
Q14   1   0.0648 -0.1005  0.0432  11.00000  0.05    0.90
Q15   1   0.2769  0.2239  0.3064  11.00000  0.05    0.87
Q16   1   0.2049  0.5548  0.3515  11.00000  0.05    0.81
Q17   1   0.0759  0.6173  0.0787  11.00000  0.05    0.80
Q18   1  -0.0120  0.1608  0.0802  11.00000  0.05    0.79
Q19   1   0.8381  0.4203  0.2635  11.00000  0.05    0.78
Q20   1   0.8264  0.1937  0.0034  11.00000  0.05    0.78
;
_shelx_res_checksum              19895
_shelx_hkl_file
;
   3   0   0 7410.67 1038.55   4
   3   0   0 7192.75 933.266   3
   4   0   0 105813. 2884.27   4
   4   0   0 106289. 2803.60   3
   6   0   0 105916. 3178.32  14
   6   0   0 98249.6 3958.56   6
   6   0   0 103940. 3313.90  11
   7   0   0 19821.6 2449.04   6
   7   0   0 20724.4 1757.98  11
   8   0   0 6630.55 1726.22   6
   8  -2  -1 14292.1 3241.76   6
   7  -2  -1 4764.31 1768.25   6
   6  -2  -1 60321.4 3152.20   3
   6  -2  -1 56456.7 3292.16   6
   6  -2  -1 65045.2 2880.84   8
   5  -2  -1 872.351 1196.99   3
   4  -2  -1 13762.4 1347.11   3
   3  -2  -1 13183.2 1110.31   4
   3  -2  -1 12459.9 1159.08   0
   3  -2  -1 10983.1 1032.98   3
   2  -2  -1 291290. 4551.59   0
   1  -2  -1 273901. 3836.20   1
   1  -2  -1 300556. 4262.49   0
   0  -2  -1 37071.7 1506.53   1
  -1  -2  -1 106157. 2234.40   1
  -1  -2  -1 106008. 2107.61   0
   2   2   1 202343. 2872.89   4
   3   2   1 23160.6 1359.98   4
   4   2   1 56299.4 2276.93   4
   5   2   1 66156.8 2825.15   4
   6   2   1 10400.8 1367.93  11
   6   2   1 7767.76 1907.81   6
   7   2   1 2646.96 1762.64   6
   7   2   1 2761.96 1094.26  11
   8   2   1 36858.6 2348.77   6
   7  -4  -2 4344.98 1120.98   7
   7  -4  -2 82647.8 3425.56   6
   6  -4  -2 18800.9 1900.47   7
   6  -4  -2 33329.0 4871.54   6
   5  -4  -2 643.139 1279.56   3
   5  -4  -2 809.806 1250.52   7
   4  -4  -2 63259.6 2863.68   7
   4  -4  -2 60443.1 2781.76   3
   3  -4  -2 63665.3 2518.73   3
   3  -4  -2 58639.0 3045.57   0
   2  -4  -2 21252.0 1851.98   0
   1  -4  -2 21279.7 1814.95   0
   0  -4  -2 235636. 5188.27   0
  -1  -4  -2 102987. 3235.13   0
   1   4   2 99721.4 2582.61   4
   2   4   2 32281.7 1675.19   4
   3   4   2 38102.7 2039.39   4
   4   4   2 12385.1 1520.39   4
   5   4   2 7149.34 1589.72   4
   6   4   2 52742.5 2788.70  12
   7   4   2 56125.2 2907.56   6
   7   4   2 60750.2 2689.43  12
   8   4   2 619.377 1279.47   6
   6  -6  -3 22013.4 1492.58   7
   5  -6  -3 34032.8 2173.25   7
   4  -6  -3 8379.32 1643.49   7
   3  -6  -3 5795.36 1545.46   7
   3  -6  -3 5840.53 1377.00   3
   2  -6  -3 60154.1 2711.40   3
   2  -6  -3 64620.7 3106.95   7
  -2   6   3 67190.4 2711.76  13
  -1   6   3 121396. 3572.93  13
   1  -6  -3 128655. 4127.68   7
   0   6   3 4540.51 1134.10  13
   0   6   3 4140.12 1086.13   4
   1   6   3 116305. 3582.16   4
   1   6   3 121303. 3561.35  13
   1   6   3 120982. 3378.59  10
   2   6   3 22226.2 1822.05   4
   2   6   3 21143.4 1757.34  13
   2   6   3 22700.2 1848.95  10
   3   6   3 13394.5 1798.80   4
   3   6   3 12084.2 1525.01  10
   4   6   3 19586.0 1761.91  10
   4   6   3 23496.2 2130.17   4
   5   6   3 114727. 3275.38  10
   5   6   3 104378. 3468.75  12
   6   6   3 287.055 1245.87  12
   3  -8  -4 35633.7 1755.12   7
  -2   8   4 1034.59 839.761  13
   2  -8  -4 485.065 928.192   7
  -1   8   4 47135.1 2139.66  13
   0   8   4-316.506 987.218  13
   1   8   4 26451.6 1765.84  13
   2   8   4 119.548 991.565  13
   4   8   4 7038.79 1134.82  12
   0   9   4 16405.3 1113.52  13
   5   7   3 1986.38 1255.20  12
   4   7   3 15329.0 1568.03  10
   3   7   3 8420.85 1434.87  10
   2   7   3 30174.0 2089.43  13
   2   7   3 30871.3 2040.69  10
   1   7   3 16113.3 1652.26  13
   1   7   3 15967.1 1664.09   4
   1   7   3 14845.5 1641.03  10
   0   7   3 83404.0 3130.36  13
   0   7   3 84827.9 2986.70   4
  -1   7   3 6523.36 1331.41  13
   2  -7  -3 36666.6 2373.34   7
  -2   7   3 34101.3 2030.10  13
   3  -7  -3 20840.0 1890.15   7
   4  -7  -3 59676.1 2569.50   7
   5  -7  -3 1981.65 1039.33   7
   7   5   2 613.754 1537.44   6
   7   5   2 118.803 1237.25  12
   6   5   2 27297.0 2123.92  12
   5   5   2 12538.3 1553.47  10
   5   5   2 10496.7 1829.35   4
   4   5   2 52067.8 2449.44  10
   4   5   2 50315.7 2721.89   4
   3   5   2 9089.87 1421.41   4
   2   5   2 84533.6 2921.47   4
   1   5   2 11831.0 1298.62   4
  -1  -5  -2 8213.86 1291.42   0
   0  -5  -2 61183.4 3131.09   0
   1  -5  -2 26510.8 2304.31   0
   2  -5  -2 119509. 4685.58   0
   3  -5  -2 16736.8 1691.89   3
   3  -5  -2 16520.2 1836.94   7
   4  -5  -2 16717.0 1673.91   3
   4  -5  -2 19176.1 2030.79   7
   5  -5  -2 666.031 1406.28   7
   5  -5  -2 79454.0 4835.14   6
   6  -5  -2 35410.7 2143.36   7
   8   3   1 7226.69 1673.41   6
   7   3   1 1744.24 1685.88   6
   6   3   1 85740.1 2877.16  11
   6   3   1 79249.2 3451.20   4
   5   3   1 405.551 1138.66   4
   4   3   1 128989. 3547.05   4
   3   3   1 9894.73 1150.79   4
   2   3   1 72314.4 2089.57   4
  -1  -3  -1 39395.1 1733.57   0
  -1  -3  -1 44005.7 1923.76   1
   1   3   1 41285.4 1523.27   4
   0  -3  -1 293834. 4860.72   0
   0  -3  -1 313236. 4963.22   1
   1  -3  -1 197833. 4301.58   0
   1  -3  -1 203121. 4134.08   1
   2  -3  -1 94970.3 3224.02   0
   3  -3  -1 4993.68 949.667   3
   3  -3  -1 5517.01 1086.90   0
   4  -3  -1 73786.5 2834.27   3
   5  -3  -1 12689.4 2392.15   6
   5  -3  -1 11266.3 1629.48   3
   5  -3  -1 11881.0 1546.34   7
   6  -3  -1 40255.2 2672.57   3
   6  -3  -1 43089.3 2379.90   7
   7  -3  -1 16811.8 4302.08   6
   7  -3  -1 35590.4 2009.33   7
   8  -3  -1 56474.7 2322.01   6
   8   1   0 46165.2 2533.92   6
   7   1   0 10283.6 1438.34  11
   7   1   0 10483.8 2101.25   6
   6   1   0 48327.9 2980.90   6
   6   1   0 49505.8 2425.67  11
   5   1   0 26840.2 1969.89   4
   4   1   0 7864.15 1184.75   4
   3   1   0 79426.1 2222.27   4
  -2  -1   0 425868. 2466.44   1
  -1  -1   0 282639. 2428.91   1
   0  -1   0 108562. 1659.60   1
   1  -1   0 173409. 2190.65   1
   3  -1   0 183828. 2933.80   4
   3  -1   0 184429. 3157.82   3
   3  -1   0 180665. 2946.37   0
   4  -1   0 101148. 2919.35   3
   5  -1   0 65460.1 2805.43   3
   6  -1   0 2905.21 1224.46  11
   6  -1   0 5099.72 1408.19   8
   6  -1   0 4095.91 2194.43   6
   7  -1   0 10683.9 2102.47   6
   8  -1   0 20796.9 1838.44   6
   8  -1  -1 12689.3 1648.42   6
   7  -1  -1 18647.0 2373.50   6
   6  -1  -1 23101.7 2641.79   6
   6  -1  -1 25988.9 2085.75   8
   6  -1  -1 23291.1 1891.16  11
   5  -1  -1 8580.51 1458.02   3
   4  -1  -1 138547. 3342.12   3
   4  -1  -1 143094. 3327.05   4
   3  -1  -1 118155. 2552.70   3
   3  -1  -1 114404. 2326.14   0
   3  -1  -1 111092. 2565.93   4
   2  -1  -1 762.793 489.461   0
   1  -1  -1 65159.9 1525.85   0
   0  -1  -1 188647. 2176.34   0
   0  -1  -1 187810. 2150.23   1
  -1  -1  -1 130140. 1456.76   0
  -3  -1  -1 94776.8 2103.74   2
   3   1   1 94079.7 2285.13   4
   4   1   1 441.921 903.653   4
   6   1   1 7577.24 1422.17  11
   6   1   1 7759.52 2051.45   6
   7   1   1 98339.7 3131.40  11
   7   1   1 91692.7 3812.70   6
   8   1   1 1329.22 1631.90   6
   8  -3  -2 64157.4 2375.28   6
   6  -3  -2 19435.8 2102.96   3
   6  -3  -2 20100.0 1799.44   7
   6  -3  -2 19044.7 1834.39   8
   5  -3  -2 115536. 3669.32   7
   5  -3  -2 109677. 3848.89   3
   5  -3  -2 117983. 3615.70   8
   5  -3  -2 105262. 4032.73   6
   4  -3  -2 4190.06 1165.90   3
   3  -3  -2 36740.1 2143.61   0
   2  -3  -2 72100.1 2802.43   0
   1  -3  -2 341168. 5586.01   0
   0  -3  -2 30193.6 1668.84   0
  -1  -3  -2 311782. 4581.42   0
  -2  -3  -2 6997.22 703.094   2
   2   3   2 5980.75 826.928   4
   3   3   2 49760.0 1985.68   4
   4   3   2 15099.2 1478.00   4
   5   3   2 139239. 4109.18   4
   6   3   2 15194.5 1836.83  12
   7   3   2 30190.2 2485.14   6
   7   3   2 25782.4 2147.71  12
   8   3   2 1013.41 1573.03   6
   6  -5  -3 2411.73 1236.59   7
   5  -5  -3 97780.6 4899.95   6
   5  -5  -3 10625.8 1793.48   7
   4  -5  -3 13246.5 1547.54   3
   4  -5  -3 16441.4 2003.44   7
   3  -5  -3 99261.0 3363.91   3
   3  -5  -3 111088. 3799.49   7
   2  -5  -3 43585.1 2902.07   0
   1  -5  -3 91727.9 3932.35   0
   0  -5  -3 14276.7 1650.98   0
  -1  -5  -3 61471.1 2912.55   0
   1   5   3 69040.1 2559.16   4
   2   5   3 5565.41 1146.53   4
   3   5   3 123334. 3817.71   4
   4   5   3 40556.3 2177.83  10
   4   5   3 45384.0 2688.02   4
   5   5   3 17168.8 2023.99   4
   5   5   3 17280.5 1657.02  10
   6   5   3 4638.20 1486.77  12
   7   5   3 24353.6 2067.90   6
   7   5   3 26042.4 1839.49  12
   5  -7  -4 50509.3 1892.16   7
   4  -7  -4 23109.1 1916.30   7
   3  -7  -4 12779.4 1656.41   7
   2  -7  -4 6221.46 1579.72   7
  -2   7   4 6266.42 1249.20  13
  -1   7   4 31837.2 2022.38  13
   1  -7  -4 30980.8 2298.82   7
   0   7   4 18414.6 1650.76  13
   0   7   4 17955.2 1613.20   4
   1   7   4 55724.1 2522.78  10
   1   7   4 55381.2 2569.86  13
   1   7   4 60412.1 2727.74   4
   2   7   4 53719.0 2555.58  13
   2   7   4 49490.3 2423.74  10
   3   7   4 2680.11 1224.04  10
   3   7   4 453.747 1188.58  13
   4   7   4 3716.38 1241.93  10
   5   7   4 28418.1 1831.79  12
   0   9   5 28874.2 1327.19  13
   4   8   3 41737.4 1786.78  12
   3   8   3 491.669 1038.24  10
   2   8   3 22860.9 1633.80  10
   2   8   3 22505.7 1675.32  13
   1   8   3 22921.4 1736.65  13
   0   8   3 17924.0 1562.82  13
  -1   8   3-111.882 937.444  13
  -2   8   3 65336.1 2219.64  13
   3  -8  -3 16000.1 1263.52   7
   6   6   2 40168.8 2191.58  12
   5   6   2 19187.1 1741.57  10
   4   6   2 45740.4 2365.41  10
   4   6   2 45183.8 2689.51   4
   3   6   2 28623.1 1995.85  10
   3   6   2 28739.9 2158.55   4
   2   6   2 37529.6 2193.65  13
   2   6   2 34352.3 2177.64   4
   2   6   2 33267.0 2062.61  10
   1   6   2 1835.39 1092.33  13
   1   6   2 1744.51 1002.77   4
   1   6   2 2158.83 1308.70  10
   0   6   2 139631. 3681.04   4
   0   6   2 139029. 3832.13  13
  -1   6   2 92052.2 3206.09  13
  -2   6   2 16574.2 1645.98  13
   2  -6  -2 17602.1 1664.70   3
   2  -6  -2 16542.1 1967.49   7
   3  -6  -2 10661.9 1709.60   7
   3  -6  -2 8390.33 1379.42   3
   4  -6  -2 35252.0 2419.93   7
   5  -6  -2 18760.8 1765.04   7
   6  -6  -2 10949.7 1307.77   7
   7   4   1 21194.9 2107.86   6
   6   4   1 22112.5 2051.62  12
   5   4   1 27392.1 2232.01   4
   4   4   1 28239.2 2041.76   4
   3   4   1 15120.2 1426.26   4
   2   4   1 29153.4 1589.26   4
  -1  -4  -1 312232. 5656.15   0
   1   4   1 301595. 4311.94   4
   0  -4  -1 4433.34 1117.72   1
   0  -4  -1 2523.94 935.276   0
   1  -4  -1 82297.8 3363.51   0
   2  -4  -1 105417. 3965.42   0
   3  -4  -1 114345. 4212.20   0
   3  -4  -1 115805. 3338.12   3
   4  -4  -1 6620.49 1324.84   3
   4  -4  -1 7245.67 1472.85   7
   5  -4  -1 49137.1 2636.26   3
   5  -4  -1 49770.0 2713.93   7
   6  -4  -1 1505.64 1352.54   7
   6  -4  -1 30458.8 4634.04   6
   7  -4  -1 84407.2 3476.54   6
   7  -4  -1 12052.4 1353.89   7
   8   2   0 1660.98 891.421  11
   7   2   0 26695.0 2527.80   6
   7   2   0 32564.1 1995.34  11
   6   2   0 5265.76 1309.28  11
   6   2   0 6348.67 1894.14   6
   6   2   0 4335.96 1561.38   4
   5   2   0 54882.2 2662.28   4
   4   2   0 40674.3 2063.17   4
   3   2   0 229401. 3766.86   4
   2   2   0 18913.5 1136.74   4
  -2  -2   0 18096.3 1047.23   1
  -1  -2   0 43763.5 1558.60   1
   0  -2   0 43665.0 1598.85   1
   1  -2   0 999999. 7268.96   1
   2  -2   0 6738.07 932.827   1
   3  -2   0 113582. 3101.82   0
   3  -2   0 113874. 2728.71   3
   4  -2   0 8434.50 1262.43   3
   5  -2   0 22425.8 1885.24   3
   6  -2   0 4004.22 1540.40   3
   6  -2   0 5360.45 1408.15   8
   6  -2   0 5063.10 1323.75   7
   6  -2   0 1507.65 2023.05   6
   7  -2   0 62254.3 3064.15   6
   8   0  -1 2647.99 1549.16   6
   7   0  -1 20368.1 1781.64  11
   7   0  -1 20496.2 2451.67   6
   6   0  -1 10834.1 2263.25   6
   6   0  -1 12058.0 1548.36  11
   6   0  -1 12321.1 1608.23  14
   5   0  -1 208341. 4684.58   4
   4   0  -1 3069.57 1058.30   4
   4   0  -1 4528.21 974.920   3
   3   0  -1 11419.7 1015.39   3
   3   0  -1 9990.15 1166.21   4
   2   0  -1 32590.3 791.741   0
   3   0   1 115277. 2364.02   4
   3   0   1 115362. 2463.42   3
   4   0   1 2466.72 929.986   3
   5   0   1 105568. 3358.34   3
  -5   0  -1 111927. 3395.44   2
   6   0   1 61370.5 2651.61  11
   6   0   1 51613.1 3162.87   6
   7   0   1 5819.04 1264.56  11
   7   0   1 3959.76 1974.78   6
   8   0   1-40.0837 1522.01   6
   7  -2  -2 59779.9 2992.14   6
   6  -2  -2 19659.7 1997.48   8
   6  -2  -2 16603.0 2408.85   6
   5  -2  -2 37321.0 2367.10   3
   4  -2  -2 948.167 871.125   4
   4  -2  -2 369.547 933.427   3
   3  -2  -2 129342. 3225.42   0
   3  -2  -2 135768. 2941.40   4
   2  -2  -2 104040. 2760.62   0
   2  -2  -2 102819. 2274.26   4
   1  -2  -2 96246.0 2472.92   0
   0  -2  -2 181510. 3087.11   0
  -1  -2  -2 297394. 3527.45   0
   2   2   2 149105. 2452.97   4
  -2  -2  -2 151193. 2288.05   2
   3   2   2 254386. 3807.97   4
  -3  -2  -2 268937. 3500.07   2
   4   2   2 148311. 3444.28   4
   5   2   2 9454.64 1437.15   4
   6   2   2 5278.67 1820.03   6
   6   2   2 4348.92 1552.96  12
   7   2   2 47184.8 2935.50   6
   8   2   2 26341.8 2164.05   6
   7  -4  -3 94394.0 3377.23   6
   7  -4  -3 282.477 773.678   7
   6  -4  -3 1788.54 1280.38   7
   6  -4  -3 28604.8 4646.05   6
   5  -4  -3 79465.5 3363.12   3
   5  -4  -3 70932.0 3174.08   7
   4  -4  -3 57823.0 2746.03   3
   4  -4  -3 65914.4 2975.14   7
   3  -4  -3 16110.0 1720.18   0
   2  -4  -3 27917.4 2110.91   0
   1  -4  -3 33387.5 2149.49   0
   0  -4  -3 37003.0 2164.63   0
  -1  -4  -3 59237.7 2467.62   0
   2   4   3 245913. 4342.41   4
   3   4   3 510.794 960.075   4
   4   4   3 7451.79 1399.79   4
   5   4   3 11648.2 1641.71  12
   5   4   3 11817.1 1745.61   4
   6   4   3 102568. 3608.92  12
   7   4   3 1927.61 1488.64  12
   7   4   3 3833.67 1750.43   6
   8   4   3 17778.9 1611.86   6
   6  -6  -4 30268.2 1580.29   7
   5  -6  -4 4141.40 1347.34   7
   4  -6  -4 28550.5 2309.86   7
   3  -6  -4 12070.2 1633.77   3
   3  -6  -4 14199.9 1948.55   7
  -2   6   4 19925.3 1675.88  13
   2  -6  -4 16794.8 1996.14   7
  -1   6   4 29306.0 1982.22  13
   1  -6  -4 25412.1 2174.10   7
   0   6   4 131247. 3730.23   4
   0   6   4 140739. 3765.55  13
   1   6   4 528.358 1073.75   4
   1   6   4 1236.72 1072.66  13
   1   6   4-351.137 1175.22  10
   2   6   4 27006.4 2114.89   4
   2   6   4 27179.3 1949.82  13
   2   6   4 24959.8 1873.43  10
   3   6   4 10055.1 1472.51  10
   3   6   4 7984.17 1416.99  13
   3   6   4 9336.88 1603.66   4
   4   6   4 79062.4 3450.67   4
   4   6   4 67425.2 2729.81  10
   5   6   4 2394.24 1376.73  12
   5   6   4 2564.98 1229.65  10
   6   6   4 25543.1 1907.56  12
   3  -8  -5-650.371 1138.87   7
   2  -8  -5 47800.4 2161.96   7
  -2   8   5 50582.7 1887.93  13
  -1   8   5 2548.79 991.525  13
   0   8   5 33727.5 1943.87  13
   1   8   5 3635.12 1083.81  13
   2   8   5 58452.1 2365.03  13
   3   8   5 991.332 900.195  13
   3   8   5 3591.96 1026.84  12
   4   8   5 14067.4 1236.35  12
   5   7   2 49217.3 2057.63  10
   5   7   2 49097.4 2280.29  12
   4   7   2 2339.98 1170.29  10
   3   7   2 22529.2 1809.04  10
   2   7   2 27165.9 1994.85  13
   2   7   2 25754.6 1942.60  10
   1   7   2 97025.0 3277.99   4
   1   7   2 89322.1 3261.25  13
   1   7   2 94282.7 3087.41  10
   0   7   2 10593.7 1525.92  13
  -1   7   2 35760.3 2190.97  13
  -2   7   2 5849.81 1262.43  13
   2  -7  -2 6743.70 1468.68   7
   3  -7  -2 71163.3 2911.26   7
   4  -7  -2 2796.05 1314.85   7
   5  -7  -2 32342.2 1604.43   7
   7   5   1-186.823 1114.01  12
   7   5   1 23313.8 1968.92   6
   6   5   1 2249.64 1426.85  12
   5   5   1 30221.4 2009.25  10
   5   5   1 30233.3 2376.54   4
   4   5   1 8276.40 1491.99  10
   4   5   1 6432.90 1447.06   4
   3   5   1 129553. 3821.28   4
   2   5   1 46343.5 2209.70   4
  -1  -5  -1 18184.2 1777.44   0
   1   5   1 19466.0 1447.51   4
   0  -5  -1 7496.69 1465.44   0
   0   5   1 9974.72 1133.24   4
   1  -5  -1 92078.8 4076.69   0
   2  -5  -1 29236.9 2499.56   0
   2  -5  -1 26506.4 1768.13   3
   3  -5  -1 99497.4 3713.81   7
   3  -5  -1 84677.1 3125.77   3
   4  -5  -1 38205.3 2572.80   7
   4  -5  -1 39387.1 2352.70   3
   5  -5  -1 79446.2 4588.51   6
   5  -5  -1 7734.97 1650.47   7
   6  -5  -1 888.360 1162.73   7
   8   3   0 2594.51 1539.48   6
   7   3   0 23365.5 2317.05   6
   7   3   0 28455.4 1789.32  11
   6   3   0 293.766 1397.90   4
   6   3   0 954.009 1096.60  11
   5   3   0 140264. 4185.37   4
   4   3   0 43111.2 2179.89   4
   3   3   0 2577.92 814.888   4
   2   3   0 5347.20 907.418   4
  -2  -3   0 6111.87 991.850   1
   1   3   0 242556. 3241.99   4
  -1  -3   0 265182. 4519.66   1
   0  -3   0 40635.8 1996.94   1
   1  -3   0 182572. 4004.39   1
   2  -3   0 107139. 3173.67   1
   2  -3   0 99319.7 3338.34   0
   3  -3   0 11969.6 1385.68   0
   3  -3   0 11956.5 1203.51   3
   4  -3   0 17607.7 1563.54   3
   5  -3   0 81474.2 3583.56   6
   5  -3   0 82706.0 3334.36   3
   5  -3   0 84156.7 3270.48   7
   6  -3   0 43081.5 2422.00   7
   6  -3   0 43207.1 2678.69   3
   7  -3   0 580.848 1146.32   7
   7  -3   0 629.137 3799.18   6
   8  -3   0 62037.6 2313.07   6
   8   1  -1 4181.54 1064.88  11
   8   1  -1 1776.31 1600.18   6
   7   1  -1 48788.9 2966.13   6
   7   1  -1 52612.7 2462.60  11
   6   1  -1 39543.1 2216.24  11
   6   1  -1 44069.4 2372.32  14
   5   1  -1 9445.30 1476.91   4
   4   1  -1 9644.65 1336.23   4
   3   1  -1 200807. 3474.68   4
  -2  -1   1 149777. 1899.80   1
   2   1  -1 151501. 2492.65   4
  -1  -1   1 79167.3 1569.96   1
   0  -1   1 251046. 2778.92   1
   1  -1   1 198030. 2542.07   1
   2  -1   1 83933.1 1788.04   3
   2  -1   1 83542.3 1678.30   1
   3  -1   1 80047.8 2065.96   0
   3  -1   1 76758.4 2142.65   3
   4  -1   1 197439. 3985.88   3
   5  -1   1 1471.65 1122.98   3
   6  -1   1 13415.1 2292.76   6
   6  -1   1 11761.9 1776.54   3
  -6   1  -1 14480.5 1696.47   2
   6  -1   1 11440.7 1478.25   7
   6  -1   1 14313.5 1619.36  11
   7  -1   1 8254.37 2049.95   6
   8  -1   1 49320.6 2326.72   6
   8  -1  -2 37665.5 2055.01   6
   7  -1  -2 3854.65 1902.55   6
   7  -1  -2 5382.13 1365.65  11
   6  -1  -2 11303.6 1567.72  11
   6  -1  -2 12042.9 1902.97   8
   6  -1  -2 10363.1 2321.73   6
   5  -1  -2 70572.9 2830.35   4
   4  -1  -2 189895. 4025.02   4
   4  -1  -2 190377. 3904.60   3
   3  -1  -2 6321.84 1081.45   4
   3  -1  -2 8449.89 955.241   3
   3  -1  -2 6511.13 688.675   0
   2  -1  -2 46670.3 1496.53   0
   1  -1  -2 14992.6 903.773   0
   0  -1  -2 352322. 3200.25   0
  -1  -1  -2 13785.2 657.488   0
   3   1   2 29908.6 1369.87   4
  -3  -1  -2 30836.5 1397.53   2
   4   1   2 23552.0 1547.92   4
  -4  -1  -2 23397.9 1444.59   2
   6   1   2 78102.1 3566.67   6
   6   1   2 84143.3 2909.32  11
   7   1   2 2334.24 1849.61   6
   7   1   2 3673.80 1111.83  11
   8   1   2 34715.7 2299.09   6
   7  -3  -3 1543.68 4072.73   6
   6  -3  -3 110037. 3502.92   7
   6  -3  -3 109065. 3561.56   8
   5  -3  -3 2844.62 1206.59   7
   5  -3  -3 5691.48 1536.07   3
   5  -3  -3 4960.04 1571.87   8
   4  -3  -3 32707.7 2032.11   3
   3  -3  -3 20643.2 1669.02   0
   2  -3  -3 79925.5 2931.25   0
   1  -3  -3 22307.0 1601.92   0
   0  -3  -3 283584. 4796.35   0
  -1  -3  -3 49973.2 1961.88   0
  -1  -3  -3 37384.2 1433.29   2
  -2  -3  -3 16266.6 981.412   2
   2   3   3 14848.8 1117.55   4
   3   3   3 1982.66 855.272   4
   4   3   3 108178. 3231.97   4
   5   3   3 24977.1 2015.77   4
   6   3   3 31654.3 2370.21  12
   7   3   3 5431.76 1791.25   6
   7   3   3 4336.19 1607.33  12
   8   3   3 10430.6 1695.48   6
   6  -5  -4 12251.9 1475.13   7
   5  -5  -4 914.154 1371.04   7
   4  -5  -4 46260.6 2610.85   3
   4  -5  -4 47196.8 2721.46   7
   3  -5  -4 6438.01 1474.03   7
   2  -5  -4 78191.0 3744.94   0
   1  -5  -4 32418.9 2440.17   0
   0  -5  -4 48839.1 2768.58   0
   1   5   4 8077.16 1232.64   4
  -1  -5  -4 5117.55 1060.28   0
   2   5   4 179375. 4329.99   4
   3   5   4 66784.7 2980.52   4
   4   5   4 17182.1 1924.61   4
   4   5   4 15962.6 1620.33  10
   5   5   4 4751.10 1292.31  10
   5   5   4 3084.42 1610.48   4
   5   5   4 6951.51 1485.42  12
   6   5   4 29322.3 2147.25  12
   7   5   4 10692.6 1794.79   6
   7   5   4 8987.35 1569.88  12
   5  -7  -5 8998.02 1174.84   7
   4  -7  -5 27040.1 2013.68   7
   3  -7  -5 24293.1 2055.80   7
  -2   7   5 14842.7 1455.68  13
   2  -7  -5 16818.7 1904.41   7
   1  -7  -5 8409.05 1652.98   7
  -1   7   5 9979.59 1388.02  13
   0   7   5 79557.8 3043.03   4
   0   7   5 78564.4 2960.35  13
   1   7   5 82643.9 2970.37  10
   1   7   5 82668.9 3070.88  13
   1   7   5 80976.1 3240.19   4
   2   7   5 3156.71 1269.63  10
   2   7   5 2336.55 1218.94  13
   3   7   5 27987.1 1955.79  13
   3   7   5 30732.6 2028.30  10
   4   7   5 24671.5 1819.97  12
   4   7   5 24353.3 1789.12  10
   5   7   5 23165.2 1662.14  12
   4   8   2 1484.44 1024.06  12
   3   8   2 40674.2 1890.56  10
   2   8   2 23559.7 1662.85  13
   2   8   2 25154.5 1655.63  10
   1   8   2 13204.1 1468.11  13
   0   8   2 4425.10 1159.47  13
  -1   8   2 47044.7 2152.49  13
  -2   8   2 27049.8 1596.59  13
   6   6   1 5687.05 1409.57  12
   5   6   1 40550.1 2169.74  10
   4   6   1 46393.6 2397.29  10
   3   6   1 16210.5 1831.35   4
   3   6   1 19384.2 1835.09  10
   2   6   1 1696.57 1234.78  13
   2   6   1 1111.42 1218.35  10
   2   6   1 672.181 938.662   4
   1   6   1 36307.6 2120.69   4
   1   6   1 37014.3 2189.36  13
   1   6   1 37258.5 2168.02  10
   0   6   1 67855.5 2820.23  13
   0   6   1 66521.3 2536.15   4
  -1   6   1 14770.6 1694.27  13
   2  -6  -1 82932.0 3492.16   7
  -2   6   1 87560.4 3172.40  13
   2  -6  -1 79990.6 3055.15   3
  -3   6   1 12067.5 1457.57  13
   3  -6  -1 7672.24 1447.39   3
   3  -6  -1 9903.10 1784.23   7
   4  -6  -1 24647.2 2172.78   7
   5  -6  -1 21014.3 1882.70   7
   6  -6  -1 34592.6 1668.62   7
   7   4   0 16468.7 1961.63   6
   6   4   0 71738.3 3040.27  12
   6   4   0 67661.9 2634.74  11
   5   4   0-181.460 1258.90   4
   5   4   0 380.188 1121.17  11
   4   4   0 21550.0 1830.25   4
   3   4   0 68503.5 2616.12   4
  -2  -4   0 177982. 4414.57   1
   2   4   0 161107. 3474.32   4
  -1  -4   0 42169.5 2350.53   1
  -1  -4   0 38387.5 2149.99   0
   0  -4   0 45780.1 2511.91   1
   0  -4   0 41526.6 2368.18   0
   0   4   0 47445.2 1685.17   4
   1  -4   0 7937.48 1357.98   1
   1  -4   0 5846.80 1219.25   0
   2  -4   0 202186. 5550.98   0
   2  -4   0 214899. 4030.25   3
   3  -4   0 32829.4 1872.41   3
   3  -4   0 31714.5 2366.18   0
   4  -4   0 112309. 3790.58   7
   4  -4   0 103823. 3496.80   3
   5  -4   0 3887.58 1271.92   3
   5  -4   0 3292.02 1357.05   7
   5  -4   0 823.920 4540.91   6
   6  -4   0 29194.8 4227.23   6
   6  -4   0 7775.98 1585.93   7
   7  -4   0 72868.7 3175.87   6
   7  -4   0 1000.05 1087.04   7
   8   2  -1 55430.9 2513.98   6
   8   2  -1 56523.0 2054.56  11
   7   2  -1 1613.88 1825.44   6
   7   2  -1-546.444 1065.38  11
   6   2  -1 9559.34 1691.23   4
   6   2  -1 10595.9 1464.94  11
   6   2  -1 6858.05 1889.87   6
   5   2  -1 29253.1 2109.13   4
   4   2  -1 236967. 4617.46   4
   3   2  -1 2560.51 821.491   4
   2   2  -1 81498.5 2042.82   4
  -2  -2   1 86337.8 2112.76   1
  -1  -2   1 871.415 746.169   1
   0  -2   1 67153.0 2069.32   1
   1  -2   1 20158.9 1354.78   1
   2  -2   1 316408. 3760.43   3
   2  -2   1 320784. 4438.64   1
   3  -2   1 96436.0 2546.44   3
   4  -2   1 42432.7 2065.12   3
   5  -2   1 2766.50 1186.56   3
   6  -2   1 82623.0 3511.92   3
   6  -2   1 86387.3 3207.46   7
   7  -2   1 20456.0 2111.66   6
   7  -2   1 14160.7 1495.75   7
   8  -2   1 1155.55 2933.87   6
   8   0  -2 10497.7 1668.67   6
   7   0  -2 2750.72 1265.78  11
   7   0  -2 357.041 1908.08   6
   6   0  -2 121406. 4433.40   6
   6   0  -2 140989. 3897.75  14
   6   0  -2 134609. 4296.37   8
   6   0  -2 122380. 3611.68  11
   5   0  -2 22196.6 1933.89   4
   4   0  -2 65503.6 2564.55   4
   3   0  -2 4406.27 1028.24   4
   2   0  -2 64717.2 1412.70   0
   1   0  -2 9140.73 626.045   0
   0   0  -2 297442. 2802.39   0
   1   0   2 250057. 2530.74   1
   2   0   2 23837.2 693.926   1
   3   0   2 27772.1 1393.66   3
   4   0   2 165646. 3603.36   3
  -5   0  -2 62339.2 2624.04   2
   6   0   2 19720.5 1761.97  11
   6   0   2 16593.6 2319.66   6
   7   0   2 19164.6 2324.44   6
   8   0   2 15349.8 1864.72   6
   8  -2  -3 48652.5 3107.94   6
   7  -2  -3 35283.7 2485.40   6
   6  -2  -3 12327.7 2333.08   6
   6  -2  -3 10806.7 1824.78   8
   5  -2  -3 2922.74 1313.84   3
   4  -2  -3 100335. 3062.54   4
   4  -2  -3 98616.5 3082.39   3
   3  -2  -3 14583.7 1317.67   4
   3  -2  -3 15893.4 1282.45   0
   2  -2  -3 228887. 4115.43   0
   2  -2  -3 220369. 3501.69   4
   1  -2  -3 121021. 2834.90   0
   0  -2  -3 18789.8 1172.14   0
  -1  -2  -3 1742.76 572.595   0
  -2  -2  -3 128373. 2240.00   0
  -2  -2  -3 132904. 2354.23   2
   2   2   3 134577. 2374.24   4
  -3  -2  -3 224184. 3450.84   2
   3   2   3 224604. 3533.85   4
  -4  -2  -3 21629.7 1358.31   2
   4   2   3 20674.1 1483.61   4
   6   2   3 7528.42 1728.25  12
   6   2   3 6608.40 1858.01   6
   7   2   3 31259.1 2349.19  12
   7   2   3 31211.1 2518.61   6
   8   2   3 9192.05 1784.56   6
   7  -4  -4 87138.0 3266.32   6
   6  -4  -4 54352.5 2454.12   8
   6  -4  -4 52575.0 2513.81   7
   5  -4  -4 14484.3 1808.76   7
   5  -4  -4 17403.9 5279.42   6
   5  -4  -4 15803.6 1811.89   8
   5  -4  -4 19347.0 1966.35   3
   4  -4  -4 31130.6 2282.91   7
   4  -4  -4 23836.4 4868.27   6
   4  -4  -4 24603.8 2000.16   3
   4  -4  -4 29968.6 2295.60   9
   3  -4  -4 120114. 4235.60   0
   2  -4  -4 9428.35 1322.43   0
   1  -4  -4 13707.4 1538.00   0
   0  -4  -4 79796.0 3064.51   0
  -1  -4  -4 316525. 5640.32   0
   2   4   4 5565.46 1254.09   4
   3   4   4 72009.2 2698.14   4
   4   4   4 3223.18 1146.25   4
   5   4   4 50102.6 2760.65   4
   5   4   4 53843.3 2684.14  12
   6   4   4 2367.27 1452.20  12
   7   4   4 72858.2 3107.94   6
   7   4   4 71709.2 2909.06  12
   6  -6  -5 2989.33 1006.59   7
   5  -6  -5 64941.5 2738.47   7
   4  -6  -5 7656.50 1680.05   7
   3  -6  -5 19807.0 2109.60   7
   3  -6  -5 15640.6 1642.77   3
  -2   6   5 29267.8 1914.67  13
   2  -6  -5 24668.3 2127.80   7
   1  -6  -5 101706. 3725.28   7
  -1   6   5 108410. 3334.95  13
   0   6   5 14401.6 1516.29  13
   0  -6  -5 13763.8 1903.05   7
   1   6   5 43415.1 2418.34   4
   1   6   5 43799.1 2260.29  13
   1   6   5 42522.5 2193.74  10
   2   6   5-443.637 1140.09  10
   2   6   5 402.323 1077.29   4
   2   6   5 180.337 1041.30  13
   3   6   5 44879.7 2320.41  10
   3   6   5 52496.1 2919.70   4
   3   6   5 51377.6 2474.02  13
   4   6   5 446.253 1205.10  10
   5   6   5 46340.3 2419.18  12
   6   6   5 14947.6 1644.68  12
   3  -8  -6 48593.3 1987.81   7
  -2   8   6 15159.6 1169.04  13
   2  -8  -6 17499.7 1581.27   7
   1  -8  -6 22124.3 1716.17   7
  -1   8   6 22451.6 1538.78  13
   0   8   6 2202.40 965.445  13
   1   8   6 38744.8 2014.40  13
   2   8   6 6030.02 1165.31  13
   3   8   6 24786.7 1567.57  13
   3   8   6 23209.1 1400.48  12
   4   8   6 14887.0 1189.85  12
   5   7   1 2529.61 1282.74  12
   5   7   1 1745.21 1092.46  10
   4   7   1 13275.8 1537.52  10
   3   7   1 16113.9 1670.02  10
   2   7   1 79465.6 2942.73  10
   2   7   1 80373.8 3098.46  13
   1   7   1 4950.42 1418.31  10
   1   7   1 6665.63 1441.44  13
   0   7   1 39338.3 2320.80  13
  -1   7   1 5937.06 1293.35  13
  -2   7   1 20072.6 1729.58  13
  -3   7   1 1260.23 934.219  13
   3  -7  -1 1010.62 1020.24   7
   4  -7  -1 71621.7 2607.97   7
   7   5   0 4924.33 1580.68   6
   6   5   0 11502.3 1657.82  12
   5   5   0 1426.65 1300.73   4
   5   5   0 933.075 1188.28  10
   4   5   0 124929. 3603.52  10
   4   5   0 116938. 3882.23   4
   3   5   0 20749.5 1808.80   4
   2   5   0 40292.8 2069.85   4
  -1  -5   0 39865.2 2506.18   0
   1   5   0 51409.9 2165.79   4
   0   5   0 87308.3 2580.06   4
   0  -5   0 78247.7 3694.76   0
   1  -5   0 557.628 1068.16   0
   2  -5   0 127949. 3545.45   3
   2  -5   0 123867. 4941.98   0
   3  -5   0 58351.8 2691.72   3
   3  -5   0 62695.8 3078.07   7
   4  -5   0 2992.46 1483.07   7
   4  -5   0 5810.91 1344.48   3
   5  -5   0 3609.19 1460.59   7
   6  -5   0 45509.6 2313.83   7
   8   3  -1 11418.0 1121.08  11
   8   3  -1 12225.0 1611.93   6
   7   3  -1 1455.25 1101.23  11
   7   3  -1 1742.56 1662.87   6
   6   3  -1 92915.0 3669.96   4
   6   3  -1 94473.7 3191.97  11
   5   3  -1 23446.4 2006.60   4
   5   3  -1 25275.9 1929.07  11
   4   3  -1 42531.2 2197.41   4
   3   3  -1 16615.3 1353.28   4
   2   3  -1 86167.7 2299.54   4
  -2  -3   1 92382.4 2776.57   1
  -1  -3   1 42313.4 2040.02   1
   1   3  -1 42800.9 1497.74   4
   0  -3   1 57444.0 2386.54   1
   0   3  -1 57443.1 1511.64   4
   1  -3   1 185114. 4191.44   1
   2  -3   1 15498.3 1167.91   3
   2  -3   1 13965.8 1425.98   1
   3  -3   1 16100.3 1566.42   0
   3  -3   1 13467.0 1219.25   3
   4  -3   1 77858.8 2866.91   3
   5  -3   1 90477.8 3407.42   3
   5  -3   1 90882.7 3579.98   6
   5  -3   1 97532.2 3545.07   7
   6  -3   1 2966.87 1312.98   3
   6  -3   1 2867.14 1322.43   7
   7  -3   1 15888.7 3929.84   6
   7  -3   1 17736.0 1559.79   7
   8   1  -2 26406.3 2019.57   6
   8   1  -2 29039.4 1685.43  11
   7   1  -2 44265.9 2301.27  11
   7   1  -2 43242.1 2830.33   6
   6   1  -2 5275.65 1565.68   4
   6   1  -2 7236.76 1481.66  14
   6   1  -2 4730.84 1897.85   6
   6   1  -2 6533.46 1328.44  11
   5   1  -2 18767.5 1848.97   4
   4   1  -2 60411.3 2477.72   4
   3   1  -2 188372. 3532.63   4
  -2  -1   2 43010.9 1396.68   1
   2   1  -2 43740.8 1571.20   4
  -1  -1   2 196855. 2982.95   1
   0  -1   2 4461.94 793.189   1
   1  -1   2 39871.3 1448.64   1
   2  -1   2 131842. 2338.98   3
   2  -1   2 141483. 2405.89   1
   3  -1   2 382379. 4685.23   3
   4  -1   2 1893.01 929.974   3
   5  -1   2 56712.8 2616.50   3
  -6   1  -2 2842.63 1343.93   2
   6  -1   2 29.2236 1860.19   6
   7  -1   2 22458.6 1751.73   7
   7  -1   2 21651.2 2374.17   6
   8  -1   2 11576.4 1576.15   6
   7  -1  -3 10982.8 1501.52  11
   7  -1  -3 11276.8 2061.44   6
   7  -1  -3 12040.6 1514.23  14
   6  -1  -3 28207.8 2098.55  14
   6  -1  -3 25573.6 1979.53  11
   6  -1  -3 26856.7 2426.26   8
   6  -1  -3 25028.8 2715.72   6
   5  -1  -3 99372.7 3429.89   4
   4  -1  -3 20602.4 1536.79   3
   4  -1  -3 23246.0 1768.60   4
   3  -1  -3 179874. 3650.07   4
   3  -1  -3 184086. 3228.68   0
   3  -1  -3 184753. 3121.28   3
   2  -1  -3 349.281 966.723   4
   2  -1  -3 640.531 565.851   0
   1  -1  -3 27038.1 1185.33   0
   0  -1  -3 38977.4 1262.53   0
  -1  -1  -3 440120. 3888.66   0
  -2  -1  -3 9863.25 880.980   2
  -3  -1  -3 125231. 2695.54   2
   3   1   3 129268. 2410.90   4
  -4  -1  -3 3014.01 816.692   2
  -5  -1  -3 59636.8 2521.81   2
   6   1   3 2274.24 1676.38  12
   6   1   3 3754.72 1889.87   6
   7   1   3 52675.2 2960.65   6
   8   1   3 9910.58 1693.63   6
   7  -3  -4 45890.3 4385.29   6
   6  -3  -4-284.866 1352.94   8
   5  -3  -4 80803.6 3658.56   6
   5  -3  -4 80932.7 3347.02   8
   5  -3  -4 89305.7 3222.26   7
   5  -3  -4 79746.0 3400.30   3
   4  -3  -4 5159.10 1237.76   3
   3  -3  -4 48599.4 2483.18   0
   2  -3  -4 2330.21 833.667   0
   1  -3  -4 199420. 4378.01   0
   0  -3  -4 42829.1 1982.30   0
  -1  -3  -4 65364.8 1824.63   2
  -1  -3  -4 67959.5 2316.51   0
  -2  -3  -4 10106.9 903.579   2
   2   3   4 11481.4 1104.74   4
   3   3   4 149411. 3330.75   4
  -3  -3  -4 156582. 3161.74   2
   4   3   4 67812.2 2610.46   4
   5   3   4 67971.7 2884.41  12
   6   3   4 26560.5 2250.23  12
   7   3   4 8959.23 1719.22  12
   7   3   4 7914.54 1888.17   6
   8   3   4-523.356 1458.87   6
   6  -5  -5 3241.76 1277.11   7
   5  -5  -5 23287.0 2026.43   7
   4  -5  -5 1937.13 1481.14   7
   4  -5  -5 807.032 1232.85   3
   4  -5  -5 1464.86 1297.39   9
   3  -5  -5 85480.8 3419.95   7
   3  -5  -5 92693.6 3482.21   9
   2  -5  -5 70383.3 3573.76   0
   1  -5  -5 13380.3 1637.67   0
   0  -5  -5 8853.55 1334.10   0
  -1  -5  -5 131320. 4216.64   0
   2   5   5 36297.7 2166.77   4
   3   5   5 19940.3 1900.27   4
   4   5   5 47098.2 2306.07  10
   4   5   5 48927.6 2826.69   4
   5   5   5 4864.93 1358.79  10
   5   5   5 5364.20 1390.57  12
   5   5   5 3950.58 1755.50   4
   6   5   5 4516.29 1433.51  12
   7   5   5 17798.0 1684.99  12
   7   5   5 17067.2 1798.16   6
   5  -7  -6 34159.3 1576.79   7
   4  -7  -6 33530.3 2086.06   7
   3  -7  -6 2263.25 1458.33   7
  -2   7   6 10257.2 1292.59  13
   2  -7  -6 8270.33 1543.12   7
  -1   7   6 42921.1 2216.99  13
   1  -7  -6 45713.5 2668.69   7
   0   7   6 38258.8 2287.70   4
   0  -7  -6 43343.2 2663.28   7
   0   7   6 42542.0 2270.05  13
   1   7   6 11413.2 1687.77   4
   1   7   6 10435.9 1393.04  13
   2   7   6 60463.3 2636.30  13
   2   7   6 64237.5 2702.15  10
   3   7   6 5229.06 1281.64  13
   3   7   6 3741.82 1245.46  10
   4   7   6 18634.3 1621.40  12
   5   7   6 10934.4 1375.16  12
   4   8   1 34092.0 1626.98  12
   4   8   1 36728.2 1584.41  10
   3   8   1 25124.0 1576.60  10
   2   8   1 17437.4 1449.26  13
   2   8   1 20840.8 1520.91  10
   1   8   1 10311.0 1352.07  13
   0   8   1 9929.57 1355.73  13
  -1   8   1 6472.75 1145.65  13
  -2   8   1 16756.4 1350.50  13
   6   6   0 36469.1 1979.51  12
   5   6   0 56341.1 2443.95  10
   4   6   0 7686.02 1496.52  10
   3   6   0 36086.1 2294.76   4
   3   6   0 36316.0 2206.16  10
   2   6   0 27920.5 1959.33   4
   2   6   0 27230.4 2013.73  10
   1   6   0 36201.4 2218.86  13
   1   6   0 36045.8 2165.42  10
   1   6   0 38721.0 2091.92   4
   0   6   0 49527.9 2574.63  13
  -1   6   0 47282.6 2518.19  13
  -2   6   0 10993.0 1667.75  13
   2  -6   0 8310.70 1680.48   7
  -3   6   0 47460.7 2370.36  13
   3  -6   0 43642.3 2660.59   7
   3  -6   0 51038.8 2543.09   3
   4  -6   0 21898.8 2059.80   7
   5  -6   0 61298.6 2624.94   7
   6  -6   0 2830.40 943.445   7
   7   4  -1 76624.4 2458.18  11
   7   4  -1 77383.9 2980.73   6
   6   4  -1 2107.80 1138.84  11
   5   4  -1 21977.0 1884.49  11
   5   4  -1 21073.2 2009.38   4
   4   4  -1 16831.4 1690.73   4
   3   4  -1 101681. 3137.66   4
   2   4  -1 24220.2 1598.87   4
  -2  -4   1 24287.6 1908.37   1
  -1  -4   1 150006. 4336.31   1
   1   4  -1 144373. 3030.46   4
   0  -4   1 19718.5 1817.29   1
   0   4  -1 18785.8 1174.04   4
   1  -4   1 11886.1 1597.23   1
   2  -4   1 13059.3 1203.03   3
   2  -4   1 10988.7 1646.55   1
   3  -4   1 173260. 5404.01   0
   3  -4   1 180318. 4161.53   3
   4  -4   1 20235.6 1701.09   3
   4  -4   1 21087.0 4160.63   6
   4  -4   1 26375.6 2039.00   7
   5  -4   1 33688.5 4540.93   6
   5  -4   1 33839.0 2277.86   3
   5  -4   1 34315.8 2410.74   7
   6  -4   1 3664.79 1262.59   7
   6  -4   1 41204.4 4185.13   6
   7  -4   1 20322.5 1538.94   7
   7  -4   1 98064.4 3156.76   6
   8   2  -2 552.063 1402.90   6
   8   2  -2 1014.50 917.502  11
   7   2  -2 10294.0 1939.88   6
   7   2  -2 9014.28 1447.12  11
   6   2  -2 1943.66 1350.22   4
   6   2  -2 1761.33 1837.04   6
   6   2  -2 2576.22 1171.32  11
   5   2  -2 113992. 3850.58   4
   4   2  -2 3777.06 1121.98   4
   3   2  -2 225802. 3976.75   4
   2   2  -2 46046.9 1666.78   4
  -2  -2   2 49595.5 1871.36   1
   1   2  -2 13530.4 884.775   4
  -1  -2   2 15964.5 1302.33   1
   0  -2   2 33504.1 1637.01   1
   1  -2   2 457500. 3817.63   3
   1  -2   2 439194. 5487.47   1
   2  -2   2 92074.6 2598.12   1
   2  -2   2 84414.0 2100.53   3
   3  -2   2 45700.8 1826.66   3
   4  -2   2 50168.9 2231.33   3
   5  -2   2 63297.6 2781.47   3
   6  -2   2 6807.57 1610.14   3
   6  -2   2 3811.48 1959.52   6
   6  -2   2 3374.57 1195.08   7
   7  -2   2 39351.7 2433.64   6
   7  -2   2 31082.1 1931.70   7
   8  -2   2 26376.9 2775.38   6
   7   0  -3 81969.0 3506.30   6
   7   0  -3 85817.3 3074.72  11
   6   0  -3 9318.23 2225.03   6
   6   0  -3 12398.8 1663.05  14
   6   0  -3 11425.3 1750.34   8
   6   0  -3 12048.1 1566.87  11
   6   0  -3 10996.6 1690.18   4
   5   0  -3 114203. 3828.14   4
   4   0  -3 30999.1 1945.50   4
   3   0  -3 30362.8 1720.11   4
   2   0  -3 1811.56 963.584   4
   2   0  -3 2154.02 527.567   0
   1   0  -3 415234. 4048.81   0
   0   0  -3 194230. 2839.42   0
   1   0   3 54221.0 1746.98   1
   2   0   3 2801.00 598.195   1
   2   0   3 2316.84 729.394   3
   3   0   3 83527.0 2316.43   3
   4   0   3 82743.2 2673.06   3
  -5   0  -3 31950.7 1967.37   2
   6   0   3 65931.4 2646.85  11
  -6   0  -3 61633.6 2897.73   2
   6   0   3 64978.9 3268.41  12
   6   0   3 59573.4 3253.57   6
   7   0   3-342.441 1829.34   6
   8   0   3 8189.78 1613.31   6
   8  -2  -4 23578.5 2540.46   6
   7  -2  -4 17444.0 2533.25   6
   7  -2  -4 11119.1 1626.92   8
   6  -2  -4 56328.4 2754.48  11
   6  -2  -4 57082.4 3212.95   6
   6  -2  -4 62577.1 3155.61   8
   5  -2  -4 30933.7 2151.29   4
   4  -2  -4 13138.2 1505.52   4
   4  -2  -4 12254.2 1384.53   3
   3  -2  -4 131366. 3408.87   0
   3  -2  -4 128324. 3287.53   4
   2  -2  -4 246088. 3958.99   4
   2  -2  -4 263746. 4542.09   0
   1  -2  -4 27046.1 1591.90   0
   0  -2  -4 4794.64 818.678   0
   0  -2  -4 3863.92 644.656   2
  -1  -2  -4 94620.1 1924.91   2
  -1  -2  -4 101088. 2389.70   0
  -2  -2  -4 322395. 3878.41   2
   2   2   4 324664. 3599.07   4
  -2  -2  -4 324407. 4026.43   0
  -3  -2  -4 41078.3 1689.06   2
   3   2   4 41843.2 1659.47   4
  -4  -2  -4 186665. 3841.16   2
   6   2   4 7317.98 1718.01  12
   6   2   4 5048.94 1844.60   6
   7   2   4 14978.8 2099.90   6
   7   2   4 16222.0 1949.83  12
   8   2   4 56743.4 2468.51   6
   6  -4  -5 14541.3 1622.48   7
   6  -4  -5 13422.1 1603.31   8
   5  -4  -5 20757.3 2056.08   3
   5  -4  -5 18349.3 1914.02   8
   5  -4  -5 18270.6 1928.19   7
   4  -4  -5 145804. 4426.69   9
   4  -4  -5 151072. 4196.68   7
   4  -4  -5 138450. 4145.52   3
   3  -4  -5 274.896 965.381   0
   2  -4  -5 21470.3 1886.25   0
   1  -4  -5 72461.5 3133.28   0
   0  -4  -5 146010. 4188.60   0
  -1  -4  -5 18595.6 1544.66   0
   2   4   5 143959. 3529.84   4
  -2  -4  -5 153900. 3265.25   2
   3   4   5 3646.45 1075.83   4
  -3  -4  -5 3445.39 803.439   2
   4   4   5 12846.1 1674.97   4
   5   4   5 4066.43 1407.19  12
   6   4   5 86208.0 3351.94  12
   7   4   5 11486.6 1662.06  12
   7   4   5 11455.5 1802.42   6
   5  -6  -6 5673.09 1500.91   7
   4  -6  -6 22459.2 2108.80   7
   3  -6  -6 14591.8 1917.49   7
   3  -6  -6 12332.4 1514.69   3
   2  -6  -6 65995.7 3052.85   7
   2  -6  -6 71464.6 3085.69   9
   1  -6  -6 12978.2 1810.37   9
   1  -6  -6 10979.1 1620.40   7
  -1   6   6 13887.2 1458.29  13
   0  -6  -6 83050.0 3540.24   9
   0  -6  -6 88103.4 3507.85   7
   0   6   6 84436.7 2956.37  13
   1   6   6 5991.15 1344.12  10
   1   6   6 5014.93 1250.42   4
  -1  -6  -6 4780.82 1520.62   7
   1   6   6 6451.34 1254.17  13
   2   6   6 51208.9 2815.26   4
   2   6   6 44533.5 2274.90  13
   2   6   6 49301.0 2384.17  10
   3   6   6-355.734 1161.74  13
   3   6   6 1826.94 1168.02  10
   3   6   6-113.228 1318.92   4
   4   6   6 80746.8 2914.06  10
   5   6   6 24588.2 1883.47  12
   6   6   6 3794.41 1297.99  12
   3  -8  -7 9713.43 1231.26   7
   2  -8  -7 19712.8 1634.96   7
   1  -8  -7 9552.21 1341.56   7
  -1   8   7 8985.01 1166.85  13
   0   8   7 38185.5 1945.50  13
   1   8   7 3153.03 1069.72  13
   2   8   7 43965.7 2037.99  13
   5   7   0 20323.5 1513.24  10
   5   7   0 19287.1 1617.56  12
   4   7   0 102.312 1117.84  10
   3   7   0 46070.6 2341.72  10
   2   7   0 1542.03 1217.83  10
   2   7   0 542.587 1202.25  13
   1   7   0 58511.8 2796.27  13
   1   7   0 66948.4 2669.16  10
   0   7   0 26171.3 2052.11  13
  -1   7   0 29389.0 2078.41  13
  -2   7   0 2118.43 1181.45  13
   3  -7   0 82086.4 2826.47   7
  -3   7   0 82727.8 2684.36  13
   4  -7   0 20516.9 1527.36   7
   7   5  -1 16963.6 1670.54   6
   6   5  -1 2543.95 1352.94  12
   6   5  -1 2254.66 1073.74  11
   5   5  -1 55598.0 2547.01  10
   5   5  -1 48579.8 2443.63  11
   4   5  -1 5011.65 1376.65  11
   4   5  -1 3605.96 1346.82  10
   4   5  -1 5263.26 1297.44   4
   3   5  -1 65692.8 3007.10  11
   3   5  -1 74356.8 2966.28   4
   2   5  -1 46518.3 2222.90   4
  -1  -5   1 23649.1 2194.78   1
   1   5  -1 26919.5 1636.74   4
  -1  -5   1 19989.4 1946.96   0
   0  -5   1 5917.36 1562.93   1
   0  -5   1 3969.52 1239.48   0
   1  -5   1 82666.0 4060.74   0
   1  -5   1 86946.1 4053.30   1
   2  -5   1 76940.3 4021.05   0
   2  -5   1 91689.5 3037.37   3
   3  -5   1 9318.76 1671.24   7
   3  -5   1 9450.01 1336.01   3
  -3   5  -1 11334.7 1479.83  13
   4  -5   1 26755.7 2183.27   7
   4  -5   1 26430.4 2049.78   3
   5  -5   1 10634.7 1704.53   7
   6  -5   1 23171.2 1784.09   7
   8   3  -2 1436.30 852.240  11
   7   3  -2 37631.4 2083.01  11
   7   3  -2 38893.4 2490.92   6
   6   3  -2 28620.7 2043.09  11
   6   3  -2 27053.3 2253.25   4
   5   3  -2 40487.8 2445.66   4
   5   3  -2 40699.7 2260.71  11
   4   3  -2 56268.8 2548.44   4
   3   3  -2 10246.3 1232.44   4
  -2  -3   2 37076.0 1998.78   1
   2   3  -2 31855.2 1591.74   4
   1   3  -2 145638. 2636.95   4
  -1  -3   2 136459. 3701.97   1
   0  -3   2 163393. 4091.36   1
   0   3  -2 183626. 2599.43   4
   1  -3   2 5218.27 811.639   3
   1  -3   2 3827.86 1196.57   1
   2  -3   2 85556.8 3095.51   1
   2  -3   2 73419.9 2185.86   3
   3  -3   2 30273.7 1707.99   3
   4  -3   2 84494.2 2992.48   3
   5  -3   2 9917.80 1412.02   3
   5  -3   2 9723.12 1592.05   7
   6  -3   2 52322.0 2686.86   7
   7  -3   2 1427.39 1013.49   7
   7  -3   2 15122.2 3304.54   6
   8   1  -3 38842.7 2121.93   6
   8   1  -3 39385.8 1861.15  11
   7   1  -3 16830.3 2144.04   6
   7   1  -3 18176.3 1729.34  11
   6   1  -3 60090.9 2885.82  14
   6   1  -3 55816.7 3001.28   4
   6   1  -3 56295.0 2592.35  11
   6   1  -3 57541.5 3128.74   6
   5   1  -3 4901.34 1306.19   4
   4   1  -3 35580.7 2085.51   4
   3   1  -3 126595. 3080.57   4
   2   1  -3 347795. 4093.41   4
  -2  -1   3 341191. 4349.06   1
  -1  -1   3 9043.33 1128.08   1
   0  -1   3 105069. 2536.71   1
   1  -1   3 40617.3 1683.63   1
   2  -1   3 113552. 2264.09   3
   2  -1   3 115042. 2475.00   1
   3  -1   3 787.435 812.244   3
   4  -1   3 154965. 3654.21   3
   5  -1   3 5786.15 1183.39   3
  -6   1  -3 16227.3 1794.16   2
   6  -1   3 16291.6 2306.81   6
   7  -1   3 2396.57 1136.46   7
   7  -1   3 4035.84 1744.16   6
   8  -1   3 19030.8 2629.27   6
   7  -1  -4 276.735 1114.21  14
   7  -1  -4 280.327 1165.51  11
   6  -1  -4 33872.6 2210.45  11
   6  -1  -4 37524.7 2362.63  14
   6  -1  -4 36555.7 2609.21   8
   6  -1  -4 33423.9 2829.14   6
   5  -1  -4 16542.3 1798.30   4
   4  -1  -4 198299. 4551.56   4
   3  -1  -4 10722.7 952.458   0
   3  -1  -4 10524.8 1367.78   4
   2  -1  -4 46957.4 1738.05   0
   2  -1  -4 49665.5 1941.84   4
   1  -1  -4 6590.43 815.779   0
   0  -1  -4 289100. 3732.61   0
  -1  -1  -4 21117.6 1132.87   0
  -2  -1  -4 297332. 3644.15   2
  -2  -1  -4 297674. 3782.73   0
  -3  -1  -4 20339.4 1325.14   2
  -4  -1  -4 45224.4 2032.72   2
  -5  -1  -4 6867.90 1128.57   2
   6   1   4 86678.3 3611.83   6
   6   1   4 102449. 3811.25  12
   7   1   4 24763.4 2252.47  12
   7   1   4 27410.8 2433.93   6
   8   1   4 10757.7 1638.21   6
   7  -3  -5 2154.79 1153.85   8
   7  -3  -5 20957.6 3629.33   6
   6  -3  -5 54699.8 5728.83   6
   6  -3  -5 115605. 3917.92   8
   5  -3  -5 14283.5 2027.98   8
   5  -3  -5 14661.4 1922.27   3
   4  -3  -5 20541.4 1791.21   3
   3  -3  -5 5561.95 1106.67   0
   2  -3  -5 195381. 4694.56   0
   1  -3  -5 58593.9 2516.46   0
   0  -3  -5 121149. 3362.32   0
  -1  -3  -5 34018.8 1472.69   2
  -1  -3  -5 38443.0 1879.68   0
   2   3   5 51444.0 1888.62   4
  -2  -3  -5 49990.4 1802.85   2
   3   3   5 7281.30 1111.14   4
  -3  -3  -5 7378.56 971.385   2
  -4  -3  -5 90581.3 2847.70   2
   4   3   5 97534.8 3036.82   4
   5   3   5 78804.1 3053.24  12
   6   3   5 3616.93 1495.10  12
   7   3   5 7156.77 1734.67   6
   7   3   5 8344.03 1659.93  12
   8   3   5 10106.2 1567.92   6
   8   3   5 870.225 1048.07  12
   6  -5  -6 11165.6 1437.84   7
   5  -5  -6 3821.00 1421.92   7
   5  -5  -6 373.784 1211.52   8
   4  -5  -6 101868. 3608.68   3
   4  -5  -6 108055. 3836.15   9
   4  -5  -6 104821. 3725.09   7
   3  -5  -6 48611.2 2725.78   9
   3  -5  -6 45589.4 2625.93   7
   2  -5  -6 9399.06 1647.09   0
   1  -5  -6 57234.2 3183.66   0
   0  -5  -6 23074.1 1987.95   0
  -1  -5  -6 23447.8 1909.04   0
   2   5   6 80329.6 3134.30   4
   3   5   6 109703. 3845.25   4
   3   5   6 117457. 3323.25  10
   3   5   6 117875. 3449.30  13
   4   5   6 380.758 1144.65  10
   4   5   6 342.262 1316.79   4
   5   5   6 16613.7 1789.37  12
   6   5   6 14237.8 1688.31  12
   7   5   6 28853.2 1871.85  12
   7   5   6 27997.3 1864.55   6
   4  -7  -7 3297.98 1331.58   7
   3  -7  -7 25006.4 2150.89   7
   2  -7  -7 8492.21 1605.78   7
  -1   7   7 32523.5 1989.73  13
   1  -7  -7 30506.2 2250.48   7
   0  -7  -7 28249.0 2223.95   9
   0  -7  -7 29102.2 2255.86   7
   0   7   7 24405.9 1792.14  13
  -1  -7  -7 70158.8 3319.29   9
   1   7   7 67829.6 2726.97  13
   2   7   7 2707.61 1165.54  13
  -2  -7  -7 1363.26 1414.07   9
   3   7   7 22473.1 1631.73  12
   3   7   7 22186.9 1751.56  13
   4   7   7 12817.9 1426.51  12
   5   7   7 33152.2 1752.12  12
   4   8   0 16415.1 1242.63  12
   4   8   0 14236.0 1140.14  10
   3   8   0 14707.5 1322.39  10
   2   8   0 45673.5 1938.60  10
   2   8   0 40151.7 1861.91  13
   1   8   0 8271.36 1256.37  13
   0   8   0 12466.9 1423.67  13
  -1   8   0 33958.5 1847.86  13
  -2   8   0 36076.1 1714.70  13
   6   6  -1 40943.0 1888.05  12
   5   6  -1 5403.38 1338.97  10
   4   6  -1 39121.9 2296.79  10
   4   6  -1 44322.3 2384.52  11
   3   6  -1 2419.25 1466.92  11
   3   6  -1 2801.34 1176.94   4
   2   6  -1 25729.4 1971.86  10
   2   6  -1 27018.3 1948.21   4
   2   6  -1 27333.3 2072.92  13
   1   6  -1 44704.2 2465.17  13
   1   6  -1 45656.3 2396.90  10
   0   6  -1 114899. 3714.81  13
  -1   6  -1 9685.20 1604.22  13
  -2   6  -1 4135.34 1233.31  13
   3  -6   1 1432.36 1346.93   7
  -3   6  -1 130.571 1038.56  13
   4  -6   1 50472.9 2642.91   7
   5  -6   1 344.678 1167.97   7
   7   4  -2 330.498 1365.70   6
   7   4  -2 301.260 968.616  11
   6   4  -2 40316.6 2254.23  11
   5   4  -2 58.6521 1144.26   4
   5   4  -2 370.592 1213.57  11
   4   4  -2 33751.5 2162.82   4
   3   4  -2 10685.4 1314.71   4
   2   4  -2 262992. 4524.55   4
  -2  -4   2 275483. 5923.67   1
   1   4  -2 57651.1 2007.33   4
  -1  -4   2 54385.5 2833.18   1
   0  -4   2 29260.0 2259.27   1
   1  -4   2 5728.57 1428.62   1
   1  -4   2 9586.19 1024.23   3
   2  -4   2 148266. 4702.76   1
   2  -4   2 159489. 3570.38   3
   3  -4   2 394.620 1102.12   0
   3  -4   2 1963.54 994.223   3
   4  -4   2 49087.4 4302.99   6
   4  -4   2 46796.5 2693.75   7
   4  -4   2 45979.9 2422.56   3
   5  -4   2 30607.8 2288.13   7
   5  -4   2 28851.9 2141.68   3
   6  -4   2 14406.1 1667.11   7
   6  -4   2 72351.1 3897.25   6
   8   2  -3 17959.1 1371.87  11
   8   2  -3 17172.9 1620.09   6
   7   2  -3 4336.65 1693.40   6
   7   2  -3 1844.42 1131.52  11
   6   2  -3 33976.4 2168.30  11
   6   2  -3 36941.7 2492.79   4
   6   2  -3 37322.0 2690.21   6
   5   2  -3 317.973 1065.22   4
   4   2  -3 240017. 4911.82   4
   3   2  -3 34952.4 1808.17   4
   2   2  -3 65226.0 1956.39   4
  -2  -2   3 69973.1 2382.78   1
  -1  -2   3 2420.89 994.514   1
   1   2  -3 2994.43 720.777   4
   0  -2   3 229375. 4280.50   1
   1  -2   3 91086.7 2856.18   1
   1  -2   3 96165.9 1939.06   3
   2  -2   3 85783.8 2706.69   1
   2  -2   3 80880.6 2118.81   3
   3  -2   3 39278.9 1811.99   3
   4  -2   3 40096.1 2083.22   3
   5  -2   3 9657.39 1461.31   3
   6  -2   3 64579.0 3033.68   3
  -6   2  -3 60992.2 2856.50   2
   6  -2   3 59530.5 2792.44   7
   6  -2   3 56042.5 3002.49   6
   7  -2   3 29859.0 3285.11   6
   7  -2   3 49095.3 2321.52   7
   8  -2   3 19523.4 2466.84   6
   8   0  -4 12464.6 1488.53   6
   7   0  -4 1304.89 1228.93  14
   7   0  -4 1273.66 1133.12  11
   7   0  -4 59.5338 1794.39   6
   6   0  -4 51610.6 2539.40  11
   6   0  -4 51255.2 2727.87  14
   6   0  -4 57248.1 2974.09   4
   6   0  -4 52833.2 2970.78   8
   6   0  -4 52945.4 3119.22   6
   5   0  -4 89099.3 3497.00   4
   4   0  -4 18659.4 1676.64   4
   3   0  -4 11055.9 1242.45   4
   2   0  -4 201935. 3406.93   4
   2   0  -4 206440. 3454.96   0
   1   0  -4 389570. 4589.78   0
   0   0  -4 41911.4 1612.18   0
   1   0   4 36465.4 1720.11   1
   2   0   4 19920.1 1161.09   1
   2   0   4 20553.5 1234.48   3
   3   0   4 60257.8 2072.22   3
  -4   0  -4 91691.7 2854.21   2
   4   0   4 94140.7 2869.64   3
  -5   0  -4 197669. 4651.43   2
  -6   0  -4 600.847 1072.94   2
   6   0   4 173.935 1778.07   6
   6   0   4 1531.40 1627.23  12
   7   0   4 6111.54 1882.27   6
   8   0   4 3671.62 1335.92   6
   7  -2  -5 43635.4 2433.21   8
   6  -2  -5 2394.12 1324.73  11
   6  -2  -5 1111.57 1941.09   6
   6  -2  -5 4138.42 1674.03   8
   6  -2  -5 3257.33 1362.20  14
   5  -2  -5 14348.2 1852.95  14
   5  -2  -5 14240.9 1793.74  11
   5  -2  -5 15567.5 1738.86   4
   5  -2  -5 13728.5 2096.43   8
   5  -2  -5 14865.8 2595.61   6
   4  -2  -5 86022.5 2974.53   3
   4  -2  -5 91035.2 3239.44   4
   3  -2  -5 217140. 4431.28   4
   3  -2  -5 216753. 4552.03   0
   2  -2  -5 36028.2 1866.18   0
   2  -2  -5 32983.5 1799.48   4
   1  -2  -5 109585. 2958.65   0
   0  -2  -5 34302.9 1648.20   0
   0  -2  -5 27511.7 1165.83   2
  -1  -2  -5 37276.9 1384.67   2
  -1  -2  -5 38421.5 1681.57   0
  -2  -2  -5 96861.5 2332.39   2
   2   2   5 91815.1 2019.60   4
  -2  -2  -5 98954.7 2538.91   0
  -3  -2  -5 265097. 4271.61   2
   3   2   5 288955. 3901.74   4
  -4  -2  -5 1616.79 815.953   2
  -5  -2  -5 8278.15 1282.30   2
   6   2   5 5336.31 1554.92  12
   6   2   5 5911.28 1831.34   6
   7   2   5 43563.3 2667.37   6
   7   2   5 44954.9 2660.26  12
   8   2   5 343.688 994.042  12
   6  -4  -6 22901.9 1939.25   8
   6  -4  -6 81486.7 4265.68   6
   5  -4  -6 68042.0 3145.99   8
   5  -4  -6 70833.5 2972.33   7
   5  -4  -6 66726.8 3153.57   3
   4  -4  -6 3078.48 1258.26   3
   4  -4  -6 3968.94 1448.43   7
   4  -4  -6 3843.20 1531.36   9
   3  -4  -6 100601. 3999.66   0
   2  -4  -6 599.004 972.574   0
   1  -4  -6 47612.8 2637.38   0
   0  -4  -6 2396.43 848.023   0
  -1  -4  -6 203584. 4792.19   0
   2   4   6 13575.8 1389.45   4
  -2  -4  -6 7449.76 1005.66   2
   3   4   6 59824.4 2586.57   4
  -3  -4  -6 60996.9 2347.18   2
   4   4   6 1573.71 1236.95   4
   5   4   6 104278. 3502.65  12
   6   4   6 14879.4 1786.13  12
   7   4   6 18441.4 1797.76  12
   7   4   6 20201.8 1885.69   6
   5  -6  -7 26592.6 1911.98   7
   4  -6  -7 1174.47 1526.98   7
   3  -6  -7 45426.1 2558.27   9
   3  -6  -7 46415.4 2640.07   7
   2  -6  -7 1209.41 1271.60   7
   2  -6  -7 1101.47 1153.02   9
   1  -6  -7 57515.3 2847.07   7
   1  -6  -7 64038.0 3136.62   9
  -1   6   7 60891.1 2540.76  13
   0   6   7 51429.6 2365.66  13
   0  -6  -7 48265.1 2873.72   9
   0  -6  -7 44413.2 2678.85   7
   1   6   7 39835.9 2213.28  10
   1   6   7 36826.4 2424.67   4
  -1  -6  -7 40099.6 2596.37   7
   1   6   7 40364.8 2189.41  13
   2   6   7 1110.79 1010.56  13
   2   6   7 804.188 1211.09   4
   2   6   7 1949.65 1168.46  10
   3   6   7 84979.4 3651.65   4
   3   6   7 89109.8 3101.45  10
   4   6   7 26871.4 1905.49  12
   5   6   7 10581.2 1467.73  12
   6   6   7 10046.1 1383.89  12
   3  -8  -8 24376.9 1444.99   7
   2  -8  -8 22105.7 1680.45   7
   1  -8  -8 6131.00 1283.89   7
  -1   8   8 6162.39 1023.01  13
   0   8   8 4249.88 991.100  13
   1   8   8 34045.4 1870.75  13
   2   8   8 45502.3 2018.10  13
  -2  -8  -8 1934.71 1139.53   9
  -3  -8  -8-177.261 854.060   9
   5   7  -1 8585.81 1306.24  12
   5   7  -1 7795.86 1187.41  10
   4   7  -1 21077.2 1678.05  10
   3   7  -1 2720.05 1226.74  10
   2   7  -1 83097.8 3016.76  10
   2   7  -1 81593.6 3078.35  13
   1   7  -1 25629.5 1863.23  10
   1   7  -1 21817.6 1932.14  13
   0   7  -1 13338.7 1687.20  13
  -1   7  -1 3009.91 1285.50  13
  -2   7  -1 27038.4 1958.01  13
  -3   7  -1 6633.43 1195.70  13
   4  -7   1 26753.3 1501.76   7
   6   5  -2 14955.2 1492.36  11
   5   5  -2 4661.37 1404.79  11
   5   5  -2 2854.65 1265.66  10
   4   5  -2 86147.6 3348.24   4
   4   5  -2 92679.6 3310.29  10
   3   5  -2 78290.9 3223.27  11
   3   5  -2 82918.5 3086.74  10
   3   5  -2 86701.0 3180.38   4
   2   5  -2 10500.5 1323.61   4
  -1  -5   2 35830.2 2773.64   1
  -1  -5   2 38795.8 2616.63   0
   1   5  -2 42173.2 2010.15   4
   0  -5   2 99665.3 4357.03   1
   0  -5   2 88700.7 4129.34   0
   1  -5   2 25884.9 2377.49   0
   1  -5   2 30338.5 2746.53   1
   2  -5   2 29377.0 2746.06   0
   2  -5   2 37488.5 2080.97   3
  -3   5  -2 83526.3 3078.25  13
   3  -5   2 80764.4 3365.67   7
   3  -5   2 81655.9 3060.10   3
   4  -5   2 6937.58 1528.79   7
   4  -5   2 6741.79 1363.65   3
   5  -5   2 17380.9 1838.03   7
   6  -5   2 23042.3 1722.67   7
   8   3  -3 6009.40 948.931  11
   7   3  -3 16347.4 1592.86  11
   7   3  -3 17127.0 1929.84   6
   6   3  -3 64603.0 3156.61   4
   6   3  -3 59020.1 2697.19  11
   6   3  -3 61446.0 2971.48   6
   5   3  -3 112039. 3505.57  11
   5   3  -3 106016. 3765.04   4
   4   3  -3 3133.03 1114.81   4
   3   3  -3 21172.3 1560.00   4
   2   3  -3 84734.2 2442.72   4
  -2  -3   3 86136.4 3100.96   1
   1   3  -3 158192. 2862.33   4
  -1  -3   3 153490. 4154.93   1
   0  -3   3 17477.3 1685.11   1
   1  -3   3 170207. 4462.01   1
   1  -3   3 178008. 2966.28   3
   2  -3   3 1287.94 758.567   3
   2  -3   3 1227.80 1078.17   1
   3  -3   3 27355.9 1678.59   3
   4  -3   3 14168.2 1544.12   3
   5  -3   3 137001. 4068.79   3
   5  -3   3 148424. 4345.29   7
   6  -3   3 9417.97 1522.58   7
   7  -3   3 12343.9 1349.46   7
   7  -3   3 34798.3 3362.86   6
   8   1  -4 8264.39 1184.77  11
   8   1  -4 5990.14 1341.20   6
   7   1  -4 56149.7 2530.39  11
   7   1  -4 53063.6 2857.59   6
   6   1  -4 1942.34 1366.09  14
   6   1  -4 1109.43 1135.30  11
   6   1  -4 742.212 1791.19   6
   6   1  -4 2004.46 1470.54   4
   5   1  -4 32927.9 2372.66   4
   4   1  -4 30406.2 2045.02   4
   3   1  -4 254167. 4441.37   4
  -2  -1   4 1049.20 923.509   1
   2   1  -4 1027.39 771.071   4
  -1  -1   4 122907. 3128.02   1
   0  -1   4 11339.3 1338.33   1
   1  -1   4 32828.5 1758.75   1
   2  -1   4 14246.0 1248.30   1
   2  -1   4 13946.1 1048.67   3
   3  -1   4 315696. 4551.19   3
   4  -1   4 26181.8 1727.14   3
   5  -1   4 14384.6 1636.52   3
   6  -1   4 3854.86 1700.46  12
  -6   1  -4 3959.63 1153.46   2
   6  -1   4-465.185 1875.50   6
   7  -1   4 36370.9 2117.07   7
   7  -1   4 36674.4 2453.97   6
   7  -1  -5 10041.3 1438.64  11
   7  -1  -5 10688.2 1568.67  14
   7  -1  -5 9805.16 1854.56   6
   6  -1  -5 340.939 1357.39  14
   6  -1  -5 416.083 1197.09  11
   6  -1  -5-360.401 1613.24   8
   6  -1  -5 1636.41 1372.53   4
   5  -1  -5 233537. 5508.80   4
   4  -1  -5 15096.7 1676.28   4
   3  -1  -5 78706.0 2559.59   0
   3  -1  -5 82500.4 2788.22   4
   2  -1  -5 1726.78 687.579   0
   2  -1  -5 2344.56 1103.29   4
   1  -1  -5 96767.0 2568.36   0
   1  -1  -5 93836.5 2304.50   4
   0  -1  -5 4498.80 824.538   0
  -1  -1  -5 427593. 5190.02   0
  -1  -1  -5 440751. 4001.02   2
  -2  -1  -5 45223.4 1623.10   2
  -3  -1  -5 48961.4 1935.25   2
  -4  -1  -5-223.919 709.850   2
  -5  -1  -5 93902.9 3254.27   2
   6   1   5 26582.8 2362.09  12
  -6  -1  -5 27025.5 2105.93   2
   6   1   5 25457.4 2444.05   6
   7   1   5 15898.6 1901.03  12
   7   1   5 12099.1 2036.98   6
   8   1   5 12798.2 1588.24   6
   7  -3  -6 31482.3 1961.37   8
   7  -3  -6 71667.1 3530.37   6
   6  -3  -6 56769.4 2964.73   8
   6  -3  -6 24053.4 4778.01   6
   5  -3  -6 28690.6 2506.60   8
   4  -3  -6 8314.93 1366.78   3
   3  -3  -6 95325.5 3545.93   0
   2  -3  -6 22119.3 1751.88   0
   1  -3  -6 100502. 3376.11   0
   0  -3  -6 135502. 3704.91   0
  -1  -3  -6 15082.1 1321.29   0
  -1  -3  -6 10212.8 1068.86   2
  -2  -3  -6 22768.1 1401.30   2
  -3  -3  -6 152910. 3534.70   2
   3   3   6 155871. 3439.52   4
  -4  -3  -6 169732. 4021.97   2
   5   3   6 7668.86 1601.01  12
   6   3   6 46997.6 2681.99  12
   6   3   6 45624.1 2769.40   6
   7   3   6 7992.38 1629.72  12
   7   3   6 8730.53 1680.10   6
   8   3   6 9025.56 1267.74  12
   6  -5  -7 9522.64 1209.61   8
   5  -5  -7 25665.4 1961.20   8
   5  -5  -7 27843.4 2071.44   7
   4  -5  -7 50279.9 2649.48   3
   4  -5  -7 52548.6 2822.43   9
   4  -5  -7 56368.6 2805.58   7
   3  -5  -7 39950.6 2581.61   9
   3  -5  -7 42188.0 2522.10   7
   2  -5  -7 66000.1 3601.11   0
   2  -5  -7 73578.8 3027.75   7
   1  -5  -7 3447.48 1132.97   0
   0  -5  -7 26572.1 2189.61   0
  -1  -5  -7 94825.6 3747.01   0
   2   5   7 105310. 3686.56   4
   3   5   7 1254.06 1324.43   4
   3   5   7 2929.16 1319.13  10
   3   5   7 1964.40 1189.73  13
   4   5   7 39101.9 2207.06  12
   4   5   7 35529.8 2486.39   4
   5   5   7 5917.70 1401.67  12
   6   5   7 10549.3 1565.30  12
   7   5   7 318.411 1228.41   6
  -7  -5  -7 878.632 883.487   5
   7   5   7 822.127 1185.13  12
   4  -7  -8 42997.9 2147.22   7
   3  -7  -8-499.721 1378.78   7
   2  -7  -8 13307.9 1577.92   9
   2  -7  -8 13866.7 1821.80   7
   1  -7  -8 13804.8 1657.80   9
   1  -7  -8 14249.8 1792.87   7
  -1   7   8 12636.1 1396.01  13
   0  -7  -8 97755.3 3690.94   9
   0  -7  -8 103886. 3776.22   7
   0   7   8 95831.2 3155.69  13
  -1  -7  -8 5209.77 1513.24   9
   1   7   8 6554.79 1199.67  13
  -2  -7  -8 31097.5 2525.14   9
   2   7   8 28741.7 1930.14  13
   3   7   8 3039.34 1139.74  13
  -4  -7  -8 39853.7 2073.44   5
   4   7   8 38111.5 1850.34  12
   5   7   8 845.344 995.492  12
  -5  -7  -8 1347.31 965.454   5
   3   8  -1 41360.6 1726.86  10
   2   8  -1 727.133 947.894  10
   1   8  -1 13132.7 1384.54  13
   0   8  -1 20068.4 1590.82  13
  -1   8  -1 39212.1 1907.21  13
  -2   8  -1 10302.0 1112.32  13
   6   6  -2-876.220 1084.48   6
   5   6  -2 66101.9 2582.75  10
   5   6  -2 64671.5 2448.68  11
   4   6  -2 4441.53 1417.15  10
   4   6  -2 1948.89 1260.66  11
   3   6  -2 26044.5 2116.77  11
   3   6  -2 29031.8 2098.65  10
   3   6  -2 29915.0 2181.20   4
   2   6  -2 10662.4 1544.72  10
   2   6  -2 11845.0 1517.04   4
   1   6  -2 117017. 3557.97  10
   1   6  -2 112711. 3756.03  13
   0   6  -2 1723.65 1178.21  13
  -1   6  -2 63462.2 2936.42  13
  -2   6  -2 14697.8 1812.19  13
  -3   6  -2 63201.1 2773.59  13
   3  -6   2 61420.2 2874.21   7
   4  -6   2 4552.52 1324.06   7
   5  -6   2 49358.2 2222.84   7
   7   4  -3 53084.2 2127.21  11
   7   4  -3 62859.9 2347.19   6
   6   4  -3 6497.96 1388.28  11
   5   4  -3 16876.0 1788.68  11
   5   4  -3 16000.1 1865.66   4
   4   4  -3 342.324 1322.24  10
   4   4  -3 19.8626 1306.59  11
   4   4  -3 526.105 995.821   4
   3   4  -3 151734. 3919.03   4
   2   4  -3 15900.5 1390.69   4
  -2  -4   3 13302.0 1719.42   1
   1   4  -3 103977. 2693.85   4
  -1  -4   3 91122.1 3768.57   1
   0  -4   3 18464.1 1922.95   1
   1  -4   3 51894.9 2987.57   1
   2  -4   3 4066.80 961.773   3
   2  -4   3 5008.33 1495.69   1
   3  -4   3 61332.9 3505.73   0
   3  -4   3 67636.6 2668.77   3
   4  -4   3 57179.4 3916.43   6
   4  -4   3 48070.1 2639.64   7
   4  -4   3 53208.8 2601.88   3
   5  -4   3 4231.15 1339.27   3
   5  -4   3 3853.11 1453.33   7
   6  -4   3 65123.3 3478.63   6
   6  -4   3 4160.18 1246.77   7
   7  -4   3 20589.9 1502.36   7
   8   2  -4 7532.68 1123.40  11
   7   2  -4 8514.84 1770.00   6
   7   2  -4 6073.06 1289.45  11
   6   2  -4 257.500 1394.44   4
   6   2  -4 506.038 1117.44  11
   6   2  -4 652.112 1655.92   6
   6   2  -4 1770.05 1454.98  14
   5   2  -4 82365.2 2993.29  11
   5   2  -4 79509.3 3306.13   4
   5   2  -4 86167.0 3340.23  14
   4   2  -4 82757.9 3075.19   4
   3   2  -4 41227.2 2009.70   4
   2   2  -4 28956.7 1501.92   4
  -2  -2   4 32109.1 1906.78   1
   1   2  -4 94440.8 2064.17   4
  -1  -2   4 92774.8 3054.53   1
   0  -2   4 72477.5 2756.02   1
   1  -2   4 254730. 3175.19   3
   1  -2   4 247026. 4847.61   1
   2  -2   4 119813. 3419.71   1
   2  -2   4 116332. 2579.43   3
   3  -2   4 8513.10 1023.30   3
   4  -2   4 10425.1 1300.32   3
   5  -2   4 68892.2 3154.45  12
   5  -2   4 58729.7 3015.06   6
   5  -2   4 66048.6 2834.84   3
  -6   2  -4 48344.2 2518.98   2
   6  -2   4 46402.8 2771.57   6
   6  -2   4 48867.8 2624.83   7
   7  -2   4 4763.85 1189.89   7
   7   0  -5 75193.7 2835.95  11
   7   0  -5 72805.5 3052.65  14
   7   0  -5 70525.7 3097.66   6
   6   0  -5 61359.4 3279.24   6
   6   0  -5 56159.2 2638.71  11
   6   0  -5 57513.2 3042.73   4
   6   0  -5 54281.8 3161.39   8
   6   0  -5 54326.8 2912.56  14
   5   0  -5 10247.8 1739.35   4
   4   0  -5 36116.8 2264.24   4
   3   0  -5 34305.6 1928.90   4
   2   0  -5 81473.8 2507.55   0
   2   0  -5 83124.2 2422.74   4
  -2   0   5 81496.5 2709.03   1
   1   0  -5 268059. 4327.22   0
   0   0  -5 404358. 5295.44   0
   1   0   5 2130.51 1140.95   1
   2   0   5 42895.5 1824.76   1
  -2   0  -5 42660.8 1546.76   2
  -3   0  -5 74010.4 2328.88   2
  -4   0  -5 178888. 3983.93   2
  -5   0  -5 5170.73 1070.59   2
   6   0   5 40030.7 2727.86  12
  -6   0  -5 39664.4 2348.01   2
   6   0   5 35850.7 2646.87   6
   7   0   5-607.419 1726.09   6
   7   0   5 651.579 1473.89  12
   8   0   5 21520.9 1567.08   6
   7  -2  -6 443.528 1019.28  14
   7  -2  -6 1452.27 1427.60   8
   6  -2  -6 29471.5 2117.08  11
   6  -2  -6 30120.8 2234.61  14
   6  -2  -6 32006.8 2264.29   4
   6  -2  -6 27181.0 2374.55   8
   6  -2  -6 34374.6 2535.85   6
   5  -2  -6 17090.9 1781.61  11
   5  -2  -6 17431.3 1880.16   4
   5  -2  -6 16830.7 2077.06   8
   5  -2  -6 16989.7 1938.46  14
   5  -2  -6 17855.6 2429.58   6
   4  -2  -6 34204.7 2243.34   4
   3  -2  -6 13759.5 1387.57   0
   3  -2  -6 15004.5 1474.43   4
   2  -2  -6 317705. 5549.85   0
   2  -2  -6 311581. 4989.17   4
   1  -2  -6 9384.44 1151.96   0
   0  -2  -6 29659.3 1699.58   0
   0  -2  -6 26093.7 1180.07   2
  -1  -2  -6 3061.31 886.163   0
  -1  -2  -6 2335.73 786.491   2
  -2  -2  -6 279586. 4118.99   2
  -2  -2  -6 283640. 4723.14   0
  -3  -2  -6 16040.9 1274.02   2
  -4  -2  -6 95273.4 3055.08   2
  -5  -2  -6 1072.56 1036.31   2
   6   2   6 39105.2 2586.34  12
   6   2   6 40283.8 2711.11   6
   7   2   6-166.914 1607.57   6
   7   2   6 925.516 1444.23  12
   8   2   6 34146.1 1739.85  12
   8   2   6 24672.2 1661.57   6
   6  -4  -7 47972.7 2412.86   8
   6  -4  -7 111242. 4038.49   6
   5  -4  -7 3736.05 1400.33   7
   5  -4  -7 146.165 1322.27   8
   4  -4  -7 87721.9 3678.69   9
   4  -4  -7 87359.1 3383.32   3
   3  -4  -7 9913.39 1437.53   0
   2  -4  -7 37408.8 2520.16   0
   1  -4  -7 14673.2 1615.90   0
   0  -4  -7 163377. 4691.86   0
  -1  -4  -7 67408.2 2940.40   0
   2   4   7 64467.4 2591.09   4
  -2  -4  -7 62752.1 2365.65   2
   3   4   7 1253.86 1040.92   4
  -3  -4  -7 711.410 826.392   2
   4   4   7 51925.6 2505.21  12
  -4  -4  -7 55985.7 2479.30   2
   5   4   7 2146.84 1367.91  12
   6   4   7 42857.5 2483.33  12
   7   4   7 16860.3 1698.63  12
   7   4   7 18550.0 1716.21   6
   5  -6  -8 10785.8 1153.05   8
   5  -6  -8 13348.9 1502.59   7
   4  -6  -8 18578.4 1971.23   7
   3  -6  -8 1876.56 1246.21   9
   3  -6  -8 2511.16 1454.22   7
   2  -6  -8 85943.8 3492.44   9
   2  -6  -8 85137.8 3362.68   7
   1  -6  -8 49575.4 2849.96   9
   1  -6  -8 50202.8 2712.96   7
  -1   6   8 57277.0 2477.20  13
   0  -6  -8 7477.53 1574.91   9
   0  -6  -8 6119.66 1520.35   7
   0   6   8 6469.03 1215.65  13
   1   6   8 26442.5 2228.36   4
   1   6   8 21911.2 1710.57  13
   2   6   8 27705.5 2244.31   4
   2   6   8 26143.3 1907.73  13
   3   6   8 41915.8 2127.52  12
   3   6   8 41351.9 2798.38   4
   3   6   8 41782.4 2314.81  13
   4   6   8 86288.3 2931.65  12
   5   6   8 31437.4 1908.65  12
   6   6   8 2109.56 1215.35  12
  -6  -6  -8 2162.23 1020.98   5
   6   6   8 2685.11 1164.63   6
   2  -8  -9 3380.60 1196.35   7
  -1   8   9 14614.1 1218.95  13
   0  -8  -9 18037.8 1457.83   9
   0   8   9 23808.7 1535.05  13
   1   8   9 15958.3 1406.08  13
  -1  -8  -9 13884.9 1406.38   9
  -2  -8  -9 2818.71 1115.59   9
   2   8   9 5407.27 1080.47  13
  -3  -8  -9 33420.3 1752.16   9
   5   7  -2 9846.83 1174.30  12
   5   7  -2 8905.67 1138.54  10
   4   7  -2 783.392 1083.63  10
   3   7  -2 56940.0 2452.52  11
   3   7  -2 61916.3 2569.43  10
   2   7  -2 23824.5 1861.24  10
   1   7  -2 15119.1 1718.79  13
   1   7  -2 15474.3 1604.40  10
   0   7  -2 40807.5 2381.23  13
  -1   7  -2 23537.9 1891.97  13
  -2   7  -2 5668.39 1277.51  13
  -3   7  -2 22932.2 1548.13  13
   6   5  -3 7917.08 1588.39   6
   6   5  -3 6168.86 1237.30  11
   5   5  -3 44242.4 2386.02  10
   5   5  -3 40966.0 2363.00  11
   4   5  -3 68122.9 3035.60  11
   4   5  -3 72877.6 3029.67  10
   4   5  -3 66718.6 2983.98   4
   3   5  -3 9437.21 1678.07  11
   3   5  -3 11377.6 1547.48   4
   2   5  -3 38741.0 2119.50   4
  -1  -5   3 43843.5 3120.81   1
   0  -5   3 18720.2 2308.55   1
   1  -5   3 33879.5 2942.35   1
  -2   5  -3 98865.6 3423.82  13
   3  -5   3 962.932 1135.76   3
   3  -5   3 1088.03 1195.92   7
  -3   5  -3 1235.85 1167.54  13
   4  -5   3 1218.17 1264.96   7
   4  -5   3 2265.82 1300.18   3
   5  -5   3 9603.49 1547.99   7
   6  -5   3 43344.9 2109.81   7
   7   3  -4 19432.3 1618.28  11
   7   3  -4 22759.4 1841.01   6
   6   3  -4 47775.6 2456.38  11
   6   3  -4 56443.6 2819.93   6
   5   3  -4 748.672 1155.48  11
   5   3  -4 289.907 1115.10   4
   4   3  -4 46254.1 2447.03   4
   3   3  -4 13881.4 1363.59   4
   2   3  -4 109842. 2835.60   4
  -2  -3   4 114490. 3839.55   1
   1   3  -4 37966.7 1555.72   4
  -1  -3   4 35688.8 2324.98   1
   0  -3   4 276645. 5910.79   1
   1  -3   4 34060.6 2281.77   1
   2  -3   4 33947.9 2307.90   1
   2  -3   4 34889.7 1671.84   3
   3  -3   4 22675.4 1607.49   3
   4  -3   4 175256. 4269.08   3
   5  -3   4 1045.23 1544.37  12
   5  -3   4 931.477 1096.04   3
   5  -3   4 461.687 1224.12   7
   6  -3   4 33850.4 2249.60   7
   6  -3   4 24959.4 3937.15   6
   7  -3   4 2785.29 1000.70   7
   7  -3   4 50060.8 2829.65   6
   8   1  -5 36681.5 1702.34  11
   7   1  -5 375.168 1087.79  11
   6   1  -5 18417.7 2031.49  14
   6   1  -5 19096.6 1801.13  11
   6   1  -5 20069.5 2133.04   4
   5   1  -5 403.542 1111.01   4
   4   1  -5 172954. 4377.95   4
   3   1  -5 924.168 863.749   4
  -2  -1   5 348850. 5703.51   1
   2   1  -5 334821. 4501.02   4
   1   1  -5 5272.28 932.288   4
  -1  -1   5 4517.65 1359.73   1
   0  -1   5 70569.7 2661.25   1
   1  -1   5 5542.13 767.028   3
   1  -1   5 6303.99 1180.73   1
   2  -1   5 228023. 4310.48   1
   2  -1   5 225515. 3466.07   3
   3  -1   5 43604.7 1843.32   3
   4  -1   5 42135.7 2074.85   3
  -5   1  -5 22265.0 1721.67   2
   6  -1   5 50299.6 2821.47  12
  -6   1  -5 47918.2 2589.44   2
   6  -1   5 45722.2 2836.05   6
   7  -1   5 6264.93 1448.56  12
   7  -1   5 5938.96 1217.68   7
   7  -1   5 2940.34 1484.97   6
   8  -1   5-372.093 708.038   7
   8  -1   5 4433.23 2359.73   6
   7  -1  -6 4287.77 1339.93  14
   7  -1  -6 4189.90 1264.56  11
   7  -1  -6 7387.13 1739.25   6
   6  -1  -6 23145.4 1920.05  11
   6  -1  -6 25501.5 2266.31   4
   6  -1  -6 20653.0 2158.71   8
   6  -1  -6 20656.1 2112.30  14
   5  -1  -6 33990.9 2518.05  14
   5  -1  -6 33541.7 2460.74   4
   5  -1  -6 31577.8 2583.12   8
   4  -1  -6 115801. 3773.59   4
   3  -1  -6 41867.0 2178.62   4
   3  -1  -6 46669.6 2178.86   0
   2  -1  -6 79239.9 2663.60   0
   2  -1  -6 82835.3 2603.02   4
   1  -1  -6 26464.6 1528.03   4
   1  -1  -6 23893.6 1501.92   0
   0  -1  -6 188468. 2561.78   2
   0  -1  -6 182924. 3801.50   0
  -1  -1  -6 183196. 2849.19   2
  -1  -1  -6 185808. 3833.99   0
  -2  -1  -6 7646.06 926.862   2
  -3  -1  -6 8717.99 1024.91   2
  -4  -1  -6 84606.0 2888.96   2
  -5  -1  -6 22916.1 1815.11   2
   6   1   6 22423.5 2185.70  12
  -6  -1  -6 19809.7 1877.84   2
   6   1   6 21358.1 2183.28   6
   7   1   6 63686.4 2939.77  12
   7   1   6 56732.0 2859.73   6
   7  -3  -7 5891.34 1279.13   8
   6  -3  -7 23150.0 2142.22   8
   6  -3  -7 21118.3 1805.87  14
   5  -3  -7 27387.8 2152.28  14
   5  -3  -7 22991.7 2251.32   8
   4  -3  -7 9230.78 1437.91   3
   3  -3  -7 42582.5 2497.77   0
   2  -3  -7 168750. 4700.33   0
   1  -3  -7 154284. 4347.77   0
   0  -3  -7 31631.6 1982.25   0
  -1  -3  -7 36238.0 2052.95   0
  -1  -3  -7 32952.3 1591.29   2
  -2  -3  -7 94019.7 2723.92   2
  -3  -3  -7 60163.0 2412.85   2
  -4  -3  -7 33883.9 2047.20   2
   5   3   7 107229. 3616.71  12
  -5  -3  -7 120531. 3733.01   2
   6   3   7 8079.45 1654.37  12
   6   3   7 6845.77 1818.42   6
   7   3   7 4035.68 1499.62   6
   7   3   7 3253.22 1438.86  12
   6  -5  -8 5554.84 1067.05   8
   5  -5  -8 10944.7 1596.57   7
   5  -5  -8 9483.59 1579.68   8
   4  -5  -8 38360.0 2455.02   7
   4  -5  -8 35377.1 2422.39   9
   3  -5  -8 93982.5 3723.44   9
   3  -5  -8 101879. 3549.04   7
   2  -5  -8 701.964 1247.33   9
   2  -5  -8 1918.10 1246.16   7
   1  -5  -8 30895.3 2507.48   0
   0  -5  -8 11193.1 1522.45   0
  -1  -5  -8 91026.1 3798.86   0
   2   5   8 2302.18 1247.10   4
   3   5   8 84277.4 3484.00   4
   3   5   8 88941.9 3134.37  13
   4   5   8-96.9761 1144.07  12
   5   5   8 29553.3 2051.62  12
   6   5   8 771.653 1210.62  12
   6   5   8 1845.69 1382.12   6
   7   5   8 69689.0 2230.74  12
  -7  -5  -8 66067.2 1952.60   5
   4  -7  -9 3688.05 1224.36   7
   3  -7  -9 25663.0 1703.56   9
   3  -7  -9 26402.9 2086.21   7
   2  -7  -9 6602.22 1611.82   7
   2  -7  -9 8085.04 1367.37   9
   1  -7  -9 51569.0 2654.62   9
   1  -7  -9 47575.4 2580.26   7
  -1   7   9 52817.8 2289.37  13
   0  -7  -9 7730.44 1525.71   9
   0  -7  -9 8405.68 1565.27   7
   0   7   9 8841.79 1315.15  13
   1   7   9 38513.9 2132.94  13
  -1  -7  -9 42066.2 2740.65   9
  -2  -7  -9 6137.58 1589.95   9
   2   7   9 7377.85 1290.85  13
   3   7   9 42898.8 2154.13  13
  -4  -7  -9 2496.37 1114.73   5
   4   7   9 2143.34 981.576  12
   5   7   9 33965.3 1515.15  12
  -5  -7  -9 40682.9 1764.44   5
   3   8  -2 105.392 818.101  10
   2   8  -2 35453.8 1582.88  10
   1   8  -2 897.242 885.831  13
   0   8  -2 24126.3 1575.82  13
  -1   8  -2 5567.99 1012.00  13
  -2   8  -2 32712.7 1509.65  13
   5   6  -3 543.335 1085.75  11
   5   6  -3 2176.05 1194.40  10
   4   6  -3 16636.4 1786.94  11
   4   6  -3 20783.5 1850.05  10
   3   6  -3 876.859 1363.18  11
   3   6  -3 1308.23 1320.12  10
   2   6  -3 54881.6 2677.51  10
   1   6  -3 1756.39 1340.75  10
   1   6  -3 936.205 1169.40  13
   0   6  -3 110571. 3772.50  13
  -1   6  -3 11276.5 1720.59  13
  -2   6  -3 16230.6 1799.56  13
  -3   6  -3 1571.18 1124.23  13
   4  -6   3 57872.4 2525.58   7
   5  -6   3 5790.35 1173.97   7
   7   4  -4 4004.28 1065.86  11
   6   4  -4 12631.1 1558.58  11
   5   4  -4 957.244 1218.18  11
   5   4  -4 1941.71 1377.27  10
   5   4  -4 1282.06 1231.89   4
   4   4  -4 60536.8 2828.03  11
   4   4  -4 63789.6 2927.87  10
   4   4  -4 60922.9 2839.08   4
   3   4  -4 13682.7 1514.55   4
   2   4  -4 123006. 3294.32   4
  -2  -4   4 117665. 4380.00   1
  -1  -4   4 106531. 4268.28   1
   0  -4   4 16247.1 2013.54   1
   1  -4   4 24824.8 2321.72   1
   2  -4   4 166823. 3749.60   3
   2  -4   4 147965. 5038.96   1
   3  -4   4 67448.7 2740.07   3
   4  -4   4 21999.0 1952.21   7
   4  -4   4 19033.2 1782.52   3
   5  -4   4 80112.0 3878.89   6
   5  -4   4 32158.2 2235.22   7
   6  -4   4 15379.8 1577.18   7
   7  -4   4 14211.6 1280.08   7
   8   2  -5 2831.02 882.782  11
   7   2  -5 3342.31 1134.47  11
   6   2  -5 64692.6 2795.78  11
   6   2  -5 61096.8 3026.14  14
   6   2  -5 68644.8 3200.08   4
   5   2  -5 33927.9 2150.39  11
   5   2  -5 32427.2 2286.15   4
   5   2  -5 31456.4 2305.05  14
   4   2  -5 82960.6 3133.46   4
   3   2  -5 149890. 3666.37   4
  -2  -2   5 6690.35 1288.85   1
   2   2  -5 5860.30 1020.66   4
   1   2  -5 22592.2 1224.44   4
  -1  -2   5 20219.4 1785.91   1
   0  -2   5 228747. 5067.89   1
   1  -2   5 181093. 4496.92   1
   1  -2   5 187938. 2874.34   3
   2  -2   5 1891.53 736.500   3
   2  -2   5 727.212 1006.19   1
   3  -2   5 35162.0 1809.58   3
   4  -2   5 13387.3 1437.36   3
   5  -2   5 58260.1 2982.69  12
   5  -2   5 48910.8 2515.69   3
   6  -2   5 13529.3 1755.52  12
  -6   2  -5 13486.5 1534.98   2
   7  -2   5 35695.9 2024.39   7
   7  -2   5 13812.8 3281.85   6
   7   0  -6 18244.3 1840.77  14
   7   0  -6 18491.5 1655.13  11
   6   0  -6 15111.7 1705.19  11
   6   0  -6 15595.4 1950.92  14
   6   0  -6 16702.9 1873.69   4
   6   0  -6 15321.3 2139.69   8
   5   0  -6 73184.0 3344.71   4
   4   0  -6 2372.28 1140.85   4
   3   0  -6 5862.38 1281.77   4
  -2   0   6 18396.6 1640.00   1
   2   0  -6 22156.7 1554.44   0
   2   0  -6 20792.2 1462.43   4
   1   0  -6 495301. 6486.88   0
   1   0  -6 492878. 4871.31   4
   0   0   6 3281.15 1050.37   1
   0   0  -6 3243.13 906.895   0
   1   0   6 32713.9 1999.60   1
  -1   0  -6 34991.3 1361.78   2
   2   0   6 18410.1 1507.01   1
  -2   0  -6 16737.2 1142.39   2
  -3   0  -6 108796. 2893.68   2
  -4   0  -6 10734.9 1279.20   2
  -5   0  -6 146420. 4056.81   2
   6   0   6 2317.70 1710.96  12
  -6   0  -6 1926.41 1173.88   2
   7   0   6 8894.00 1641.15  12
   7   0   6 12105.8 1792.34   6
   7  -2  -7 21078.3 1634.89  14
   7  -2  -7 21360.5 1912.03   8
   6  -2  -7 687.781 1278.08  11
   6  -2  -7 2160.99 1633.78   8
   6  -2  -7 284.221 1360.60  14
   5  -2  -7 46173.6 2550.32  11
   5  -2  -7 49234.4 2793.49   4
   5  -2  -7 52368.9 3036.14   8
   5  -2  -7 49023.9 2831.12  14
   4  -2  -7 28469.7 2154.93   4
   3  -2  -7 246788. 5124.07   4
   3  -2  -7 237435. 5358.02   0
   2  -2  -7 10205.5 1262.90   0
   2  -2  -7 10251.0 1251.29   4
   1  -2  -7 28456.8 1878.30   0
   0  -2  -7 44453.7 1608.40   2
   0  -2  -7 54567.9 2392.57   0
  -1  -2  -7 119532. 2607.73   2
  -1  -2  -7 124375. 3487.54   0
  -2  -2  -7 33719.0 1886.02   0
  -2  -2  -7 33412.4 1665.07   2
  -3  -2  -7 256859. 4634.33   2
  -4  -2  -7 20067.1 1665.92   2
   5   2   7 37966.5 2469.11  12
  -5  -2  -7 36174.6 2264.34   2
   6   2   7 2595.39 1721.82   6
   6   2   7 1876.74 1499.04  12
  -6  -2  -7 2902.43 1256.79   2
   7   2   7 78626.7 3104.98  12
   7   2   7 67581.2 2717.69   6
   8   2   7 16471.0 1401.44  12
   6  -4  -8 5259.48 1394.34   8
   5  -4  -8 74521.7 3213.77   8
   4  -4  -8 49843.2 2877.96   9
   4  -4  -8 55101.1 2659.48   7
   4  -4  -8 55596.4 2768.93   3
   3  -4  -8 29081.6 2400.66   0
   3  -4  -8 33729.5 2529.89   9
   2  -4  -8 2490.54 1004.62   0
   1  -4  -8 141182. 4723.31   0
   0  -4  -8 20314.3 1815.08   0
  -1  -4  -8 63407.9 3023.44   0
  -2  -4  -8 33638.2 1889.05   2
   3   4   8 211.022 1175.20   4
  -3  -4  -8 1887.09 887.963   2
   4   4   8 27669.7 2035.27  12
  -4  -4  -8 28496.5 1945.02   2
   5   4   8 113684. 3674.31  12
   6   4   8 50625.2 2622.51  12
   6   4   8 58017.9 2627.88   6
   7   4   8 1602.92 1212.89  12
  -7  -4  -8 2909.19 944.201   5
   5  -6  -9 10401.3 1188.99   8
   5  -6  -9 8043.86 1235.45   7
   4  -6  -9 4603.77 1488.25   7
   3  -6  -9 38442.1 2372.16   9
   3  -6  -9 40158.3 2476.60   7
   2  -6  -9 39646.3 2496.96   9
   2  -6  -9 37504.4 2434.18   7
   1  -6  -9 21010.0 2054.65   9
   1  -6  -9 21405.7 1931.85   7
  -1   6   9 25157.5 1769.85  13
   0  -6  -9 48453.7 2972.98   9
   0  -6  -9 45122.5 2583.54   7
   0   6   9 53161.9 2429.75  13
   1   6   9 16884.6 1857.35   4
  -1  -6  -9 20296.7 2246.49   9
   1   6   9 18949.9 1676.30  13
   2   6   9 6285.00 1682.09   4
   2   6   9 8361.41 1309.67  13
   3   6   9 36976.3 2180.03  13
   4   6   9 72839.7 2648.46  12
   5   6   9 1237.09 1085.69  12
   6   6   9 9043.48 1209.42  12
  -6  -6  -9 8927.80 1117.67   5
   1  -8 -10 119.242 766.992   9
  -1   8  10 7643.67 961.700  13
   0   8  10 14530.8 1258.82  13
   0  -8 -10 12181.3 1326.80   9
  -1  -8 -10 9794.19 1325.86   9
   1   8  10 8566.56 1117.39  13
  -2  -8 -10 34726.5 1858.35   9
  -3  -8 -10 1276.87 932.474   9
   4   7  -3 22841.0 1452.24  11
   4   7  -3 22397.8 1616.01  10
   3   7  -3 14104.8 1494.31  11
   3   7  -3 13445.7 1494.46  10
   2   7  -3 26926.9 2004.73  11
   2   7  -3 28613.0 1902.28  10
   1   7  -3 52919.6 2309.32  10
   1   7  -3 50499.0 2549.80  13
   0   7  -3 12461.5 1566.23  13
  -1   7  -3 5664.43 1354.50  13
  -2   7  -3 33664.4 2029.50  13
  -3   7  -3 69976.1 2381.48  13
   6   5  -4 14087.3 1428.03  11
   5   5  -4 20392.3 1839.22  11
   5   5  -4 20319.0 1868.68  10
   4   5  -4 11380.4 1665.03  11
   4   5  -4 11429.6 1707.89  10
   4   5  -4 11349.0 1611.01   4
   3   5  -4 109018. 3803.36  11
   3   5  -4 113150. 3738.97  10
   3   5  -4 116454. 3643.14   4
   2   5  -4 6924.41 1604.36  10
  -1  -5   4 29416.2 2731.00   1
   0  -5   4 47753.2 3422.37   1
  -1   5  -4 109139. 3605.36  13
  -2   5  -4 5316.70 1402.43  13
  -3   5  -4 31019.4 2171.45  13
   4  -5   4 1347.97 1100.12   7
   5  -5   4 46564.9 2423.80   7
   6  -5   4 517.080 995.833   7
   7   3  -5 23237.6 1659.15  11
   6   3  -5 3564.11 1264.93  11
   5   3  -5 49814.2 2545.95  11
   5   3  -5 56560.1 2900.74   4
   4   3  -5 16835.3 1759.36   4
   3   3  -5 56927.2 2474.91   4
  -2  -3   5 4513.24 1260.55   1
   2   3  -5 5689.91 1005.00   4
  -1  -3   5 234033. 5770.32   1
   0  -3   5 11680.4 1705.39   1
   1  -3   5 56107.6 2970.29   1
   2  -3   5 942.896 1103.69   1
   2  -3   5 855.721 733.575   3
   3  -3   5 78030.1 2721.14   3
   4  -3   5 767.105 892.482   3
   4  -3   5 780.640 1469.15  12
   5  -3   5 36836.7 2374.36  12
   5  -3   5 34497.9 2300.05   7
   5  -3   5 32091.6 2179.27   3
   6  -3   5 17548.1 1755.11   7
   7  -3   5 6781.32 1145.97   7
   8   1  -6 422.898 846.831  11
   7   1  -6 41257.0 2153.30  11
   6   1  -6 5925.29 1575.40   4
   6   1  -6 5898.67 1343.94  11
   6   1  -6 5813.24 1641.14  14
   5   1  -6 2866.94 1269.44  11
   5   1  -6 3030.31 1544.30   8
   5   1  -6 3126.71 1282.86   4
   5   1  -6 3274.42 1542.44  14
   4   1  -6 5009.12 1350.49   4
   3   1  -6 185991. 4158.63   4
  -2  -1   6 44331.9 2439.43   1
   2   1  -6 47179.5 1958.73   4
  -1  -1   6 71202.7 2937.57   1
   1   1  -6 76012.5 1979.74   4
   0  -1   6 14600.0 1657.42   1
   1  -1   6 167046. 4182.68   1
  -1   1  -6 164948. 2652.76   2
   2  -1   6 66137.7 2702.16   1
   2  -1   6 64994.5 2023.70   3
   3  -1   6 90526.5 2661.96   3
   4  -1   6 75976.8 2769.87   3
  -4   1  -6 66565.3 2601.54   2
  -5   1  -6 39221.8 2237.32   2
   5  -1   6 43323.0 2740.66  12
   6  -1   6 1859.40 1617.69  12
  -6   1  -6 1754.69 1114.96   2
   7  -1   6 50319.7 2362.03  12
   7  -1   6 42946.0 2195.88   7
   8  -1   6 21580.7 1193.95   7
   7  -1  -7 25612.8 1728.65  11
   7  -1  -7 24427.5 1930.78  14
   6  -1  -7 583.959 1487.90  14
   6  -1  -7 1200.55 1289.72  11
   6  -1  -7 1872.58 1476.15   8
   6  -1  -7 1004.22 1310.02   4
   5  -1  -7 150527. 3929.17  11
   5  -1  -7 140642. 4464.62  14
   5  -1  -7 150789. 4666.58   4
   5  -1  -7 148611. 4723.04   8
   4  -1  -7 65350.4 2985.35   4
   3  -1  -7 5191.22 974.138   0
   3  -1  -7 3683.19 1207.21   4
   2  -1  -7 44586.2 2074.00   4
   2  -1  -7 44460.2 2217.68   0
   1  -1  -7 249408. 3984.14   4
   1  -1  -7 246585. 4886.35   0
   0  -1  -7 110490. 3257.79   0
   0  -1  -7 112873. 2153.32   2
  -1  -1  -7 117644. 2458.59   2
  -1  -1  -7 120218. 3441.54   0
  -2  -1  -7 181642. 3373.90   2
  -3  -1  -7 12381.9 1225.50   2
  -4  -1  -7 11844.7 1355.97   2
   5   1   7 28166.0 2437.26  12
  -5  -1  -7 23988.7 1955.04   2
  -6  -1  -7 115284. 3857.71   2
   6   1   7 106825. 3917.82  12
   7   1   7 2714.81 1410.40  12
   8   1   7 11385.1 1249.22  12
   7  -3  -8 27261.7 1740.35   8
   6  -3  -8 46292.4 2626.32   8
   6  -3  -8 43304.7 2283.27  14
   5  -3  -8 72.2050 1580.92   8
   5  -3  -8 419.567 1367.54  14
   4  -3  -8 18289.6 1952.29  14
   4  -3  -8 13258.9 1845.62   9
   3  -3  -8 41595.5 2665.96   0
   2  -3  -8 95986.2 3768.62   0
   1  -3  -8 12620.5 1485.00   0
   0  -3  -8 120939. 3953.03   0
  -1  -3  -8 10810.0 1208.83   2
  -1  -3  -8 14082.4 1486.50   0
  -2  -3  -8 56498.8 2224.95   2
  -3  -3  -8 14058.7 1373.13   2
  -4  -3  -8 132514. 3920.24   2
   5   3   8 2634.40 1369.20  12
  -5  -3  -8-179.160 984.394   2
   6   3   8 14319.9 1868.98  12
   7   3   8 1163.81 1277.29  12
   6  -5  -9 3083.40 1028.20   8
   5  -5  -9 25693.9 1921.14   8
   5  -5  -9 26921.0 1893.26   7
   4  -5  -9 46795.1 2726.60   9
   4  -5  -9 48413.7 2583.78   7
   3  -5  -9 2700.92 1381.98   7
   3  -5  -9 3129.87 1281.91  14
   3  -5  -9 4158.76 1374.91   9
   2  -5  -9 62782.9 3098.15   9
   2  -5  -9 57295.9 2718.60   7
   1  -5  -9 7242.84 1556.90   9
   1  -5  -9 10374.2 1488.69   7
   0  -5  -9 36441.6 2681.28   0
  -1  -5  -9 3493.70 1342.25   0
   2   5   9 103299. 3306.79  13
   2   5   9 101845. 3739.92   4
   3   5   9 20530.4 2004.63   4
   3   5   9 17690.2 1764.08  13
   4   5   9 43485.0 2310.43  12
   5   5   9 7764.34 1480.51  12
   6   5   9 45052.0 2218.43  12
  -6  -5  -9 44850.2 2102.29   5
   4  -7 -10 22125.6 1389.51   7
   3  -7 -10 795.095 872.168   9
   3  -7 -10-62.1590 1287.72   7
   2  -7 -10 31726.0 1997.99   9
   2  -7 -10 33809.5 2166.71   7
   1  -7 -10 1561.10 1162.36   9
   1  -7 -10 1508.49 1282.86   7
  -1   7  10 1480.10 953.606  13
   0  -7 -10 71757.8 3186.82   9
   0   7  10 66564.7 2597.05  13
   1   7  10 28177.1 1839.96  13
  -1  -7 -10 30723.4 2335.16   9
  -2  -7 -10 2966.51 1359.00   9
   2   7  10 4518.72 1186.99  13
  -3  -7 -10 1971.55 1261.42   9
  -4  -7 -10 57207.0 2243.37   5
  -5  -7 -10 15058.6 1276.70   9
   2   8  -3 3135.09 869.756  10
   1   8  -3 13442.7 1148.85  11
   1   8  -3 15143.6 1204.33  13
   0   8  -3 1358.10 897.012  13
  -1   8  -3 63588.2 2099.75  13
  -2   8  -3 6520.95 840.791  13
   5   6  -4 29536.5 1814.77  10
   5   6  -4 30191.5 1776.20  11
   4   6  -4 6259.46 1416.73  11
   4   6  -4 4946.95 1349.49  10
   3   6  -4 18872.4 1919.82  11
   3   6  -4 20286.0 1897.64  10
   2   6  -4 610.445 1315.75  10
   1   6  -4 98510.9 3587.42  13
   1   6  -4 99978.6 3411.33  10
   0   6  -4 34731.4 2328.36  13
  -1   6  -4 15077.8 1772.07  13
  -2   6  -4 12406.7 1631.65  13
  -3   6  -4 35564.0 2127.09  13
   5  -6   4 20784.8 1350.05   7
   7   4  -5 14591.2 1307.60  11
   6   4  -5 7016.06 1334.18  11
   5   4  -5 18359.4 1818.48  11
   5   4  -5 24053.7 2052.39  10
   4   4  -5 1223.85 1287.78  11
   4   4  -5 804.101 1402.59  10
   4   4  -5 392.910 1140.25   4
   3   4  -5 80612.3 3039.49   4
   2   4  -5 99452.1 3069.94   4
  -2  -4   5 100227. 4296.42   1
  -1  -4   5 13048.6 2027.24   1
   0  -4   5 27770.3 2545.76   1
   1  -4   5 133679. 5004.00   1
   2  -4   5 45072.7 3047.88   1
   3  -4   5 15953.6 1802.39   7
   3  -4   5 17990.7 1683.16   3
  -3   4  -5 17459.9 1814.49  13
   4  -4   5 36713.1 2354.27   7
   4  -4   5 41997.8 2385.10   3
   5  -4   5 1808.59 1225.28   7
   6  -4   5 8559.20 1280.16   7
   7  -4   5 25282.6 1345.51   7
   7   2  -6 7604.36 1263.51  11
   6   2  -6 6062.48 1353.79  11
   6   2  -6 6804.44 1603.67  14
   5   2  -6 72904.7 2909.42  11
   5   2  -6 71326.7 3147.92  14
   5   2  -6 70278.1 3253.95   4
   4   2  -6 111851. 3700.22   4
   3   2  -6 16114.7 1526.96   4
  -2  -2   6 2490.57 1181.89   1
   2   2  -6 1726.77 871.885   4
  -1  -2   6 50602.0 2719.58   1
   0  -2   6 280416. 5926.70   1
   1  -2   6 3757.70 1306.64   1
   2  -2   6 135117. 4107.65   1
   2  -2   6 141624. 3050.11   3
   3  -2   6 3656.02 1008.18   3
   4  -2   6 37058.0 2070.09   3
   5  -2   6 21329.2 2059.69  12
  -5   2  -6 19381.4 1633.19   2
   6  -2   6 133278. 3907.96  12
   7  -2   6 2055.70 1078.12  12
   7  -2   6 2527.50 939.154   7
   7   0  -7 22482.3 1669.14  11
   7   0  -7 20202.8 1890.37  14
   6   0  -7 68039.4 2824.47  11
   6   0  -7 67932.9 3187.10   4
   6   0  -7 67584.3 3195.92   8
   6   0  -7 62616.0 3202.20  14
   5   0  -7 2627.24 1305.18  11
   5   0  -7 3218.32 1533.58   8
   5   0  -7 1727.67 1537.38  14
   5   0  -7 3704.82 1371.52   4
   4   0  -7 50173.3 2637.30   4
   3   0  -7 25678.1 1824.15   4
  -2   0   7 359863. 6458.59   1
   2   0  -7 340353. 5031.14   4
   2   0  -7 360833. 6221.65   0
   1   0  -7 1444.13 818.060   0
  -1   0   7 1956.48 1043.48   1
   1   0  -7 803.187 817.355   4
   0   0   7 246176. 5061.03   1
   0   0  -7 222946. 4798.94   0
  -1   0  -7 7678.47 799.008   2
   1   0   7 5800.07 1273.35   1
  -2   0  -7 5644.59 869.834   2
   2   0   7 4920.22 1186.43   1
  -3   0  -7 2501.66 742.256   2
  -4   0  -7 148923. 3815.47   2
   5   0   7 27350.2 2388.17  12
  -5   0  -7 25226.8 1844.81   2
   6   0   7 16983.9 2080.42  12
  -6   0  -7 17110.5 1729.23   2
   7   0   7 576.957 1308.73  12
   7  -2  -8 4099.42 1395.23   8
   7  -2  -8 3597.19 1088.72  14
   6  -2  -8 13050.8 1891.04   8
   6  -2  -8 9743.59 1652.77  14
   5  -2  -8 21198.1 2094.96   4
   5  -2  -8 18448.8 2229.78   8
   5  -2  -8 20513.7 2051.99  14
   4  -2  -8 64659.1 3089.11   4
   3  -2  -8 29277.2 2061.01   4
   3  -2  -8 22678.1 1920.02   0
   2  -2  -8 79896.6 2870.74   4
   2  -2  -8 75090.2 3136.04   0
   1  -2  -8 15315.3 1525.28   0
   0  -2  -8 84751.3 2221.52   2
   0  -2  -8 93576.0 3352.16   0
  -1  -2  -8 7696.39 977.496   2
  -1  -2  -8 7564.49 1231.99   0
  -2  -2  -8 177170. 4481.68   0
  -2  -2  -8 167696. 3618.15   2
  -3  -2  -8 37882.4 2011.18   2
  -4  -2  -8 2709.46 1070.00   2
   5   2   8 4493.55 1623.16  12
  -5  -2  -8 5711.69 1396.05   2
   6   2   8 103142. 3756.59  12
   7   2   8 18480.8 1856.95  12
   6  -4  -9 41984.9 2119.49   8
   5  -4  -9 16275.3 1713.60  14
   5  -4  -9 14054.0 1916.62   8
   4  -4  -9 56788.0 2763.72  14
   4  -4  -9 46951.5 2874.88   9
   3  -4  -9 8098.40 1586.49  14
   3  -4  -9 7975.14 1515.02   7
   3  -4  -9 7773.91 1588.65   9
   2  -4  -9 48505.3 3054.62   0
   1  -4  -9 14391.2 1733.11   0
   0  -4  -9 114155. 4284.93   0
  -1  -4  -9 79684.6 3553.44   0
  -2  -4  -9 14137.9 1359.64   2
  -3  -4  -9 561.941 927.168   2
   4   4   9 46360.3 2436.41  12
  -4  -4  -9 47190.0 2450.27   2
   5   4   9 68390.0 2935.16  12
   6   4   9 10657.1 1629.13  12
   7   4   9 40505.2 1988.52  12
   5  -6 -10 8436.40 1090.15   8
   4  -6 -10 20750.1 1801.32   7
   3  -6 -10 21223.6 1852.37   9
   3  -6 -10 22042.3 2068.95   7
   2  -6 -10 35242.7 2372.05   9
   2  -6 -10 35145.5 2349.24   7
   1  -6 -10 78258.6 3445.00   9
   1  -6 -10 77632.8 3240.08   7
  -1   6  10 84389.3 2908.16  13
   0  -6 -10 4997.03 1605.78   9
   0  -6 -10 6305.25 1447.94   7
   0   6  10 7544.41 1263.99  13
   1   6  10 28281.3 2272.11   4
   1   6  10 24264.7 1852.22  13
  -2  -6 -10 24998.9 2062.94   5
   2   6  10 24580.6 1837.50  13
   2   6  10 27570.1 2292.11   4
  -3  -6 -10 37967.8 2312.64   5
   4   6  10 1275.44 1074.22  12
  -4  -6 -10 146.267 1142.41   5
  -5  -6 -10 29886.0 1839.21   5
   5   6  10 31380.0 1735.08  12
  -6  -6 -10-430.797 795.537   5
   1  -8 -11 17808.6 1296.45   9
   0  -8 -11 9187.06 1174.17   9
  -1  -8 -11 38523.8 1892.19   9
  -2  -8 -11 1096.47 947.550   9
   4   7  -4 862.769 859.430  11
   4   7  -4 1806.44 1066.12  10
   3   7  -4 21845.3 1610.70  11
   3   7  -4 20748.2 1632.26  10
   2   7  -4 76094.1 2801.93  11
   2   7  -4 70967.9 2609.82  10
   1   7  -4 830.934 1016.26  10
   1   7  -4 1088.42 1156.15  13
   0   7  -4 28663.9 2015.34  13
  -1   7  -4 16247.3 1598.53  13
  -2   7  -4 30262.8 1913.47  13
  -3   7  -4 7072.28 1070.36  13
   6   5  -5 3987.46 1100.14  11
   5   5  -5 32240.8 2080.39  11
   5   5  -5 32323.3 2089.59  10
   4   5  -5 53380.7 2697.33  11
   4   5  -5 50218.1 2728.81  10
   3   5  -5 3303.65 1366.55  11
   3   5  -5 3685.91 1529.42  10
   3   5  -5 4579.50 1286.82   4
   2   5  -5 36375.9 2340.79  10
   1   5  -5 16493.9 1989.12  10
   1   5  -5 18345.2 2040.96  13
   0   5  -5 95442.8 3431.17  13
  -1   5  -5 5867.84 1519.14  13
  -2   5  -5 65297.3 2946.89  13
  -3   5  -5 12245.2 1570.05  13
   4  -5   5 20260.4 1839.89   7
  -4   5  -5 25459.0 1794.51  13
   5  -5   5 3317.86 1202.01   7
   6  -5   5 43108.1 1793.14   7
   7   3  -6 930.808 969.704  11
   6   3  -6 101784. 3281.36  11
   5   3  -6 2039.42 1207.10  11
   5   3  -6 1582.03 1317.02   4
   4   3  -6 5479.61 1419.45  11
   4   3  -6 5264.96 1653.68  10
   4   3  -6 6464.40 1289.77   4
   3   3  -6 381.359 907.914   4
   2   3  -6 187241. 3927.16   4
  -2  -3   6 182211. 5432.75   1
  -1  -3   6 29879.3 2419.51   1
   0  -3   6 130324. 4616.23   1
   1  -3   6 58435.7 3212.67   1
   2  -3   6 29579.9 2360.82   1
   2  -3   6 31055.8 1662.52   3
   3  -3   6 401.148 874.910   3
   4  -3   6 84132.3 3306.88  12
   4  -3   6 80576.5 3003.92   3
   5  -3   6 53166.8 2682.67  12
  -5   3  -6 53690.9 2523.48   2
   5  -3   6 53280.8 2714.11   7
   6  -3   6 11717.6 1513.36   7
   7  -3   6 5581.17 992.248   7
   7   1  -7 13089.1 1405.79  11
   6   1  -7 5363.80 1298.94  11
   6   1  -7 4596.74 1552.76  14
   5   1  -7-119.606 1392.09  14
   5   1  -7 1038.55 1077.08  11
   5   1  -7 40.1604 1436.47   8
   5   1  -7 1020.72 1116.92   4
   4   1  -7 166111. 4510.25   4
   3   1  -7 50792.1 2356.07   4
  -2  -1   7 21691.1 1968.43   1
   2   1  -7 21571.8 1460.57   4
  -1  -1   7 118354. 3934.02   1
   1   1  -7 122012. 2577.59   4
   0  -1   7 43587.3 2505.11   1
  -1   1  -7 4912.56 723.129   2
   1  -1   7 4898.74 1336.27   1
  -2   1  -7 151061. 3111.65   2
   2  -1   7 151429. 4201.39   1
  -3   1  -7 118958. 3147.79   2
  -4   1  -7 8063.93 1132.88   2
   5  -1   7 3661.79 1589.04  12
  -5   1  -7 3032.18 1101.64   2
   6  -1   7 19090.4 2108.05  12
  -6   1  -7 19192.4 1655.00   2
   7  -1   7 31763.5 1982.11  12
   7  -1   7 26455.5 1799.42   7
   7  -1  -8 1063.30 1116.71  14
   6  -1  -8 81307.8 2947.03  11
   6  -1  -8 85685.0 3543.57   8
   5  -1  -8 20377.4 2188.74  14
   5  -1  -8 24164.3 1911.85  11
   5  -1  -8 22440.1 2136.62   4
   5  -1  -8 25424.7 2305.17   8
   4  -1  -8 22375.2 2019.88   4
   3  -1  -8 21215.5 1788.68   4
   2  -1  -8 19729.8 1578.80   4
   2  -1  -8 19829.8 1704.76   0
   1  -1  -8 22952.8 1492.94   4
   1  -1  -8 22661.2 1775.12   0
   0  -1  -8 72421.0 1868.72   2
   0  -1  -8 68828.0 2847.71   0
  -1  -1  -8 170719. 3110.17   2
  -1  -1  -8 168374. 4420.46   0
  -2  -1  -8 2515.19 847.019   2
   2   1   8 2555.18 1116.30   1
  -3  -1  -8 34350.2 1885.45   2
  -4  -1  -8 27376.3 1922.05   2
   5   1   8 101153. 3774.58  12
  -5  -1  -8 100866. 3501.99   2
   6   1   8 8115.37 1803.22  12
  -6  -1  -8 8079.14 1524.01   2
   7   1   8 46811.2 2450.21  12
   7  -3  -9 46665.4 1945.72   8
   6  -3  -9 4336.04 1525.69   8
   6  -3  -9 3847.19 1274.13  14
   5  -3  -9 28998.7 2294.57   8
   5  -3  -9 30777.1 2317.68  14
   4  -3  -9 38034.0 2705.25   9
   4  -3  -9 38574.8 2570.02  14
   3  -3  -9 86881.8 3810.90   0
   2  -3  -9 12432.7 1594.49   0
   1  -3  -9 215531. 5700.65   0
   0  -3  -9 14050.6 1650.92   0
  -1  -3  -9 15288.4 1262.49   2
  -1  -3  -9 16249.9 1670.25   0
  -2  -3  -9 22847.6 1580.09   2
  -3  -3  -9 132928. 3784.90   2
   4   3   9 16802.5 1831.37  12
  -4  -3  -9 19288.5 1712.95   2
   5   3   9 71412.2 3105.49  12
  -5  -3  -9 77002.6 3121.25   2
   6   3   9 1310.75 1381.06  12
  -6  -3  -9 1351.13 1059.55   5
   7   3   9 21495.0 1817.22  12
   6  -5 -10 6564.55 955.582   8
   5  -5 -10 37299.9 2114.07   8
   4  -5 -10 1299.84 1155.45  14
   4  -5 -10 779.022 1141.87   9
   4  -5 -10 471.528 1393.72   7
   3  -5 -10 75603.4 3344.88   9
   3  -5 -10 77166.1 3134.68   7
   3  -5 -10 75091.0 3019.85  14
   2  -5 -10 13771.0 1697.68   9
   2  -5 -10 15291.8 1761.76   7
   1  -5 -10 18482.7 1987.84   9
   1  -5 -10 19241.7 1899.25   7
   0  -5 -10 8680.74 1568.73   9
   0  -5 -10 9073.98 1420.31   7
   1   5  10 129266. 3675.53  13
  -2  -5 -10 25047.8 2018.03   5
   2   5  10 29799.6 2218.12   4
   2   5  10 25961.2 1939.49  13
   4   5  10 6512.02 1404.91  12
  -5  -5 -10 28842.1 1979.86   5
   5   5  10 25471.3 1889.17  12
   6   5  10 3138.46 1163.24  12
  -6  -5 -10 2798.72 1025.15   5
   3  -7 -11 7359.46 1122.53   9
   3  -7 -11 7906.74 1314.86   7
   2  -7 -11 255.266 981.689   9
  -1   7  11 63084.8 2320.42  13
   1  -7 -11 64400.5 2807.55   9
   1  -7 -11 63905.5 2778.18   7
   0  -7 -11 18773.2 1824.93   9
   0   7  11 18881.6 1557.06  13
  -1  -7 -11 4406.99 1412.51   9
   1   7  11 3978.57 1087.93  13
  -2  -7 -11 7681.71 1584.24   9
  -3  -7 -11 23157.8 2029.61   9
  -4  -7 -11 11857.3 1263.40   5
  -4  -7 -11 10351.5 1460.24   9
   1   8  -4 611.908 793.841  11
   0   8  -4 38815.8 1590.11  13
  -1   8  -4 4945.12 855.941  13
   5   6  -5 16808.2 1389.17  11
   5   6  -5 15404.3 1407.91  10
   4   6  -5 30349.9 1968.93  11
   4   6  -5 29367.9 1994.18  10
   3   6  -5 265.286 1174.61  11
   3   6  -5 774.179 1233.82  10
   2   6  -5 70142.4 2975.58  10
   1   6  -5 19055.3 1835.60  10
   1   6  -5 22159.5 2027.65  13
   0   6  -5 16750.3 1829.85  13
  -1   6  -5 24345.5 2053.31  13
  -2   6  -5 21010.3 1835.26  13
  -3   6  -5 6903.55 1293.14  13
  -4   6  -5 28259.9 1554.54  13
   7   4  -6 20740.0 1263.85  11
   6   4  -6 1789.21 1098.17  11
   5   4  -6 3813.50 1309.86  11
   5   4  -6 2363.00 1490.23  10
   4   4  -6 50052.2 2599.26  11
   4   4  -6 48999.6 2770.09  10
   4   4  -6 49591.7 2609.19   4
   3   4  -6 98860.9 3470.06  11
   3   4  -6 87757.4 3470.11  10
   3   4  -6 97820.0 3364.93   4
  -2  -4   6 19777.8 2386.97   1
  -1  -4   6 43768.3 3101.95   1
   0  -4   6 13889.0 2016.18   1
   1  -4   6 50058.4 3295.44   1
   2  -4   6 49590.9 3261.90   1
  -3   4  -6 81844.0 3168.61  13
   4  -4   6 4069.93 1230.15   3
   4  -4   6 2410.95 1176.47   7
  -4   4  -6 4798.22 1285.29  13
   5  -4   6 11518.8 1504.43   7
   6  -4   6 3812.53 1100.61   7
   7   2  -7 6884.87 1175.32  11
   6   2  -7 43544.5 2276.63  11
   6   2  -7 43056.4 2524.10  14
   5   2  -7 53651.3 2519.93  11
   5   2  -7 51849.3 2757.98   4
   5   2  -7 53501.3 2846.93  14
   4   2  -7 3021.82 1241.74   4
   3   2  -7 61660.1 2612.28   4
  -2  -2   7 11883.7 1763.40   1
   2   2  -7 4110.47 1001.05   4
  -1  -2   7 63728.6 3226.70   1
   0  -2   7 33778.5 2395.55   1
   1  -2   7 229995. 5720.84   1
   2  -2   7 1805.17 807.112   3
   2  -2   7 4439.14 1294.34   1
   3  -2   7 12992.4 1309.72   3
  -4   2  -7 2408.44 906.367   2
   5  -2   7 74570.1 3170.15  12
  -5   2  -7 70709.8 2899.51   2
   6  -2   7 3184.58 1397.87  12
   7  -2   7 23105.8 1583.35   7
   7   0  -8 54111.7 2157.05  11
   7   0  -8 52370.6 2489.00  14
   6   0  -8 524.589 1127.96  11
   6   0  -8 564.956 1381.59   8
   6   0  -8 203.944 1477.20  14
   5   0  -8 54999.9 2568.41  11
   5   0  -8 54005.8 2888.04   4
   5   0  -8 57896.0 2938.42   8
   5   0  -8 52837.9 2990.94  14
   4   0  -8 17203.5 1845.12   4
   3   0  -8 47981.7 2398.52   4
  -2   0   8 1603.47 1130.88   1
   2   0  -8 634.642 952.373   4
  -1   0   8 246023. 5522.42   1
   1   0  -8 250026. 5505.60   0
   0   0   8 17427.2 1786.41   1
   1   0   8 58920.5 2801.20   1
  -1   0  -8 57242.2 1800.18   2
  -2   0  -8 1011.80 674.864   2
   2   0   8 1186.19 1041.69   1
  -3   0  -8 155688. 3628.98   2
  -4   0  -8 26457.6 1770.43   2
   5   0   8 11872.4 1878.22  12
  -5   0  -8 10881.1 1437.81   2
   6   0   8 25922.2 2228.14  12
  -6   0  -8 26015.9 2097.80   2
   7   0   8 43667.3 2310.34  12
   7  -2  -9 23244.3 1677.71   8
   7  -2  -9 16415.6 1390.74  14
   6  -2  -9-267.322 1317.70   8
   6  -2  -9 1121.87 1303.82  14
   5  -2  -9 46764.5 2739.13   4
   5  -2  -9 49744.8 2930.17   8
   5  -2  -9 46672.7 2769.13  14
   4  -2  -9 11390.1 1946.97   9
   4  -2  -9 9485.77 1777.23  14
   4  -2  -9 11733.8 1672.62   4
   3  -2  -9 179000. 5258.17   0
   3  -2  -9 174932. 4585.08   4
   2  -2  -9 75934.4 2873.21   4
   2  -2  -9 79970.1 3445.17   0
   1  -2  -9 25755.7 2013.30   0
   0  -2  -9 3486.25 762.645   2
   0  -2  -9 2174.84 865.401   0
  -1  -2  -9 238824. 4089.37   2
  -1  -2  -9 243810. 5675.05   0
  -2  -2  -9 111270. 3095.04   2
  -2  -2  -9 115060. 3924.56   0
  -3  -2  -9 56687.0 2496.74   2
  -4  -2  -9 8733.86 1325.55   2
   5   2   9 7362.55 1723.94  12
  -5  -2  -9 6185.68 1502.25   2
   6   2   9 11875.5 1852.89  12
   7   2   9 21306.1 1828.61  12
   6  -4 -10 5278.47 1189.63   8
   5  -4 -10 31934.5 2245.76   8
   5  -4 -10 35935.4 2127.58  14
   4  -4 -10 27518.4 2243.35   9
   4  -4 -10 30952.8 2205.29  14
   3  -4 -10 2548.18 1386.03   9
   3  -4 -10 2868.16 1467.53   7
   3  -4 -10 1877.67 1334.00  14
   2  -4 -10 1282.12 1246.43   0
   1  -4 -10 73567.2 3750.89   0
   0  -4 -10 94877.0 4091.69   0
  -1  -4 -10 14527.9 1716.83   0
   2   4  10 37840.5 2216.57   4
  -2  -4 -10 37718.2 2179.87   2
  -3  -4 -10 12644.3 1550.44   2
   4   4  10 17332.1 1787.30  12
  -4  -4 -10 16366.3 1602.57   2
   5   4  10 14729.6 1784.32  12
   6   4  10 53257.8 2469.73  12
  -6  -4 -10 51996.3 2297.49   5
   7   4  10 929.708 1046.65  12
   5  -6 -11 3150.89 831.877   8
   4  -6 -11 10980.8 1346.26   7
   3  -6 -11 57958.1 2682.05   9
   3  -6 -11 54471.5 2608.32   7
   2  -6 -11 47807.5 2419.09  14
   2  -6 -11 46649.3 2625.13   9
   2  -6 -11 45612.1 2610.60   7
   1  -6 -11 445.922 1185.59   9
   1  -6 -11 1375.57 1264.75   7
  -1   6  11 1550.28 942.393  13
   0  -6 -11 35340.6 2501.41   9
   0  -6 -11 37827.1 2414.47   7
   0   6  11 39061.4 2198.85  13
   1   6  11 17599.6 2079.08   4
  -1  -6 -11 15426.6 2008.07   9
   1   6  11 18055.3 1714.87  13
  -2  -6 -11 43451.5 2437.48   5
   2   6  11 38685.0 2233.33  13
  -3  -6 -11 6235.86 1403.71   5
  -4  -6 -11 51326.8 2441.37   5
   5   6  11 850.929 900.101  12
  -5  -6 -11 1180.78 983.699   5
   1  -8 -12 4019.62 853.094   9
   0  -8 -12 33973.3 1625.87   9
  -1  -8 -12-296.903 868.035   9
  -2  -8 -12 30081.8 1520.31   9
   4   7  -5 31470.1 1397.16  11
   4   7  -5 28246.4 1458.37  10
   3   7  -5 28228.6 1669.03  11
   3   7  -5 28144.1 1668.09  10
   2   7  -5 322.419 1074.83  11
   2   7  -5 111.792 997.608  10
   1   7  -5 40439.2 1912.58  10
   1   7  -5 38919.4 2021.90  13
   0   7  -5 1757.09 1138.66  13
  -1   7  -5 24074.8 1755.80  13
  -2   7  -5 14903.5 1410.13  13
  -3   7  -5 55915.4 1904.57  13
   6   5  -6 2143.54 971.543  11
   5   5  -6 74226.9 2722.28  11
   5   5  -6 66934.9 2649.49  10
   4   5  -6 2034.31 1267.27  11
   4   5  -6 1084.87 1411.37  10
   3   5  -6 13247.0 1647.85  11
   3   5  -6 11818.4 1823.43  10
   2   5  -6 3817.87 1508.25  10
   1   5  -6 41522.9 2455.45  10
   1   5  -6 40371.6 2530.73  13
   0   5  -6 13183.8 1704.65  13
  -1   5  -6 114572. 3751.27  13
  -2   5  -6 32095.0 2231.99  13
  -3   5  -6 10681.8 1523.43  13
  -4   5  -6 341.081 950.196  13
   5  -5   6 40388.2 1971.13   7
   7   3  -7 63282.3 2098.64  11
   6   3  -7 5308.23 1240.81  11
   5   3  -7 26145.0 1942.98  11
   5   3  -7 24803.2 2152.03   4
   4   3  -7-232.123 1171.09  11
   4   3  -7 1359.54 1492.21  10
   4   3  -7 908.819 1149.85   4
   3   3  -7 88977.6 3184.19   4
  -2  -3   7 2038.79 1396.45   1
  -1  -3   7 99894.4 4290.41   1
   0  -3   7 81685.0 3890.15   1
   1  -3   7 27535.8 2476.00   1
   2  -3   7 2102.43 1451.62   1
   3  -3   7 93150.7 3074.13   3
   4  -3   7 42357.0 2329.73   3
   4  -3   7 41305.0 2433.38  12
  -4   3  -7 41989.3 2280.48   2
  -4   3  -7 49508.6 2408.89  13
   5  -3   7 12913.0 1711.94  12
   5  -3   7 12347.8 1565.89   7
   6  -3   7 10953.8 1392.20   7
   7  -3   7 2474.28 836.336   7
   7   1  -8 14408.9 1343.35  11
   6   1  -8 7590.99 1352.02  11
   6   1  -8 8854.58 1637.99  14
   5   1  -8 47633.7 2365.02  11
   5   1  -8 56119.8 3019.99   4
   5   1  -8 51197.5 2830.00  14
   4   1  -8 21684.2 1932.96   4
   3   1  -8 112936. 3495.60   4
  -2  -1   8 79434.3 3559.51   1
   2   1  -8 86095.1 2678.44   4
  -1  -1   8 20825.5 1957.11   1
   0  -1   8 60917.1 3056.94   1
   1  -1   8 113908. 3987.63   1
  -1   1  -8 120824. 2476.55   2
  -2   1  -8 130407. 3003.12   2
   2  -1   8 132436. 4231.05   1
  -3   1  -8 50.6103 784.772   2
  -4   1  -8 41617.4 2197.59   2
   5  -1   8 4758.25 1573.07  12
  -5   1  -8 4011.94 1175.17   2
   6  -1   8 29323.1 2223.17  12
   7  -1   8 21409.5 1628.09  12
   7  -1   8 17358.1 1450.11   7
   7  -1  -9 10984.5 1424.74  14
   6  -1  -9 34402.3 2068.56  11
   6  -1  -9 36242.7 2399.13   8
   6  -1  -9 33259.0 2391.41  14
   5  -1  -9 15358.2 1840.56   4
   5  -1  -9 15864.8 1940.16   8
   5  -1  -9 15533.9 2077.82  14
   4  -1  -9 62130.8 3056.41   4
   3  -1  -9 7741.75 1368.13   4
   2  -1  -9 45524.9 2220.97   4
   2  -1  -9 40604.6 2490.28   0
   1  -1  -9 26779.7 1610.06   4
   1  -1  -9 27647.1 2058.59   0
   0  -1  -9 333067. 4089.41   2
   0  -1  -9 330245. 6568.70   0
  -1  -1  -9 8590.29 972.348   2
  -1  -1  -9 9254.27 1353.46   0
   2   1   9 42556.5 2513.00   1
  -2  -1  -9 44639.1 1972.86   2
  -3  -1  -9 11953.6 1332.22   2
  -4  -1  -9 34287.2 2165.37   2
   5   1   9 1553.27 1570.72  12
  -5  -1  -9 1815.89 1178.07   2
   6   1   9 79302.9 3352.92  12
   7   1   9 1359.37 1208.16  12
   6  -3 -10 35225.3 2110.64   8
   6  -3 -10 29849.5 1893.25  14
   5  -3 -10 5294.44 1475.43   8
   5  -3 -10 4615.82 1384.27  14
   4  -3 -10 13953.7 1876.99   9
   4  -3 -10 15011.8 1806.23  14
   3  -3 -10 33054.7 2374.65  14
   3  -3 -10 28184.2 2397.22   0
   2  -3 -10 144369. 5017.66   0
   1  -3 -10 1473.60 997.698   0
   0  -3 -10 36388.0 2562.47   0
  -1  -3 -10 7083.09 1120.87   2
  -1  -3 -10 7873.41 1494.27   0
  -2  -3 -10 76842.2 2811.80   2
  -3  -3 -10 6920.09 1232.71   2
   4   3  10 51044.7 2720.08  12
  -4  -3 -10 51433.0 2613.84   2
   5   3  10 15057.1 1911.96  12
  -5  -3 -10 17634.3 1810.92   5
  -5  -3 -10 18515.5 1713.25   2
   6   3  10 18517.1 1865.63  12
  -6  -3 -10 21703.0 1701.59   5
   7   3  10 1056.63 1168.12  12
   5  -5 -11 2859.25 1070.83   8
   4  -5 -11 83475.9 3264.01   9
   4  -5 -11 89806.3 2964.40  14
   3  -5 -11 14493.2 1709.75  14
   3  -5 -11 17436.4 1890.20   9
   3  -5 -11 17701.8 1976.16   7
   2  -5 -11 45604.7 2542.65  14
   2  -5 -11 44600.8 2627.94   9
   2  -5 -11 44343.2 2517.46   7
   1  -5 -11 2904.50 1263.51   9
   1  -5 -11 4391.72 1401.88   7
   0  -5 -11 131058. 4335.35   9
   0  -5 -11 127083. 3899.73   7
   0   5  11 134229. 3756.56  13
  -1  -5 -11 9274.87 1577.54   5
   1   5  11 10443.1 1383.09  13
  -2  -5 -11 50468.7 2645.89   5
   2   5  11 46746.1 2457.23  13
  -3  -5 -11 14146.2 1744.70   5
  -4  -5 -11 9205.24 1483.45   5
   5   5  11 2445.82 1166.05  12
  -5  -5 -11 1687.92 1164.62   5
   6   5  11 27365.0 1618.05  12
  -6  -5 -11 32083.7 1654.43   5
   3  -7 -12 2069.44 851.192   9
   2  -7 -12 43965.8 2122.33   9
   1  -7 -12 23986.6 1643.09  14
   1  -7 -12 23304.8 1793.01   9
   0  -7 -12 14388.2 1646.78   9
  -1  -7 -12 33036.5 2207.87   9
  -2  -7 -12 8638.37 1531.51   9
  -3  -7 -12 8144.42 1351.58   9
  -4  -7 -12 21495.0 1368.81   5
  -4  -7 -12 20141.4 1522.50   9
   5   6  -6 5141.54 1026.04  11
   5   6  -6 5658.79 1108.08  10
   4   6  -6 5353.86 1178.94  11
   4   6  -6 4339.79 1244.75  10
   3   6  -6 23167.4 1871.21  11
   3   6  -6 20111.3 1800.87  10
   2   6  -6 10336.7 1622.15  10
   1   6  -6 51093.5 2515.05  10
   1   6  -6 48837.4 2579.65  13
   0   6  -6 51920.6 2662.67  13
  -1   6  -6 3545.55 1299.51  13
  -2   6  -6 15769.6 1671.88  13
  -3   6  -6 29570.2 1892.38  13
  -4   6  -6 30790.1 1528.38  13
   6   4  -7 19549.3 1540.49  11
   5   4  -7 27757.1 1931.77  11
   5   4  -7 27720.0 2076.18  10
   4   4  -7 21756.5 1895.88  11
   4   4  -7 17316.1 2005.74  10
   4   4  -7 18681.4 1874.71   4
   3   4  -7 41229.9 2355.58  11
   3   4  -7 38313.4 2502.01  10
   2   4  -7 114368. 3792.71  10
  -1  -4   7 7715.66 1808.13   1
   0  -4   7 27760.7 2696.15   1
   1  -4   7 36270.3 3016.04   1
  -2   4  -7 97047.8 3417.82  13
  -3   4  -7 2312.95 1193.12  13
   4  -4   7 13419.0 1583.16   7
  -4   4  -7 16154.5 1604.22  13
   5  -4   7 20.2194 1017.23   7
   6  -4   7 15430.9 1293.15   7
   7   2  -8 6929.46 1089.26  11
   6   2  -8 33898.2 1988.33  11
   6   2  -8 35565.6 2229.33  14
   5   2  -8 1579.39 1134.73  11
   5   2  -8 1773.78 1171.34   4
   5   2  -8 3346.30 1264.41  14
   4   2  -8 103319. 3266.08  11
   4   2  -8 100041. 3626.57   4
   3   2  -8-285.394 986.126   4
   2   2  -8 21827.8 1563.88   4
  -2  -2   8 21405.2 2241.81   1
  -1  -2   8 11334.9 1784.40   1
   0  -2   8 234218. 6093.03   1
   1  -2   8 34467.9 2552.00   1
  -2   2  -8 54577.2 2085.58   2
   2  -2   8 51105.1 2947.64   1
  -3   2  -8-207.523 797.150   2
   4  -2   8 62594.7 2965.80  12
  -4   2  -8 59164.3 2590.97   2
  -4   2  -8 65229.6 2756.09  13
   5  -2   8 1029.17 1374.74  12
  -5   2  -8 855.398 1002.36   2
   6  -2   8 34079.1 2137.68  12
   7  -2   8 19480.2 1378.91   7
   7   0  -9 1337.07 944.710  11
   7   0  -9 400.679 1122.65  14
   6   0  -9 44928.1 2235.83  11
   6   0  -9 49276.2 2512.45   8
   6   0  -9 42643.9 2597.53  14
   5   0  -9 2096.90 1143.14  11
   5   0  -9 3857.42 1363.77   8
   5   0  -9 3071.09 1500.54  14
   5   0  -9 1318.27 1202.26   4
   4   0  -9 13858.7 1670.80   4
   3   0  -9 4602.45 1169.12   4
  -2   0   9 295015. 6625.81   1
   2   0  -9 290445. 4946.69   4
  -1   0   9 90715.6 3665.95   1
   0   0   9 32150.3 2334.05   1
  -1   0  -9 1738.72 776.692   2
   1   0   9 2017.29 1218.39   1
   2   0   9 95838.2 3668.96   1
  -2   0  -9 93901.6 2674.23   2
  -3   0  -9 15787.9 1336.14   2
  -4   0  -9 108220. 3397.75   2
   5   0   9 19281.5 2109.60  12
  -5   0  -9 18606.2 1852.35   2
   6   0   9 1660.19 1427.07  12
   7   0   9 2712.09 1228.43  12
   7  -2 -10 5862.67 1076.60  14
   6  -2 -10 15717.0 1777.53   8
   6  -2 -10 12877.5 1655.94  14
   5  -2 -10 251.025 1478.32   8
   5  -2 -10 1398.07 1421.65  14
   5  -2 -10 104.504 1351.07   4
   4  -2 -10 152268. 4576.58  14
   4  -2 -10 143143. 4483.26   4
   3  -2 -10 58479.1 2816.41   4
   3  -2 -10 54946.6 3148.46   0
   2  -2 -10 27147.7 1918.07   4
   2  -2 -10 26704.8 2266.18   0
   1  -2 -10 3213.51 1131.92   0
   0  -2 -10 76670.8 2320.01   2
   0  -2 -10 81923.5 3623.58   0
  -1  -2 -10 55638.5 2133.86   2
  -1  -2 -10 58357.3 3068.34   0
  -2  -2 -10 78684.4 2776.69   2
  -2  -2 -10 82847.5 3570.32   0
  -3  -2 -10 98181.4 3271.02   2
   4   2  10 1350.76 1577.95  12
  -4  -2 -10 4208.07 1479.80   5
  -4  -2 -10 4991.83 1427.62   2
   5   2  10 4561.59 1648.93  12
  -5  -2 -10 3414.02 1342.58   2
   6   2  10 29159.3 2274.35  12
   7   2  10 47004.4 2182.38  12
   6  -4 -11 25472.4 1546.77   8
   6  -4 -11 1074.30 739.307  14
   5  -4 -11 40815.6 2295.16   8
   5  -4 -11 39956.6 2153.07  14
   4  -4 -11 893.416 1233.90   9
   4  -4 -11 550.938 1228.46  14
   3  -4 -11 39889.1 2450.43  14
   3  -4 -11 38159.9 2546.18   9
   2  -4 -11 58237.9 2977.49   9
   2  -4 -11 60201.3 2766.32   7
   1  -4 -11 92331.9 4360.21   0
   0  -4 -11 12434.8 1804.02   0
  -1  -4 -11 95950.0 4179.00   0
  -2  -4 -11 7155.60 1620.28   5
  -2  -4 -11 4648.34 1100.11   2
  -3  -4 -11 18398.4 1894.39   5
  -3  -4 -11 21564.4 1825.31   2
   4   4  11 22985.2 1932.39  12
  -4  -4 -11 22686.9 1979.47   5
  -4  -4 -11 23967.1 1968.15   2
   5   4  11 74697.8 2989.02  12
  -5  -4 -11 78728.3 3067.20   5
   6   4  11 1165.03 1164.39  12
  -6  -4 -11 1734.33 994.666   5
   7   4  11 9116.03 1049.39  12
   4  -6 -12 24478.5 1564.98   8
   4  -6 -12-628.401 850.631   7
   3  -6 -12 27367.8 1902.39   9
   3  -6 -12 28604.8 1903.41   7
   3  -6 -12 30209.7 1767.54  14
   2  -6 -12 1677.30 1150.78   9
   2  -6 -12 445.398 1217.06   7
   2  -6 -12 1770.10 1207.11  14
   1  -6 -12 48098.8 2697.86   9
   1  -6 -12 44901.5 2485.34   7
   0  -6 -12 1662.71 1253.15   9
   0   6  12 5996.18 1242.57  13
  -1  -6 -12 19060.4 2037.74   9
   1   6  12 20587.4 1775.95  13
  -2  -6 -12 7629.77 1429.22   5
  -2  -6 -12 6924.67 1558.49   9
  -3  -6 -12 75433.2 2961.08   5
  -4  -6 -12 8789.99 1323.90   5
  -5  -6 -12 7293.53 1086.45   5
   0  -8 -13 700.646 718.630   9
  -1  -8 -13 35863.4 1536.30   9
   3   7  -6 17635.3 1295.43  11
   3   7  -6 14380.8 1285.41  10
   2   7  -6 31035.1 1694.42  11
   2   7  -6 31140.1 1654.47  10
   1   7  -6 5213.94 1077.84  13
   0   7  -6 13528.6 1349.94  13
  -1   7  -6 4395.06 1076.11  13
  -2   7  -6 55320.8 2079.85  13
  -3   7  -6 3958.00 803.599  13
   6   5  -7 33366.7 1435.49  11
   5   5  -7 892.157 990.160  11
   5   5  -7 1195.71 1142.64  10
   4   5  -7 64662.3 2689.40  11
   4   5  -7 58874.3 2768.21  10
   3   5  -7 10065.2 1509.98  11
   3   5  -7 8429.15 1608.57  10
   2   5  -7 39004.9 2495.79  10
   1   5  -7 9985.65 1703.01  10
   0   5  -7 78210.9 3174.61  13
  -1   5  -7 19209.9 1907.39  13
  -2   5  -7 20073.9 1850.02  13
  -3   5  -7 4758.39 1276.98  13
  -4   5  -7 26784.1 1734.60  13
   5  -5   7 5435.99 1006.80   7
   7   3  -8 5132.05 896.061  11
   6   3  -8 38491.5 1966.01  11
   5   3  -8 14637.9 1587.03  11
   4   3  -8 12257.8 1560.15  11
   4   3  -8 14608.8 1914.38  10
   4   3  -8 12359.0 1656.40   4
   3   3  -8 1428.29 1155.29  11
   3   3  -8 1740.51 1437.42  10
   3   3  -8 1587.69 1150.37   4
  -2  -3   8 102865. 4552.99   1
  -1  -3   8 67610.1 3760.29   1
   0  -3   8 10344.5 1798.73   1
   1  -3   8 31889.0 2738.11   1
   2  -3   8 57474.0 3502.13   1
   3  -3   8 23181.0 2057.46  12
  -3   3  -8 23030.4 1732.63   2
  -3   3  -8 23090.9 1909.39  13
   4  -3   8 22216.3 1963.71  12
  -4   3  -8 21116.5 1767.19   2
  -4   3  -8 21660.5 1765.25  13
   5  -3   8 52054.8 2538.48   7
   6  -3   8 694.929 960.935   7
   7  -3   8 7863.75 870.429   7
   7   1  -9 20740.3 1373.33  11
   6   1  -9 5841.70 1256.50  11
   6   1  -9 7354.31 1483.55  14
   5   1  -9 13305.5 1536.52  11
   5   1  -9 14377.7 1793.66   4
   5   1  -9 14499.0 1911.76  14
   4   1  -9 83595.8 2889.83  11
   4   1  -9 83954.6 3427.50   4
   4   1  -9 90741.1 3391.71  14
   3   1  -9 113563. 3560.50   4
  -2  -1   9 24969.5 2331.14   1
   2   1  -9 20657.8 1542.06   4
  -1  -1   9 40347.0 2772.95   1
   0  -1   9 31506.6 2409.46   1
   1  -1   9 88565.2 3748.15   1
  -2   1  -9 57968.7 2131.37   2
   2  -1   9 52041.7 2942.41   1
  -3   1  -9 91619.8 2900.83   2
  -4   1  -9 296.819 1237.53  13
   4  -1   9 718.238 1404.21  12
  -4   1  -9 459.022 814.311   2
   5  -1   9 10792.2 1798.55  12
  -5   1  -9 11671.9 1459.00   2
   6  -1   9 5005.52 1461.30  12
   7  -1   9 51202.3 2036.03  12
   7  -1   9 46407.7 1982.00   7
   7  -1 -10 13201.6 1319.42  14
   6  -1 -10 22664.3 1875.32   8
   6  -1 -10 20580.2 1959.79  14
   5  -1 -10 97710.9 3769.75   4
   5  -1 -10 103616. 3673.44   8
   5  -1 -10 96650.9 3797.87  14
   4  -1 -10 1678.55 1541.61   8
   4  -1 -10 489.168 1423.29  14
   4  -1 -10 31.1343 1251.57   4
   3  -1 -10 27405.6 2062.56   4
  -2   1  10 16734.3 1932.56   1
   2  -1 -10 15491.1 1508.92   4
   2  -1 -10 13577.9 1671.72   0
   1  -1 -10 162096. 3532.05   4
   1  -1 -10 141653. 4679.09   0
   0  -1 -10 7101.82 840.555   2
   0  -1 -10 5829.29 1277.90   0
   1   1  10 163283. 4957.15   1
  -1  -1 -10 159494. 3323.09   2
  -2  -1 -10 1034.81 870.733   2
   2   1  10 1218.72 1123.27   1
  -3  -1 -10 45411.1 2232.08   2
   4   1  10 4158.77 1739.07  12
  -4  -1 -10 4009.93 1232.39   2
   5   1  10 56705.3 3028.05  12
  -5  -1 -10 58441.5 2800.93   2
   6   1  10 19705.3 1969.11  12
   7   1  10 19776.7 1641.79  12
   6  -3 -11 6421.35 1232.83   8
   6  -3 -11 5334.81 1199.08  14
   5  -3 -11 13664.2 1770.38   8
   5  -3 -11 10510.9 1641.92  14
   4  -3 -11 5475.74 1418.70   9
   4  -3 -11 3289.38 1381.84  14
   3  -3 -11 112638. 3986.16   9
   3  -3 -11 102864. 3664.48  14
   2  -3 -11 11441.9 1746.33   0
   1  -3 -11 89602.2 4140.54   0
   0  -3 -11 15823.5 1855.02   0
  -1  -3 -11 60271.1 2442.52   2
  -1  -3 -11 61899.3 3361.18   0
  -2  -3 -11 708.195 866.309   2
  -3  -3 -11 126894. 3981.17   5
  -3  -3 -11 133637. 3972.92   2
   4   3  11 28690.9 2226.37  12
  -4  -3 -11 28666.1 2189.67   5
  -4  -3 -11 28076.9 2026.62   2
   5   3  11 14073.6 1890.70  12
  -5  -3 -11 15613.5 1683.51   5
   6   3  11 1664.14 1244.44  12
  -6  -3 -11 1246.06 964.245   5
   7   3  11 16040.6 1421.84  12
   5  -5 -12 34105.3 1721.47   8
   5  -5 -12-348.277 741.526  14
   4  -5 -12 14830.2 1612.59   9
   4  -5 -12 15644.2 1497.76  14
   3  -5 -12 24775.8 1932.78  14
   3  -5 -12 24582.1 2003.22   9
   3  -5 -12 25409.0 1992.89   7
   2  -5 -12 11008.6 1605.52   9
   2  -5 -12 9210.06 1569.72   7
   2  -5 -12 9380.25 1576.99  14
   1  -5 -12 32706.3 2347.49   9
   1  -5 -12 38351.8 2307.03   7
   0  -5 -12 3681.26 1366.44   9
   0   5  12 8604.86 1403.13  13
  -1  -5 -12 85184.6 3234.89   5
  -1  -5 -12 78440.7 3497.69   9
   1   5  12 74535.4 3033.37  13
  -2  -5 -12 43291.9 2514.45   5
  -3  -5 -12 6045.71 1425.40   5
  -4  -5 -12 6357.83 1351.78   5
   5   5  12 16355.1 1458.62  12
  -5  -5 -12 19218.2 1581.25   5
   6   5  12 13905.9 1167.56  12
  -6  -5 -12 16073.8 1172.85   5
   2  -7 -13 21432.4 1505.36   9
   1  -7 -13 47610.1 2238.75   9
   1  -7 -13 48251.5 2017.06  14
   0  -7 -13 56245.6 2512.87   9
  -1  -7 -13 2998.89 1153.97   9
  -2  -7 -13 16064.0 1581.43   9
  -3  -7 -13 21822.7 1605.33   9
  -4  -7 -13 27295.4 1411.83   9
   5   6  -7 32178.0 1328.11  11
   4   6  -7 7762.67 1135.60  11
   4   6  -7 8704.58 1275.57  10
   3   6  -7 4946.05 1267.01  11
   3   6  -7 5586.35 1276.16  10
   2   6  -7 43622.8 2274.48  11
   2   6  -7 41076.7 2252.87  10
   1   6  -7 63304.0 2607.37  10
   1   6  -7 63678.4 2692.17  13
   0   6  -7 3744.63 1280.33  13
  -1   6  -7 15838.7 1585.41  13
  -2   6  -7 10333.6 1400.80  13
  -3   6  -7 40433.7 1985.18  13
  -4   6  -7 11019.1 1035.83  13
   6   4  -8 3431.29 962.356  11
   5   4  -8 13977.8 1462.85  11
   5   4  -8 12900.0 1590.86  10
   4   4  -8 14710.6 1597.81  11
   4   4  -8 14251.9 1931.12  10
   3   4  -8 88161.4 3179.02  11
   3   4  -8 83852.3 3490.76  10
   2   4  -8 809.534 1406.96  10
   1   4  -8 19143.3 1913.53  10
   0   4  -8 20833.5 2048.53  10
   0   4  -8 19857.9 1824.99  13
  -1   4  -8 87712.6 3297.94  13
  -2   4  -8 468.602 1017.91  13
  -3   4  -8 67786.7 2904.78  13
  -4   4  -8 7809.94 1321.08  13
   5  -4   8 11783.9 1326.28   7
   6  -4   8 1346.80 871.309   7
   7   2  -9 21880.9 1275.40  11
   6   2  -9 3144.18 1068.69  11
   5   2  -9 102040. 3207.45  11
   5   2  -9 102725. 3746.82   4
   4   2  -9 9531.31 1463.23  11
   4   2  -9 9802.80 1510.40   4
   3   2  -9 19866.0 1819.61   4
  -2  -2   9 9630.71 1745.32   1
  -1  -2   9 165725. 5455.71   1
   0  -2   9 16283.0 2059.38   1
   1  -2   9 92413.5 4078.02   1
   2  -2   9 19377.1 2155.64   1
  -3   2  -9 28083.2 1794.04   2
  -4   2  -9 1175.20 1068.67  13
   4  -2   9 1002.93 1355.50  12
  -4   2  -9-535.778 1075.75   2
   5  -2   9 101182. 3494.44  12
   6  -2   9 9130.59 1402.32  12
   6  -2   9 6503.32 1238.16   7
   7  -2   9 908.490 793.316   7
   7   0 -10 348.080 718.360  11
   7   0 -10 61579.2 2203.72  14
   6   0 -10 18017.0 1500.08  11
   6   0 -10 17416.8 1824.05  14
   5   0 -10 5958.69 1648.16  14
   5   0 -10 5985.17 1484.44   4
   4   0 -10 1113.99 1384.06   5
   4   0 -10 240.127 1466.95  14
   4   0 -10 1083.99 1208.11   4
   3   0 -10 98386.9 3394.65   4
  -2   0  10 44203.1 2871.82   1
   2   0 -10 44705.8 2133.05   4
  -1   0  10 100964. 4081.40   1
   0   0  10 36953.1 2618.06   1
   1   0  10 30116.4 2462.70   1
  -1   0 -10 33203.0 1598.91   2
  -2   0 -10 13640.6 1328.45   2
   2   0  10 14474.6 1908.15   1
  -3   0 -10 92748.1 3068.64   2
   4   0  10 99488.4 3572.44  12
  -4   0 -10 98645.7 3397.18   2
   5   0  10 2762.57 1534.26  12
  -5   0 -10 2855.27 1267.56   2
   6   0  10 5691.28 1564.78  12
   7   0  10 28557.1 1707.21  12
   7  -2 -11 5267.18 879.238  14
   6  -2 -11 5920.71 1297.48   8
   6  -2 -11 3428.65 1255.76  14
   5  -2 -11 44280.1 2596.59   8
   5  -2 -11 46388.6 2690.84  14
   4  -2 -11 25244.3 2072.51   4
   4  -2 -11 30274.8 2332.07  14
   3  -2 -11 18210.3 1784.83   4
   3  -2 -11 18618.9 1947.73  14
   2  -2 -11 50180.0 3090.02   0
   1  -2 -11 30825.3 2484.86   0
   0  -2 -11 51410.6 2016.20   2
   0  -2 -11 53800.6 3162.17   0
  -1  -2 -11 72561.3 2522.39   2
  -1  -2 -11 70684.3 3544.47   0
   2   2  11 189976. 5593.03   1
  -2  -2 -11 182807. 4188.06   2
  -3  -2 -11 3159.06 1119.18   2
   4   2  11 9886.14 1892.24  12
  -4  -2 -11 10135.5 1607.57   5
  -4  -2 -11 9121.70 1626.34   2
   5   2  11 20966.5 2184.72  12
  -5  -2 -11 19577.9 1892.85   2
   6   2  11 42520.5 2421.15  12
   7   2  11 1609.14 1112.93  12
   6  -4 -12 30060.5 1433.08   8
   5  -4 -12 1204.01 1084.88   8
   5  -4 -12 536.866 1026.78  14
   4  -4 -12 32021.3 2155.25  14
   4  -4 -12 31131.2 2254.95   9
   3  -4 -12 19342.4 1953.06   9
   3  -4 -12 18645.0 1833.92  14
   2  -4 -12 22346.1 1972.56   9
   2  -4 -12 28229.7 2080.86   7
   2  -4 -12 25866.3 2078.57  14
   1  -4 -12 25274.7 2070.90   9
   1  -4 -12 30459.4 2125.91   7
   0  -4 -12 129630. 3765.76   5
   0  -4 -12 131312. 4070.32   9
  -1  -4 -12 443.052 1219.11   5
  -1  -4 -12 365.347 1262.83   9
  -2  -4 -12 17823.7 1805.02   5
  -2  -4 -12 20598.9 1780.62   2
  -3  -4 -12 8975.93 1434.78   2
  -3  -4 -12 8004.99 1486.60   5
  -4  -4 -12 66756.9 3022.14   5
   5   4  12 1624.98 1237.38  12
  -5  -4 -12 2060.64 1174.84   5
   6   4  12 23307.0 1651.73  12
  -6  -4 -12 27470.6 1567.27   5
   4  -6 -13 19385.8 1376.53   8
   3  -6 -13 1719.15 1045.57   9
   3  -6 -13 3634.72 1039.43  14
   2  -6 -13 69475.0 2617.00  14
   2  -6 -13 67488.5 2816.48   9
   1  -6 -13 12494.8 1557.55   9
   0  -6 -13 30848.8 2224.11   9
  -1  -6 -13 3258.98 1265.89   9
  -2  -6 -13 65445.3 2706.52   5
  -2  -6 -13 65419.4 3084.86   9
  -3  -6 -13 12643.7 1492.09   5
  -3  -6 -13 9067.24 1512.52   9
  -4  -6 -13 27871.2 1737.77   5
  -4  -6 -13 25783.7 1793.11   9
  -5  -6 -13 2239.75 833.555   5
  -5  -6 -13 1782.19 755.433   9
   3   7  -7 57197.8 1699.67  11
   3   7  -7 54925.5 1698.85  10
   2   7  -7 5101.55 1017.29  11
   2   7  -7 5228.75 957.533  10
   1   7  -7 25566.6 1528.03  11
   0   7  -7 2358.52 896.167  13
  -1   7  -7 42654.0 1824.26  13
  -2   7  -7 3319.65 863.009  13
   5   5  -8 58265.4 2080.45  11
   5   5  -8 56132.4 2076.48  10
   4   5  -8 24616.6 1740.06  11
   4   5  -8 21955.6 1839.48  10
   3   5  -8 7653.79 1414.32  11
   3   5  -8 8085.11 1568.40  10
   2   5  -8 2092.05 1402.02  10
   1   5  -8 72430.1 3038.36  10
   0   5  -8 10871.2 1585.58  13
  -1   5  -8 31361.1 2143.91  13
  -2   5  -8 46084.6 2494.03  13
  -3   5  -8 6391.51 1294.62  13
  -4   5  -8 1162.08 921.803  13
   6   3  -9 37939.9 1780.49  11
   5   3  -9 3096.80 1123.70  11
   4   3  -9 5930.00 1295.66  11
   4   3  -9 4390.13 1530.34  10
   4   3  -9 5992.88 1479.64   4
   3   3  -9 59766.6 2552.86  11
   3   3  -9 54414.3 2897.88  10
   2   3  -9 41215.0 2546.54  10
  -2  -3   9 40153.6 3211.88   1
  -1  -3   9 55664.5 3537.99   1
   0  -3   9 100981. 4559.88   1
   1  -3   9 7592.90 1876.17   1
  -2   3  -9 21916.2 1791.78  13
  -3   3  -9 66629.6 2869.92  13
  -4   3  -9 55961.2 2572.51   2
  -4   3  -9 60546.6 2641.04  13
   5  -3   9-40.3871 998.201   7
   6  -3   9 7443.93 1112.65   7
   7   1 -10 580.012 780.737  11
   6   1 -10 7924.98 1213.32  11
   6   1 -10 7836.72 1398.55  14
   5   1 -10 23333.5 1798.82  11
   5   1 -10 20196.1 1968.21   4
   5   1 -10 23883.4 1996.38  14
   4   1 -10 74195.4 3197.90   4
   4   1 -10 83310.8 3207.25  14
   3   1 -10 15147.5 1619.48   4
  -2  -1  10 62483.1 3484.24   1
  -1  -1  10 3952.43 1438.66   1
   0  -1  10 93744.8 4059.84   1
   1  -1  10 16765.9 2002.24   1
  -2   1 -10 182052. 3745.57   2
   2  -1  10 170586. 5297.60   1
  -3   1 -10 6033.73 1145.68   2
   4  -1  10 32550.6 2285.63  12
  -4   1 -10 29894.2 1917.75   2
  -4   1 -10 31855.5 2161.73  13
   5  -1  10 3805.01 1431.19  12
  -5   1 -10 3417.94 1385.13   2
   6  -1  10 33189.0 2088.02  12
   7  -1  10 3101.69 1032.34  12
   7  -1  10 1096.12 877.847   7
   7  -1 -11 7155.84 1001.43  14
   6  -1 -11 73854.5 2602.16   8
   6  -1 -11 66268.5 2802.55  14
   5  -1 -11 1198.16 1240.30   8
   5  -1 -11 925.726 1431.42  14
   4  -1 -11 23001.6 2059.52   4
   4  -1 -11 27208.5 2290.76  14
   3  -1 -11 339.238 1102.33   4
  -2   1  11 81165.6 3913.17   1
   2  -1 -11 84216.4 2951.47   4
   2  -1 -11 83798.5 3901.01   0
   1  -1 -11 2076.27 1130.46   0
  -1   1  11 3852.04 1348.69   1
   0   1  11 258636. 6595.54   1
   0  -1 -11 259367. 6665.74   0
   1   1  11 30941.7 2550.36   1
  -1  -1 -11 33982.9 1688.50   2
   2   1  11 29478.9 2383.23   1
  -2  -1 -11 27660.4 1799.12   2
  -3  -1 -11 4500.39 1230.09   2
   4   1  11 92023.8 3553.86  12
  -4  -1 -11 92705.3 3349.79   2
   5   1  11 6235.37 1659.39  12
  -5  -1 -11 8393.17 1694.60   2
   6   1  11 33436.0 2211.74  12
   7   1  11 3854.09 1116.37  12
   6  -3 -12 18982.1 1402.04   8
   6  -3 -12 18348.7 1399.42  14
   5  -3 -12 1360.22 1131.60   8
   5  -3 -12 1539.66 1170.41  14
   4  -3 -12 34353.3 2321.54  14
   3  -3 -12 1963.72 1262.74   9
   3  -3 -12 1396.52 1240.11  14
   2  -3 -12 103546. 3583.99  14
   2  -3 -12 110445. 3689.47   9
   1  -3 -12 52399.8 3388.68   0
   0  -3 -12 23612.8 2356.61   0
  -1  -3 -12 1200.08 1221.50   0
  -1  -3 -12 2771.65 923.934   2
  -2  -3 -12 92569.2 3215.66   2
  -3  -3 -12 32706.9 2308.90   5
  -3  -3 -12 36772.3 2221.00   2
   4   3  12 23562.8 2089.59  12
  -4  -3 -12 26179.8 2114.42   5
  -4  -3 -12 22859.5 1886.42   2
   5   3  12 16765.1 1831.35  12
  -5  -3 -12 21080.2 1860.85   5
   6   3  12 12094.3 1476.61  12
   7   3  12 3791.50 910.041  12
   5  -5 -13 3345.34 897.194   8
   4  -5 -13 22696.6 1585.33  14
   3  -5 -13 27096.2 1907.11  14
   3  -5 -13 23283.5 1854.86   9
   2  -5 -13 3052.27 1178.00   9
   2  -5 -13 1987.09 1266.98   7
   2  -5 -13 2935.30 1203.09  14
   1  -5 -13 21751.4 1949.34   9
   0  -5 -13 72575.1 3252.64   9
  -1  -5 -13 75615.5 3048.94   5
  -1  -5 -13 70710.7 3234.63   9
  -2  -5 -13 8222.27 1480.48   5
  -2  -5 -13 9967.91 1641.19   9
  -3  -5 -13 20135.0 1838.38   5
  -4  -5 -13 14996.7 1604.64   5
  -5  -5 -13 17028.5 1454.21   5
   2  -7 -14 11965.2 1151.99   9
   1  -7 -14 58927.2 2244.46   9
   1  -7 -14 58230.4 2005.13  14
   0  -7 -14 83.3304 919.044   9
   0  -7 -14-120.785 959.306  14
  -1  -7 -14 21277.6 1597.64   9
  -2  -7 -14 11990.4 1314.17   9
  -3  -7 -14 29029.9 1543.87   9
   4   6  -8 10636.7 1095.21  11
   4   6  -8 8745.91 1165.93  10
   3   6  -8 15909.3 1388.25  11
   3   6  -8 14900.9 1467.88  10
   2   6  -8 32817.8 1893.36  11
   2   6  -8 33930.8 1951.27  10
   1   6  -8 3646.54 1198.44  10
   0   6  -8 28440.5 1899.75  13
  -1   6  -8 286.700 1048.74  13
  -2   6  -8 22457.3 1699.05  13
  -3   6  -8 5322.98 1012.97  13
   6   4  -9 12195.7 1052.02  11
   5   4  -9 10304.4 1238.06  11
   5   4  -9 11288.3 1477.92  10
   4   4  -9 63714.7 2575.22  11
   4   4  -9 60475.0 2888.48  10
   3   4  -9 776.440 1138.10  11
   3   4  -9 2497.98 1395.71  10
   2   4  -9 57128.3 2844.14  10
   1   4  -9 2470.18 1396.86  10
   0   4  -9 61947.8 2747.14  10
   0   4  -9 55605.0 2697.14  13
  -1   4  -9 5393.29 1332.23  13
  -2   4  -9 83668.6 3193.11  13
  -3   4  -9 10023.3 1361.60  13
  -4   4  -9 10391.3 1389.82  13
   5  -4   9 1667.69 902.491   7
   6   2 -10 77215.6 2380.38  11
   5   2 -10 6865.36 1254.99  11
   4   2 -10 38698.5 2112.18  11
   4   2 -10 43306.8 2601.84  10
   4   2 -10 38270.6 2392.57   4
   3   2 -10 322.398 1368.41   5
   3   2 -10 2202.44 1229.80  11
   3   2 -10 2559.18 1519.38  10
  -2  -2  10 29502.6 2748.59   1
  -1  -2  10 12252.0 2038.67   1
   0  -2  10 138833. 5193.23   1
   1  -2  10 50410.5 3241.58   1
   2  -2  10 11585.3 1873.18   1
  -3   2 -10 4668.60 1412.50  13
   3  -2  10 5329.44 1589.01  12
  -3   2 -10 5396.66 1153.57   2
   4  -2  10 63067.9 2852.24  12
  -4   2 -10 70014.3 2748.59   2
  -4   2 -10 64709.5 2694.48  13
   5  -2  10 33918.5 2145.98  12
   6  -2  10 8325.37 1277.20  12
   6  -2  10 7022.96 1127.30   7
   7  -2  10 11600.4 929.446   7
   6   0 -11 18557.9 1690.97  14
   5   0 -11 12441.3 1704.09  14
   4   0 -11 21081.7 2036.69   5
   4   0 -11 24680.6 2014.48   4
   4   0 -11 27995.6 2185.61  14
   3   0 -11 13719.7 1607.28   4
  -2   0  11 93807.0 4184.67   1
   2   0 -11 96601.6 3016.27   4
  -1   0  11 100170. 4272.89   1
   0   0  11 8650.28 1597.18   1
   1   0  11 21568.2 2274.63   1
   2   0  11 64757.0 3427.92   1
  -2   0 -11 71510.9 2576.95   2
  -3   0 -11 94638.6 3214.59   2
   4   0  11 18722.2 2052.39  12
  -4   0 -11 17254.8 1749.96   2
  -4   0 -11 19953.7 1781.76  13
   5   0  11 30892.7 2276.34  12
  -5   0 -11 33462.6 2302.42   2
   6   0  11 7306.40 1497.69  12
   7   0  11 9845.46 1204.04  12
   6  -2 -12 24798.3 1588.44   8
   6  -2 -12 24626.3 1662.01  14
   5  -2 -12 18703.7 1814.09   8
   5  -2 -12 18744.5 1820.19  14
   4  -2 -12 34288.5 2233.27   8
   4  -2 -12 35611.9 2438.61  14
   3  -2 -12 87572.3 3329.92   9
   3  -2 -12 80452.6 3241.90  14
   2  -2 -12 3388.41 1276.72   0
   1  -2 -12 8235.36 1645.37   0
   0  -2 -12 52160.3 2073.88   2
   0  -2 -12 51821.4 3300.11   0
  -1  -2 -12 121828. 3286.41   2
  -1  -2 -12 116646. 4720.17   0
  -2  -2 -12 1873.86 906.509   2
   2   2  12 1736.79 1874.82   1
  -3  -2 -12 50436.6 2708.52   5
  -3  -2 -12 52289.1 2603.12   2
   4   2  12 2659.29 1458.39  12
  -4  -2 -12 3010.06 1305.70   5
  -4  -2 -12 2018.46 1303.19   2
   5   2  12 27556.7 2239.32  12
   6   2  12 1960.84 1245.99  12
   7   2  12 46088.4 1740.77  12
   5  -4 -13 46309.1 1991.33   8
   5  -4 -13 46005.8 1990.76  14
   4  -4 -13 3582.21 1240.34  14
   3  -4 -13 16500.5 1743.94   9
   3  -4 -13 14166.6 1672.50  14
   2  -4 -13 19507.5 1830.53   9
   2  -4 -13 20046.6 1880.59  14
   1  -4 -13 104291. 3628.24   9
   0  -4 -13 5815.98 1378.79   5
   0  -4 -13 8045.21 1442.37   9
  -1  -4 -13 55089.1 2708.76   5
  -1  -4 -13 66665.3 3019.54   9
  -2  -4 -13 1747.24 1154.74   5
  -2  -4 -13 987.418 983.411   2
  -3  -4 -13 39116.9 2422.26   5
  -3  -4 -13 41209.0 2374.66   2
  -4  -4 -13 1051.49 1183.88   5
   5   4  13 61402.0 2413.18  12
  -5  -4 -13 71300.2 2691.67   5
   6   4  13 8155.55 1106.97  12
  -6  -4 -13 10498.3 1070.13   5
   4  -6 -14 2084.07 819.605   8
   3  -6 -14 39149.4 1889.01   9
   3  -6 -14 40033.2 1707.63  14
   2  -6 -14 12755.1 1380.80   9
   2  -6 -14 15466.2 1454.41  14
   1  -6 -14 29930.9 2022.48   9
   1  -6 -14 30145.8 1922.90  14
   0  -6 -14 1054.98 1056.40   9
  -1  -6 -14 27735.6 2020.41   9
  -2  -6 -14 4316.26 1216.29   5
  -2  -6 -14 5009.77 1314.01   9
  -3  -6 -14 51561.2 2228.46   5
  -3  -6 -14 47881.7 2326.71   9
  -4  -6 -14 17893.7 1363.20   5
  -4  -6 -14 16762.5 1373.85   9
   2   7  -8 12166.0 1016.14  11
   2   7  -8 11259.1 935.035  10
   1   7  -8 9619.99 1063.56  11
   0   7  -8 18307.5 1161.61  13
  -1   7  -8 1130.03 771.551  13
  -2   7  -8 40009.2 1405.30  13
   5   5  -9 25018.0 1332.10  11
   5   5  -9 23990.9 1364.51  10
   4   5  -9 16812.3 1404.04  11
   4   5  -9 18284.0 1635.03  10
   3   5  -9 21384.1 1640.45  11
   3   5  -9 25135.8 1981.68  10
   2   5  -9 23622.3 1796.72  11
   2   5  -9 23124.9 1979.27  10
   1   5  -9 5993.50 1453.85  10
   0   5  -9 64487.8 2802.85  13
  -1   5  -9 64712.8 2839.71  13
  -2   5  -9 3980.08 1168.64  13
  -3   5  -9 13186.5 1444.12  13
  -4   5  -9 29337.1 1618.57  13
   6   3 -10 8764.24 1026.91  11
   5   3 -10 15777.4 1407.27  11
   4   3 -10 6632.11 1249.30  11
   4   3 -10 5978.62 1601.88  10
   3   3 -10 30254.8 1954.36  11
   3   3 -10 25721.4 2208.70  10
   2   3 -10 22555.5 1755.51  11
   2   3 -10 21706.1 2068.53  10
   1   3 -10 80009.3 3046.60   5
   1   3 -10 74812.5 3060.87  10
   0   3 -10 809.347 1351.69  10
   0   3 -10 1521.32 1199.76  13
  -1   3 -10 26265.3 1930.64  13
  -2   3 -10 22295.0 1799.74  13
  -3   3 -10 91231.1 3259.13  13
  -4   3 -10 1532.79 1014.52  13
   5  -3  10 34161.4 1874.06   7
   6  -3  10 131.282 745.843   7
   6   1 -11 4546.24 990.020  11
   6   1 -11 4891.02 1149.46  14
   5   1 -11 54446.1 2579.30  14
   4   1 -11 5372.01 1314.17  14
   4   1 -11 4011.20 1328.93   4
   3   1 -11 62757.8 3044.04   5
   3   1 -11 68207.1 2865.18   4
  -2  -1  11 1612.85 1682.06   1
  -1  -1  11 21380.5 2383.70   1
   0  -1  11 21930.2 2323.89   1
   1  -1  11 196008. 6008.66   1
   2  -1  11 3650.56 1730.33   1
   3  -1  11 48784.7 2560.76  12
  -3   1 -11 55139.6 2576.25   2
  -3   1 -11 51538.5 2561.37  13
  -4   1 -11 604.661 1119.61  13
   4  -1  11 456.455 1401.17  12
  -4   1 -11 1351.80 1381.26   2
   5  -1  11 35890.9 2288.77  12
   6  -1  11 366.338 1083.95  12
   7  -1  11 39446.9 1513.88   7
   6  -1 -12 898.135 1064.62  14
   5  -1 -12 67747.2 2993.84  14
   4  -1 -12 3042.26 1426.31  14
   4  -1 -12 3399.22 1380.11   4
   3  -1 -12 11873.9 1638.23   5
   3  -1 -12 14334.7 1782.36  14
   3  -1 -12 10260.6 1556.61   4
  -2   1  12 4789.67 1575.01   1
   2  -1 -12 4046.66 1132.43   4
  -1   1  12 131250. 4998.66   1
   0   1  12 39091.7 2924.19   1
   1   1  12 78006.7 3943.40   1
  -1  -1 -12 76260.1 2487.26   2
   2   1  12 5356.80 1783.42   1
  -2  -1 -12 4508.62 1265.54   2
  -3  -1 -12 61485.8 2829.55   5
  -3  -1 -12 57436.5 2650.72   2
   4   1  12 6668.40 1612.91  12
  -4  -1 -12 5223.78 1443.68   2
   5   1  12 41242.7 2510.50  12
  -5  -1 -12 50491.1 2350.10  13
   6   1  12 34097.7 2116.02  12
   7   1  12 2437.07 911.322  12
   6  -3 -13 11062.4 1039.88   8
   6  -3 -13 10611.9 1078.26  14
   5  -3 -13 20361.0 1672.62   8
   5  -3 -13 22408.6 1713.87  14
   4  -3 -13-31.0348 1140.38   8
   4  -3 -13 251.660 1199.16  14
   3  -3 -13 58127.9 2832.59   9
   3  -3 -13 51259.3 2632.31  14
   2  -3 -13 27024.0 2011.38   9
   2  -3 -13 24457.0 2031.00  14
   1  -3 -13 9462.85 1487.03   5
   0  -3 -13 26641.3 1984.69   5
  -1  -3 -13 50218.2 2549.91   5
  -1  -3 -13 53149.4 2403.58   2
  -2  -3 -13 56546.7 2795.92   5
  -2  -3 -13 61572.0 2685.17   2
  -3  -3 -13 35311.2 2367.32   5
  -3  -3 -13 35617.9 2187.03   2
  -4  -3 -13 52674.7 2760.61   5
  -4  -3 -13 51147.9 2528.99   2
   5   3  13 7297.63 1444.84  12
  -5  -3 -13 7600.29 1319.05   5
   6   3  13 4949.41 1165.45  12
   4  -5 -14 35459.0 1771.41   8
   4  -5 -14 34322.9 1701.99  14
   3  -5 -14 8909.30 1296.65   9
   3  -5 -14 9752.87 1334.92  14
   2  -5 -14 739.182 1015.96   9
   2  -5 -14 1195.40 1145.45  14
   1  -5 -14 15747.5 1706.38   9
   0  -5 -14 53655.6 2708.69   9
  -1  -5 -14 10306.4 1532.77   5
  -1  -5 -14 11388.3 1591.48   9
  -2  -5 -14 46601.7 2484.23   5
  -2  -5 -14 44633.8 2524.05   9
  -3  -5 -14 1899.31 1087.97   5
  -3  -5 -14 1003.57 1168.71   9
  -4  -5 -14 9372.92 1315.27   5
  -4  -5 -14 9975.68 1344.22   9
  -5  -5 -14 6802.56 1048.04   5
   1  -7 -15 2240.55 838.472   9
   1  -7 -15 2199.04 836.790  14
   0  -7 -15 29055.6 1612.78   9
   0  -7 -15 29001.7 1546.69  14
  -1  -7 -15 3226.72 980.962   9
  -2  -7 -15 35232.1 1608.66   9
   4   6  -9 2920.30 724.402  11
   4   6  -9 2501.05 815.901  10
   3   6  -9 22092.7 1368.95  11
   3   6  -9 21017.4 1456.99  10
   2   6  -9 1273.48 943.943  11
   2   6  -9 2169.28 1090.95  10
   1   6  -9 71784.5 2382.27  10
   0   6  -9 4206.54 1082.14  13
  -1   6  -9 23204.3 1603.64  13
  -2   6  -9 1590.87 900.043  13
  -3   6  -9 53780.3 1878.19  13
   5   4 -10 32904.9 1616.77  11
   5   4 -10 13670.1 1304.57  10
   4   4 -10 284.913 932.566  11
   4   4 -10 113.240 1216.65  10
   3   4 -10 56147.7 2392.04  11
   3   4 -10 56240.4 2782.20  10
   2   4 -10 6598.28 1278.72  11
   2   4 -10 4336.87 1471.23  10
   1   4 -10 4318.61 1423.13  10
   0   4 -10 2415.66 1295.24  10
   0   4 -10 4561.54 1380.26  13
  -1   4 -10 88925.3 3217.14  13
  -2   4 -10 19237.9 1773.88  13
  -3   4 -10 12877.4 1503.40  13
  -4   4 -10 11030.7 1318.59  13
   6   2 -11 5340.70 925.132  11
   5   2 -11 62909.1 2309.47  11
   4   2 -11 27316.9 1793.59  11
   4   2 -11 29326.6 2223.36  10
   3   2 -11 9511.97 1743.88  10
   2   2 -11 588.807 1271.05   5
  -1  -2  11 146764. 5540.44   1
   0  -2  11 58232.5 3555.60   1
   1  -2  11 20064.1 2497.87   1
  -2   2 -11 27039.4 1967.42  13
   3  -2  11 28844.1 2050.30  12
  -3   2 -11 26863.5 1975.14  13
   4  -2  11 16598.9 1832.87  12
  -4   2 -11 18496.3 1685.75  13
   5  -2  11 37882.6 2189.50  12
  -5   2 -11 41177.1 1942.54  13
   6  -2  11 29848.0 1608.48   7
   6   0 -12 28940.3 1759.11  14
   5   0 -12 9009.15 1516.51  14
   4   0 -12 6346.63 1446.55  14
   4   0 -12 6770.29 1434.16   4
   3   0 -12 63173.4 2940.60   5
   3   0 -12 67850.4 2870.75   4
  -2   0  12 102403. 4544.72   1
  -1   0  12 10945.3 1859.36   1
   0   0  12 39837.0 2974.79   1
   1   0  12 27726.6 2642.44   1
  -2   0 -12 60296.7 2469.92   2
   2   0  12 67216.5 3686.10   1
   3   0  12 13077.6 1791.42  12
  -3   0 -12 12323.9 1697.28   2
   4   0  12 80104.6 3213.38  12
  -4   0 -12 83384.2 3218.83   2
  -4   0 -12 89916.0 3222.87  13
  -5   0 -12 572.391 981.343  13
   5   0  12 433.073 1387.17  12
   6   0  12 12926.2 1509.63  12
   7   0  12 5856.39 931.037  12
   7   0  12 3679.76 745.885   7
   6  -2 -13 9887.62 1004.54   8
   6  -2 -13 10362.9 1218.17  14
   5  -2 -13 27842.8 1754.61   8
   5  -2 -13 24114.4 1829.83  14
   4  -2 -13 70874.2 3051.05  14
   4  -2 -13 72980.2 2863.20   8
   3  -2 -13 1459.07 1211.22  14
   2  -2 -13 19046.7 1783.88   5
   2  -2 -13 18793.9 1867.29  14
  -1   2  13 19088.1 2524.37   1
   1  -2 -13 19367.9 2418.44   0
   0   2  13 80140.1 4246.71   1
   0  -2 -13 70676.9 3961.53   0
   1   2  13 7725.79 2138.48   1
  -1  -2 -13 5471.55 1057.11   2
  -2  -2 -13 121329. 3868.53   5
  -2  -2 -13 140041. 3816.33   2
  -3  -2 -13 2936.16 1357.64   5
  -3  -2 -13 3371.87 977.644   2
   4   2  13 9284.09 1657.99  12
  -4  -2 -13 10124.8 1573.18   5
  -4  -2 -13 9908.75 1402.78   2
   5   2  13 6319.32 1543.82  12
   6   2  13 69682.6 2487.88  12
   5  -4 -14 2212.36 882.896   8
   5  -4 -14 843.591 858.134  14
   4  -4 -14 14754.2 1512.10   8
   4  -4 -14 11787.0 1389.53  14
   3  -4 -14 8314.20 1354.64   9
   3  -4 -14 8768.31 1411.47  14
   2  -4 -14 50470.2 2561.51   9
   2  -4 -14 47857.3 2499.59  14
   1  -4 -14 3225.38 1230.88   9
   0  -4 -14 89625.3 3224.33   5
   0  -4 -14 100104. 3496.45   9
  -1  -4 -14 1487.44 1212.02   5
  -1  -4 -14 511.545 1093.35   9
  -2  -4 -14 6763.03 1418.43   5
  -2  -4 -14 4497.54 1245.74   9
  -3  -4 -14 1430.01 1231.49   5
  -4  -4 -14 69043.5 2875.21   5
  -5  -4 -14 20367.4 1538.31   5
   3  -6 -15 2567.65 843.220  14
   2  -6 -15 11288.0 1234.27   9
   2  -6 -15 11993.1 1266.26  14
   1  -6 -15 25480.9 1739.09   9
   1  -6 -15 23836.5 1642.76  14
   0  -6 -15 21884.3 1695.46   9
  -1  -6 -15 8485.67 1322.04   9
  -2  -6 -15 67805.3 2399.06   5
  -2  -6 -15 67183.6 2604.49   9
  -3  -6 -15 28565.9 1634.25   5
  -3  -6 -15 29297.5 1674.10   9
  -4  -6 -15 8552.48 957.128   5
   1   7  -9 3387.10 720.551  11
   0   7  -9 1228.90 689.478  11
   4   5 -10 22150.7 1338.24  11
   4   5 -10 24398.1 1579.71  10
   3   5 -10 4153.17 1063.24  11
   3   5 -10 4231.03 1263.20  10
   2   5 -10 5019.68 1152.57  11
   2   5 -10 5283.67 1313.14  10
   1   5 -10 41447.3 2261.28  10
   0   5 -10 35940.0 2101.14  13
  -1   5 -10 2754.75 1074.08  13
  -2   5 -10 19891.1 1667.26  13
  -3   5 -10 2044.97 954.015  13
  -4   5 -10 20659.2 1259.59  13
   6   3 -11 22155.6 1084.98  11
   5   3 -11 1137.81 903.023  11
   4   3 -11 29421.2 1764.96  11
   4   3 -11 29495.0 2149.62  10
   3   3 -11 29946.8 1854.06  11
   3   3 -11 25681.4 2156.98  10
   2   3 -11 91399.4 2945.81  11
   2   3 -11 85874.9 3362.22  10
   1   3 -11-366.538 1088.83   5
   1   3 -11 1248.09 1268.01  10
   0   3 -11 50948.3 2514.28  10
   0   3 -11 46642.8 2392.09  13
  -1   3 -11 825.235 1124.62  13
  -2   3 -11 75986.5 3007.56  13
  -3   3 -11 6746.16 1282.10  13
  -4   3 -11 55755.6 2428.26  13
   5  -3  11 2813.38 906.503   7
  -5   3 -11 3297.24 896.231  13
   6   1 -12 12263.9 1154.88  14
   5   1 -12 7751.36 1284.13  14
   4   1 -12 109160. 3575.77   4
   3   1 -12 2907.61 1326.97   5
   3   1 -12 559.512 1341.06  10
   2   1 -12 23667.9 1970.69   5
  -1  -1  12 5.66915 1553.09   1
   0  -1  12 33542.5 2959.99   1
   1  -1  12 9654.66 1914.06   1
  -2   1 -12 73079.2 2914.16  13
   3  -1  12 28254.7 2012.68  12
  -3   1 -12 27963.8 2006.25  13
   4  -1  12 22420.8 1976.42  12
  -4   1 -12 23111.9 2125.20   2
  -4   1 -12 23498.7 1808.51  13
  -5   1 -12 934.650 903.674  13
   5  -1  12 1370.08 1199.16  12
   6  -1  12 41887.3 1924.99  12
   6  -1 -13 51021.7 1991.42  14
   5  -1 -13 15680.6 1635.29  14
   4  -1 -13 30785.6 2131.29  14
   3  -1 -13-240.389 1182.75   5
   3  -1 -13 485.434 1155.10  14
   3  -1 -13 888.224 1000.87   4
   2  -1 -13 49433.8 2501.77   5
   2  -1 -13 54663.0 2512.68  14
  -1   1  13 7878.68 1891.05   1
   0   1  13 45814.5 3307.74   1
   1   1  13 30090.4 2699.65   1
  -2  -1 -13 16897.0 1823.30   5
  -2  -1 -13 18464.8 1501.84   2
  -3  -1 -13 7900.96 1478.65   5
  -3  -1 -13 4218.75 1551.11   2
   4   1  13 57148.0 2833.06  12
  -4  -1 -13 52861.0 2723.93   2
   5   1  13 37941.5 2349.56  12
  -5  -1 -13 40035.9 2066.41  13
   6   1  13 6634.86 1293.16  12
   5  -3 -14 3458.77 1016.28   8
   5  -3 -14 3461.68 1026.80  14
   4  -3 -14 55932.3 2368.97   8
   4  -3 -14 55053.5 2512.11  14
   3  -3 -14 51799.1 2492.18   9
   3  -3 -14 47321.7 2460.36  14
   2  -3 -14 55969.2 2650.58  14
   1  -3 -14 4962.24 1373.04   5
   0  -3 -14 5191.64 1352.21   5
  -1  -3 -14 23716.2 1932.22   5
  -2  -3 -14 47529.9 2621.44   5
  -2  -3 -14 48980.0 2401.37   2
  -3  -3 -14 83640.3 3381.15   5
  -3  -3 -14 81712.0 3074.30   2
  -4  -3 -14 8115.68 1464.70   5
   5   3  14 13829.2 1464.34  12
  -5  -3 -14 16614.4 1510.04   5
   6   3  14 5398.37 1021.83  12
   4  -5 -15 1754.75 866.673   8
   4  -5 -15 1756.30 825.739  14
   3  -5 -15 33943.9 1834.74   9
   3  -5 -15 32808.9 1773.87  14
   2  -5 -15 4294.80 1069.15   9
   2  -5 -15 4791.69 1107.11  14
   1  -5 -15 18415.8 1691.75   9
   1  -5 -15 16507.0 1632.73  14
   0  -5 -15 22804.7 1833.47   9
  -1  -5 -15 57127.4 2507.54   5
  -1  -5 -15 57440.7 2647.95   9
  -2  -5 -15 9514.10 1431.69   5
  -2  -5 -15 9548.07 1429.88   9
  -3  -5 -15 35936.5 2059.94   5
  -3  -5 -15 34954.1 1969.43   9
  -4  -5 -15 5618.25 1073.95   5
  -5  -5 -15 37145.2 1461.18   5
   0  -7 -16 2275.07 719.693   9
   0  -7 -16 3635.64 799.021  14
  -1  -7 -16 8856.91 897.156   9
  -1  -7 -16 9471.86 942.473  14
   3   6 -10 3520.66 771.375  11
   3   6 -10 5693.64 915.447  10
   2   6 -10 70875.2 2064.17  11
   2   6 -10 73367.9 2164.56  10
   1   6 -10 2823.33 937.628  11
   1   6 -10 2322.63 933.636  10
   0   6 -10 5394.71 999.042  13
  -1   6 -10 679.066 855.801  13
  -2   6 -10 37398.7 1642.86  13
  -3   6 -10 34.6163 632.311  13
   5   4 -11 286.057 708.186  11
   4   4 -11 71520.5 2240.66  11
   4   4 -11 74607.0 2662.61  10
   3   4 -11 38004.2 1943.84  11
   3   4 -11 36575.9 2251.00  10
   2   4 -11 7937.21 1232.61  11
   2   4 -11 8149.87 1574.36  10
   1   4 -11 7949.13 1556.14  10
   0   4 -11 70315.6 2852.71  10
   0   4 -11 70609.8 2818.82  13
  -1   4 -11 9279.43 1428.92  13
  -2   4 -11 34230.1 2048.86  13
  -3   4 -11 35047.8 2027.80  13
  -4   4 -11 5015.52 1021.30  13
   4   2 -12 11604.5 1671.18  10
   3   2 -12 4034.93 1382.28  10
   2   2 -12 32771.9 2259.28   5
   2   2 -12 33539.5 2221.83  10
   1   2 -12 23717.9 1977.79   5
   0   2 -12 12073.7 1544.14  13
   0   2 -12 11396.4 1471.95   5
  -1   2 -12 34319.6 2135.20  13
  -2   2 -12 5147.23 1205.55  13
  -3   2 -12 13195.7 1532.08  13
   4  -2  12 21903.8 1866.96  12
  -4   2 -12 22356.7 1737.34  13
  -5   2 -12 57240.1 2106.77  13
   6  -2  12 651.965 722.784   7
   6   0 -13 1036.65 827.164  14
   5   0 -13 11383.5 1387.82  14
   4   0 -13 34240.3 2085.95  14
   3   0 -13 70536.2 3011.42   5
   2   0 -13 2827.68 1256.46   5
   1   0 -13 53967.3 2596.47   5
   0   0  13 29844.3 2774.94   1
   1   0  13 21611.5 2537.55   1
  -2   0 -13 26159.2 1894.58   5
  -3   0 -13 143729. 3883.25   2
  -4   0 -13 1156.57 1014.49  13
   4   0  13 2492.93 1307.08  12
  -4   0 -13 1911.14 1498.85   2
   5   0  13 11581.8 1618.90  12
  -5   0 -13 11941.1 1301.16  13
   6   0  13 3324.92 1080.84  12
   6  -2 -14 16993.2 1120.59  14
   5  -2 -14 64751.2 2430.93  14
   4  -2 -14 570.399 1103.26  14
   3  -2 -14 40687.6 2331.62  14
   2  -2 -14 918.834 1093.70   5
   2  -2 -14-307.417 1055.73  14
   1  -2 -14 13175.2 1558.88   5
   1  -2 -14 16585.8 1656.75  14
   0  -2 -14 1567.44 1159.50   5
  -1  -2 -14 180257. 4565.95   5
  -1  -2 -14 206306. 4308.87   2
  -2  -2 -14 10249.6 1569.96   5
  -2  -2 -14 8441.03 1267.41   2
  -3  -2 -14 18357.0 1933.38   5
  -3  -2 -14 16848.7 1525.86   2
  -4  -2 -14 1276.05 1131.97   5
   5   2  14 54999.1 2396.31  12
  -5  -2 -14 56777.1 2253.73  13
   6   2  14 5849.44 1032.47  12
   5  -4 -15 30654.0 1274.32  14
   4  -4 -15 3767.80 1003.08   8
   4  -4 -15 3527.20 1042.38  14
   3  -4 -15 25557.6 1757.16   9
   3  -4 -15 23838.9 1739.64  14
   2  -4 -15 2559.66 1107.71   9
   2  -4 -15 2644.49 1157.68  14
   1  -4 -15 31100.0 2015.09   9
   1  -4 -15 29689.3 2047.26  14
   0  -4 -15 27368.6 1922.88   5
   0  -4 -15 29963.2 1996.25   9
  -1  -4 -15 13217.6 1594.04   5
  -2  -4 -15 3867.06 1281.48   5
  -3  -4 -15 46896.3 2480.13   5
  -4  -4 -15 23498.7 1765.08   5
  -5  -4 -15 14799.8 1235.96   5
   2  -6 -16 12815.2 1160.89   9
   2  -6 -16 12803.8 1129.27  14
   1  -6 -16 10013.0 1188.38   9
   1  -6 -16 11892.6 1264.03  14
   0  -6 -16 1773.79 924.402   9
   0  -6 -16 867.391 935.722  14
  -1  -6 -16 37969.0 1842.61   9
  -2  -6 -16 22266.5 1358.21   5
  -2  -6 -16 25029.4 1525.63   9
  -3  -6 -16 6540.36 961.003   5
  -3  -6 -16 7236.52 902.310   9
   4   5 -11 582.419 677.159  11
   4   5 -11 111.370 813.883  10
   3   5 -11 20537.8 1304.42  11
   3   5 -11 24051.6 1616.08  10
   2   5 -11 13215.4 1265.95  11
   2   5 -11 15320.5 1489.37  10
   1   5 -11 20274.7 1483.27  11
   1   5 -11 19783.6 1618.47  10
   0   5 -11 6667.15 1224.95  13
  -1   5 -11 32561.6 1866.98  13
  -2   5 -11 3255.71 1051.19  13
  -3   5 -11 20338.0 1405.36  13
   5   3 -12 10206.3 953.893  11
   4   3 -12 9613.44 1136.02  11
   4   3 -12 10265.4 1498.25  10
   3   3 -12 71773.5 2466.87  11
   3   3 -12 60392.5 2807.11  10
   2   3 -12 2550.79 1278.81  10
   1   3 -12 54963.5 2521.25   5
   1   3 -12 48997.4 2562.74  10
   0   3 -12 1068.09 1182.57  10
   0   3 -12 1165.95 1217.15  13
  -1   3 -12 6609.23 1262.65  13
  -2   3 -12 3636.94 1235.34  13
  -3   3 -12 57245.7 2497.35  13
  -4   3 -12 15810.1 1422.69  13
  -5   3 -12 10418.1 1003.06  13
   3   1 -13 65993.8 2961.08   5
   3   1 -13 72900.6 2978.07  10
   2   1 -13 4348.39 1273.33   5
   1   1 -13 31601.0 2170.37   5
   0   1 -13 2172.61 1155.40   5
  -1   1 -13 126613. 3507.36   5
  -1   1 -13 119421. 3608.95  13
  -2   1 -13 50572.3 2505.21  13
   3  -1  13 22159.5 1836.31  12
  -3   1 -13 19561.9 1759.01  13
  -4   1 -13 6369.60 1332.56  13
   4  -1  13 6995.15 1445.19  12
   5  -1  13 40542.7 2098.26  12
  -5   1 -13 39084.9 1838.35  13
   6  -1  13 7818.47 969.910   7
   6  -1 -14 9447.81 941.395  14
   5  -1 -14 18138.2 1502.72  14
   4  -1 -14 8344.93 1423.77  14
   3  -1 -14 17441.0 1704.68   5
   3  -1 -14 21002.1 1813.98  14
   2  -1 -14 18001.0 1710.35   5
   1  -1 -14 110261. 3468.91   5
   0  -1 -14 18737.2 1769.63   5
  -1  -1 -14 598.586 1197.18   5
  -2  -1 -14 15315.5 1714.89   5
  -3  -1 -14 22353.3 1899.67   5
  -3  -1 -14 21525.4 1680.20   2
   4   1  14 51044.1 2503.74  12
   5   1  14 6454.33 1364.72  12
  -5  -1 -14 9760.44 1240.12  13
   6   1  14 27705.8 1522.17  12
   5  -3 -15 11971.9 1162.30  14
   4  -3 -15 19393.0 1472.06   8
   4  -3 -15 18561.7 1593.63  14
   3  -3 -15 20727.8 1757.14  14
   2  -3 -15 58540.0 2629.79  14
   1  -3 -15 4021.21 1200.76   5
   1  -3 -15 3113.70 1200.42  14
   0  -3 -15 6157.72 1292.86   5
  -1  -3 -15 47712.8 2524.62   5
  -2  -3 -15 36755.4 2378.89   5
  -2  -3 -15 38887.7 2129.11   2
  -3  -3 -15 1331.52 1234.19   5
  -4  -3 -15 39017.1 2198.96   5
  -5  -3 -15 1821.30 813.924  13
  -5  -3 -15 2674.10 950.639   5
   3  -5 -16 374.941 797.001  14
   2  -5 -16 21859.7 1499.97   9
   2  -5 -16 21619.4 1545.06  14
   1  -5 -16 25080.2 1707.83   9
   1  -5 -16 22094.5 1693.77  14
   0  -5 -16 75758.5 2729.62   9
  -1  -5 -16 1132.53 964.690   5
  -1  -5 -16 1699.03 988.286   9
  -2  -5 -16 36641.3 1994.89   5
  -2  -5 -16 34867.4 1882.98   9
  -3  -5 -16 2326.49 1030.40   5
  -4  -5 -16 25653.2 1455.65   5
   2   6 -11 1554.08 676.184  11
   2   6 -11 2165.46 749.372  10
   1   6 -11 14206.5 1073.76  11
   1   6 -11 15921.4 1034.02  10
   0   6 -11 8071.69 933.955  11
  -1   6 -11 14930.2 1067.11  13
  -2   6 -11 704.854 643.658  13
   4   4 -12 13312.9 1060.77  11
   4   4 -12 14567.1 1336.59  10
   3   4 -12 33128.7 1651.68  11
   3   4 -12 31696.9 1961.08  10
   2   4 -12 17492.8 1421.74  11
   2   4 -12 17628.5 1707.05  10
   1   4 -12 31076.5 1781.08  11
   1   4 -12 31987.7 2075.98  10
   0   4 -12 5882.00 1336.67  10
   0   4 -12 4313.64 1194.07  13
  -1   4 -12 44117.5 2204.58  13
  -2   4 -12 27488.6 1783.61  13
  -3   4 -12 2526.59 1012.41  13
  -4   4 -12 5824.60 937.188  13
   4   2 -13 21926.1 1781.25  10
   3   2 -13 14333.3 1710.99  10
   2   2 -13 24247.8 1978.99   5
   2   2 -13 21573.8 1923.62  10
   1   2 -13 14621.3 1555.31   5
   0   2 -13 124985. 3490.11   5
   0   2 -13 123827. 3498.23  13
  -1   2 -13 1037.38 1068.82  13
  -2   2 -13 15756.0 1628.96  13
  -3   2 -13 10791.6 1441.67  13
  -4   2 -13 68694.6 2551.13  13
  -5   2 -13 1626.93 807.292  13
   5   0 -14 5406.90 1036.97  14
   4   0 -14 37061.9 1954.38  14
   3   0 -14 25038.8 1969.27   5
   2   0 -14 89202.6 3235.87   5
   1   0 -14 911.322 1117.16   5
   0   0 -14 1273.19 1075.52   5
  -1   0 -14 2671.89 1116.78   5
  -2   0 -14 79503.5 2923.28   5
  -3   0 -14 187.977 1112.55  13
   4   0  14 20957.9 1753.55  12
  -4   0 -14 21078.0 1736.30  13
  -5   0 -14 2806.90 947.314  13
   5   0  14 3086.85 1222.78  12
   6   0  14 18017.4 1244.37  12
   5  -2 -15 3122.68 946.582  14
   4  -2 -15 75222.2 2681.21  14
   3  -2 -15 8766.68 1332.39   5
   3  -2 -15 11286.5 1469.09  14
   2  -2 -15 25258.0 1848.89   5
   2  -2 -15 30761.6 1997.01  14
   1  -2 -15 8418.78 1345.75   5
   1  -2 -15 6836.88 1204.82  14
   0  -2 -15 64107.9 2777.23   5
  -1  -2 -15 10033.7 1492.38   5
  -2  -2 -15 44713.8 2497.59   5
  -2  -2 -15 52054.1 2362.14   2
  -3  -2 -15 2874.13 1227.13   5
  -4  -2 -15 38490.9 2133.90   5
  -5  -2 -15 998.256 882.589  13
   4  -4 -16 18992.4 1153.98   8
   4  -4 -16 19475.1 1287.87  14
   3  -4 -16 976.935 942.900  14
   2  -4 -16 67302.8 2462.80   9
   2  -4 -16 65486.3 2538.14  14
   1  -4 -16 27916.5 1887.69  14
   0  -4 -16 18834.1 1636.30   5
  -1  -4 -16 7018.11 1338.70   5
  -2  -4 -16 18838.4 1695.10   5
  -3  -4 -16 17562.6 1646.04   5
  -4  -4 -16 29965.8 1741.70   5
  -5  -4 -16 50545.0 1573.18   5
   1  -6 -17 8340.71 935.666   9
   1  -6 -17 9530.07 1035.93  14
   0  -6 -17 10239.3 1016.18   9
   0  -6 -17 9732.43 1139.41  14
  -1  -6 -17 12525.0 1035.15   9
  -1  -6 -17 11742.3 1178.88  14
   3   5 -12 2385.08 725.412  11
   3   5 -12 2386.44 927.072  10
   2   5 -12 33038.6 1492.46  11
   2   5 -12 33602.2 1719.40  10
   1   5 -12 8665.44 1057.04  11
   1   5 -12 10072.9 1252.00  10
   0   5 -12 62206.8 2100.14  13
  -1   5 -12 1390.99 892.588  13
  -2   5 -12 4813.88 938.989  13
  -3   5 -12 1908.87 763.204  13
   4   3 -13 20670.3 1562.93  10
   3   3 -13 2074.61 1212.60  10
   2   3 -13 94285.6 3232.44  10
   1   3 -13 18776.0 1741.73  10
   0   3 -13 12448.7 1535.03  10
   0   3 -13 8816.67 1338.19  13
  -1   3 -13 3501.11 1148.10  13
  -2   3 -13 47761.3 2260.70  13
  -3   3 -13 9177.00 1241.48  13
  -4   3 -13 17884.7 1347.54  13
   3   1 -14 14515.1 1683.52   5
   3   1 -14 15663.4 1713.97  10
   2   1 -14 11250.6 1570.41   5
   1   1 -14 8013.71 1390.91   5
   0   1 -14 116432. 3457.07   5
  -1   1 -14 3938.91 1176.34  13
  -1   1 -14 4292.08 1184.78   5
  -2   1 -14 11078.5 1457.42  13
  -3   1 -14 7649.11 1314.74  13
   4  -1  14 10571.6 1411.41  12
  -4   1 -14 10433.8 1368.55  13
  -5   1 -14 10459.9 1066.53  13
   5  -1 -15 10971.8 1125.93  14
   4  -1 -15 9106.37 1260.17  14
   3  -1 -15 13896.4 1591.13   5
   3  -1 -15 15364.6 1501.81  14
   2  -1 -15 31095.6 2040.76   5
   1  -1 -15 81809.3 3049.71   5
   0  -1 -15 13986.4 1601.22   5
  -1  -1 -15 25707.9 1939.77   5
  -2  -1 -15 47382.5 2457.46   5
  -3  -1 -15 28298.8 1942.31   5
  -4  -1 -15 8849.82 1328.56  13
   5   1  15 62949.9 2146.81  12
  -5  -1 -15 61257.2 2089.94  13
   5  -3 -16 11328.1 914.213  14
   4  -3 -16 20421.4 1445.50  14
   3  -3 -16 70105.8 2555.90  14
   2  -3 -16 658.479 1080.44  14
   1  -3 -16 18429.5 1598.08   5
   1  -3 -16 22476.9 1721.90  14
   0  -3 -16 11354.7 1445.76   5
   0  -3 -16 13139.1 1461.40  14
  -1  -3 -16 27520.8 1972.09   5
  -2  -3 -16 496.348 1077.92   5
  -3  -3 -16 63589.8 2724.71   5
  -4  -3 -16 1610.81 1019.42   5
  -5  -3 -16 14952.1 1057.36   5
  -5  -3 -16 12626.6 1005.69  13
   3  -5 -17 17147.7 1067.84  14
   2  -5 -17 260.656 637.565   9
   2  -5 -17 1074.51 871.557  14
   1  -5 -17 36744.4 1710.71   9
   1  -5 -17 35887.7 1778.06  14
   0  -5 -17 2124.83 1017.62  14
  -1  -5 -17 40978.0 1830.81   5
  -2  -5 -17-38.4180 898.546   5
  -3  -5 -17 10493.1 1114.15   5
  -4  -5 -17 592.234 617.201   5
   4   4 -13 23583.1 1289.68  10
   3   4 -13 37182.2 1831.61  10
   2   4 -13 6490.65 1251.68  10
   1   4 -13 6126.49 1259.96  10
   0   4 -13 31216.5 1812.64  10
   0   4 -13 30681.4 1727.13  13
  -1   4 -13 37839.2 1919.38  13
  -2   4 -13 5249.89 1057.18  13
  -3   4 -13 14382.1 1252.98  13
  -4   4 -13 1751.27 684.709  13
   4   2 -14 1071.73 1060.62  10
   3   2 -14 15310.9 1632.88  10
   2   2 -14 33434.9 2165.98   5
   2   2 -14 35592.3 2187.05  10
   1   2 -14 93923.3 3171.90   5
   1   2 -14 90334.6 3161.31  10
   0   2 -14 3263.03 1081.94   5
  -1   2 -14 16597.9 1559.19  13
  -2   2 -14 1967.72 1109.70  13
  -3   2 -14 37509.5 2005.14  13
  -4   2 -14 6202.40 1067.63  13
  -5   2 -14 32867.2 1335.95  13
   3   0 -15 89890.9 3104.14   5
   3   0 -15 94861.2 3010.60  10
   2   0 -15 9299.54 1388.92   5
   1   0 -15 39735.3 2233.76   5
   0   0 -15 1389.39 1098.31   5
  -1   0 -15 33690.7 2056.99   5
  -1   0 -15 31557.1 2120.30  13
  -2   0 -15 1111.27 1082.25  13
  -2   0 -15 1601.94 1016.81   5
  -3   0 -15 72660.7 2860.69  13
  -4   0 -15 20039.1 1569.42  13
   5   0  15 11429.9 1191.06  12
  -5   0 -15 12209.6 1113.54  13
   5  -2 -16 52018.1 1604.30  14
   4  -2 -16 13068.7 1242.66  14
   3  -2 -16 19462.9 1500.09   5
   3  -2 -16 19731.1 1564.85  14
   2  -2 -16 1200.82 976.617   5
   2  -2 -16 2582.56 1050.14  14
   1  -2 -16 46786.1 2299.24   5
   0  -2 -16 4945.73 1210.58   5
  -1  -2 -16 52775.7 2559.14   5
  -2  -2 -16 14180.1 1627.22   5
  -3  -2 -16 4882.97 1271.93   5
  -4  -2 -16 570.306 1000.65  13
  -4  -2 -16 424.995 941.094   5
  -5  -2 -16 26445.9 1338.03  13
   4  -4 -17 2046.77 687.047  14
   3  -4 -17 32173.8 1557.94  14
   2  -4 -17 19519.0 1495.26  14
   1  -4 -17 26957.1 1720.48  14
   0  -4 -17 30550.1 1777.32   5
   0  -4 -17 32224.4 1868.75  14
  -1  -4 -17 9365.13 1280.97   5
  -2  -4 -17 3373.97 1097.30   5
  -3  -4 -17 32622.6 1791.08   5
  -4  -4 -17 49026.3 1801.56   5
   2   5 -13 2986.30 869.778  10
   1   5 -13 71705.8 1998.17  10
  -1   5 -13 26181.6 1312.98  13
  -2   5 -13 400.137 700.404  13
   4   3 -14 1025.82 874.884  10
   3   3 -14 53843.6 2230.25  10
   2   3 -14 9301.76 1368.98  10
   1   3 -14 18935.9 1662.94  10
   0   3 -14 24908.1 1765.42  10
  -1   3 -14 53610.4 2283.42  13
  -2   3 -14 523.139 884.260  13
  -3   3 -14 25530.3 1629.24  13
  -4   3 -14 12093.4 1082.65  13
   3   1 -15 14698.1 1568.07  10
   2   1 -15 8374.88 1377.92   5
   1   1 -15 17453.2 1648.69   5
   0   1 -15 39463.3 2134.89   5
  -1   1 -15 21706.6 1654.12   5
  -1   1 -15 19469.1 1680.46  13
  -2   1 -15 41001.2 2227.33  13
  -3   1 -15 7654.61 1242.60  13
  -4   1 -15 7668.15 1110.26  13
  -5   1 -15 14679.9 1036.12  13
   5  -1 -16 27.1090 605.956  14
   4  -1 -16 7519.47 1033.19  14
   3  -1 -16 20184.2 1597.59   5
   2  -1 -16 44765.5 2232.82   5
   1  -1 -16 9934.31 1361.50   5
   0  -1 -16 58030.2 2568.87   5
  -1  -1 -16 4866.27 1217.54   5
  -2  -1 -16 9859.28 1399.20   5
  -3  -1 -16 20636.0 1635.25   5
  -3  -1 -16 17731.6 1626.88  13
  -4  -1 -16 41379.9 1994.74  13
  -5  -1 -16 325.052 698.703  13
   4  -3 -17 27148.1 1325.30  14
   3  -3 -17 1299.78 902.904  14
   2  -3 -17 46004.6 1931.63   5
   2  -3 -17 48784.8 2107.95  14
   1  -3 -17 1832.38 985.594   5
   1  -3 -17 2126.28 1011.11  14
   0  -3 -17 19038.1 1607.95   5
   0  -3 -17 26585.6 1689.27  14
  -1  -3 -17 734.177 1022.35   5
  -2  -3 -17 76608.8 2854.48   5
  -3  -3 -17 1191.36 993.328   5
  -4  -3 -17 26151.2 1486.92   5
   2  -5 -18 24735.1 1223.40  14
   1  -5 -18 1091.45 803.008  14
   0  -5 -18 46968.6 1814.10  14
  -1  -5 -18 12011.6 1058.62   5
  -1  -5 -18 11831.8 1115.54  14
  -2  -5 -18 6334.33 895.918   5
  -2  -5 -18 6770.19 920.815  14
  -3  -5 -18 1609.56 665.960   5
   3   4 -14 1539.35 864.340  10
   2   4 -14 14517.0 1309.57  10
   1   4 -14 19878.8 1453.55  10
   0   4 -14 40051.0 1780.07  10
  -1   4 -14 9088.32 1100.78  13
  -2   4 -14 19374.9 1322.39  13
  -3   4 -14 1010.52 709.338  13
   4   2 -15 645.704 747.955  10
   3   2 -15 9623.84 1298.25  10
   2   2 -15 57962.0 2441.50  10
   1   2 -15 1252.69 1021.28   5
   1   2 -15 754.912 1100.47  10
   0   2 -15 75721.2 2610.11   5
   0   2 -15 64953.0 2618.97  10
  -1   2 -15 1672.29 957.661  13
  -1   2 -15 494.174 998.651  10
  -2   2 -15 8150.60 1195.76  13
  -3   2 -15 4289.23 1033.31  13
  -4   2 -15 57462.4 1972.71  13
   3   0 -16 1682.72 1009.06   5
   3   0 -16 1970.29 1054.75  10
   2   0 -16 50977.7 2392.80   5
   1   0 -16 5675.76 1258.48   5
   0   0 -16 23815.5 1768.52   5
  -1   0 -16 677.998 991.587  13
  -1   0 -16 453.522 948.766   5
  -2   0 -16 76436.7 2691.68   5
  -2   0 -16 68879.5 2734.98  13
  -3   0 -16 16406.8 1517.23  13
  -4   0 -16 7744.09 1088.30  13
  -5   0 -16 1401.62 679.471  13
   4  -2 -17 21902.3 1235.87  14
   3  -2 -17 9511.08 1162.20   5
   3  -2 -17 9293.40 1083.16  14
   2  -2 -17 12816.4 1324.53   5
   1  -2 -17 8789.38 1255.47   5
   0  -2 -17 35251.8 2018.47   5
  -1  -2 -17 47201.9 2318.30   5
  -2  -2 -17 8484.12 1321.43   5
  -3  -2 -17 3291.88 1059.22   5
  -4  -2 -17 27959.2 1434.72   5
  -4  -2 -17 25078.8 1512.55  13
   3  -4 -18 14903.3 988.249  14
   2  -4 -18 25460.7 1411.92  14
   1  -4 -18 47695.4 1898.11  14
   0  -4 -18 2515.69 914.908   5
   0  -4 -18 3233.27 956.846  14
  -1  -4 -18 6345.70 1057.48   5
  -1  -4 -18 7706.37 1039.49  14
  -2  -4 -18 17302.0 1347.87   5
  -3  -4 -18 36348.8 1606.39   5
   3   3 -15 7713.88 1096.60  10
   2   3 -15 26134.5 1663.10  10
   1   3 -15 22679.6 1609.32  10
   0   3 -15 6677.67 1180.05  10
  -1   3 -15 9725.05 1177.55  13
  -2   3 -15 39946.4 1820.87  13
  -3   3 -15 28883.7 1513.11  13
   3   1 -16 14781.6 1377.31  10
   2   1 -16 6657.24 1164.97   5
   2   1 -16 6649.57 1229.62  10
   1   1 -16 9824.85 1284.75   5
   0   1 -16 26345.1 1756.10   5
  -1   1 -16 64021.0 2390.35   5
  -1   1 -16 59242.6 2392.50  13
  -2   1 -16 717.672 938.552  13
  -3   1 -16 13438.9 1394.89  13
  -4   1 -16 11332.4 1114.52  13
   3  -1 -17 11335.9 1220.01   5
   2  -1 -17 6871.57 1127.89   5
   1  -1 -17 68112.9 2585.84   5
   0  -1 -17 2437.87 1080.70   5
  -1  -1 -17 14725.3 1508.38   5
  -1  -1 -17 17296.3 1583.34  13
  -2  -1 -17 4104.86 1173.51  13
  -2  -1 -17 3370.29 1066.59   5
  -3  -1 -17 46377.0 1976.73   5
  -3  -1 -17 40650.5 2072.99  13
  -4  -1 -17 503.276 801.343  13
   3  -3 -18 41182.0 1540.33  14
   2  -3 -18 184.923 702.720   5
   2  -3 -18 1849.54 830.283  14
   1  -3 -18 14343.2 1288.64   5
   1  -3 -18 16517.7 1294.37  14
   0  -3 -18 1146.15 921.136   5
  -1  -3 -18 53641.8 2220.30   5
  -2  -3 -18 5418.13 1089.47   5
  -3  -3 -18 26558.6 1533.69   5
  -4  -3 -18 2280.06 736.409  13
  -4  -3 -18 1781.40 669.031   5
   2   4 -15 1509.76 788.751  10
   1   4 -15 17868.7 1239.27  10
   0   4 -15 4953.28 873.889  10
  -1   4 -15 52305.3 1612.03  13
  -2   4 -15 1275.73 651.976  13
   3   2 -16 13617.5 1248.47  10
   2   2 -16 4004.01 1091.98  10
   1   2 -16 61092.8 2302.09   5
   1   2 -16 65303.9 2441.78  10
   0   2 -16 10154.3 1142.75   5
   0   2 -16 14135.7 1424.09  10
  -1   2 -16 23371.6 1582.19  10
  -1   2 -16 20577.2 1449.69  13
  -2   2 -16-272.147 878.219  13
  -3   2 -16 35949.0 1658.68  13
  -4   2 -16 1328.61 677.376  13
   3   0 -17 42409.8 1712.14  10
   2   0 -17 15589.4 1462.30   5
   1   0 -17 16125.0 1455.35   5
   0   0 -17 1927.73 969.566   5
  -1   0 -17 32510.5 1858.83   5
  -1   0 -17 30487.4 1804.39  13
  -2   0 -17 41278.2 1899.57   5
  -2   0 -17 41165.4 2023.12  13
  -3   0 -17 15906.1 1377.87  13
  -4   0 -17 9492.10 1006.75  13
   2  -2 -18 2559.71 881.553   5
   1  -2 -18 37384.9 1858.21   5
   0  -2 -18 46249.3 2105.22   5
  -1  -2 -18 8932.52 1235.85  13
  -1  -2 -18 8875.56 1254.81   5
  -2  -2 -18 16216.4 1436.98   5
  -2  -2 -18 14290.0 1383.50  13
  -3  -2 -18 3943.27 1035.16  13
  -3  -2 -18 3395.88 897.682   5
  -4  -2 -18 8806.08 952.937  13
   1  -4 -19 1124.43 728.691  14
   0  -4 -19 23718.6 1243.84   5
  -1  -4 -19 1407.86 801.128   5
  -2  -4 -19 12364.0 1020.63   5
   3   3 -16 27734.8 1192.18  10
   2   3 -16 20773.4 1332.08  10
   1   3 -16 5598.96 1039.06  10
   0   3 -16 10559.7 1141.40  10
  -1   3 -16 27026.3 1356.60  13
  -2   3 -16 22393.1 1263.02  13
  -3   3 -16 2180.26 654.967  13
   3   1 -17 2251.52 881.186  10
   2   1 -17 5339.57 1001.72   5
   2   1 -17 5931.10 1135.17  10
   1   1 -17 11331.5 1269.80   5
   1   1 -17 8825.42 1251.53  10
   0   1 -17 54238.8 2161.74   5
  -1   1 -17 1453.32 872.733  13
  -1   1 -17 1636.11 850.664   5
  -2   1 -17 27062.9 1625.30  13
  -3   1 -17 1207.47 789.395  13
  -4   1 -17 13391.4 957.933  13
   2  -1 -18 52488.9 2033.04   5
   1  -1 -18 361.532 818.846   5
   0  -1 -18 25604.9 1682.24   5
  -1  -1 -18 182.025 895.455  13
  -1  -1 -18 1311.47 938.386   5
  -2  -1 -18 21639.1 1486.95   5
  -2  -1 -18 20446.8 1494.07  13
  -3  -1 -18 418.575 810.649  13
  -4  -1 -18 30731.6 1317.60  13
   1  -3 -19 745.539 711.277   5
   0  -3 -19 24162.2 1410.16   5
  -1  -3 -19 5962.19 964.491  13
  -1  -3 -19 5493.94 966.716   5
  -2  -3 -19 23580.0 1370.04   5
  -2  -3 -19 22727.1 1366.61  13
  -3  -3 -19 12621.4 989.493   5
  -3  -3 -19 11951.1 978.500  13
   3   2 -17 91.4675 691.222  10
   2   2 -17 35759.3 1627.47  10
   1   2 -17 14305.0 1296.38  10
   0   2 -17 20032.0 1409.62  10
  -1   2 -17 1816.37 865.201  10
  -1   2 -17 2081.78 844.037  13
  -2   2 -17 11338.3 1063.64  13
  -3   2 -17 5863.48 809.844  13
   3   0 -18-43.5582 691.491  10
   2   0 -18 6736.79 1020.37   5
   2   0 -18 5820.90 1008.84  10
   1   0 -18 3586.08 965.875   5
   0   0 -18 23240.7 1534.76   5
  -1   0 -18 12241.1 1224.70   5
  -1   0 -18 11890.1 1194.43  13
  -2   0 -18 31840.5 1669.47  13
  -3   0 -18 20741.6 1313.48  13
  -4   0 -18 1078.65 594.508  13
   2  -2 -19 6956.23 915.176   5
   1  -2 -19 16617.3 1251.58   5
   0  -2 -19 10477.2 1126.12   5
  -1  -2 -19 44713.7 1879.89   5
  -1  -2 -19 52282.3 1850.95  13
  -2  -2 -19 756.349 795.529  13
  -2  -2 -19 1309.44 802.076   5
  -3  -2 -19 8541.54 869.875   5
  -3  -2 -19 8212.18 946.376  13
   1   3 -17 9867.98 934.678  10
   0   3 -17 6460.36 872.849  10
   2   1 -18 5786.83 987.892  10
   1   1 -18 22883.0 1397.23   5
   1   1 -18 22351.6 1418.75  10
   0   1 -18 5734.56 935.159   5
   0   1 -18 4693.37 1033.91  10
  -1   1 -18 48615.1 1824.65  10
  -1   1 -18 47244.7 1662.65  13
  -2   1 -18 1714.83 778.128  13
  -3   1 -18 13859.4 1005.65  13
   2  -1 -19 866.932 748.377   5
   2  -1 -19-366.021 725.087  10
   1  -1 -19 39526.6 1714.79   5
   0  -1 -19 2832.73 884.950   5
  -1  -1 -19 16668.7 1286.90   5
  -1  -1 -19 15809.2 1170.10  13
  -2  -1 -19 828.522 777.446  13
  -2  -1 -19 1146.37 741.480   5
  -3  -1 -19 20600.5 1154.18  13
   0  -3 -20 5236.83 789.232   5
  -1  -3 -20 37089.8 1419.00   5
  -2  -3 -20 19025.9 1005.79   5
   2   2 -18 4559.93 753.861  10
   1   2 -18 20773.9 1221.34  10
   0   2 -18 15968.4 1142.71  10
   2   0 -19 12756.7 1017.93  10
   1   0 -19 3585.81 837.782   5
   1   0 -19 4567.78 952.784  10
   0   0 -19 5344.95 899.713   5
  -1   0 -19 18438.5 1176.48   5
  -2   0 -19 33957.0 1393.55  13
   1  -2 -20 5750.12 797.895   5
   0  -2 -20 50076.2 1674.97   5
  -1  -2 -20 437.284 717.843   5
  -2  -2 -20 11688.5 900.287   5
   1   1 -19 785.331 721.421  10
   0   1 -19 39358.8 1507.77  10
  -1   1 -19 2961.75 740.426  10
   1  -1 -20 6029.72 793.831   5
   1  -1 -20 5217.72 794.922  10
   0  -1 -20 9286.26 941.887   5
  -1  -1 -20 998.091 654.544   5
   0   0 -20 14463.1 1006.66  10
   0   0   0    0.00    0.00   0
;
_shelx_hkl_checksum              15281
loop_
_space_group_symop_operation_xyz
'x, y, z'
'-x, -y, -z'
loop_
_atom_site_label
_atom_site_type_symbol
_atom_site_fract_x
_atom_site_fract_y
_atom_site_fract_z
_atom_site_U_iso_or_equiv
_atom_site_adp_type
_atom_site_occupancy
_atom_site_site_symmetry_order
_atom_site_calc_flag
_atom_site_refinement_flags_posn
_atom_site_refinement_flags_adp
C1 C 0.4850(15) 0.2906(15) 0.3795(7) 0.024(2) Uani 1 1 d . .
C2 C 0.2951(16) 0.3628(15) 0.3877(7) 0.026(2) Uani 1 1 d . .
H2 H 0.2249 0.4179 0.3414 0.032 Uiso 1 1 calc R U
C3 C 0.2181(16) 0.3497(14) 0.4649(7) 0.024(2) Uani 1 1 d . .
H3 H 0.0923 0.3904 0.4714 0.028 Uiso 1 1 calc R U
C4 C 0.3267(16) 0.2759(15) 0.5333(6) 0.025(2) Uani 1 1 d . .
C5 C 0.5145(16) 0.2216(15) 0.5263(7) 0.026(2) Uani 1 1 d . .
H5 H 0.5861 0.1770 0.5733 0.032 Uiso 1 1 calc R U
C6 C 0.5955(16) 0.2333(15) 0.4505(7) 0.025(2) Uani 1 1 d . .
H6 H 0.7246 0.2033 0.4454 0.030 Uiso 1 1 calc R U
C7 C 0.5767(15) 0.3017(14) 0.2991(6) 0.021(2) Uani 1 1 d . .
H7 H 0.7000 0.3431 0.2924 0.025 Uiso 1 1 calc R U
C8 C 0.5521(15) 0.2596(14) 0.0940(6) 0.022(2) Uani 1 1 d . .
C9 C 0.6653(16) 0.3050(15) 0.0229(7) 0.024(2) Uani 1 1 d . .
H9 H 0.7882 0.3444 0.0247 0.029 Uiso 1 1 calc R U
C10 C 0.5872(16) 0.2890(14) -0.0499(6) 0.023(2) Uani 1 1 d . .
H10 H 0.6585 0.3156 -0.0986 0.028 Uiso 1 1 calc R U
C11 C 0.4025(16) 0.2334(15) -0.0508(7) 0.026(2) Uani 1 1 d . .
H11 H 0.3471 0.2274 -0.1002 0.031 Uiso 1 1 calc R U
C12 C 0.3034(15) 0.1877(14) 0.0214(6) 0.022(2) Uani 1 1 d . .
H12 H 0.1807 0.1471 0.0204 0.026 Uiso 1 1 calc R U
C13 C 0.1308(15) 0.0440(18) 0.3254(7) 0.027(2) Uani 1 1 d . .
C14 C 0.0340(16) -0.0022(14) 0.1765(6) 0.024(2) Uani 1 1 d . .
C15 C 0.3729(15) -0.1275(13) 0.2373(6) 0.020(2) Uani 1 1 d . .
N1 N 0.4998(12) 0.2582(11) 0.2360(5) 0.0208(18) Uani 1 1 d . .
N2 N 0.6165(12) 0.2811(13) 0.1684(5) 0.0234(19) Uani 1 1 d . .
H2A H 0.7324 0.3094 0.1723 0.028 Uiso 1 1 calc R U
N3 N 0.3755(12) 0.1986(12) 0.0952(5) 0.0195(18) Uani 1 1 d . .
N4 N 0.2364(13) 0.2557(13) 0.6158(5) 0.025(2) Uani 1 1 d . .
O1 O 0.0666(12) 0.0034(12) 0.3897(5) 0.0335(19) Uani 1 1 d . .
O2 O -0.0834(12) -0.0699(12) 0.1497(5) 0.0350(19) Uani 1 1 d . .
O3 O 0.4424(12) -0.2813(10) 0.2495(5) 0.0309(18) Uani 1 1 d . .
O4 O 0.1131(13) 0.3713(12) 0.6269(5) 0.040(2) Uani 1 1 d . .
O5 O 0.2889(12) 0.1145(12) 0.6680(5) 0.0341(19) Uani 1 1 d . .
Br1 Br 0.05355(15) 0.44246(15) 0.17946(7) 0.0243(3) Uani 1 1 d . .
Re1 Re 0.24152(7) 0.11335(6) 0.21590(3) 0.01708(14) Uani 1 1 d . .
loop_
_atom_site_aniso_label
_atom_site_aniso_U_11
_atom_site_aniso_U_22
_atom_site_aniso_U_33
_atom_site_aniso_U_23
_atom_site_aniso_U_13
_atom_site_aniso_U_12
C1 0.024(6) 0.022(5) 0.029(6) -0.013(4) 0.001(4) -0.002(4)
C2 0.028(6) 0.024(5) 0.030(6) -0.013(5) -0.010(5) 0.001(5)
C3 0.025(6) 0.019(5) 0.029(6) -0.008(4) -0.002(4) 0.001(4)
C4 0.033(6) 0.024(5) 0.019(5) -0.008(4) 0.002(4) -0.003(5)
C5 0.030(6) 0.025(6) 0.024(6) -0.004(4) -0.002(4) 0.001(5)
C6 0.024(6) 0.019(5) 0.031(6) -0.007(4) -0.003(5) 0.000(4)
C7 0.021(5) 0.022(5) 0.018(5) -0.003(4) 0.002(4) -0.002(4)
C8 0.024(6) 0.017(5) 0.024(5) -0.002(4) 0.000(4) 0.001(4)
C9 0.025(6) 0.027(6) 0.023(5) -0.010(4) 0.005(4) -0.002(4)
C10 0.035(6) 0.020(5) 0.017(5) -0.006(4) 0.006(4) -0.003(4)
C11 0.032(6) 0.020(5) 0.026(6) -0.008(4) -0.004(5) 0.001(4)
C12 0.026(6) 0.023(5) 0.015(5) -0.002(4) 0.000(4) 0.002(4)
C13 0.013(5) 0.048(7) 0.020(6) -0.008(5) -0.001(4) -0.004(5)
C14 0.031(6) 0.018(5) 0.022(5) -0.004(4) 0.002(4) -0.003(4)
C15 0.025(5) 0.006(5) 0.030(6) -0.004(4) -0.008(4) 0.004(4)
N1 0.022(5) 0.013(4) 0.026(5) -0.003(3) 0.005(4) 0.003(3)
N2 0.013(4) 0.035(5) 0.024(5) -0.009(4) 0.003(3) -0.002(4)
N3 0.019(4) 0.018(4) 0.022(4) -0.008(3) 0.006(3) -0.003(3)
N4 0.033(5) 0.027(5) 0.016(4) -0.006(4) 0.000(4) 0.002(4)
O1 0.036(5) 0.041(5) 0.024(4) -0.008(4) 0.008(4) -0.015(4)
O2 0.034(5) 0.032(4) 0.040(5) -0.006(4) -0.012(4) -0.006(4)
O3 0.038(5) 0.018(4) 0.039(5) -0.010(3) -0.004(4) 0.001(3)
O4 0.045(5) 0.037(5) 0.034(5) -0.008(4) 0.006(4) 0.013(4)
O5 0.033(5) 0.038(5) 0.032(4) -0.006(4) -0.004(4) -0.002(4)
Br1 0.0219(6) 0.0201(5) 0.0309(6) -0.0057(4) 0.0007(4) -0.0001(4)
Re1 0.0193(2) 0.0142(2) 0.0182(2) -0.00433(15) 0.00024(16) -0.00138(16)
loop_
_atom_type_symbol
_atom_type_description
_atom_type_scat_dispersion_real
_atom_type_scat_dispersion_imag
_atom_type_scat_source
C C 0.0181 0.0091 'International Tables Vol C Tables 4.2.6.8 and 6.1.1.4'
H H 0.0000 0.0000 'International Tables Vol C Tables 4.2.6.8 and 6.1.1.4'
N N 0.0311 0.0180 'International Tables Vol C Tables 4.2.6.8 and 6.1.1.4'
O O 0.0492 0.0322 'International Tables Vol C Tables 4.2.6.8 and 6.1.1.4'
Br Br -0.6763 1.2805 'International Tables Vol C Tables 4.2.6.8 and 6.1.1.4'
Re Re -5.2083 5.8923 'International Tables Vol C Tables 4.2.6.8 and 6.1.1.4'
loop_
_geom_angle_atom_site_label_1
_geom_angle_atom_site_label_2
_geom_angle_atom_site_label_3
_geom_angle
C6 C1 C2 118.8(10)
C6 C1 C7 118.8(10)
C2 C1 C7 121.7(10)
C3 C2 C1 118.8(10)
C3 C2 H2 120.6
C1 C2 H2 120.6
C2 C3 C4 120.1(10)
C2 C3 H3 120.0
C4 C3 H3 120.0
C5 C4 C3 121.7(10)
C5 C4 N4 119.6(10)
C3 C4 N4 118.7(10)
C6 C5 C4 119.6(10)
C6 C5 H5 120.2
C4 C5 H5 120.2
C5 C6 C1 120.3(10)
C5 C6 H6 119.8
C1 C6 H6 119.8
N1 C7 C1 125.2(10)
N1 C7 H7 117.4
C1 C7 H7 117.4
N3 C8 N2 115.5(9)
N3 C8 C9 123.9(10)
N2 C8 C9 120.6(10)
C10 C9 C8 117.1(10)
C10 C9 H9 121.4
C8 C9 H9 121.4
C9 C10 C11 120.1(10)
C9 C10 H10 119.9
C11 C10 H10 119.9
C12 C11 C10 119.0(10)
C12 C11 H11 120.5
C10 C11 H11 120.5
C11 C12 N3 123.0(10)
C11 C12 H12 118.5
N3 C12 H12 118.5
O1 C13 Re1 179.8(10)
O2 C14 Re1 176.6(10)
O3 C15 Re1 175.4(9)
C7 N1 N2 113.2(9)
C7 N1 Re1 135.4(7)
N2 N1 Re1 110.6(6)
N1 N2 C8 121.0(9)
N1 N2 H2A 119.5
C8 N2 H2A 119.5
C8 N3 C12 116.7(9)
C8 N3 Re1 116.1(7)
C12 N3 Re1 127.0(7)
O4 N4 O5 124.9(9)
O4 N4 C4 119.0(9)
O5 N4 C4 116.0(9)
C15 Re1 C14 87.9(4)
C15 Re1 C13 87.5(5)
C14 Re1 C13 88.2(4)
C15 Re1 N3 92.9(4)
C14 Re1 N3 94.5(4)
C13 Re1 N3 177.3(4)
C15 Re1 N1 92.4(4)
C14 Re1 N1 168.8(4)
C13 Re1 N1 103.0(4)
N3 Re1 N1 74.3(3)
C15 Re1 Br1 177.1(3)
C14 Re1 Br1 89.8(3)
C13 Re1 Br1 94.3(4)
N3 Re1 Br1 85.4(2)
N1 Re1 Br1 89.4(2)
loop_
_geom_bond_atom_site_label_1
_geom_bond_atom_site_label_2
_geom_bond_distance
C1 C6 1.407(15)
C1 C2 1.425(15)
C1 C7 1.456(14)
C2 C3 1.365(15)
C2 H2 0.9300
C3 C4 1.382(15)
C3 H3 0.9300
C4 C5 1.369(16)
C4 N4 1.477(13)
C5 C6 1.357(15)
C5 H5 0.9300
C6 H6 0.9300
C7 N1 1.301(13)
C7 H7 0.9300
C8 N3 1.342(13)
C8 N2 1.374(13)
C8 C9 1.395(15)
C9 C10 1.374(15)
C9 H9 0.9300
C10 C11 1.385(15)
C10 H10 0.9300
C11 C12 1.358(15)
C11 H11 0.9300
C12 N3 1.361(13)
C12 H12 0.9300
C13 O1 1.133(13)
C13 Re1 1.934(11)
C14 O2 1.133(13)
C14 Re1 1.924(11)
C15 O3 1.175(12)
C15 Re1 1.904(9)
N1 N2 1.359(12)
N1 Re1 2.219(9)
N2 H2A 0.8600
N3 Re1 2.172(8)
N4 O4 1.215(12)
N4 O5 1.238(12)
Br1 Re1 2.6310(12)
loop_
_geom_torsion_atom_site_label_1
_geom_torsion_atom_site_label_2
_geom_torsion_atom_site_label_3
_geom_torsion_atom_site_label_4
_geom_torsion
C6 C1 C2 C3 -9.0(15)
C7 C1 C2 C3 -179.4(10)
C1 C2 C3 C4 3.2(15)
C2 C3 C4 C5 2.7(16)
C2 C3 C4 N4 -177.3(9)
C3 C4 C5 C6 -2.5(17)
N4 C4 C5 C6 177.4(10)
C4 C5 C6 C1 -3.6(16)
C2 C1 C6 C5 9.3(16)
C7 C1 C6 C5 179.9(10)
C6 C1 C7 N1 143.4(11)
C2 C1 C7 N1 -46.3(16)
N3 C8 C9 C10 1.4(16)
N2 C8 C9 C10 -176.7(10)
C8 C9 C10 C11 1.2(15)
C9 C10 C11 C12 -2.7(16)
C10 C11 C12 N3 1.8(16)
C1 C7 N1 N2 -179.9(9)
C1 C7 N1 Re1 -11.7(17)
C7 N1 N2 C8 -173.5(9)
Re1 N1 N2 C8 15.3(11)
N3 C8 N2 N1 -5.9(14)
C9 C8 N2 N1 172.3(9)
N2 C8 N3 C12 175.9(9)
C9 C8 N3 C12 -2.3(15)
N2 C8 N3 Re1 -7.3(11)
C9 C8 N3 Re1 174.5(8)
C11 C12 N3 C8 0.7(15)
C11 C12 N3 Re1 -175.7(8)
C5 C4 N4 O4 146.4(11)
C3 C4 N4 O4 -33.6(15)
C5 C4 N4 O5 -36.5(14)
C3 C4 N4 O5 143.4(10)
