#------------------------------------------------------------------------------
#$Date: 2019-11-23 02:56:33 +0200 (Sat, 23 Nov 2019) $
#$Revision: 231938 $
#$URL: file:///home/coder/svn-repositories/cod/cif/4/34/67/4346725.cif $
#------------------------------------------------------------------------------
#
# This file is available in the Crystallography Open Database (COD),
# http://www.crystallography.net/
#
# All data on this site have been placed in the public domain by the
# contributors.
#
data_4346725
loop_
_publ_author_name
'Fei, Zhaofu'
'Bobbink, F\'elix D'
'P\(aunescu, Emilia'
'Scopelliti, Rosario'
'Dyson, Paul J.'
_publ_section_title
;
 Influence of Elemental Iodine on Imidazolium-Based Ionic Liquids:
 Solution and Solid-State Effects.
;
_journal_issue                   21
_journal_name_full               'Inorganic chemistry'
_journal_page_first              10504
_journal_page_last               10512
_journal_paper_doi               10.1021/acs.inorgchem.5b02021
_journal_volume                  54
_journal_year                    2015
_chemical_formula_moiety         'C7 H11 N2, I3'
_chemical_formula_sum            'C7 H11 I3 N2'
_chemical_formula_weight         503.88
_space_group_crystal_system      triclinic
_space_group_IT_number           2
_space_group_name_Hall           '-P 1'
_space_group_name_H-M_alt        'P -1'
_atom_sites_solution_hydrogens   geom
_audit_creation_method           SHELXL-2014/7
_audit_update_record
;
2015-03-11 # Formatted by publCIF

;
_cell_angle_alpha                99.57(2)
_cell_angle_beta                 100.46(2)
_cell_angle_gamma                98.957(17)
_cell_formula_units_Z            2
_cell_length_a                   7.3285(14)
_cell_length_b                   9.6040(13)
_cell_length_c                   9.831(4)
_cell_measurement_reflns_used    54
_cell_measurement_temperature    100(2)
_cell_measurement_theta_max      21.858
_cell_measurement_theta_min      7.606
_cell_volume                     658.5(3)
_computing_cell_refinement
'Dirax/lsq (Duisenberg & Schreurs, 1989-2000)'
_computing_data_collection       'Collect (Bruker AXS BV, 1997-2004)'
_computing_data_reduction        'EvalCCD (Duisenberg & Schreurs, 1990-2000)'
_computing_molecular_graphics    'Bruker SHELXTL'
_computing_publication_material  'Bruker SHELXTL'
_computing_structure_refinement  'SHELXL-2014/7 (Sheldrick, 2014)'
_computing_structure_solution    'SIR92 (Burla et al., 1993)'
_diffrn_ambient_temperature      100(2)
_diffrn_measured_fraction_theta_full 0.995
_diffrn_measured_fraction_theta_max 0.993
_diffrn_measurement_device_type  'Bruker APEX II CCD'
_diffrn_measurement_method       'phi and omega scans'
_diffrn_radiation_type           MoK\a
_diffrn_radiation_wavelength     0.71073
_diffrn_reflns_av_R_equivalents  0.0440
_diffrn_reflns_av_unetI/netI     0.0329
_diffrn_reflns_Laue_measured_fraction_full 0.995
_diffrn_reflns_Laue_measured_fraction_max 0.993
_diffrn_reflns_limit_h_max       9
_diffrn_reflns_limit_h_min       -9
_diffrn_reflns_limit_k_max       12
_diffrn_reflns_limit_k_min       -12
_diffrn_reflns_limit_l_max       12
_diffrn_reflns_limit_l_min       -12
_diffrn_reflns_number            14021
_diffrn_reflns_point_group_measured_fraction_full 0.995
_diffrn_reflns_point_group_measured_fraction_max 0.993
_diffrn_reflns_theta_full        25.242
_diffrn_reflns_theta_max         27.490
_diffrn_reflns_theta_min         3.364
_exptl_absorpt_coefficient_mu    7.081
_exptl_absorpt_correction_T_max  1.0000
_exptl_absorpt_correction_T_min  0.4261
_exptl_absorpt_correction_type   multi-scan
_exptl_absorpt_process_details   'sadabs 2003, bruker axs, 2003'
_exptl_crystal_colour            red
_exptl_crystal_density_diffrn    2.541
_exptl_crystal_description       prism
_exptl_crystal_F_000             452
_exptl_crystal_size_max          0.405
_exptl_crystal_size_mid          0.270
_exptl_crystal_size_min          0.212
_refine_diff_density_max         5.163
_refine_diff_density_min         -1.330
_refine_diff_density_rms         0.493
_refine_ls_extinction_coef       0.0014(12)
_refine_ls_extinction_expression Fc^*^=kFc[1+0.001xFc^2^\l^3^/sin(2\q)]^-1/4^
_refine_ls_extinction_method     'SHELXL-2014/7 (Sheldrick 2014'
_refine_ls_goodness_of_fit_ref   1.182
_refine_ls_hydrogen_treatment    constr
_refine_ls_matrix_type           full
_refine_ls_number_parameters     111
_refine_ls_number_reflns         3021
_refine_ls_number_restraints     0
_refine_ls_restrained_S_all      1.182
_refine_ls_R_factor_all          0.0892
_refine_ls_R_factor_gt           0.0783
_refine_ls_shift/su_max          0.000
_refine_ls_shift/su_mean         0.000
_refine_ls_structure_factor_coef Fsqd
_refine_ls_weighting_details
'w=1/[\s^2^(Fo^2^)+(0.1326P)^2^+10.5035P] where P=(Fo^2^+2Fc^2^)/3'
_refine_ls_weighting_scheme      calc
_refine_ls_wR_factor_gt          0.2278
_refine_ls_wR_factor_ref         0.2379
_reflns_Friedel_coverage         0.000
_reflns_number_gt                2526
_reflns_number_total             3021
_reflns_threshold_expression     'I > 2\s(I)'
_cod_data_source_file            ic5b02021_si_002.cif
_cod_data_source_block           pd516
_cod_database_code               4346725
_publcif_datablock.id            {13f71b8d-396f-43df-a3ad-4957baf7f7ab}
_shelx_shelxl_version_number     2014/7
_shelx_space_group_comment
;
The symmetry employed for this shelxl refinement is uniquely defined
by the following loop, which should always be used as a source of
symmetry information in preference to the above space-group names.
They are only intended as comments.
;
_shelx_estimated_absorpt_t_min   0.162
_shelx_estimated_absorpt_t_max   0.315
_shelx_res_file
;

    shelx.res created by SHELXL-2014/7

TITL PD516 in P-1
CELL 0.71073   7.3285   9.6040   9.8308  99.5703 100.4556  98.9567
ZERR    2.00   0.0014   0.0013   0.0036   0.0218   0.0248   0.0167
LATT  1
SFAC C H N I
UNIT 14 22 4 6
REM   ----------------------------------------------------------
REM   Data collection: Bruker Nonius APEX II CCD
REM   Absorption correction: SADABS
REM   Crystal habit: prism; Crystal colour: red
REM   Mole 1 is the cationic imidazole
REM   Mole 2 is the anionic I3
REM   ----------------------------------------------------------
FMAP  2
ACTA
CONF
WPDB -2
SIZE  0.405 0.270 0.212
PLAN  10
BOND  $H
L.S.  10
TEMP  -173
WGHT    0.132600   10.503500
EXTI    0.001364
FVAR       0.33483
MOLE  1
N1    3    0.264933    0.249826    0.199580    11.00000    0.03107    0.02379 =
         0.02068    0.00545    0.00576    0.00560
N2    3    0.218974    0.164656   -0.026067    11.00000    0.03637    0.01375 =
         0.01782    0.00488    0.00053    0.00324
C1    1    0.219975    0.281758    0.072903    11.00000    0.03148    0.01206 =
         0.03171    0.00650    0.00450    0.00153
AFIX  43
H1    2    0.193081    0.371334    0.054639    11.00000   -1.20000
AFIX   0
C2    1    0.294481    0.109548    0.185168    11.00000    0.03996    0.02499 =
         0.02719    0.00747    0.00393    0.01149
AFIX  43
H2    2    0.327929    0.059843    0.259043    11.00000   -1.20000
AFIX   0
C3    1    0.266073    0.057391    0.044403    11.00000    0.04375    0.01219 =
         0.03006    0.00792    0.00816    0.00973
AFIX  43
H3    2    0.276639   -0.036420    0.001561    11.00000   -1.20000
AFIX   0
C4    1    0.295436    0.355770    0.335868    11.00000    0.04277    0.02992 =
         0.02372    0.00077    0.00496    0.00874
AFIX  23
H4A   2    0.432645    0.383879    0.377288    11.00000   -1.20000
H4B   2    0.248661    0.443356    0.316611    11.00000   -1.20000
AFIX   0
C5    1    0.196703    0.296245    0.440225    11.00000    0.05381    0.03894 =
         0.02857   -0.00281    0.01209    0.00152
AFIX 137
H5A   2    0.066171    0.250580    0.393721    11.00000   -1.50000
H5B   2    0.196425    0.374398    0.518176    11.00000   -1.50000
H5C   2    0.262841    0.224768    0.477132    11.00000   -1.50000
AFIX   0
C6    1    0.178553    0.158186   -0.173545    11.00000    0.03657    0.03110 =
         0.01781    0.00771    0.00305    0.00839
AFIX  43
H6    2    0.153381    0.241991   -0.207031    11.00000   -1.20000
AFIX   0
C7    1    0.174198    0.040006   -0.267488    11.00000    0.06015    0.02534 =
         0.02852    0.00128    0.01033    0.00565
AFIX  93
H7A   2    0.198914   -0.045082   -0.236468    11.00000   -1.20000
H7B   2    0.146373    0.040745   -0.365558    11.00000   -1.20000
AFIX   0
MOLE  2
I1    4   -0.294601    0.214988   -0.434029    11.00000    0.04862    0.04248 =
         0.02803   -0.00014    0.00290    0.01692
I2    4   -0.280189    0.303160   -0.136403    11.00000    0.02825    0.01731 =
         0.03240    0.00668    0.00644    0.00461
I3    4   -0.244765    0.389629    0.172304    11.00000    0.03578    0.03394 =
         0.03024    0.00535    0.01163    0.00605
MOLE  0
HKLF  4

REM  PD516 in P-1
REM R1 =  0.0783 for    2526 Fo > 4sig(Fo)  and  0.0892 for all    3021 data
REM    111 parameters refined using      0 restraints

END

WGHT      0.1327     10.5036

REM Highest difference peak  5.163,  deepest hole -1.330,  1-sigma level  0.493
Q1    1  -0.4162  0.3024 -0.1376  11.00000  0.05    5.16
Q2    1   0.1027  0.3008 -0.1337  11.00000  0.05    4.80
Q3    1   0.2031  0.3017 -0.1384  11.00000  0.05    4.80
Q4    1   0.2699  0.3919  0.1796  11.00000  0.05    4.70
Q5    1  -0.1106  0.3932  0.1711  11.00000  0.05    4.50
Q6    1  -0.1410  0.3036 -0.1410  11.00000  0.05    4.33
Q7    1  -0.4461  0.2168 -0.4369  11.00000  0.05    4.25
Q8    1   0.3759  0.3922  0.1743  11.00000  0.05    4.06
Q9    1   0.1509  0.2143  0.5669  11.00000  0.05    4.02
Q10   1   0.0379  0.2173  0.5642  11.00000  0.05    3.99
;
_shelx_res_checksum              4318
_shelx_hkl_file
;
   2   0   0 9996.42  354.89  10
   3   0   0  502.43   24.82   5
   3   0   0  543.93   22.87   4
  -3   0   0  575.35   25.71   5
  -3   0   0  525.25   32.70  10
   3   0   0  544.38   20.69   1
  -3   0   0  498.71   23.29   6
  -3   0   0  524.05   20.58   1
   3   0   0  484.14   23.87   2
   3   0   0  542.51   32.88  10
   3   0   0  535.70   20.59   1
   3   0   0  533.31   23.76   6
  -3   0   0  526.44   22.57   4
  -3   0   0  532.95   20.64   1
  -4   0   0 2404.65   86.76   1
  -4   0   0 2384.13  106.15   5
   4   0   0 2297.83   86.61   1
   4   0   0 2410.13   97.95   6
   4   0   0 2449.38   96.63   4
  -4   0   0 2469.36   96.24   4
   4   0   0 2270.98  104.51  10
  -4   0   0 2335.36  104.97  10
  -5   0   0  512.29   40.39  10
   5   0   0  501.35   40.15  10
  -5   0   0  585.70   23.27   1
  -5   0   0  575.04   29.12   5
   5   0   0  550.44   27.48   4
   5   0   0  555.95   23.04   1
  -6   0   0  325.99   32.96  10
  -6   0   0  314.35   22.85   5
  -6   0   0  307.00   14.92   1
   6   0   0  306.27   20.96   4
   6   0   0  321.09   33.55  10
   6   0   0  311.73   14.99   1
   7   0   0  245.22   27.01   4
  -7   0   0  241.21   37.57   5
   7   0   0  274.38   43.48   1
   8   0   0   16.46    3.54   1
  -8   0   0   21.51    5.50   5
  -8   0   0   10.45    3.11   1
   8   0   0    8.33    3.54   4
   9   0   0   52.87    6.48   1
  -9   0   0   54.81    6.70   1
   9  -1   0   -4.45    3.19   1
  -9   1   0   -1.15    3.08   1
   8  -1   0  280.55   17.30   4
  -8   1   0  311.09   21.03   5
  -8   1   0  313.66   16.20   1
   8  -1   0  315.94   16.42   1
  -7   1   0   37.50   15.64   5
  -7   1   0   47.66   15.15   1
   7  -1   0   56.15   19.23   1
   7  -1   0   32.07   10.47   4
   6  -1   0 1134.91   56.56   4
  -6   1   0 1164.94   44.87   1
   6  -1   0 1140.15   71.50  10
  -6   1   0 1186.34   70.42   5
   6  -1   0 1118.78   44.74   1
  -6   1   0 1147.96   70.41  10
  -5   1   0  396.24   34.05  10
   5  -1   0  394.49   19.06   4
  -5   1   0  405.56   22.14   5
  -5   1   0  398.91   17.58   1
   5  -1   0  422.00   17.74   1
   5  -1   0  389.83   33.96  10
  -4   1   0 2329.53   82.03   1
   4  -1   0 2286.95   90.97   4
   4  -1   0 2298.72   82.03   1
   4  -1   0 2234.65  100.95  10
   4  -1   0 1962.34  119.51   5
  -4   1   0 2297.88  101.11  10
  -4   1   0 2266.76  100.28   5
  -4   1   0 2258.93   90.43   4
   3  -1   0 1547.74   53.82   1
   3  -1   0 1379.87   61.74   2
  -3   1   0 1515.18   53.70   1
   3  -1   0 1475.93   53.61   1
  -3   1   0 1403.55   59.98   6
  -3   1   0 1444.20   61.52   2
   3  -1   0 1540.49   68.10  10
  -3   1   0 1548.90   68.15  10
  -3   1   0 1523.12   59.15   4
   3  -1   0 1343.56   65.24   5
   3  -1   0 1300.72   59.19   4
  -3   1   0 1490.15   53.64   1
  -3   1   0 1566.50   65.90   5
   2  -1   0 2156.88  117.55   2
  -2   1   0 2068.90   97.31   4
   2  -1   0 2338.75   97.84   1
  -2   1   0 2041.71  104.61  10
   2  -1   0 2245.15   96.79  10
   2  -1   0 2130.79  116.74   1
   2  -1   0 2192.14  157.55   5
  -2   1   0 2156.71  133.16   5
  -2   1   0 2149.04  120.98   2
  -1  -1   0 2972.15  106.43  10
   1   1   0 2849.60  105.99  10
  -2  -1   0   55.30   12.92   1
  -2  -1   0   59.54    6.45   4
  -2  -1   0   60.22   29.51   1
  -2  -1   0   52.26   26.51   6
  -2  -1   0   53.43   13.12  10
   2   1   0   98.60   28.79   1
  -2  -1   0   62.91    4.39   5
   2   1   0   53.59   13.42   1
   2   1   0   54.13   38.24   5
  -3  -1   0 1477.16   53.40   1
   3   1   0 1478.07   67.45  10
   3   1   0 1357.94   61.25   2
   3   1   0 1433.98   53.21   1
  -3  -1   0 1546.68   65.72   5
  -3  -1   0 1411.55   60.30   6
   3   1   0 1409.18   64.49   5
   3   1   0 1456.06   53.30   1
   3   1   0 1519.65   59.81   4
   3   1   0 1449.62   60.52   6
  -3  -1   0 1535.58   59.67   4
  -3  -1   0 1402.96   53.18   1
  -3  -1   0 1420.71   67.00  10
  -4  -1   0  134.65    7.21   1
   4   1   0  136.30    8.14   4
  -4  -1   0  134.50    7.10   1
   4   1   0  134.77    7.16   1
   4   1   0  134.17   16.90  10
  -4  -1   0  153.91   18.27  10
   4   1   0  136.47    8.97   6
  -4  -1   0  137.88    9.45   5
   4   1   0  114.01    7.95   5
   5   1   0  334.97   18.07   6
   5   1   0  320.76   28.97   1
   5   1   0  318.66   75.68  10
  -5  -1   0  325.30   19.42   5
   5   1   0  340.30   36.05   4
  -5  -1   0  334.19   27.31   1
  -5  -1   0  304.13   33.26  10
   6   1   0   92.03   17.85  10
   6   1   0   67.37   22.42   6
  -6  -1   0   74.85   34.08   5
   6   1   0   72.63   19.63   4
  -6  -1   0   73.80   15.76   1
   6   1   0   74.88    6.04   1
  -7  -1   0   40.56    4.83   1
   7   1   0   32.57    5.16   4
   7   1   0   32.74    4.54   1
  -7  -1   0   25.83    5.52   5
  -8  -1   0   13.87    3.98   1
   8   1   0   14.16    3.59   4
  -9   2   0  176.12   11.75   1
  -9   2   0  164.72   15.11   5
   9  -2   0  170.78   11.83   1
  -8   2   0   62.21   25.61   1
  -8   2   0   54.67   14.16   5
   8  -2   0   55.65   17.70   1
  -7   2   0  747.69   30.97   1
   7  -2   0  740.48   31.10   1
   7  -2   0  790.18   34.73   4
  -7   2   0  750.80   38.84   5
   7  -2   0  633.86   35.58   7
  -6   2   0   10.62    2.46   1
   6  -2   0    8.29    2.26   1
  -6   2   0   14.18    4.05   5
   6  -2   0    4.27    6.29  10
  -5   2   0 1942.03   69.13   1
   5  -2   0 1667.36   76.20   4
  -5   2   0 1878.00   84.91   5
  -5   2   0 1925.82   93.05  10
  -5   2   0 1891.90   75.46   4
   5  -2   0 1876.39   69.08   1
   5  -2   0 1815.48   92.61  10
  -4   2   0  431.87   17.06   1
  -4   2   0  387.08   19.37   2
  -4   2   0  411.07   21.28   5
   4  -2   0  355.38   20.10   2
   4  -2   0  420.67   31.74  10
  -4   2   0  404.84   31.12  10
   4  -2   0  428.34   17.12   1
   4  -2   0  399.39   18.52   4
  -4   2   0  406.34   17.70   4
  -3   2   0 3112.38  121.67   2
  -3   2   0 2986.38  117.39   4
   3  -2   0 2933.99  119.33  10
  -3   2   0 2977.99  119.12  10
   3  -2   0 2942.97  124.20   2
   3  -2   0 3056.10  106.15   1
   3  -2   0 2836.20  133.64   5
   3  -2   0 2640.20  121.81   7
  -3   2   0 3037.62  129.89   5
   3  -2   0 2943.10  105.97   1
  -3   2   0 2992.29  105.99   1
  -2   2   0 2153.70   89.92   5
   2  -2   0 1974.04   80.00  10
  -2   2   0 1932.26   79.75  10
   2  -2   0 2110.51   72.86   1
  -2   2   0 2047.61   84.26   2
   2  -2   0 1989.24   88.65   2
  -2   2   0 1908.86   78.16   1
  -2   2   0 1949.10   79.04   4
   2  -2   0 1854.85   84.29   7
   2  -2   0 1971.48  100.77   5
   2  -2   0 1929.52   77.20   1
   1  -2   0 2672.90   93.77   1
   1  -2   0 2558.68   96.52  10
   1  -2   0 2801.36  121.62   3
   1  -2   0 2648.54  115.02   5
  -1   2   0 2666.93  107.65   2
  -1   2   0 2495.84   96.21  10
   0   2   0 4794.75  231.79  11
  -1  -2   0  869.23   36.01   6
   1   2   0  829.94   31.15   1
   1   2   0  921.18   36.47  10
   1   2   0  883.15   31.13   1
  -1  -2   0  867.92   31.14   1
   1   2   0  793.37   41.01   3
  -1  -2   0  858.26   36.46  10
  -1  -2   0  871.64   41.29   3
   1   2   0  871.42   35.96   6
  -1  -2   0  869.99   31.19   1
  -2  -2   0 1110.70   41.76   1
   2   2   0 1199.17   47.94   6
   2   2   0 1147.43   41.64   1
   2   2   0 1123.41   50.62   5
   2   2   0 1249.16   47.55   4
  -2  -2   0 1130.45   51.59  10
   2   2   0 1103.65   55.13   3
   2   2   0 1079.02   41.67   1
  -2  -2   0 1178.28   47.92   6
  -2  -2   0 1092.11   41.66   1
   2   2   0 1187.08   51.59  10
   3   2   0   55.02    3.68   1
   3   2   0   66.52   10.38  10
   3   2   0   57.88    8.61   4
  -3  -2   0   64.77    3.83   1
  -3  -2   0   59.93    3.86   1
   3   2   0   52.32    4.10   5
   3   2   0   59.92   12.85   6
  -3  -2   0   55.58    9.73  10
  -4  -2   0  238.39   10.83   1
   4   2   0  195.62   59.22   5
  -4  -2   0  221.11   10.58   1
   4   2   0  253.99   53.15   4
   4   2   0  223.60   28.76   6
  -4  -2   0  219.19   22.55  10
   4   2   0  235.77   20.48   1
   4   2   0  225.17   36.42  10
   5   2   0    0.44    2.07   6
   5   2   0    4.83    8.56   1
  -5  -2   0   -4.95    8.99  10
   5   2   0   -6.17   12.71  10
   5   2   0    6.22    4.71   4
  -5  -2   0   -6.41    6.77   1
   6   2   0   18.78   23.73   6
   6   2   0   10.27    2.47   1
   6   2   0   12.30    7.25  10
  -6  -2   0   15.86    6.99   1
   6   2   0   13.95   10.93   4
   7   2   0    7.06   12.13   4
   7   2   0   -2.74   14.42   6
  -7  -2   0    4.46   18.41   1
   7   2   0    9.48   24.02   1
   8   2   0   -0.57    2.78   1
  -8  -2   0   -3.94    3.33   1
   8   2   0    3.27    2.63   4
  -9   3   0  122.96   12.85   5
  -9   3   0  147.00   10.48   1
   9  -3   0  139.47   10.44   1
  -8   3   0  319.07   16.42   1
   8  -3   0  271.37   15.81   1
  -8   3   0  337.28   21.56   5
   7  -3   0  212.90   12.08   7
   7  -3   0  168.04   26.98  10
   7  -3   0  179.82   22.55   1
  -7   3   0  186.51   14.53   5
  -7   3   0  208.75   24.17   1
   6  -3   0  902.37   62.57  10
   6  -3   0  955.96   38.57   1
  -6   3   0  945.86   62.67  10
   6  -3   0 1029.27   43.43   7
  -6   3   0  964.52   48.04   5
  -6   3   0  978.48   38.59   1
  -5   3   0   79.52   14.62  10
  -5   3   0   89.75    5.91   1
  -5   3   0   85.42    5.31   4
   5  -3   0   91.82    6.02   1
  -5   3   0   89.05    7.80   5
   5  -3   0   92.98    6.39   7
   5  -3   0   78.94   15.11  10
  -5   3   0   96.34    7.09   2
   4  -3   0 1525.84   75.49   2
  -4   3   0 1639.03   60.48   1
   4  -3   0 1632.73   60.61   1
  -4   3   0 1567.21   78.25  10
   4  -3   0 1732.25   69.82   7
  -4   3   0 1642.92   74.75   5
  -4   3   0 1659.01   66.19   4
  -4   3   0 1687.24   69.59   2
   4  -3   0 1622.58   79.27  10
  -3   3   0    3.46    0.95   4
   3  -3   0    4.44    3.29  10
  -3   3   0    7.60   17.38   5
  -3   3   0    0.37    3.47   2
   3  -3   0    2.83    1.77   2
   3  -3   0    3.46    1.24   7
  -3   3   0    6.68    3.83  10
   3  -3   0    4.68    1.35   1
   3  -3   0    3.85    0.98   1
   2  -3   0 1773.85   70.02   7
  -2   3   0 1679.93   78.11   5
   2  -3   0 1547.52   66.72  10
   2  -3   0 1612.05   76.19   3
  -2   3   0 1632.65   67.46   2
  -2   3   0 1526.51   62.71   1
   2  -3   0 1713.51   63.19   1
   2  -3   0 1543.30   75.36   2
  -2   3   0 1563.37   69.37   7
   2  -3   0 1547.80   96.08   5
  -2   3   0 1660.98   67.66  10
   2  -3   0 1524.78   64.10   1
   1  -3   0  160.50    9.09   5
  -1   3   0  160.21    6.49   1
  -1   3   0  156.53   10.31  10
  -1   3   0  173.11    9.16   5
   1  -3   0  163.59    8.45   7
   1  -3   0  169.49    7.90   2
  -1   3   0  163.78    6.49   1
   1  -3   0  157.00    6.52   1
   1  -3   0  172.88   10.11   3
   1  -3   0  168.62    6.52   1
  -1   3   0  161.73    8.24   7
  -1   3   0  170.02   10.05   3
  -1   3   0  162.13    8.84   9
  -1   3   0  174.26    8.15   2
   0   3   0  991.51   61.63  11
   0  -3   0  923.44   42.91   8
   0   3   0 1004.51   42.12   5
   0   3   0  940.75   39.81   7
   0  -3   0  925.01   41.34   9
   0   3   0  894.14   41.28   9
   0  -3   0  954.07   45.18   3
   0   3   0  879.07   44.85   3
  -1  -3   0  152.47   20.79  11
   1   3   0  118.51    8.73  10
   1   3   0  122.70    6.93   6
  -1  -3   0  108.98    6.34   9
   1   3   0  113.59    4.66   1
  -1  -3   0  100.42    8.79  10
   1   3   0  114.84    7.62   3
  -1  -3   0  115.41    4.82   1
  -1  -3   0  122.26    7.92   3
   1   3   0  108.54    4.78   1
  -1  -3   0   94.76    4.60   1
   2   3   0   17.64    2.55   6
   2   3   0   15.47    8.36   3
   2   3   0   23.94    8.39   1
   2   3   0   14.76    6.55   1
  -2  -3   0   23.14    7.61   1
  -2  -3   0   13.97    6.17  10
  -2  -3   0   15.94    5.59   1
  -2  -3   0   11.64    4.44   6
   3   3   0    3.77    1.03   5
  -3  -3   0    5.74    1.47   1
   3   3   0    7.03    1.45   1
  -3  -3   0    6.06    1.29   1
  -3  -3   0   11.66    5.21  10
   3   3   0    7.05    4.27  10
   3   3   0    8.84    2.36   4
   3   3   0    2.84    2.17   6
   4   3   0   12.66   15.20   5
   4   3   0   14.18   11.06   1
  -4  -3   0   13.35    2.43   1
   4   3   0   20.22    7.61  10
   4   3   0   15.92   19.67   4
  -4  -3   0   18.92    7.72  10
   4   3   0   21.48   30.23   6
  -4  -3   0   16.50    2.20   1
  -5  -3   0   -6.05   38.44  10
   5   3   0    2.29   64.46   4
   5   3   0    6.03    1.76   5
   5   3   0   15.19   46.86   6
  -5  -3   0    4.31   35.57   1
   5   3   0   -1.69   86.69  10
   5   3   0    4.32   39.65   1
   6   3   0   30.09    5.59   6
   6   3   0   18.76    4.21   4
   6   3   0   26.10    3.47   1
  -6  -3   0   21.87    3.34   1
   7   3   0    3.57    3.24   4
   7   3   0   13.25    4.07   6
  -7  -3   0    9.20    2.76   1
   7   3   0    4.16    2.25   1
  -8  -3   0   10.44    3.63   1
   9  -4   0   37.14    5.92   1
  -9   4   0   37.45    5.50   1
  -8   4   0  167.31   11.26   1
   8  -4   0  174.73   11.61   1
   8  -4   0  185.30   11.83   7
  -8   4   0  208.89   15.94   5
  -7   4   0  118.19   14.89   1
   7  -4   0  131.59   39.35  10
   7  -4   0  134.34    9.11   7
   7  -4   0  108.18   15.20   1
  -7   4   0  129.19   11.68   5
   6  -4   0  180.27   24.82  10
  -6   4   0  173.43   23.96  10
  -6   4   0  154.13    9.12   1
  -6   4   0  145.65   10.23   2
  -6   4   0  143.55    8.15   4
   6  -4   0  152.01    9.21   1
  -6   4   0  152.26   11.90   5
   6  -4   0  166.46    9.94   7
   5  -4   0  245.91   11.73   1
  -5   4   0  250.28   12.36   1
  -5   4   0  214.04   24.63  10
  -5   4   0  228.85   13.22   2
  -5   4   0  227.08   11.10   4
  -5   4   0  226.06   14.92   5
   5  -4   0  228.86   13.09   7
   5  -4   0  191.38   23.43  10
  -4   4   0   57.27   11.03  10
   4  -4   0   55.69    4.16   1
   4  -4   0   54.62    5.98   2
  -4   4   0   70.74    6.42   5
  -4   4   0   55.37    4.03   1
   4  -4   0   50.96    3.84   1
   4  -4   0   68.46   11.95  10
  -4   4   0   56.50    3.73   4
   4  -4   0   56.52    4.64   7
  -4   4   0   56.08    4.81   2
  -3   4   0  111.93   13.46  10
   3  -4   0  138.40    7.75   7
   3  -4   0  116.40    7.90   2
   3  -4   0  125.91    6.33   1
  -3   4   0  127.86    6.25   1
   3  -4   0   99.44   12.66  10
  -3   4   0  129.42    8.81   5
   3  -4   0  116.14    6.06   1
   3  -4   0  134.18    9.73   3
   2  -4   0   87.00  275.23   5
  -2   4   0  123.30  112.44   1
  -2   4   0   79.57  106.62  10
  -2   4   0  319.32  234.37   5
   2  -4   0  595.51  196.20   3
   2  -4   0   75.00  284.95   1
   2  -4   0   15.28  310.04   2
   1  -4   0    3.50    1.66   5
  -1   4   0    5.28    2.12   3
  -1   4   0    2.76    1.29   8
   1  -4   0    6.06    2.28   3
  -1   4   0    3.13    0.54   1
  -1   4   0    3.03    0.54   1
  -1   4   0    0.53    1.29  10
  -1   4   0    3.21    1.25   9
  -1   4   0    0.82    1.25  10
  -1   4   0    3.72    1.29   7
   1  -4   0    3.16    0.59   1
  -1   4   0    2.77    1.79   5
   1  -4   0    1.15   15.48   7
   0   4   0    2.49    1.03   5
   0   4   0    1.07    1.54   3
   0   4   0   13.50    7.29  11
   0  -4   0    2.53    1.67   3
   0   4   0    1.65    1.23   9
   0  -4   0    1.01    1.38   8
   0   4   0    1.65    1.08   7
  -1  -4   0   59.12    6.99  10
   1   4   0   63.45    6.07  10
   1   4   0   62.12    5.75   3
  -1  -4   0   73.29    6.28   3
   1   4   0   71.17    5.49   6
   1   4   0   58.54    3.11   1
  -1  -4   0   58.98    3.14   1
  -1  -4   0   68.89    4.83   9
  -1  -4   0   75.47   16.60  11
   1   4   0   64.86    2.91   1
  -2  -4   0   10.60    1.38   1
  -2  -4   0   11.19    1.52   1
  -2  -4   0   12.44    2.02   9
  -2  -4   0    7.41    3.56  10
   2   4   0   10.44    1.66   1
   2   4   0   19.60    4.76  10
   3   4   0   83.94   11.49  10
  -3  -4   0   73.54  124.91  10
   3   4   0   79.55   26.43   4
   3   4   0   81.82   51.99   1
   3   4   0   85.16    7.08   6
  -3  -4   0   87.02    5.68   9
  -3  -4   0   84.44  116.32   1
   3   4   0   76.23    5.38   5
  -3  -4   0   85.82    4.78   1
  -4  -4   0   23.02    8.21  10
   4   4   0   20.08   17.17   6
  -4  -4   0   15.86    2.18   1
   4   4   0   18.19    2.57   1
   4   4   0   12.98    3.38   5
  -4  -4   0   10.36   15.50   9
  -4  -4   0   11.58    2.30   1
   4   4   0   16.69    6.49   4
   4   4   0   17.25    6.94  10
   5   4   0   38.09   84.37  10
  -5  -4   0   57.77   54.58   1
   5   4   0   37.37    3.93   5
   5   4   0   67.61   65.67   1
   5   4   0   41.54   25.55   6
   5   4   0   62.08   56.18   4
  -5  -4   0   50.12   73.76  10
  -5  -4   0   39.63    3.53   9
   6   4   0    0.65    2.45   6
   6   4   0    0.70    2.23   4
  -6  -4   0   -0.62    2.24   1
   6   4   0   -1.94    2.13   1
   7   4   0   32.86    5.58   4
   7   4   0   22.58    5.63   6
  -7  -4   0   18.26    3.44   1
  -8  -4   0    4.24    3.04   1
   8   4   0    4.46    3.46   4
  -9   5   0   87.29    8.00   1
  -9   5   0   96.55   11.57   5
   9  -5   0   93.80    8.68   1
  -8   5   0    7.78   10.64   1
   8  -5   0    9.99    6.72   1
   7  -5   0  101.70   21.39  10
  -7   5   0  122.97    8.34   1
  -7   5   0  114.85   11.08   5
   7  -5   0  128.22    8.77   1
   7  -5   0  122.85    8.92   7
   6  -5   0    3.43    2.43   1
  -6   5   0    5.84    3.49   5
   6  -5   0    1.54    4.36  10
  -6   5   0   -1.84    2.13   2
  -6   5   0   -2.51    6.44  10
  -6   5   0   -1.26    2.16   1
  -5   5   0   68.40    6.20   2
   5  -5   0   73.40   14.10  10
  -5   5   0   68.46    5.10   1
  -5   5   0   65.26    4.48   4
  -5   5   0   80.19    7.89   5
  -5   5   0   83.55   15.00  10
   5  -5   0   70.14    5.28   1
   5  -5   0   78.76    6.17   7
  -4   5   0   -0.73    2.45   5
   4  -5   0    6.18    2.65   2
   4  -5   0    6.64    5.94  10
  -4   5   0   -0.03    3.22   4
  -4   5   0    4.88    1.77   2
   4  -5   0   -1.63   11.26   7
   4  -5   0    4.02    1.44   1
   4  -5   0    3.30    6.53   1
  -4   5   0    0.81    1.41   1
   4  -5   0    5.28   14.20   3
  -4   5   0    5.43    5.00  10
  -3   5   0   15.23    1.89   1
  -3   5   0   16.42    5.75  10
  -3   5   0   24.73   35.04   5
   3  -5   0   14.31    1.99   1
   3  -5   0   20.31   65.60   7
   3  -5   0   17.38    2.49   2
  -3   5   0   23.12    3.97   2
   3  -5   0   15.17    1.80   1
   3  -5   0   17.46    3.81   3
  -2   5   0   59.76   13.88   2
  -2   5   0   47.73   15.25  10
  -2   5   0   62.97    7.89   5
  -2   5   0   53.97   12.59   1
  -2   5   0   45.39   15.66   1
   2  -5   0   44.74   18.16   1
   2  -5   0   40.56   22.22   2
  -1   5   0    2.14    4.51  11
  -1   5   0    2.07    0.49   1
  -1   5   0   -0.26    1.55   5
  -1   5   0    1.12    1.38  10
  -1   5   0    2.17    0.50   1
  -1   5   0   -0.12    1.14   2
   1  -5   0    5.18    2.44   3
   0   5   0  226.79   12.77   5
   0   5   0  229.63   12.90   9
   0  -5   0  255.51   15.20   3
   0   5   0  209.78   29.25  11
   0  -5   0  232.34   13.34   8
  -1  -5   0    2.24    6.41  11
   1   5   0    2.27    0.56   1
  -1  -5   0    4.36    1.79   8
  -1  -5   0    1.09    0.41   1
   1   5   0    2.30    2.20   6
  -1  -5   0    4.67    2.70   3
  -1  -5   0    2.24    0.60   1
  -1  -5   0    0.45    1.15   9
   1   5   0    2.16    1.39   5
   2   5   0  122.92    6.01   1
  -2  -5   0  117.93   25.88  11
  -2  -5   0  107.02   12.35  10
   2   5   0  144.29   12.26  10
  -2  -5   0  126.65    5.70   1
   2   5   0  117.56    8.76   6
   2   5   0  124.85    5.59   1
  -2  -5   0  122.60    5.99   1
  -2  -5   0  128.12    7.97   9
   2   5   0  131.75    8.52   4
  -3  -5   0    0.77    0.90   1
  -3  -5   0   -3.28   22.98  10
   3   5   0    2.82    1.33   1
   3   5   0   -3.29    2.82   6
   3   5   0   -5.78    8.93  10
  -3  -5   0   -1.54   24.95   1
  -3  -5   0   35.37   16.60  11
   3   5   0   -2.29    5.22   4
  -4  -5   0   55.91   26.46   9
   4   5   0   38.85    4.07   5
   4   5   0   45.13   11.06   4
  -4  -5   0   53.96   11.92  10
   4   5   0   64.75   11.83  10
   4   5   0   48.21    4.01   1
  -4  -5   0   47.64    4.07   1
   4   5   0   42.97   11.74   6
   5   5   0    1.17    3.01   4
   5   5   0   10.05    6.40  10
   5   5   0    4.67    3.62   6
  -6  -5   0   17.99    3.30   1
   6   5   0   17.18    4.98   6
   6   5   0   12.25    3.93   4
   7   5   0   -0.80    3.69   6
   7   5   0    2.71    3.55   4
  -7  -5   0    1.79    2.56   1
  -8   6   0   -0.92    3.84   5
   8  -6   0    8.42    3.04   7
   8  -6   0    8.28    2.93   1
  -8   6   0    6.97    2.68   1
   7  -6   0   14.96    5.20   1
  -7   6   0  -14.88   17.52  10
   7  -6   0    4.74    4.24   3
  -7   6   0   10.16    4.68   5
  -7   6   0   18.90    3.77   2
   7  -6   0   13.94    6.20   7
  -7   6   0   23.88    6.47   1
   6  -6   0    0.74    3.39   3
  -6   6   0   -9.65    6.85  10
   6  -6   0   -1.61    1.78   1
  -6   6   0    0.31    1.42   1
  -6   6   0    0.31    2.46   5
  -6   6   0    0.96    1.94   2
  -5   6   0   44.59   40.37   1
   5  -6   0   34.78   22.00   7
  -5   6   0   41.19   48.61  10
  -5   6   0   49.15   34.17   5
  -5   6   0   31.52    2.93   4
   5  -6   0   36.33   15.21   3
   5  -6   0   49.49   37.52   1
  -5   6   0   33.96   19.32   2
   4  -6   0   16.45   24.72   7
  -4   6   0   25.73    8.20  10
   4  -6   0   18.64   10.89   3
  -4   6   0   19.91    2.52   1
   4  -6   0   18.02    9.51   1
  -4   6   0   20.58    8.74   5
  -4   6   0   22.47    3.41   2
   4  -6   0   18.89    2.39   1
  -3   6   0  110.32   41.19   5
   3  -6   0   95.63    5.40   1
   3  -6   0  109.89   63.80   7
  -3   6   0   91.01    6.97   2
  -3   6   0   98.53    5.28   1
  -3   6   0   93.39   12.46  10
   3  -6   0  107.68    6.68   2
   3  -6   0   99.44    9.00   3
   3  -6   0   92.07    5.18   1
   2  -6   0   35.58   35.80   1
  -2   6   0  103.56   39.50   2
  -2   6   0   46.05   27.15   1
   2  -6   0  124.46   31.11   1
   2  -6   0   89.67   20.79   7
  -2   6   0   83.23   32.63   5
  -2   6   0   54.07   31.75  10
  -2   6   0   46.84   31.59  10
  -1   6   0  194.90   30.41  11
   1  -6   0  171.26   12.36   3
  -1   6   0  179.41    9.38   2
  -1   6   0  161.86    6.55   1
  -1   6   0  160.70   11.34  10
  -1   6   0  160.87    6.41   1
  -1   6   0  168.61   10.39   5
  -1   6   0  146.44   10.12  10
   1  -6   0  157.40    6.55   1
   1  -6   0  153.97    6.45   1
   0   6   0   22.51   11.87  11
   0   6   0   44.24    4.39   5
   0  -6   0   51.82    5.00   8
   0  -6   0   46.85    6.11   3
   1   6   0  126.97    9.10   6
  -1  -6   0  128.91   14.29   3
  -1  -6   0  131.63   17.18   8
   1   6   0  109.52    7.81   5
  -2  -6   0   12.90   65.04  10
  -2  -6   0   32.31   54.09  11
   2   6   0   19.31   87.37   1
   2   6   0  106.81   92.46  10
  -2  -6   0   19.72   69.79   1
   3   6   0   28.59    4.45   6
   3   6   0   26.16    4.30   4
   3   6   0   24.56    6.36  10
  -3  -6   0   25.60    6.25   1
  -3  -6   0   39.11    9.92  10
   3   6   0   26.37    2.71   1
  -3  -6   0   33.10    3.65   9
  -4  -6   0   43.87    3.84   1
   4   6   0   43.09    5.70   6
   4   6   0   28.97    8.18  10
  -4  -6   0   32.01    3.75   9
  -4  -6   0   49.36   11.65  10
   4   6   0   33.14    5.16   4
   5   6   0    3.17    9.09   6
  -5  -6   0    2.46   10.81   1
   5   6   0    5.29    9.94   4
  -6  -6   0   66.15    5.82   1
   6   6   0   67.71    7.86   4
   6   6   0   59.92    8.02   6
   7   6   0    3.36    4.34   6
   7   6   0   11.77    4.47   4
  -8   7   0   22.11    4.24   1
   8  -7   0   22.81    4.28   7
   8  -7   0   25.95    4.72   1
  -8   7   0   32.98    7.20   5
  -7   7   0   25.63    4.24   2
   7  -7   0   32.54    6.58   3
   7  -7   0   25.86    4.00   1
  -7   7   0   32.42    6.54   5
   7  -7   0   34.21    4.98   7
  -7   7   0   27.52    3.81   1
  -6   7   0   47.75    7.31   5
  -6   7   0   57.55    5.12   1
   6  -7   0   54.07    7.97   3
   6  -7   0   47.70    5.09   1
  -6   7   0   54.12    5.70   2
   6  -7   0   51.10    5.84   7
  -6   7   0   52.59   14.03  10
  -5   7   0   88.83   34.77   5
  -5   7   0   85.81   56.77  10
   5  -7   0  111.29   55.18   7
  -5   7   0   83.99    9.47   2
   5  -7   0   94.81    9.86   3
  -5   7   0   92.18   57.13   1
   5  -7   0   87.12   43.62   1
  -4   7   0  102.24    5.96   1
   4  -7   0   94.29    6.03   1
  -4   7   0   82.54    8.52   5
   4  -7   0  102.09    9.91   3
  -4   7   0   97.69    7.45   2
  -4   7   0  113.40   16.00  10
   4  -7   0  106.51    8.87   7
  -3   7   0  114.23   13.81  10
   3  -7   0   99.69    5.51   1
  -3   7   0  101.45    7.33   2
  -3   7   0   84.91   12.20  10
   3  -7   0   94.84    9.62   3
  -3   7   0   87.96    8.02   5
   3  -7   0  112.50    8.06   7
   3  -7   0   97.62    6.60   2
  -3   7   0  107.59    5.47   1
   3  -7   0   87.99    5.17   1
  -2   7   0   85.98    7.50   5
  -2   7   0   73.91    9.14  10
  -2   7   0   87.46    8.89   2
   2  -7   0  108.27    9.53   3
  -2   7   0   77.49    5.32   1
   2  -7   0   85.52    7.15   1
  -2   7   0   95.17   10.40  10
  -2   7   0   82.81   22.07  11
   1  -7   0   45.19    6.31   3
  -1   7   0   32.10    3.90   2
  -1   7   0   36.41    4.29   5
  -1   7   0   41.90   15.37  11
   0   7   0    0.51    1.07   5
   0  -7   0    2.17    2.33   8
   0  -7   0    3.29    3.43   3
   0   7   0    3.83    6.17  11
   0   7   0    2.55    1.57   6
   1   7   0   -2.91    2.28   6
   1   7   0   -1.53    1.53   5
  -1  -7   0    5.50    3.69   3
  -1  -7   0   -1.40    2.72   8
  -2  -7   0   38.09   12.77  10
  -2  -7   0   54.48   11.40   1
   2   7   0   46.68   14.87   1
   3   7   0    3.93    3.44   6
  -3  -7   0   -2.48    1.47   1
  -3  -7   0   -0.67    3.72  10
   3   7   0    0.05    1.46   5
   3   7   0    1.57    3.31   4
   3   7   0    2.29    3.97  10
  -4  -7   0  109.56   17.59  10
   4   7   0  117.46    9.73   4
  -4  -7   0  107.35    6.77   1
   4   7   0   90.15   13.44  10
   4   7   0  110.42   10.13   6
   5   7   0    8.66    3.61   6
  -5  -7   0    0.21    1.86   1
   5   7   0   -1.74    2.46   4
   6   7   0   72.32    8.51   4
  -6  -7   0   74.14    6.39   1
   6   7   0   72.69    8.92   6
   8  -8   0   14.63    3.99   1
   8  -8   0   14.82    4.03   7
  -7   8   0   -2.24    3.87   5
   7  -8   0    2.78    3.09   7
   7  -8   0   -0.01    2.24   1
   7  -8   0   -1.90    3.85   3
  -6   8   0   12.03    4.99   5
   6  -8   0   21.27    5.88   3
   6  -8   0   16.07    3.37   1
   6  -8   0   21.68    4.16   7
  -6   8   0   16.50    3.57   2
   5  -8   0    8.48    3.46   7
  -5   8   0    3.74    2.15   2
   5  -8   0    2.75    3.55   3
   5  -8   0    0.74    1.81   1
   4  -8   0    4.44    2.61   1
  -4   8   0   -5.11    5.37  10
   4  -8   0    4.18   33.60   3
  -4   8   0   10.32    5.85  10
  -4   8   0    3.69    2.91   2
   4  -8   0   12.97   43.48   7
  -4   8   0   -3.66   11.57   5
  -3   8   0   10.73    4.84  10
  -3   8   0   11.83    2.57   2
   3  -8   0   11.90    1.83   1
  -3   8   0   18.40   41.13  10
   3  -8   0   10.90    4.31   3
  -3   8   0   10.51   10.42   5
  -3   8   0   12.15    1.71   1
  -2   8   0   22.52    1.68   1
  -2   8   0   10.93    3.55  10
  -2   8   0   18.38    2.91   2
   2  -8   0   16.45    1.56   1
  -2   8   0   17.05    4.56  10
  -2   8   0   26.58    4.47   5
   2  -8   0   16.48    4.27   3
  -2   8   0   30.04   14.94  11
   1  -8   0   -0.87    3.10   3
  -1   8   0    4.27    8.58  11
  -1   8   0    0.99    1.44   5
   0   8   0   83.52    6.87   5
   0   8   0   82.97    6.49   2
   0   8   0   73.99    7.58   6
   0  -8   0   67.15    8.83   3
   1   8   0   21.12    3.86   4
  -1  -8   0   24.38   12.86   8
  -1  -8   0   24.11   30.50   3
   1   8   0   23.82    3.87   5
   2   8   0  116.08   13.54   4
   2   8   0   70.57   36.23   5
   2   8   0  103.26   21.42   6
   3   8   0  128.89   10.17   4
  -3  -8   0   88.87   11.22   1
   3   8   0  113.45    8.14   5
  -3  -8   0  117.06   11.68   8
   3   8   0  110.95   10.23   6
   4   8   0   -1.15    2.92   4
  -4  -8   0   -0.15    0.99   1
   5   8   0  135.43   12.42   6
   5   8   0  121.41   11.20   4
   7  -9   0   20.32    3.87   1
   7  -9   0   17.60    5.42   3
   7  -9   0   23.93    4.97   7
  -7   9   0   16.20    5.93   5
   6  -9   0   10.94    3.26   7
  -6   9   0   13.66    4.95   5
   6  -9   0   17.50    3.35   1
   6  -9   0   18.55    5.16   3
   5  -9   0    6.80   34.30   1
  -5   9   0   11.90    3.10   2
   5  -9   0   14.41    9.81   7
  -5   9   0    7.84    8.10   5
   5  -9   0    8.23    6.31   3
   4  -9   0   20.16    2.66   1
  -4   9   0   28.83    4.94   2
   4  -9   0   17.81    5.31   3
  -4   9   0   26.84    7.94  10
  -3   9   0   42.96    8.36  10
   3  -9   0   32.57    6.81   3
  -3   9   0   25.83    6.44   5
  -3   9   0   54.21   21.41  11
   3  -9   0   30.81    2.72   1
  -3   9   0   32.19    4.20   2
  -2   9   0   19.63   13.24  11
  -2   9   0    9.94    4.01   5
  -1   9   0  196.16   38.96  11
  -1   9   0  243.81   13.74   2
   1  -9   0  210.20   17.72   3
  -1   9   0  234.12   14.85   5
   0   9   0   84.43    7.39   5
   0  -9   0   61.44    9.26   3
   0   9   0   96.10    7.73   2
   0   9   0   80.79    8.29   6
   1   9   0  396.77   21.46   5
  -1  -9   0  369.03   23.78   8
   1   9   0  381.12   21.20   4
   1   9   0  395.71   22.65   6
  -1  -9   0  409.47   26.90   3
   2   9   0  234.12   16.29   6
  -2  -9   0  193.19   15.48   8
   2   9   0  197.92   18.27   4
   2   9   0  152.67   25.99   5
   3   9   0  243.53   16.99   6
   3   9   0  227.80   15.64   4
  -3  -9   0  252.37   19.13   8
  -4  -9   0  173.17   16.19   8
   4   9   0  186.78   14.07   4
   4   9   0  160.65   13.83   6
   6 -10   0    1.82    4.29   3
   6 -10   0    1.69    2.07   1
  -5  10   0  100.79   10.53   5
   5 -10   0   86.60   11.43   3
   5 -10   0   80.79    8.62   1
  -4  10   0   59.22    7.47   5
   4 -10   0   55.66    4.23   1
   4 -10   0   51.58    8.91   3
  -3  10   0  125.77    9.58   2
   3 -10   0  131.80   13.52   3
  -3  10   0  134.50   11.35   5
  -2  10   0  238.24   14.11   2
   2 -10   0  231.91   18.83   3
  -2  10   0  200.42   14.95   5
  -1  10   0   60.61    7.25   6
  -1  10   0   54.30    6.07   2
   1 -10   0   47.02    8.28   3
  -1  10   0   56.47    6.39   5
   0  10   0  605.41   29.58   2
   0  10   0  615.31   29.99   4
   0  10   0  637.58   31.54   5
   0 -10   0  546.55   36.03   3
   0  10   0  555.80   30.83   6
  -1 -10   0   -0.33    3.01   8
  -1 -10   0   -0.86    3.26   3
  -2 -10   0  318.65   22.12   8
   2  10   0  306.82   20.14   6
   2  10   0  292.58   18.75   4
   3  10   0   30.53    5.70   6
   3  10   0   22.55    5.47   4
  -3 -10   0   28.53    6.99   8
  -5  11   0   16.41    5.25   5
  -4  11   0  208.63   15.98   5
   4 -11   0  185.62   17.69   3
  -3  11   0  145.72   12.60   5
   3 -11   0  139.12   14.53   3
   2 -11   0  186.19   17.61   3
  -2  11   0  181.68   14.03   5
  -1  11   0  333.54   21.22   6
   1 -11   0  319.64   24.86   3
  -1  11   0  317.74   20.00   5
  -1  11   0  321.56   18.79   4
   0  11   0  142.94   11.00   2
   0  11   0  140.07   11.04   4
   0  11   0  133.85   12.47   6
   0 -11   0  140.50   15.12   3
   0  11   0  153.32   11.48   5
   1  11   0  340.17   22.30   6
   1  11   0  343.51   20.61   2
   1  11   0  374.73   21.56   4
   2  11   0   17.08    4.97   4
   2  11   0    7.09    3.74   6
  -2 -11   0   14.78    4.88   8
   3 -12   0  299.28   24.68   3
  -3  12   0  292.94   20.29   5
  -2  12   0   38.25    5.88   4
  -2  12   0   45.13    7.12   6
   2 -12   0   56.31   10.10   3
   1 -12   0  228.29   20.29   3
  -1  12   0  245.17   17.69   6
  -1  12   0  197.36   15.14   5
  -1  12   0  219.29   14.82   4
   0  12   0  197.98   14.29   4
   0  12   0  188.37   15.70   6
   0  12  -1    5.43    2.83   6
   0  12  -1    6.25    2.62   5
  -1  12  -1   47.50    6.87   6
  -1  12  -1   48.64    6.89   5
  -1  12  -1   65.23    7.05   4
   1 -12   1   47.47    9.21   3
  -2  12  -1   12.12    4.35   5
  -2  12  -1   14.65    3.92   6
   2 -12   1   11.96    5.47   3
   3 -12   1   -3.42    4.97   3
   2  11  -1   28.76    6.27   6
   2  11  -1   32.09    5.31   2
  -2 -11   1   23.53    6.00   8
   2  11  -1   29.43    5.61   4
   1  11  -1   38.78    5.39   2
   1  11  -1   43.85    5.52   4
   1  11  -1   33.06    5.02   5
   1  11  -1   28.52    5.02   6
   0  11  -1   26.01    4.43   5
   0  11  -1   19.43    3.69   2
   0 -11   1   26.20    7.02   3
   0  11  -1   16.59    3.84   6
   0  11  -1   24.39    4.06   4
   1 -11   1    3.45    3.39   3
  -1  11  -1    8.02    2.89   4
  -1  11  -1    4.18    1.97   2
  -1  11  -1   -0.97    2.28   5
  -2  11  -1    0.13    1.48   2
   2 -11   1   -5.40    4.94   3
  -2  11  -1    1.42    2.12   4
  -2  11  -1   -0.62    3.24   5
  -3  11  -1   14.06    4.50   5
   3 -11   1    5.58    4.94   3
   4 -11   1   19.67    5.76   3
   5 -11   1   13.64    5.37   3
  -5  11  -1    1.56    3.59   5
   4  10  -1   -0.96    3.58   6
   3  10  -1    4.11    3.17   6
  -3 -10   1    1.38    3.51   8
   3  10  -1   -1.27    3.53   4
   2  10  -1   44.34    7.26   6
   2  10  -1   35.72    7.39   4
   1  10  -1   -0.72    1.21   4
   1  10  -1    0.21    1.40   2
   1  10  -1    3.29    1.93   6
   1  10  -1    3.83    1.89   5
   0 -10   1    5.61    4.33   3
   0  10  -1   12.14    2.80   4
   0  10  -1   10.04    2.72   5
   0  10  -1   10.35    3.06   6
   0  10  -1    8.92    2.56   2
  -1  10  -1   -1.95    1.76   5
   1 -10   1    1.90    3.99   3
  -1  10  -1    1.99    1.62   6
  -2  10  -1   15.33   15.31   4
  -2  10  -1    8.45    6.08   5
  -2  10  -1   21.38   11.00   2
  -3  10  -1    2.25    3.19   5
  -3  10  -1    3.75    1.98   2
   3 -10   1    0.74    2.81   3
   4 -10   1    2.88    2.51   7
   5 -10   1    2.60   20.00   1
  -5  10  -1    1.20   15.44   5
   5 -10   1    6.27   13.79   7
   6 -10   1   14.12    5.28   3
  -6  10  -1    9.37    4.75   5
  -5  -9   1    3.30    4.08   8
   4   9  -1   13.94    4.61   6
   3   9  -1    0.31    3.09   6
  -3  -9   1    0.31    2.67   8
   3   9  -1   -2.50    2.40   4
   3   9  -1    3.63    2.13   5
  -2  -9   1   16.68   11.30   8
   2   9  -1   29.88   12.35   5
   2   9  -1   32.97    9.51   6
   2   9  -1   44.29    5.55   4
   1   9  -1    8.12    2.35   5
   1   9  -1    5.30    2.26   6
   1   9  -1    8.65    2.35   4
   1   9  -1    9.75    2.55   2
  -1  -9   1    9.30    4.11   8
   0   9  -1   24.19    3.55   4
   0   9  -1   17.56    3.08   2
   0   9  -1   24.13    3.88   5
   0   9  -1   13.24   10.81  11
   0  -9   1   18.93    5.32   3
   0   9  -1   18.85    3.74   6
  -1   9  -1   56.79   20.72  11
  -1   9  -1   45.40    5.00   2
  -1   9  -1   40.43    5.44   5
   1  -9   1   55.68    8.04   3
  -1   9  -1   53.82    5.28   4
  -2   9  -1    3.88   24.49  11
  -2   9  -1   22.34   15.96   5
  -2   9  -1   25.55   19.56   2
   3  -9   1   45.22    7.21   3
   3  -9   1   47.06    6.18   1
  -3   9  -1   41.95    6.04   5
  -3   9  -1   49.08    5.59   2
   3  -9   1   46.20   10.92   7
  -3   9  -1   65.23   14.82  10
  -4   9  -1    1.75    3.35   5
   4  -9   1   -3.91    2.73   7
  -4   9  -1    6.32    4.53  10
   4  -9   1    2.45    2.90   3
   5  -9   1   32.06    8.01   1
   5  -9   1   29.00    6.24   3
   5  -9   1   29.87    6.67   7
  -5   9  -1   24.94    5.14   5
  -5   9  -1   31.10    4.96   2
   6  -9   1    3.24    2.45   1
   6  -9   1    3.30    3.33   7
   6  -9   1    2.99    2.86   3
  -6   9  -1    2.89    2.57   2
   7  -9   1   18.57    3.89   1
   7  -9   1   23.48    4.73   7
  -7   9  -1   11.89    5.29   5
   6   8  -1   14.98    4.83   6
  -5  -8   1   -0.77    2.98   8
   5   8  -1   -1.69    3.51   6
   5   8  -1    6.36    3.13   4
  -4  -8   1    9.59    2.98   9
  -4  -8   1   13.81    4.75   8
   4   8  -1   14.30    4.43   6
  -4  -8   1    9.93    1.68   1
   4   8  -1    8.92    3.64   4
   3   8  -1   -1.63    3.03   6
  -3  -8   1   -3.70   15.68   9
   3   8  -1    2.89    3.24   4
  -3  -8   1   -5.52    9.37   8
  -2  -8   1    9.39    3.04   9
  -2  -8   1   12.95    4.30   8
   2   8  -1    9.86    3.22   5
  -1  -8   1    2.93    2.65   3
   1   8  -1    3.18    1.91   6
   1   8  -1    2.99    1.70   4
   0   8  -1    1.29    1.31   6
   0   8  -1    1.99    1.43   2
   0   8  -1   -0.74    1.24   4
   0   8  -1    1.62    5.33  11
   0   8  -1    1.77    1.52   5
  -1   8  -1    4.88    2.75   5
  -1   8  -1    8.69    2.07   2
  -1   8  -1   13.88   10.47  11
  -2   8  -1   21.12   10.77   1
  -2   8  -1   30.57   28.03   2
   2  -8   1    7.43   16.39   1
  -2   8  -1   20.64   22.56   5
  -2   8  -1   17.54   22.41  10
  -2   8  -1   15.51    8.49  10
   2  -8   1   26.42   22.02   1
  -3   8  -1   41.13   30.07   1
  -3   8  -1   55.73    9.36  10
   3  -8   1   46.09   42.55   7
  -3   8  -1   50.63    5.55   2
   3  -8   1   48.12    7.06   3
  -3   8  -1   37.72   49.36  10
   3  -8   1   43.75   29.57   1
  -3   8  -1   48.46    6.45   5
  -4   8  -1   14.99    2.22   1
   4  -8   1    8.03    3.34   7
  -4   8  -1    8.81    5.97  10
   4  -8   1   10.06    2.20   1
   4  -8   1   11.97    4.06   3
  -4   8  -1   18.21    4.73   5
  -4   8  -1   17.94    4.09   2
   5  -8   1  109.95    7.15   1
  -5   8  -1  108.39    6.81   1
  -5   8  -1  102.07    8.76   2
   5  -8   1  114.49    9.26   7
   5  -8   1  107.69   10.57   3
  -5   8  -1  113.48   10.47   5
   6  -8   1    1.54    3.38   3
   6  -8   1    7.94    2.78   7
  -6   8  -1   -0.40    1.76   2
   6  -8   1    4.74    2.51   1
  -6   8  -1    3.10    3.02   5
   7  -8   1  129.44   12.33   3
   7  -8   1  134.87    9.34   1
   7  -8   1  155.10   11.39   7
  -7   8  -1  107.63    9.98   2
  -7   8  -1  139.56   13.46   5
   8  -8   1    3.84    2.99   1
   8  -8   1    1.88    2.64   7
   6   7  -1   -0.71    3.51   6
  -6  -7   1   -1.10    1.81   1
   6   7  -1   -5.47    3.67   4
   5   7  -1    4.10   29.63   6
  -5  -7   1   -0.96   46.17   1
   5   7  -1   -1.69   18.22   4
   4   7  -1    0.27    2.63   4
  -4  -7   1    0.30    3.53  10
  -4  -7   1   -1.89    2.04   9
  -4  -7   1    2.04    1.46   1
  -3  -7   1    0.14    6.73   1
   3   7  -1    0.76    2.65   4
  -3  -7   1    5.84   10.30  10
  -3  -7   1   11.22    3.80   8
  -3  -7   1   -0.80    5.51   9
   3   7  -1    6.39    2.93   6
  -2  -7   1    9.13    3.54   8
   2   7  -1   18.16    3.81   6
  -1  -7   1   12.45    3.71   8
   1   7  -1   10.62    2.35   4
  -1  -7   1    6.28    2.63   9
   0   7  -1   42.87    4.25   4
   0   7  -1   38.93    4.70   6
   0   7  -1   49.07    5.11   5
   0   7  -1   41.64    4.22   2
   0   7  -1   39.99   14.84  11
   0  -7   1   46.02    6.43   3
  -1   7  -1  106.52   24.43  11
   1  -7   1  116.28   10.19   3
  -1   7  -1  124.36    8.07   2
  -1   7  -1  119.10    9.04   5
  -2   7  -1  145.04  100.16  10
  -2   7  -1  139.47   72.32   1
  -2   7  -1  112.50   94.18  10
  -2   7  -1  150.68  102.46   5
   2  -7   1  256.14  112.75   1
  -2   7  -1  199.26  133.82   2
   2  -7   1  355.36  110.65   3
   3  -7   1  246.22   13.79   7
  -3   7  -1  232.56   10.11   1
  -3   7  -1  242.58   15.17   5
  -3   7  -1  219.68   13.61   2
   3  -7   1  199.59    9.74   1
  -3   7  -1  240.49   21.22  10
   3  -7   1  218.83   15.74   3
   3  -7   1  233.99   10.33   1
   4  -7   1  186.36   12.04   7
   4  -7   1  192.89    9.73   1
   4  -7   1  196.65   14.46   3
  -4   7  -1  194.02   12.52   2
  -4   7  -1  193.13    9.52   1
  -4   7  -1  223.74   23.32  10
  -4   7  -1  192.79   13.79   5
   5  -7   1  141.66   20.87  10
   5  -7   1  173.25   13.64   3
   5  -7   1  181.18    9.87   1
  -5   7  -1  173.45   11.89   2
  -5   7  -1  167.86   13.37   5
  -5   7  -1  171.75    9.42   1
  -5   7  -1  206.15   24.89  10
   5  -7   1  188.34   11.85   7
  -6   7  -1  276.40   32.08  10
   6  -7   1  283.77   16.24   7
   6  -7   1  262.41   13.76   1
   6  -7   1  256.95   18.23   3
  -6   7  -1  258.76   18.36   5
  -6   7  -1  262.09   13.30   1
  -6   7  -1  247.91   15.83   2
  -7   7  -1   43.54   20.98   1
  -7   7  -1   37.30    7.14   5
   7  -7   1   50.41   20.73   1
   7  -7   1   68.60   12.91   7
   7  -7   1   40.33    6.44   3
  -7   7  -1   43.57    5.92   2
  -8   7  -1  210.77   17.55   5
  -8   7  -1  235.13   13.60   1
   8  -7   1  210.88   13.48   1
   8  -7   1  217.25   14.72   7
  -7  -6   1    2.27    2.33   1
   7   6  -1   -3.69    2.94   4
  -6  -6   1    3.22    2.44   1
   6   6  -1    8.84    3.97   4
  -5  -6   1    6.03   10.91   1
   5   6  -1    7.36   10.31   4
  -5  -6   1    4.08    1.98   9
   5   6  -1   -1.21    2.23   6
   4   6  -1   14.12    2.23   1
   4   6  -1   20.98    9.72   6
  -4  -6   1   18.00    6.98  10
  -4  -6   1    8.07    8.10   9
   4   6  -1   13.56    3.34   4
  -4  -6   1   15.77    2.38   1
   3   6  -1   28.54    2.52   1
  -3  -6   1   28.53    3.66   9
  -3  -6   1   57.04   20.21  11
   3   6  -1   32.99    4.65   4
   3   6  -1   30.77    4.90   6
  -3  -6   1   31.46    2.31   1
  -3  -6   1   36.11    7.88  10
  -3  -6   1   31.82    2.79   1
  -2  -6   1  133.66   10.21   8
  -2  -6   1  112.52    5.50   1
   2   6  -1  117.00   10.81   1
  -2  -6   1  140.97   28.52  11
   2   6  -1  154.29    9.11   4
   2   6  -1  115.41    7.78   1
  -2  -6   1  132.43    8.87   9
  -2  -6   1  117.41   11.02  10
  -2  -6   1  118.44    8.43   1
   1   6  -1   98.82    7.46   6
  -1  -6   1   88.38    7.70   8
   1   6  -1  102.19    7.11   4
  -1  -6   1   95.30    7.36   9
  -1  -6   1   93.20    8.80   3
   0  -6   1  969.22   44.93   9
   0   6  -1  959.37   42.28   2
   0   6  -1  959.21   45.58   5
   0   6  -1  963.37   42.50   6
   0   6  -1  949.55   76.93  11
   0  -6   1 1013.15   49.60   3
   1  -6   1   39.63    5.34   3
   1  -6   1   42.58    4.25   7
  -1   6  -1   41.65    4.23   2
  -1   6  -1   44.80    4.75   5
  -2   6  -1 1115.30   47.88   2
  -2   6  -1 1060.75   49.81  10
  -2   6  -1 1081.11   51.20   5
   2  -6   1 1113.30   46.92   2
   2  -6   1 1048.84   39.54   1
   2  -6   1 1028.43   39.74   1
  -2   6  -1 1061.29   39.68   1
   2  -6   1 1156.06   48.24   7
   2  -6   1 1100.01   54.44   3
  -3   6  -1   11.08    5.26  10
   3  -6   1   15.90    5.68  10
   3  -6   1   12.12    3.19   1
   3  -6   1   10.18   15.42   7
   3  -6   1   15.79    3.90   3
  -3   6  -1   14.08    6.62   5
  -3   6  -1   10.98    3.10   1
   3  -6   1   11.80    1.75   1
   4  -6   1 1015.29   41.89   1
   4  -6   1 1074.38   60.12  10
  -4   6  -1 1123.36   53.28   5
   4  -6   1 1095.56   42.00   1
   4  -6   1 1125.37   55.60   3
  -4   6  -1 1112.28   41.84   1
  -4   6  -1 1151.00   61.66  10
   4  -6   1 1123.14   49.34   7
  -4   6  -1 1092.26   49.31   2
  -5   6  -1  146.21    8.43   1
  -5   6  -1  147.23   11.66   5
   5  -6   1  164.47   21.83  10
   5  -6   1  150.38   11.91   3
  -5   6  -1  141.68   10.21   2
   5  -6   1  145.49   10.05   7
   5  -6   1  148.69    8.65   1
  -5   6  -1  150.43   21.18  10
   6  -6   1  541.34   46.87  10
   6  -6   1  592.22   28.49   7
  -6   6  -1  528.17   28.53   2
  -6   6  -1  552.76   31.63   5
   6  -6   1  575.01   32.06   3
   6  -6   1  577.20   24.86   1
  -6   6  -1  568.02   47.68  10
  -6   6  -1  584.01   24.53   1
  -7   6  -1  217.90   16.54   5
   7  -6   1  214.02   12.62   1
   7  -6   1  197.38   15.36   3
  -7   6  -1  274.66   34.09  10
   7  -6   1  199.07   13.35   7
   7  -6   1  170.66   28.30  10
  -7   6  -1  202.24   13.95   2
  -7   6  -1  220.77   12.26   1
   8  -6   1  168.66   11.70   1
  -8   6  -1  174.95   11.51   1
  -8   6  -1  177.78   15.42   5
   8  -6   1  177.45   12.61   7
   7   5  -1    5.67    4.30   6
   6   5  -1   48.37    6.48   6
  -6  -5   1   41.20    4.69   1
   6   5  -1   59.43    7.04   4
   5   5  -1    9.92    5.70  10
  -5  -5   1   18.36    8.50  10
   5   5  -1    5.36    2.82   4
   5   5  -1    4.78    3.26   6
   5   5  -1    5.30    6.51   1
   4   5  -1  282.85   23.84  10
  -4  -5   1  241.40   11.45   1
   4   5  -1  268.48   14.89   4
  -4  -5   1  245.11   24.04  10
   4   5  -1  261.18   11.65   1
   4   5  -1  243.34   14.94   6
  -4  -5   1  197.28   36.78  11
   3   5  -1  176.55   11.00   6
  -3  -5   1  159.30   30.30  11
   3   5  -1  172.87   10.49   4
  -3  -5   1  162.34    7.57   1
  -3  -5   1  157.78   10.16   1
   3   5  -1  173.44   15.62  10
   3   5  -1  164.37    7.77   1
  -3  -5   1  171.48   17.01  10
  -3  -5   1  166.94   10.25   9
  -2  -5   1  614.63   29.79   9
  -2  -5   1  613.28   23.35   1
   2   5  -1  624.63   23.34   1
   2   5  -1  662.73   29.02   6
  -2  -5   1  620.75   31.95  10
  -2  -5   1  572.97   58.29  11
   2   5  -1  650.90   28.44   4
   1   5  -1 1011.02   44.63   6
  -1  -5   1 1040.16   47.33   9
  -1  -5   1 1042.74   49.56   8
   1   5  -1 1056.76   44.27   4
  -1  -5   1 1065.48   52.20   3
   0  -5   1 1275.31   56.10   9
   0   5  -1 1240.80   52.93   2
   0  -5   1 1208.64   57.99   8
   0  -5   1 1228.50   53.64   7
   0  -5   1 1289.42   61.10   3
   0   5  -1 1141.60   84.81  11
   0   5  -1 1317.38   57.25   5
  -1   5  -1 2809.54  118.65   5
  -1   5  -1 2555.38   98.47  10
  -1   5  -1 2749.83  120.42   8
   1  -5   1 2710.84  125.21   3
  -1   5  -1 2559.14  140.55   3
  -1   5  -1 2773.34  110.56   2
   1  -5   1 2535.96   95.30   1
   2  -5   1  343.77   25.73   1
   2  -5   1  316.24   38.53   2
  -2   5  -1  325.94   31.53   2
  -2   5  -1  281.67   19.63   5
  -2   5  -1  230.73   41.25   1
   2  -5   1  232.54   42.97   1
  -2   5  -1  227.83   32.17  10
  -2   5  -1  259.73   29.55   1
   2  -5   1  242.90   36.90  10
  -3   5  -1 3087.94  109.94   1
   3  -5   1 3157.82  125.45  10
  -3   5  -1 2935.12  123.92  10
  -3   5  -1 3130.80  127.57   2
   3  -5   1 3161.93  142.93   3
   3  -5   1 3166.16  110.15   1
   3  -5   1 3078.05  127.92   7
   3  -5   1 2855.19  126.73   2
   3  -5   1 2886.20  110.03   1
  -3   5  -1 3088.44  135.96   5
  -4   5  -1   -1.15    2.67   5
  -4   5  -1    1.40    2.34   2
  -4   5  -1    7.02    1.91   1
   4  -5   1    0.52    2.13   3
   4  -5   1    7.84    2.08   7
  -4   5  -1   16.52    6.97  10
   4  -5   1    1.15    1.64   1
   5  -5   1 1732.57   77.06   7
  -5   5  -1 1872.61   67.00   1
   5  -5   1 1889.49   67.29   1
  -5   5  -1 1739.70   82.82   5
  -5   5  -1 1744.72   77.17   2
   5  -5   1 1803.26   88.37   3
   5  -5   1 1726.37   91.74  10
  -5   5  -1 1764.66   90.93  10
  -6   5  -1   85.61    8.03   2
  -6   5  -1  105.80   19.61  10
   6  -5   1   96.48   37.77   7
   6  -5   1  108.84    7.43   1
  -6   5  -1   82.22    9.14   5
  -6   5  -1   98.69    6.98   1
   6  -5   1   79.05    8.50   3
   6  -5   1   84.59   17.91  10
  -7   5  -1  543.17   29.61   2
   7  -5   1  611.90   29.43   7
  -7   5  -1  598.01   25.84   1
  -7   5  -1  583.93   33.12   5
   7  -5   1  595.27   26.25   1
   7  -5   1  571.98   52.51  10
   8  -5   1  106.64    9.01   7
  -8   5  -1  122.63   25.06   1
   8  -5   1  124.36   14.45   1
  -8  -4   1    1.62    3.16   1
   7   4  -1   71.85    8.46   6
   7   4  -1   93.52    9.21   4
  -7  -4   1  101.13    7.52   1
  -6  -4   1   12.06    2.92   1
   6   4  -1   15.01    4.67   6
   6   4  -1    7.12    2.41   1
  -5  -4   1  505.36   39.99  10
   5   4  -1  458.16   24.45   4
   5   4  -1  513.27   38.62  10
   5   4  -1  503.10   25.56   6
  -5  -4   1  500.46   20.94   1
   5   4  -1  508.07   21.03   1
  -4  -4   1   16.13    6.88  10
  -4  -4   1   10.74    1.80   1
   4   4  -1    8.86    1.83   1
   4   4  -1    9.03    5.11  10
   4   4  -1    8.58    2.19   5
  -4  -4   1   11.85    2.13   1
   3   4  -1 1717.22   72.68  10
   3   4  -1 1462.23   80.81   5
  -3  -4   1 1717.22   59.76   1
   3   4  -1 1637.58   59.74   1
   3   4  -1 1695.36   68.63   4
  -3  -4   1 1669.98   59.85   1
  -3  -4   1 1436.86  108.65  11
  -3  -4   1 1641.13   73.71  10
   3   4  -1 1713.71   68.95   6
   2   4  -1  280.70   17.71  10
  -2  -4   1  302.65   19.39  10
  -2  -4   1  267.55   33.66  11
   2   4  -1  293.26   14.05   7
   2   4  -1  281.65   11.38   1
  -2  -4   1  294.78   15.33   6
   2   4  -1  299.40   11.60   1
  -2  -4   1  297.54   11.64   1
  -2  -4   1  288.01   11.48   1
   2   4  -1  303.00   14.66   4
   2   4  -1  306.00   14.90   6
  -1  -4   1 3270.06  146.40   8
  -1  -4   1 3200.87  140.49   9
   1   4  -1 3445.10  131.32   4
   1   4  -1 3221.78  131.55   6
   1   4  -1 3302.97  177.36  11
   1   4  -1 3175.89  134.95   7
   0  -4   1 2228.86   97.34   3
   0   4  -1 2101.24  119.91  11
   0   4  -1 2025.78   86.13   7
   0  -4   1 2016.03   93.21   8
   0  -4   1 2099.29   86.44   7
   0   4  -1 2157.29   85.49   2
   0  -4   1 2136.12   89.95   9
   0   4  -1 1886.14   98.32   3
   0   4  -1 1953.29   92.90   8
  -1   4  -1 3160.52  140.28   8
   1  -4   1 3164.12  130.15   7
   1  -4   1 3173.32  145.36   3
  -1   4  -1 3070.12  145.27   3
  -1   4  -1 3157.45  128.80   2
  -1   4  -1 3029.96  115.06  10
   1  -4   1 3011.35  134.92   9
  -1   4  -1 3236.02  137.91   5
   1  -4   1 3325.89  128.65   2
  -1   4  -1 3052.45  134.85   9
  -2   4  -1 2016.97   88.12   5
   2  -4   1 2042.31   83.01   7
  -2   4  -1 1955.72   85.81   9
  -2   4  -1 1871.37   70.76   1
   2  -4   1 2003.00   81.00  10
   2  -4   1 1993.82   88.24   5
   2  -4   1 1951.49   82.09   2
   2  -4   1 2015.82   71.05   1
  -2   4  -1 1888.14   80.37  10
   2  -4   1 2006.07   92.51   3
  -2   4  -1 1985.64   70.95   1
   2  -4   1 1901.62   70.82   1
  -2   4  -1 1972.00   82.72   2
   3  -4   1 1112.96   41.06   1
   3  -4   1 1133.68   56.13  10
   3  -4   1 1081.04   48.59   2
  -3   4  -1 1081.75   55.26  10
  -3   4  -1  940.31   50.60   4
  -3   4  -1 1158.39   51.48   5
  -3   4  -1 1116.29   48.14   2
   3  -4   1 1154.78   47.97   7
  -3   4  -1 1116.32   40.94   1
   3  -4   1 1125.37   53.40   3
   3  -4   1 1052.15   40.79   1
  -4   4  -1 1629.99   59.70   1
   4  -4   1 1528.93   60.14   1
   4  -4   1 1594.67   79.88  10
   4  -4   1 1636.42   69.19   7
   4  -4   1 1642.56   59.89   1
  -4   4  -1 1626.41   74.02   5
  -4   4  -1 1639.28   69.38   2
  -4   4  -1 1530.87   68.37   4
  -4   4  -1 1662.87   79.80  10
  -5   4  -1  100.65    6.63   1
  -5   4  -1   91.73    5.46   4
   5  -4   1  118.17    8.03   7
  -5   4  -1  115.26    8.75   2
   5  -4   1  109.53    7.00   1
  -5   4  -1  129.11   18.74  10
  -5   4  -1  123.95    9.72   5
   5  -4   1  109.15   17.77  10
   6  -4   1  744.17   33.83   7
  -6   4  -1  708.66   53.67  10
  -6   4  -1  707.63   37.22   5
  -6   4  -1  665.53   38.84   2
  -6   4  -1  717.26   29.64   1
   6  -4   1  719.21   29.75   1
   6  -4   1  717.73   54.97  10
  -7   4  -1    8.54   34.63   5
  -7   4  -1    6.01   33.79   1
   7  -4   1   -6.81   49.51  10
   7  -4   1    7.83   28.81   7
   7  -4   1    6.90   36.65   1
  -8   4  -1  179.95   11.64   1
  -8   4  -1  180.24   15.02   5
   8  -4   1  170.58   11.68   1
   8  -4   1  188.94   12.49   7
  -9   4  -1   18.55    3.94   1
  -9   4  -1   23.05    5.87   5
   9  -4   1   21.45    4.30   1
   8   3  -1   68.96    7.92   4
  -8  -3   1   59.53    6.47   1
   8   3  -1   62.59    6.51   1
   7   3  -1  182.95   25.60   6
   7   3  -1  171.10   28.74   4
   7   3  -1  277.44   41.09   1
   6   3  -1  450.01   23.07   4
   6   3  -1  433.72   23.54   6
   6   3  -1  440.16   19.48   1
  -6  -3   1  413.21   19.40   1
  -5  -3   1  302.66   29.30  10
   5   3  -1  296.54   17.00   6
   5   3  -1  291.22   13.81   1
   5   3  -1  302.93   28.67  10
  -5  -3   1  307.24   14.03   1
   5   3  -1  314.34   32.77   4
   4   3  -1 1708.45   68.52   4
   4   3  -1 1630.34   68.91   6
   4   3  -1 1730.96   78.79  10
  -4  -3   1 1681.24   60.23   1
  -4  -3   1 1615.01   60.26   1
  -4  -3   1 1526.72   77.36  10
   4   3  -1 1521.04   59.99   1
   3   3  -1  170.23    9.95   6
   3   3  -1  185.97   16.62  10
   3   3  -1  165.90    7.71   1
   3   3  -1  152.11    9.56   5
  -3  -3   1  162.19    7.63   1
  -3  -3   1  162.59   16.21  10
  -3  -3   1  176.50    7.86   1
   3   3  -1  173.79    9.76   4
   2   3  -1 3969.54  185.06   3
  -2  -3   1 3913.18  204.56  11
   2   3  -1 3883.43  137.60   1
   2   3  -1 3725.77  155.15   6
   2   3  -1 3914.24  159.19   7
   2   3  -1 4133.25  144.08  10
  -2  -3   1 3664.22  143.83  10
  -2  -3   1 3885.92  155.58   6
   2   3  -1 3761.79  154.92   4
   1   3  -1   47.38    2.32   1
  -1  -3   1   50.78    4.90  10
   1   3  -1   46.59    3.30   7
   1   3  -1   50.05    2.39   1
   1   3  -1   43.92    4.57   3
  -1  -3   1   50.08    2.39   1
  -1  -3   1   67.13   12.93  11
  -1  -3   1   51.89    4.29   8
   1   3  -1   55.84    3.86   4
   1   3  -1   54.17    3.87   6
  -1  -3   1   53.98    4.09   6
   1   3  -1   68.28   13.17  11
   1  -3   1 1282.03   59.73   3
  -1   3  -1 1321.04   53.26   2
   1  -3   1 1200.35   55.41   9
   1  -3   1 1272.33   53.51   7
  -1   3  -1 1185.20   55.32   9
  -1   3  -1 1290.49   56.93   5
  -1   3  -1 1240.38   45.43   1
   1  -3   1 1286.14   52.96   2
  -1   3  -1 1290.84   45.56   1
  -1   3  -1 1266.83   51.44  10
   1  -3   1 1246.16   45.52   1
  -1   3  -1 1279.55   53.43   7
  -1   3  -1 1274.16   59.78   3
   1  -3   1 1289.49   51.21  10
  -2   3  -1 2564.06  113.38   9
  -2   3  -1 2610.49  104.04  10
   2  -3   1 2639.90   94.56   1
  -2   3  -1 2758.84  116.43   5
   2  -3   1 2704.14  116.30   5
  -2   3  -1 2664.79   94.63   1
   2  -3   1 2495.48  109.23   2
   2  -3   1 2781.63  122.20   3
   2  -3   1 2671.02   94.69   1
   2  -3   1 2680.80  104.94  10
  -2   3  -1 2585.87   94.54   1
   2  -3   1 2608.66  109.75   7
  -2   3  -1 2574.23  109.31   2
  -3   3  -1 1704.31   75.71   5
   3  -3   1 1628.71   72.06   2
  -3   3  -1 1680.31   61.41   1
   3  -3   1 1710.90   61.55   1
  -3   3  -1 1729.07   71.39   2
   3  -3   1 1687.17   77.01  10
  -3   3  -1 1659.75   73.17   9
   3  -3   1 1696.14   75.66   5
   3  -3   1 1676.86   71.11   7
   3  -3   1 1662.01   61.39   1
  -3   3  -1 1638.95   75.95  10
   4  -3   1  734.57   45.00  10
  -4   3  -1  610.74   30.55   9
  -4   3  -1  695.67   32.99   5
  -4   3  -1  683.02   43.48  10
  -4   3  -1  554.75   31.66   4
  -4   3  -1  699.52   26.45   1
   4  -3   1  688.14   26.52   1
  -4   3  -1  689.99   31.09   2
   5  -3   1  860.12   57.31  10
  -5   3  -1  923.39   56.77  10
  -5   3  -1  739.34   38.99   4
  -5   3  -1  901.45   42.95   5
  -5   3  -1  880.75   40.21   2
   5  -3   1  905.66   34.64   1
  -5   3  -1  897.28   34.48   1
   6  -3   1   63.80   15.10  10
  -6   3  -1   62.18    4.47   4
   6  -3   1   77.67    6.20   1
  -6   3  -1   68.56    7.49   5
  -6   3  -1   55.33   14.68  10
  -6   3  -1   75.44    6.02   1
  -6   3  -1   65.54    6.81   2
   7  -3   1  230.16   25.47   1
   7  -3   1  217.18   16.54   7
  -7   3  -1  224.75   24.57   1
  -7   3  -1  218.80   27.30   5
   8  -3   1    3.31    2.54   7
  -8   3  -1   -4.22    3.14   1
  -8   3  -1    9.29    4.51   5
   8  -3   1    1.43    2.60   1
   9  -3   1   22.67    4.83   1
  -9   3  -1   23.82    4.76   1
  -9   3  -1   23.90    5.99   5
   8   2  -1  282.52   15.67   1
  -8  -2   1  290.44   15.73   1
   8   2  -1  291.15   18.19   4
  -7  -2   1  142.80   11.46   1
   7   2  -1  158.78   19.08   4
   7   2  -1  143.36   13.87   1
   6   2  -1  674.94   50.41  10
   6   2  -1  692.74   28.63   1
  -6  -2   1  645.07   28.38   1
   6   2  -1  710.73   40.67   6
   6   2  -1  736.75   33.13   4
   5   2  -1 1086.43   49.04   6
   5   2  -1 1114.19   42.69   1
  -5  -2   1 1092.22   63.87  10
  -5  -2   1 1125.74   42.82   1
   5   2  -1 1153.87   48.63   4
   5   2  -1 1082.19   63.13  10
  -4  -2   1 1007.34   37.24   1
  -4  -2   1 1007.04   37.30   1
   4   2  -1  805.76   56.94   5
   4   2  -1  991.16   42.87   6
  -4  -2   1  978.10   54.34  10
   4   2  -1 1018.50   54.39  10
   4   2  -1 1011.45   42.45   4
   4   2  -1  999.82   37.25   1
   3   2  -1 3907.46  157.23   6
  -3  -2   1 3663.94  150.52  10
   3   2  -1 3551.59  183.18   5
  -3  -2   1 3951.46  157.47   6
  -3  -2   1 4146.40  139.86   1
   3   2  -1 3787.89  139.73   1
  -3  -2   1 3785.97  139.67   1
   3   2  -1 4207.81  157.01   4
   3   2  -1 3958.43  151.56  10
  -3  -2   1 4118.41  156.80   4
  -2  -2   1  695.23   82.53   1
   2   2  -1  685.61   90.86   1
  -2  -2   1  755.89  100.81   1
   2   2  -1  923.02   64.91  10
  -2  -2   1  759.11  110.56   4
   2   2  -1  711.94   50.50   4
  -2  -2   1  712.31  100.19   6
   2   2  -1  800.45   88.93   1
   2   2  -1  637.30  139.86   5
  -2  -2   1  712.56   88.01  10
  -1  -2   1 6918.26  262.90  10
  -1  -2   1 8176.73  359.33  11
   0   2  -1  187.09    7.51   1
   0   2  -1  202.59    9.32   7
   0   2  -1  192.46   10.15  10
   0  -2   1  210.62   10.82   3
   0  -2   1  200.54    9.36   7
   0   2  -1  187.93   10.14   8
   0   2  -1  203.53    7.56   1
   0   2  -1  208.16    9.40   2
   0  -2   1  198.64    7.54   1
   0   2  -1  219.24    8.93   4
   0   2  -1  204.39   10.77   3
  -1   2  -1 5389.77  193.58  10
   1  -2   1 5415.80  193.59  10
  -2   2  -1  129.10   35.94   1
  -2   2  -1   61.60   39.17   2
  -2   2  -1  127.39   45.03   5
   2  -2   1   63.65   21.26   2
   2  -2   1  100.10   47.30   1
  -2   2  -1   76.97   48.94   9
  -2   2  -1   86.48   37.75  10
   2  -2   1  103.57   32.92   5
  -2   2  -1   42.62    2.17   4
  -3   2  -1 1086.15   41.62   1
  -3   2  -1 1106.97   45.02   4
  -3   2  -1 1207.90   57.29  10
   3  -2   1 1141.52   41.81   1
   3  -2   1 1106.08   41.63   1
  -3   2  -1 1163.10   51.29   5
   3  -2   1 1149.03   57.45  10
   3  -2   1 1068.99   49.05   2
  -3   2  -1 1062.99   46.36   6
  -3   2  -1 1143.35   41.75   1
  -3   2  -1 1141.18   48.53   2
   3  -2   1 1117.67   45.44   4
   3  -2   1 1106.41   50.96   5
   4  -2   1  199.25   21.67  10
   4  -2   1  179.65    8.88   1
  -4   2  -1  165.99   19.27  10
  -4   2  -1  179.83   10.78   2
  -4   2  -1  175.71   11.11   5
   4  -2   1  174.85    8.93   4
  -4   2  -1  175.30    8.78   1
  -4   2  -1  170.35    8.36   4
  -5   2  -1   85.47   17.12   5
  -5   2  -1   88.26   53.28  10
  -5   2  -1   73.53   21.45   2
   5  -2   1   70.28   36.73  10
  -5   2  -1   89.27    5.33   4
  -5   2  -1   85.32   43.42   1
   5  -2   1   80.19   42.13   1
   5  -2   1   85.98   26.33   4
   6  -2   1   88.27    6.65   1
  -6   2  -1   98.35   18.87  10
  -6   2  -1   87.49   16.32   5
   6  -2   1   89.44    6.70   4
  -6   2  -1   86.23   12.69   1
   6  -2   1   70.50   16.03  10
  -7   2  -1    4.17    2.40   1
  -7   2  -1    0.16    2.85   5
   7  -2   1    4.14    2.43   1
   7  -2   1    8.99    2.84   4
  -8   2  -1   16.19    4.54   5
  -8   2  -1   13.20   11.51   1
  -9   2  -1   13.82    4.30   1
  -9  -1   1  216.55   13.34   1
   9   1  -1  216.98   13.42   1
   9   1  -1  178.83   14.15   4
  -8  -1   1   38.73   26.05   1
   8   1  -1   22.71   18.17   4
  -8  -1   1    5.97   26.85   5
   8   1  -1   26.16   17.91   1
  -7  -1   1  698.69   28.15   1
   7   1  -1  660.55   27.89   1
   7   1  -1  584.00   30.83   4
  -7  -1   1  636.71   36.26   5
  -6  -1   1   21.50    4.93   5
   6   1  -1   16.49    3.33   4
  -6  -1   1   10.99    8.15  10
   6   1  -1   25.75   10.36  10
  -6  -1   1   17.20    3.27   1
  -5  -1   1 1295.77   60.81   5
  -5  -1   1 1261.83   48.21   1
   5   1  -1 1282.44   48.25   1
  -5  -1   1 1225.02   69.39  10
   5   1  -1 1288.70   54.31   4
   5   1  -1 1243.50   69.26  10
  -4  -1   1  197.36    9.24   1
   4   1  -1  176.19   11.26   5
  -4  -1   1  209.94   12.77   5
   4   1  -1  205.42   10.91   4
  -4  -1   1  199.15   20.16  10
  -4  -1   1  193.71    9.23   1
   4   1  -1  198.20   11.38   6
   4   1  -1  192.25   19.98  10
   4   1  -1  188.76    9.24   1
  -3  -1   1 1163.06   47.44   5
  -3  -1   1 1053.80   42.17   4
  -3  -1   1  996.27   42.70   6
  -3  -1   1  996.64   37.46   1
   3   1  -1  998.39   49.86  10
  -3  -1   1  959.41   37.36   1
   3   1  -1  991.26   37.46   1
  -3  -1   1  941.07   49.33  10
   3   1  -1 1066.52   42.43   4
   3   1  -1  993.15   42.63   6
   3   1  -1  947.11   46.72   5
   3   1  -1  996.61   37.42   1
   2   1  -1  556.92  141.56   5
   2   1  -1  554.96   53.23   4
   2   1  -1  736.05  120.47   1
   2   1  -1  536.65   88.31   6
  -2  -1   1  560.14   91.73   1
  -2  -1   1  555.63  122.26   4
   2   1  -1  654.38   98.73   1
  -2  -1   1  535.56  107.27   6
  -2  -1   1  630.85   28.28   5
  -2  -1   1  576.77  116.69   1
  -2  -1   1  554.85   93.02  10
  -1  -1   1  231.28   12.73  10
   1   1  -1  218.48    8.70   1
  -1  -1   1  223.87    8.69   1
  -1  -1   1  235.26    8.76   1
   1   1  -1  236.64   10.20   4
  -1  -1   1  275.56   18.20  11
   1   1  -1  209.15    9.71   7
   1   1  -1  222.01    8.69   1
  -1  -1   1  233.99   10.13   4
   1   1  -1  222.18   10.03   6
  -1  -1   1  239.31   10.13   6
   1  -1   1    0.40    0.50   9
   1  -1   1   -0.47    0.64   5
  -1   1  -1    1.26    0.61   5
  -1   1  -1   -0.11    0.44   6
   1  -1   1    0.64    0.38   1
  -1   1  -1    0.68    0.52   1
  -1   1  -1    1.11    0.50   9
   1  -1   1    0.81    0.55   1
  -1   1  -1    1.07    0.81   2
  -1   1  -1    1.86    1.78  10
   1  -1   1   -1.03    1.19  10
   1  -1   1    1.70    0.83   2
   2  -1   1  263.63   19.61  10
   2  -1   1  266.12   10.77   1
   2  -1   1  254.07   11.09   4
  -2   1  -1  272.33   13.01   2
  -2   1  -1  253.94   12.00   9
   2  -1   1  256.17   10.72   1
  -2   1  -1  263.45   10.75   1
  -2   1  -1  263.62   13.06   5
  -2   1  -1  264.11   10.73   1
   2  -1   1  282.93   13.05   5
  -2   1  -1  242.30   11.80   6
  -2   1  -1  239.52   18.72  10
   2  -1   1  267.93   13.09   2
  -3   1  -1   17.24    1.69   4
  -3   1  -1   18.59    2.45   6
  -3   1  -1   18.92    2.83   2
   3  -1   1   17.03    2.13   1
   3  -1   1   14.23    3.64   2
  -3   1  -1   18.81    2.60   5
   3  -1   1   20.57    2.27   1
  -3   1  -1   21.76    2.35   1
  -3   1  -1   19.69    4.03   1
   3  -1   1   22.96    2.66   5
   3  -1   1   17.77    2.61   4
  -3   1  -1   24.92    7.02  10
  -4   1  -1   13.46    8.67  10
  -4   1  -1   11.94    6.40   1
   4  -1   1    5.22    1.56   4
   4  -1   1   10.94   56.49  10
  -4   1  -1    6.56   73.25   5
   4  -1   1    6.16   79.20   5
   4  -1   1   10.03   53.17   1
  -4   1  -1    4.04   74.42   2
  -5   1  -1   14.21    7.99  10
   5  -1   1   11.43    2.64   1
  -5   1  -1   10.18    3.08   5
  -5   1  -1   12.94    2.62   1
   5  -1   1   25.55   12.71  10
   5  -1   1    7.53    2.25   4
  -6   1  -1   14.77   32.91   5
   6  -1   1   21.99    3.79   1
   6  -1   1   41.94   13.07  10
  -6   1  -1   23.20   10.67  10
  -6   1  -1   12.43    9.51   1
   6  -1   1   24.30   24.62   4
  -7   1  -1    1.16    7.49   5
   8  -1   1   28.08    4.35   1
  -8   1  -1   29.70    4.50   1
  -8   1  -1   37.18    6.43   5
  -9   1  -1   -0.15    3.09   1
   9  -1   1   -0.92    3.03   1
   9   0  -1   78.44    8.44   4
   9   0  -1   59.22    6.49   1
  -9   0   1   59.86    9.16   5
  -9   0   1   63.79    6.56   1
   8   0  -1  340.35   19.72   4
  -8   0   1  343.61   23.04   5
   8   0  -1  329.34   17.31   1
  -8   0   1  334.78   17.42   1
  -7   0   1   39.51   27.98   1
   7   0  -1   31.07   24.38   4
   7   0  -1   40.18   32.74   1
  -7   0   1   27.01    5.63   5
  -6   0   1  967.52   45.81   5
  -6   0   1  795.16   57.27  10
   6   0  -1  863.46   35.79   1
   6   0  -1  933.36   40.36   4
  -6   0   1  878.02   35.84   1
   6   0  -1  942.21   60.70  10
   5   0  -1   10.82    2.20   1
  -5   0   1    9.66    6.30  10
  -5   0   1   11.97    2.35   1
  -5   0   1   13.18    3.59   5
   5   0  -1    8.83    2.52   4
   4   0  -1 1570.96   58.00   1
  -4   0   1 1641.55   71.90   5
  -4   0   1 1642.38   64.55   4
  -4   0   1 1581.15   57.98   1
   4   0  -1 1346.51   83.33   5
  -4   0   1 1611.75   76.06  10
   4   0  -1 1567.32   75.54  10
   4   0  -1 1591.04   64.88   4
  -3   0   1  200.24   17.71  10
   3   0  -1  188.13   11.33   5
   3   0  -1  206.39   10.67   2
  -3   0   1  213.96   10.10   4
  -3   0   1  212.79    9.15   1
   3   0  -1  216.12   18.38  10
  -3   0   1  204.54    9.05   1
   3   0  -1  212.73   10.32   4
  -3   0   1  197.25   10.46   6
   3   0  -1  208.66    9.08   1
  -3   0   1  234.34   12.18   5
   3   0  -1  202.07    9.04   1
   2   0  -1 1605.01   71.05   4
   2   0  -1 1675.07   87.70   1
   2   0  -1 1826.62   93.74   1
  -2   0   1 1554.38  114.68   6
   2   0  -1 1613.94  180.60   5
  -2   0   1 1699.91  129.41   5
  -2   0   1 1598.28   92.48   4
   2   0  -1 1794.68   80.08  10
  -2   0   1 1558.31   86.94   1
  -1   0  -1  103.78    4.94   5
   1   0   1   86.58    4.79   5
  -1   0  -1  102.07    5.00   6
  -1   0  -1   93.33    4.39   1
   1   0   1  102.96    5.37   2
   1   0   1   93.23    4.38   1
   1   0   1   99.28    4.43   1
  -1   0  -1   96.43    9.15  10
   1   0   1  100.17    9.40  10
   1   0   1   99.67    5.04   6
  -1   0  -1  107.18    5.49   2
  -1   0  -1   96.63    4.43   1
   2   0   1   44.99    2.86   1
   2   0   1   42.10    2.74   1
  -2   0  -1   46.47    3.75   2
   2   0   1   36.05    6.79  10
   2   0   1   42.91    3.55   2
  -2   0  -1   37.24    3.15   6
  -2   0  -1   40.96    3.06   5
   2   0   1   37.57    3.34   6
   2   0   1   43.47    2.95   5
  -2   0  -1   45.57    2.92   1
  -2   0  -1   38.32    2.65   1
  -2   0  -1   48.43    8.07  10
   3   0   1    3.78    1.28   4
   3   0   1    7.85    1.82   2
  -3   0  -1    0.02    3.56  10
   3   0   1    9.19    2.32   6
  -3   0  -1    6.38    1.53   5
   3   0   1    6.75    1.55   1
   3   0   1    5.01    1.28   1
  -3   0  -1    4.41    2.67   2
  -3   0  -1    8.50    1.95   6
  -3   0  -1    4.50    1.45   1
   3   0   1    6.39    1.44   5
  -3   0  -1    4.05    1.25   1
   3   0   1    7.78    4.78  10
   4   0   1   73.33    7.35   1
   4   0   1   60.92    7.78   5
   4   0   1   86.67    8.24   4
   4   0   1   81.21   14.08  10
   4   0   1   67.87    8.32   6
  -4   0  -1   98.98   15.30  10
  -4   0  -1   77.67    5.12   1
  -4   0  -1   82.53    6.88   5
   5   0   1   65.47   93.45   1
   5   0   1   29.83  103.55  10
  -5   0  -1   49.93   33.82   5
  -5   0  -1   54.50   87.03   1
  -5   0  -1   70.99  104.82  10
   5   0   1   46.78   48.55   6
   5   0   1   44.34   98.60   4
  -6   0  -1   25.39    3.86   1
  -6   0  -1   26.52    4.62   5
   6   0   1   34.25    4.17   1
   6   0   1   26.44    3.86   4
   6   0   1   41.12   12.28  10
   7   0   1   41.66    5.28   1
   7   0   1   44.41    5.40   4
  -7   0  -1   50.53    6.94   5
  -7   0  -1   50.64    5.53   1
   8   0   1    6.38    2.58   1
  -8   0  -1   11.16    2.97   1
   8   0   1   10.31    3.30   4
  -9   1   1   46.01   10.33   5
  -9   1   1   36.54    5.49   1
   9  -1  -1   27.60    5.44   1
  -8   1   1  162.21   14.26   5
   8  -1  -1  185.13   11.54   1
   8  -1  -1  188.29   13.13   4
  -8   1   1  181.83   11.43   1
   7  -1  -1   88.63    9.20   4
  -7   1   1   75.56   13.52   1
   7  -1  -1   91.86   15.06   1
   7  -1  -1   65.96    5.26   7
  -7   1   1   82.73    8.56   5
  -6   1   1  127.36    7.95   1
   6  -1  -1  125.20    7.97   1
  -6   1   1  148.97   11.13   5
   6  -1  -1  144.59    9.38   4
   6  -1  -1  110.92   18.79  10
   6  -1  -1  133.38    7.68   7
  -6   1   1  117.20   19.35  10
  -5   1   1   79.27   14.41  10
   5  -1  -1   49.66   11.85  10
  -5   1   1   65.28    4.82   1
   5  -1  -1   69.53    5.05   1
  -5   1   1   63.94    6.26   5
   5  -1  -1   59.79    5.16   4
  -4   1   1   29.88    3.86   5
   4  -1  -1   32.86    3.47   4
   4  -1  -1   30.86    3.71   2
   4  -1  -1   32.68    8.63  10
   4  -1  -1   31.70    2.87   1
  -4   1   1   34.38    2.91   1
  -4   1   1   28.23    7.66  10
  -4   1   1   33.24    3.03   4
   4  -1  -1   30.95    2.54   7
   3  -1  -1    1.77    1.20   4
   3  -1  -1    2.22    0.79   1
  -3   1   1    1.90    3.05  10
   3  -1  -1    1.40    1.06   1
  -3   1   1    5.77    1.28   1
   3  -1  -1    0.91    1.44   5
   3  -1  -1    3.59    0.85   7
   3  -1  -1    8.08    3.79  10
   2  -1  -1    4.92  401.12   2
  -2   1   1   15.23  434.00   4
   2  -1  -1   20.89  502.58   7
  -2   1   1  155.51  239.69  10
   2  -1  -1  318.39  316.08   1
   2  -1  -1   41.55  897.17   5
  -1   1   1  154.03   10.39  10
   1  -1  -1  129.67    7.22   5
   1  -1  -1  133.40    5.63   1
  -1   1   1  145.36    7.33   5
   1  -1  -1  141.63    5.71   1
  -1   1   1  143.15    5.69   1
  -1   1   1  136.48    5.65   1
   0  -1  -1   72.31    7.00  10
   0  -1  -1   59.52    3.08   5
   0   1   1   67.17    2.96   1
   0  -1  -1   52.14    3.80   3
   0  -1  -1   50.20    2.81   1
   0   1   1   61.69    2.95   2
  -1  -1  -1  309.05   18.96  10
  -1  -1  -1  291.26   11.67   1
  -1  -1  -1  315.99   15.00   3
   1   1   1  305.37   13.52   2
   1   1   1  276.13   11.66   1
   1   1   1  311.62   18.89  10
   1   1   1  293.34   11.67   1
  -1  -1  -1  313.86   13.63   6
  -1  -1  -1  288.41   11.70   1
   1   1   1  303.93   13.57   6
   2   1   1  193.56   12.47   1
  -2  -1  -1  201.62   14.58   1
  -2  -1  -1  241.43   13.63   1
   2   1   1  249.04   18.90  10
  -2  -1  -1  231.26   11.10   5
   2   1   1  201.94   25.98   5
   2   1   1  227.20   19.79   2
   2   1   1  268.78   11.40   1
   2   1   1  176.27   24.19   3
  -2  -1  -1  204.92   12.50   6
  -2  -1  -1  231.03   18.49  10
  -3  -1  -1  277.85   11.79   1
  -3  -1  -1  263.32   11.62   1
   3   1   1  273.19   17.15   4
  -3  -1  -1  272.57   23.58  10
   3   1   1  322.11   24.98  10
   3   1   1  235.64   13.57   2
  -3  -1  -1  268.00   13.66   6
  -3  -1  -1  300.99   14.32   5
   3   1   1  267.94   11.64   1
   3   1   1  229.81   12.82   5
   3   1   1  255.70   13.71   6
  -4  -1  -1  164.72   10.51   5
   4   1   1  154.73   30.49   1
   4   1   1  131.80   86.59   5
  -4  -1  -1  155.66   19.56  10
   4   1   1  145.14   28.13   4
  -4  -1  -1  153.91    9.62   1
   4   1   1  155.24   58.49  10
   4   1   1  156.66   46.02   6
  -5  -1  -1  116.58   61.93   1
  -5  -1  -1  137.61   72.26  10
   5   1   1  103.34   68.46   4
   5   1   1  108.98   67.47  10
   5   1   1   89.91   15.39   5
   5   1   1  109.04   39.91   6
  -5  -1  -1  115.72    9.13   5
   5   1   1  123.11   65.39   1
  -6  -1  -1   42.98    4.39   1
   6   1   1   44.19    5.12   4
   6   1   1   41.01    6.25   6
   6   1   1   19.20    9.47  10
  -6  -1  -1   42.67    6.01   5
   6   1   1   36.97    4.16   1
   7   1   1   59.17    6.29   4
   7   1   1   39.42    4.76   1
  -7  -1  -1   45.79    5.03   1
  -7  -1  -1   48.60    6.94   5
  -8  -1  -1   -2.15    2.44   1
   8   1   1    0.44    2.70   4
   9  -2  -1   35.84    5.62   1
  -9   2   1   49.23    6.04   1
  -9   2   1   33.82    7.11   5
   7  -2  -1   36.82    5.11   4
  -7   2   1   41.86    6.09   5
   7  -2  -1   34.03    3.58   7
  -6   2   1    8.65    2.57   1
  -6   2   1    3.36    6.28  10
  -6   2   1    1.11    2.85   5
   6  -2  -1    2.81    2.59   4
   6  -2  -1    3.86    1.55   7
   6  -2  -1    9.26    7.12  10
   6  -2  -1   -0.28    2.10   1
  -5   2   1   26.02    2.94   1
   5  -2  -1   24.76    2.68   7
  -5   2   1   28.80    4.53   5
  -5   2   1   28.66    8.75  10
   5  -2  -1   21.68    8.35  10
   5  -2  -1   27.03    3.00   1
   4  -2  -1   76.43   82.33  10
  -4   2   1   78.42   29.56   5
   4  -2  -1   65.15   46.85   7
  -4   2   1   77.93  106.68   4
  -4   2   1   82.16    4.91   1
  -4   2   1   75.75   12.27  10
   4  -2  -1   68.16   36.48   1
   4  -2  -1   81.06   55.80   2
   3  -2  -1   23.73    2.06   1
   3  -2  -1   20.09    6.13   1
   3  -2  -1   20.26    5.70  10
  -3   2   1   20.32    1.95   1
  -3   2   1   21.08    5.20   1
   3  -2  -1   25.85    2.93   2
  -3   2   1   26.45    3.35   5
   3  -2  -1   20.69    3.04   5
   3  -2  -1   20.72    2.05   7
  -3   2   1   23.20    2.36   2
  -3   2   1   14.53    7.10  10
  -3   2   1   21.14    2.17   4
  -2   2   1  536.71   29.07  10
  -2   2   1  538.55   20.88   1
  -2   2   1  592.30   23.63   2
  -2   2   1  526.77   23.86   7
   2  -2  -1  556.79   20.98   1
   2  -2  -1  512.22   26.13   5
   2  -2  -1  564.66   20.94   1
  -2   2   1  595.41   26.46   5
   2  -2  -1  564.38   24.12   2
  -2   2   1  527.56   20.78   1
   2  -2  -1  580.39   24.06   7
  -1   2   1   34.19    2.21   2
  -1   2   1   43.95    3.31   5
   1  -2  -1   42.98    2.30   1
   1  -2  -1   34.37    2.04   2
  -1   2   1   40.74    2.27   1
   1  -2  -1   31.66    4.90  10
  -1   2   1   37.09    2.49   8
  -1   2   1   37.79    5.44  10
   1  -2  -1   35.49    2.20   1
   1  -2  -1   42.55    3.31   5
  -1   2   1   37.55    2.20   1
  -1   2   1   39.28    2.77   7
   0  -2  -1 1756.84   63.39   1
   0  -2  -1 1686.99   63.43   1
   0   2   1 1727.28   63.34   1
   0  -2  -1 1813.31   82.41   3
   0   2   1 1784.53   70.56  10
   0   2   1 1638.66   81.98   3
   0  -2  -1 1697.85   77.01   5
   0   2   1 1832.21   63.56   1
   0  -2  -1 1723.87   69.21  10
   0  -2  -1 2022.91   99.87  11
   1   2   1   26.75    2.17   9
   1   2   1   30.82    5.74  10
   1   2   1   34.93    3.19   6
  -1  -2  -1   27.15    5.67  10
  -1  -2  -1   29.56    3.13   3
  -1  -2  -1   30.05    3.16   6
  -1  -2  -1   30.04    2.20   1
   1   2   1   30.61    2.10   1
  -1  -2  -1   29.43    2.09   1
   1   2   1   22.84    2.73   3
   1   2   1   32.07    2.25   1
   2   2   1  460.40   29.58   3
   2   2   1  537.71   21.88   6
   2   2   1  441.88   22.50   2
  -2  -2  -1  446.37   21.72   1
   2   2   1  549.11   30.52  10
  -2  -2  -1  407.92   30.11   9
  -2  -2  -1  445.22   28.95  10
   2   2   1  462.78   22.76   1
   2   2   1  477.93   18.84   1
   2   2   1  437.42   30.02   5
  -2  -2  -1  450.26   18.68   1
  -2  -2  -1  480.71   22.99   6
  -3  -2  -1    8.28   10.57   1
   3   2   1    8.32    2.87   1
   3   2   1    7.62   23.86   6
  -3  -2  -1   24.57   10.97  10
   3   2   1    6.34    2.00   3
  -3  -2  -1    8.50   31.28   1
   3   2   1   23.85   40.26  10
  -3  -2  -1    7.27    0.93   9
   3   2   1    8.99    1.34   5
   3   2   1    8.57   59.07   4
  -4  -2  -1  134.62   18.16  10
   4   2   1  122.38   20.98   6
   4   2   1  116.26    9.19   3
  -4  -2  -1  113.65    6.78   1
   4   2   1  132.98   15.11   4
   4   2   1  114.13   30.35   5
   4   2   1  110.94    8.57   1
   4   2   1  115.01   16.78  10
   5   2   1    0.39    1.20   5
   5   2   1    3.77    3.34   6
   5   2   1   -2.29    4.05   1
  -5  -2  -1   -2.21    3.22   1
   5   2   1    1.07    5.41   4
  -5  -2  -1    4.28    5.36  10
   6   2   1   29.18    4.87   6
   6   2   1   28.80    4.54   4
  -6  -2  -1   30.38    4.11   1
  -7  -2  -1   15.24    3.57   1
   7   2   1   14.86    3.49   1
   7   2   1   17.37    5.00   6
   8   2   1   20.36    4.17   1
   9  -3  -1   30.26    4.98   1
  -9   3   1   24.44    7.89   5
  -9   3   1   26.19    4.42   1
   8  -3  -1    8.58    3.17   1
  -8   3   1    4.62    3.74   5
  -8   3   1    5.12    2.63   1
   7  -3  -1   56.12    5.43   1
   7  -3  -1   73.55    5.41   7
  -7   3   1   52.45    5.26   1
  -7   3   1   60.37    7.81   5
  -6   3   1   -1.10    4.35  10
   6  -3  -1    7.30    7.40  10
   6  -3  -1    0.99    1.47   7
   6  -3  -1    0.43    1.51   1
   5  -3  -1  155.60   20.64  10
  -5   3   1  151.54   14.03   4
  -5   3   1  156.37   66.53   1
   5  -3  -1  162.45   12.47   7
   5  -3  -1  153.44   63.98   1
  -5   3   1  145.31   82.25  10
  -5   3   1  160.27   76.20   5
  -4   3   1   36.79   14.47   5
  -4   3   1   34.55    8.63   4
   4  -3  -1   35.60    6.48   1
  -4   3   1   47.63   10.00  10
  -4   3   1   36.34    3.50   2
   4  -3  -1   38.20    8.05   7
   4  -3  -1   44.88    4.85   2
  -4   3   1   35.04    3.18   1
  -3   3   1  298.34   12.40   1
   3  -3  -1  295.44   12.76   1
  -3   3   1  313.57   14.28   7
  -3   3   1  311.64   16.33   5
  -3   3   1  318.63   23.09  10
   3  -3  -1  274.49   14.83   2
   3  -3  -1  300.74   12.51   1
   3  -3  -1  306.12   14.15   7
  -3   3   1  307.03   14.02   2
   3  -3  -1  262.29   18.60   5
   2  -3  -1   67.38   23.57   2
  -2   3   1  101.07   60.33   7
  -2   3   1   84.20   58.00   2
   2  -3  -1  116.57   92.83   5
  -2   3   1   73.95   36.92   1
   2  -3  -1   75.94   36.51   1
  -2   3   1   72.62    8.99  10
  -2   3   1   91.66   54.97   1
  -2   3   1  106.07   52.95  10
   1  -3  -1  306.83   12.63   1
   1  -3  -1  360.86   18.50   3
   1  -3  -1  331.50   16.43   5
  -1   3   1  326.24   18.80  10
  -1   3   1  358.22   31.01  11
  -1   3   1  332.24   12.66   1
  -1   3   1  369.54   16.54   5
  -1   3   1  335.90   15.33   7
  -1   3   1  317.17   12.66   1
  -1   3   1  319.81   14.34   2
  -1   3   1  309.87   15.72   8
   1  -3  -1  333.34   12.74   1
   0   3   1   80.84    4.10   1
   0   3   1   70.82    8.65  10
   0   3   1   72.07    6.02   3
   0  -3  -1   87.89    8.59  10
   0  -3  -1   82.86    3.97   1
   0  -3  -1   91.45   16.13  11
   0   3   1   83.43    3.94   1
   0   3   1   83.89    5.31   9
   0  -3  -1   82.25    4.13   1
   0  -3  -1   95.87    6.87   3
   0   3   1   92.20    5.15   5
   0  -3  -1   83.39    5.20   5
   1   3   1  158.35   13.18  10
   1   3   1  134.07    9.05   3
  -1  -3  -1  136.58    6.57   1
  -1  -3  -1  133.06   13.35  10
   1   3   1  143.72    7.78   9
   1   3   1  128.22    6.46   1
   1   3   1  153.20    7.41   5
   1   3   1  152.29    6.43   1
  -1  -3  -1  170.46   17.83   3
  -1  -3  -1  152.97    6.44   1
   1   3   1  156.87    8.82   6
   2   3   1   27.46  193.53   5
  -2  -3  -1  100.20  118.26  10
  -2  -3  -1  139.24   83.54   1
   2   3   1   89.93  104.46   1
   3   3   1   11.00    1.75   1
   3   3   1   13.82    5.57  10
  -3  -3  -1   11.71    1.42   9
  -3  -3  -1   11.27    7.28   1
   3   3   1   10.56    2.58   4
  -3  -3  -1    7.80    7.32  10
   3   3   1   12.55    2.78   3
  -3  -3  -1   11.62    1.77   1
   3   3   1   11.78    3.09   6
   3   3   1   13.13    1.74   5
  -4  -3  -1   27.98    9.52  10
   4   3   1   44.90    3.83   1
   4   3   1   43.26   10.65  10
   4   3   1   32.03    3.00   5
  -4  -3  -1   29.18    2.43   9
  -4  -3  -1   39.20    3.75   1
   4   3   1   38.79    5.15   6
   4   3   1   42.54    4.66   4
  -4  -3  -1   42.14    3.60   1
   5   3   1    1.80   31.19   1
   5   3   1    5.12   23.66   6
  -5  -3  -1    2.59   24.03   1
   5   3   1    2.48    1.32   5
   5   3   1   -0.75   22.94   4
  -5  -3  -1   12.73   29.73  10
   5   3   1   -0.35   16.80  10
   6   3   1   63.82    6.63   4
   6   3   1   78.30    6.24   1
   6   3   1   73.79    8.10   6
  -6  -3  -1   74.41    6.23   1
   7   3   1   -2.69    4.76   1
   7   3   1   -1.14    2.59   6
  -7  -3  -1    3.50    2.95   1
   7   3   1    1.85    2.40   4
   8   3   1   71.11    9.64   6
  -8  -3  -1   55.80    6.38   1
   8   3   1   66.84    7.98   4
   9  -4  -1   15.54    4.07   1
  -9   4   1   26.70    4.62   1
  -9   4   1   15.80    5.69   5
  -8   4   1   13.87    3.19   1
   8  -4  -1   14.74    3.35   1
  -8   4   1   17.69    5.13   5
   7  -4  -1   70.56    5.68   7
  -7   4   1   60.89    5.54   1
  -7   4   1   66.60    8.21   5
   7  -4  -1   59.77    5.67   1
   6  -4  -1   63.66    5.58   1
  -6   4   1   93.82   17.55  10
  -6   4   1   65.31    5.39   1
   6  -4  -1   59.63    5.16   7
  -6   4   1   68.04    7.47   5
  -5   4   1  108.98    6.66   4
  -5   4   1  109.09   62.13   1
  -5   4   1  108.81    7.28   2
  -5   4   1  135.20   75.05  10
  -5   4   1  109.63   61.55   5
   5  -4  -1  108.99   59.98   1
   5  -4  -1  106.25   13.61   7
   4  -4  -1  134.78    7.14   1
  -4   4   1  148.85    7.34   1
  -4   4   1  141.56   17.27  10
  -4   4   1  144.53   18.30   2
   4  -4  -1  143.57   60.97   7
   4  -4  -1  146.46   44.08   1
  -4   4   1  147.98   62.17   5
  -4   4   1  140.11   41.15   4
   4  -4  -1  122.87    9.23   2
  -3   4   1   85.15    6.64   5
   3  -4  -1   69.15    4.26   1
   3  -4  -1   76.10    5.26   2
   3  -4  -1   77.78    4.58   1
  -3   4   1   71.53    5.10   7
  -3   4   1   80.38    4.49   1
  -3   4   1   79.31    4.96   2
  -3   4   1   77.06   10.94  10
   3  -4  -1   83.77    5.55   7
   2  -4  -1  155.31    9.79   5
  -2   4   1  147.33   13.68  10
  -2   4   1  168.96   14.10  10
   2  -4  -1  163.78    7.75   2
   2  -4  -1  158.63    7.08   1
  -2   4   1  164.73    7.07   1
   2  -4  -1  158.17    7.04   1
  -2   4   1  154.06    8.09   2
  -2   4   1  166.97    9.88   5
  -2   4   1  159.96    6.99   1
  -2   4   1  146.73    8.45   7
   2  -4  -1  180.29   11.70   3
   1  -4  -1    5.26    1.47   5
  -1   4   1    5.54    1.09   2
  -1   4   1    2.33    2.02  10
  -1   4   1    5.76    1.71   5
  -1   4   1    6.97    0.85   1
  -1   4   1    1.33    3.34  11
   1  -4  -1    8.40    2.59   3
  -1   4   1    4.64    1.45   7
   1  -4  -1    6.05    0.87   1
   0   4   1   44.94    3.46   5
   0  -4  -1   41.52    3.76   8
   0   4   1   50.14    4.84   3
   0  -4  -1   43.98    2.62   1
   0  -4  -1   35.27    2.23   1
   0   4   1   31.59    5.97  10
   0   4   1   46.51    3.79   9
   0  -4  -1   49.84   13.82  11
   0  -4  -1   40.03    5.56  10
   0  -4  -1   47.57    4.98   3
   0   4   1   41.97    2.54   1
   0   4   1   34.65    2.15   1
   1   4   1    2.53    0.94   5
  -1  -4  -1    2.31    0.70   1
  -1  -4  -1   13.42    9.06  11
   1   4   1    3.49    2.40  10
   1   4   1    2.27    0.66   1
  -1  -4  -1   -0.49    2.59  10
   1   4   1    2.16    2.10   6
  -1  -4  -1   -2.79    7.76   3
   2   4   1   58.03   16.73   1
  -2  -4  -1   47.56   16.61  10
  -2  -4  -1   82.62   20.28   1
  -2  -4  -1   51.33   13.99   1
   3   4   1   30.37    2.48   5
   3   4   1   34.09   59.14   4
  -3  -4  -1   28.86   14.43   1
   3   4   1   40.45   32.12   6
   3   4   1   27.50    9.19   1
  -3  -4  -1   30.16    3.03   1
   3   4   1   19.40   16.42  10
  -3  -4  -1   24.60   10.44  10
   4   4   1  186.57    9.34   1
   4   4   1  177.29   21.06  10
   4   4   1  140.95    9.54   5
   4   4   1  177.19   11.82   6
  -4  -4  -1  145.37    8.58   9
   4   4   1  181.41   11.19   4
  -4  -4  -1  173.51   22.05  10
  -4  -4  -1  174.79    8.83   1
  -4  -4  -1  195.07    9.47   1
   5   4   1  116.81   18.60  10
  -5  -4  -1  113.28    7.33   1
   5   4   1  104.59    8.60   4
   5   4   1  107.97    7.15   1
   5   4   1   89.17    8.97   6
   6   4   1  145.56   12.36   6
   6   4   1  169.34    9.91   1
   6   4   1  132.79   10.80   4
  -6  -4  -1  158.83    9.70   1
   7   4   1  129.08   11.97   6
   7   4   1  120.21   10.54   4
  -7  -4  -1  122.29    9.05   1
   9  -5  -1   -2.56    3.12   1
  -9   5   1   14.17    5.55   5
  -9   5   1    3.37    3.13   1
  -8   5   1   37.77    4.76   1
  -8   5   1   34.52    6.64   5
   8  -5  -1   24.15    4.22   1
  -7   5   1   36.96   12.46  10
   7  -5  -1   25.25    3.85   1
   7  -5  -1   25.69    5.97   7
  -7   5   1   14.72    6.00   5
  -7   5   1   27.73    3.80   1
  -6   5   1   20.77    8.93  10
  -6   5   1   38.24    4.02   1
  -6   5   1   46.30    7.94   5
   6  -5  -1   37.79    4.26   1
   6  -5  -1   43.56    4.32   7
   5  -5  -1   44.34   16.32   7
  -5   5   1   50.97   15.08   1
   5  -5  -1   48.03   14.83   1
  -5   5   1   39.72    3.92   2
  -5   5   1   43.69   18.22  10
  -5   5   1   40.35   14.19   5
   4  -5  -1    3.05   16.14   2
  -4   5   1    5.38   10.12   2
   4  -5  -1   16.42  114.36   7
  -4   5   1   12.07   22.83   5
  -4   5   1    9.87    5.68  10
   4  -5  -1    5.75   60.81   1
   4  -5  -1   -0.47    5.25   1
   3  -5  -1   16.76   39.57   7
   3  -5  -1    6.35    1.42   2
  -3   5   1   10.09    1.49   1
   3  -5  -1   11.78   64.24   1
   3  -5  -1    9.40    1.54   1
   3  -5  -1   13.63    4.00   3
  -3   5   1    7.59    2.34   2
  -3   5   1   12.33    4.63  10
  -3   5   1   15.68   92.52   5
  -2   5   1   47.81    7.76  10
   2  -5  -1   46.27    2.90   1
   2  -5  -1   41.06    2.73   1
  -2   5   1   42.42    2.71   1
  -2   5   1   36.17    6.58  10
  -2   5   1   46.07    3.84   8
  -2   5   1   44.87    2.80   1
  -2   5   1   49.20    4.77   5
  -2   5   1   44.04    3.74   2
   2  -5  -1   40.72    5.58   3
   1  -5  -1   71.08    5.98   5
  -1   5   1   85.60    9.37  10
  -1   5   1   80.66    5.91   5
  -1   5   1   75.16    4.72   2
  -1   5   1   72.95   16.73  11
  -1   5   1   78.01    3.85   1
   1  -5  -1   73.15    7.30   3
   1  -5  -1   75.42    3.86   1
  -1   5   1   77.22    3.61   1
   1  -5  -1   77.58    3.72   1
   0  -5  -1  332.06   19.09  10
   0  -5  -1  350.49   17.92   8
   0  -5  -1  324.47   12.79   1
   0   5   1  292.38   12.61   1
   0   5   1  353.38   16.96   5
   0   5   1  345.22   13.10   1
   0  -5  -1  349.65   20.12   3
   0   5   1  344.26   17.39   9
   0   5   1  326.90   20.79  10
  -1  -5  -1  440.95   18.03   1
   1   5   1  462.48   17.69   1
   1   5   1  489.57   18.09   1
  -1  -5  -1  478.34   52.80  11
  -1  -5  -1  457.01   28.23  10
   1   5   1  494.16   23.29   6
  -1  -5  -1  491.60  120.16   3
   1   5   1  448.37   22.10   5
   1   5   1  476.59   26.66  10
  -1  -5  -1  458.53   17.76   1
   2   5   1  228.40   67.96   1
  -2  -5  -1  136.25   47.75  11
  -2  -5  -1  214.49   60.57   1
   2   5   1  311.32   49.08  10
  -2  -5  -1  239.38   54.37   1
  -2  -5  -1  155.01   58.89  10
   2   5   1  204.88   88.19   5
   3   5   1  687.45   26.52   1
   3   5   1  666.12   31.91   6
   3   5   1  641.34   30.86   4
  -3  -5  -1  667.06   26.36   1
   3   5   1  648.26   40.59  10
  -3  -5  -1  657.39   43.85  10
  -3  -5  -1  646.73   25.71   1
   4   5   1   28.68    4.62   4
  -4  -5  -1   36.25    3.78   1
   4   5   1   28.33    3.47   1
   4   5   1   31.65    9.33  10
  -4  -5  -1   24.91    9.81  10
  -5  -5  -1  471.73   20.71   1
   5   5   1  454.31   25.44   6
   5   5   1  473.12   20.80   1
   5   5   1  440.82   24.24   4
   6   5   1    5.42    4.27   6
  -6  -5  -1    8.60    2.91   1
   6   5   1    4.61    3.54   4
   7   5   1  171.97   13.72   4
  -7  -5  -1  188.32   11.81   1
   7   5   1  176.13   14.93   6
  -8   6   1   -4.58    3.99   5
   8  -6  -1    6.77    2.72   7
  -8   6   1    2.29    5.73   1
   8  -6  -1    7.73    4.29   1
   7  -6  -1   -2.91    1.97   7
  -7   6   1   -4.26   14.74  10
  -7   6   1   -3.88    2.95   1
  -7   6   1   -2.59    3.96   5
  -6   6   1   26.49    5.02   5
   6  -6  -1   19.58    3.61   1
  -6   6   1   24.41    3.50   1
   6  -6  -1   15.85    3.39   7
  -6   6   1    0.33    5.88  10
  -6   6   1   15.50    2.90   2
  -5   6   1   40.27   44.38  10
  -5   6   1   43.78   27.48   5
   5  -6  -1   39.70   30.63   1
   5  -6  -1   45.36   42.71   7
  -5   6   1   43.81    4.26   2
   5  -6  -1   42.65    6.98   3
  -5   6   1   42.22   33.60   1
   4  -6  -1   20.37    2.73   2
   4  -6  -1   19.57    2.53   1
   4  -6  -1   20.71    2.50   1
  -4   6   1   22.71    2.79   2
  -4   6   1   29.58    8.51  10
  -4   6   1   24.07    4.07   5
   4  -6  -1   25.69    5.22   3
  -4   6   1   23.11    2.50   1
  -4   6   1   14.21    5.95  10
   4  -6  -1   30.56    3.87   7
  -3   6   1  335.03   25.21  10
  -3   6   1  341.08   16.21   2
   3  -6  -1  339.89   15.60   2
   3  -6  -1  329.43   13.88   1
  -3   6   1  339.70   17.77   8
   3  -6  -1  319.78   21.17   3
   3  -6  -1  335.79   14.02   1
  -3   6   1  339.04   13.86   1
  -3   6   1  320.14   18.74   5
  -3   6   1  331.78   25.45  10
  -2   6   1   16.24    7.31   8
  -2   6   1    7.40    5.17   1
  -2   6   1   11.37    9.14  11
  -2   6   1    2.49    7.00   2
  -2   6   1    9.27    5.49  10
   2  -6  -1   12.11    5.83   1
  -2   6   1    3.07    6.66  10
  -1   6   1  678.05   30.17   2
  -1   6   1  684.52   25.80   1
  -1   6   1  768.71   64.55  11
  -1   6   1  710.45   32.49  10
  -1   6   1  703.72   33.28   5
  -1   6   1  669.78   25.34   1
   1  -6  -1  673.81   37.19   3
   1  -6  -1  677.65   25.46   1
  -1   6   1  689.36   35.83  10
   0  -6  -1  311.83   16.60   8
   0   6   1  299.50   18.58  10
   0  -6  -1  264.13   16.50  10
   0   6   1  282.49   11.22   1
   0   6   1  254.89   10.86   1
   0  -6  -1  317.64   19.02   3
   0  -6  -1  270.73   11.00   1
   0   6   1  302.14   15.38   5
  -1  -6  -1  576.58   29.14   8
  -1  -6  -1  545.15   21.12   1
  -1  -6  -1  545.24   30.79  10
   1   6   1  544.31   29.02  10
   1   6   1  540.15   20.82   1
  -1  -6  -1  586.07   31.71   3
   1   6   1  570.82   27.52   6
  -1  -6  -1  560.13   62.56  11
   1   6   1  538.89   26.42   5
   1   6   1  557.34   21.03   1
   2   6   1  631.59   57.01  10
   2   6   1  741.71   33.51   6
   2   6   1  629.14   68.48   5
   3   6   1  201.95   11.04   5
   3   6   1  227.71   14.46   6
  -3  -6  -1  225.57   24.59  10
   3   6   1  211.56   10.52   1
   3   6   1  243.46   14.14   4
   3   6   1  215.68   20.72  10
  -3  -6  -1  221.13   10.71   1
   3   6   1  190.40   11.58   5
  -4  -6  -1  571.45   45.10  10
   4   6   1  606.45   30.53   6
   4   6   1  581.37   29.29   4
  -4  -6  -1  594.86   24.69   1
   4   6   1  550.96   40.06  10
   5   6   1   40.96    6.93   6
  -5  -6  -1   37.88    4.42   1
   5   6   1   39.62    6.11   4
  -6  -6  -1  318.67   16.47   1
   6   6   1  333.28   21.35   6
   6   6   1  312.03   19.69   4
   8  -7  -1   -1.87    4.42   3
  -8   7   1   -0.69    3.54   5
   8  -7  -1    3.60    2.46   7
   8  -7  -1   -6.21    3.57   1
   7  -7  -1   57.72    9.09   3
   7  -7  -1   51.82   15.96   7
  -7   7   1   82.93   18.73   5
  -7   7   1   62.37   12.12   1
   7  -7  -1   65.35   11.38   1
   6  -7  -1   34.40    4.75   7
  -6   7   1   51.63   13.66  10
  -6   7   1   26.38    3.66   2
   6  -7  -1   42.78    7.67   3
   6  -7  -1   35.63    4.41   1
  -6   7   1   36.87    6.60   5
  -6   7   1   30.99    3.93   1
  -5   7   1  123.74    8.41   2
  -5   7   1  114.33   18.28  10
   5  -7  -1  127.37   13.03   3
  -5   7   1  121.57   18.47  10
  -5   7   1  150.76    8.14   1
  -5   7   1  144.47   11.68   5
   5  -7  -1  144.78    8.46   1
   5  -7  -1  132.79   42.90   7
  -4   7   1  410.90   32.23  10
   4  -7  -1  417.89   17.43   1
  -4   7   1  413.62   17.08   1
  -4   7   1  397.16   23.05   5
   4  -7  -1  401.45   26.15   3
  -4   7   1  390.64   19.38   2
  -4   7   1  410.35   32.15  10
  -3   7   1  104.69    6.91   2
  -3   7   1  104.29    5.51   1
   3  -7  -1  111.75    5.83   1
  -3   7   1   99.79    8.42   5
   3  -7  -1   99.42    5.56   1
  -3   7   1  113.34   14.01  10
  -3   7   1  102.93   13.74  10
   3  -7  -1   91.57    9.72   3
  -3   7   1  113.02   25.69  11
   2  -7  -1 1258.71   67.06   3
  -2   7   1 1373.98   61.79   5
  -2   7   1 1354.50   59.00  10
  -2   7   1 1318.70   61.13  10
   2  -7  -1 1331.70   48.41   1
  -2   7   1 1350.92  102.22  11
   2  -7  -1 1247.54   49.76   1
  -2   7   1 1367.36   56.71   2
  -1   7   1    6.80    9.10  11
   1  -7  -1    5.45    0.89   1
  -1   7   1    6.89    1.94   2
  -1   7   1    0.83    1.66  10
  -1   7   1    8.84    2.01   5
  -1   7   1    4.06    0.70   1
   1  -7  -1    6.92    3.93   3
   0   7   1 3283.67  144.82   5
   0  -7  -1 3338.86  149.28   8
   0   7   1 3243.96  135.90   6
  -1  -7  -1   88.15    9.15   3
   1   7   1   77.68    5.88   5
   1   7   1   73.52    3.53   1
   1   7   1   75.75    7.93  10
  -1  -7  -1   87.29   14.73   8
  -1  -7  -1   70.98    3.64   1
   1   7   1   78.49    7.76   6
  -1  -7  -1   66.64    8.02  10
  -1  -7  -1   62.54    3.44   1
   2   7   1 1125.30   54.39  10
   2   7   1 1238.06   54.58   5
   2   7   1 1235.21   54.54   6
  -2  -7  -1 1180.66   44.72   1
  -2  -7  -1 1220.62   60.36  10
   2   7   1 1185.71   53.33   4
  -2  -7  -1 1225.64   59.46   8
   3   7   1  213.34   13.76   4
   3   7   1  205.30   19.36  10
   3   7   1  211.37   14.51   6
   3   7   1  196.69   11.02   5
  -3  -7  -1  178.25   21.89  10
  -3  -7  -1  188.73   10.03   1
   4   7   1  426.85   24.47   6
  -4  -7  -1  397.95   18.68   1
   4   7   1  410.69   32.88  10
   4   7   1  441.19   23.50   4
  -4  -7  -1  398.13   37.86  10
   5   7   1  205.38   14.88   4
   5   7   1  193.94   15.12   6
  -5  -7  -1  198.17   11.48   1
   6   7   1   80.97    8.99   4
  -6  -7  -1   82.56    7.25   1
   6   7   1   80.91    9.98   6
   8  -8  -1  107.75    9.52   7
   8  -8  -1  121.47   14.24   3
   8  -8  -1  118.58    9.55   1
   7  -8  -1   16.19    5.78   3
   7  -8  -1    7.55    3.33   7
  -7   8   1   11.89    4.40   5
   6  -8  -1  379.63   17.84   1
  -6   8   1  374.10   23.83   5
   6  -8  -1  347.63   26.07   3
  -5   8   1  126.89    8.16   2
   5  -8  -1  128.48    7.90   1
  -5   8   1  117.61   11.13   5
   5  -8  -1  126.52   13.19   3
  -4   8   1  519.14   24.61   2
   4  -8  -1  554.33   21.91   1
  -4   8   1  544.52   38.91  10
   4  -8  -1  483.52   31.69   3
  -4   8   1  514.94   28.74   5
  -4   8   1  529.89   21.32   1
  -3   8   1  505.42   33.99  10
   3  -8  -1  496.97   20.55   1
   3  -8  -1  486.06   31.39   3
  -3   8   1  515.26   20.40   1
  -3   8   1  534.89   24.61   2
  -3   8   1  585.25   65.43  11
  -3   8   1  543.22   33.90  10
  -3   8   1  527.35   27.92   5
  -2   8   1  349.60   48.01  11
  -2   8   1  332.21   19.02   5
  -2   8   1  314.70   12.83   1
  -2   8   1  330.59   16.87   2
   2  -8  -1  307.11   12.97   1
  -2   8   1  322.14   23.72  10
  -2   8   1  335.77   21.92  10
   2  -8  -1  331.32   22.53   3
  -1   8   1  955.27   42.03   2
   1  -8  -1  942.88   51.37   3
  -1   8   1  935.36   45.48   5
  -1   8   1 1004.50   88.93  11
   0   8   1   99.64    7.47   5
   0  -8  -1   97.79    8.68   8
   0   8   1  102.85    9.15   6
   0   8   1   91.76    6.95   2
   0  -8  -1   83.64    9.93   3
  -1  -8  -1  909.05   49.16   3
   1   8   1  879.51   41.98   5
  -1  -8  -1  932.22   45.94   8
   1   8   1  843.59   42.14   6
  -2  -8  -1    6.41    1.06   1
   2   8   1    7.35    1.99   5
  -3  -8  -1  397.13   17.69   1
  -3  -8  -1  450.84   27.35   8
   3   8   1  436.93   23.98   4
   3   8   1  434.79   24.67   6
   3   8   1  399.65   27.95  10
   4   8   1   31.84    6.60   6
  -4  -8  -1   34.61    3.98   1
   4   8   1   32.81    5.47   4
  -5  -8  -1  104.22    7.93   1
   5   8   1  127.04   12.44   6
   5   8   1  131.05   11.85   4
   7  -9  -1  251.14   21.38   3
  -7   9   1  240.85   18.78   5
   7  -9  -1  231.18   13.57   1
  -6   9   1   26.91    6.08   5
  -5   9   1  567.20   32.83   5
   5  -9  -1  610.31   24.90   1
   5  -9  -1  574.81   36.65   3
  -4   9   1  193.29   21.95  10
   4  -9  -1  187.52   17.17   3
  -4   9   1  204.84   40.70  11
   4  -9  -1  204.13    9.99   1
  -4   9   1  193.76   14.42   5
   3  -9  -1  687.63   27.93   1
  -3   9   1  791.22   38.17   5
  -3   9   1  731.54   43.98  10
  -3   9   1  741.83   33.52   2
   3  -9  -1  704.93   42.43   3
  -3   9   1  706.85   78.10  11
  -2   9   1  573.26   29.39   5
  -2   9   1  463.23   61.83  11
   2  -9  -1  514.39   33.17   3
  -2   9   1  565.33   26.21   2
  -2   9   1  519.06   31.82  10
   1  -9  -1  490.55   31.40   3
  -1   9   1  491.43   26.21   5
  -1   9   1  503.51   24.16   2
   0   9   1 1017.38   47.90   2
   0  -9  -1 1174.09   59.72   3
   0   9   1 1069.55   51.14   5
   0   9   1 1067.87   50.92   6
   1   9   1  143.72   11.97   6
  -1  -9  -1  142.75   12.13   8
  -1  -9  -1  135.64   13.71   3
   1   9   1  125.52    9.35   5
   2   9   1  352.89   22.74   6
   2   9   1  414.34   23.02   4
  -2  -9  -1  426.66   26.07   8
  -3  -9  -1    2.62    4.35   8
   3   9   1    3.50    3.73   4
   4   9   1  153.36   13.76   6
  -4  -9  -1  157.60   15.57   8
   4   9   1  145.95   12.84   4
   6 -10  -1  337.30   16.40   1
   6 -10  -1  321.97   25.66   3
  -6  10   1  323.90   22.70   5
  -5  10   1    9.04    4.36   5
   5 -10  -1   13.28    2.61   1
   5 -10  -1   13.41    5.80   3
  -4  10   1  441.07   26.16   5
   4 -10  -1  422.27   18.41   1
   4 -10  -1  460.50   30.75   3
   3 -10  -1   18.84    6.01   3
  -2  10   1  387.30   22.32   5
   2 -10  -1  356.00   26.12   3
  -1  10   1   68.89    8.54   6
   1 -10  -1   57.53    9.08   3
  -1  10   1   62.16    6.46   5
  -1  10   1   53.88    5.64   2
   0  10   1  290.63   16.91   2
   0 -10  -1  304.49   23.42   3
   0  10   1  303.02   19.82   6
   0  10   1  304.98   17.68   5
  -1 -10  -1   76.47    8.96   8
   1  10   1   69.02    7.16   2
   1  10   1   76.41    8.56   4
  -1 -10  -1   59.35    9.74   3
   1  10   1   92.42    9.78   6
  -2 -10  -1   47.08    7.63   8
   2  10   1   45.55    6.84   4
   2  10   1   43.76    7.40   6
   3  10   1   38.78    6.43   4
   3  10   1   51.38    7.91   6
  -3 -10  -1   40.86    8.15   8
   5 -11  -1  178.16   18.29   3
  -5  11   1  186.44   15.52   5
   4 -11  -1   18.58    5.99   3
  -3  11   1  189.96   14.51   5
   3 -11  -1  185.26   17.90   3
  -2  11   1   30.16    6.12   5
  -1  11   1  129.73   10.16   5
  -1  11   1  107.15   11.59   6
   1 -11  -1   92.75   12.83   3
   0 -11  -1   -2.36    4.00   3
   0  11   1    6.21    4.09   6
   0  11   1    4.72    2.23   4
   1  11   1   50.39    7.87   6
   1  11   1   40.21    6.47   4
  -1 -11  -1   38.12    8.12   3
   2  11   1    4.13    4.44   6
  -2 -11  -1    2.05    4.19   8
  -3  12   1   21.94    5.10   5
  -2  12   1   46.41    6.75   5
  -2  12   1   29.36    7.01   6
   1  12  -2    5.39    2.62   6
   1  12  -2    3.43    2.10   2
   0  12  -2   13.29    3.40   2
   0  12  -2    7.95    3.00   6
   0  12  -2    6.62    2.73   5
  -1  12  -2   -0.68    1.80   2
  -1  12  -2    0.70    1.74   6
  -1  12  -2    5.17    2.69   4
   1 -12   2    4.12    4.95   3
  -1  12  -2    0.07    3.75   5
  -2  12  -2    5.42    3.85   5
   2 -12   2    5.50    4.98   3
  -3  12  -2    7.09    4.38   5
   3  11  -2   -9.31    6.12   2
   3  11  -2    4.23    3.64   4
   2  11  -2   -1.13    1.57   6
   2  11  -2   -1.33    1.75   2
   1  11  -2    5.56    2.42   5
   1  11  -2    1.12    1.84   2
   1  11  -2    1.70    1.86   4
   0  11  -2    1.23    1.37   2
   0  11  -2    5.65    2.30   6
   0  11  -2    1.89    1.85   5
   0  11  -2    1.47    1.57   4
  -1  11  -2   30.52    5.12   6
  -1  11  -2   37.42    5.22   2
  -1  11  -2   34.21    4.64   4
   1 -11   2   40.17    7.96   3
  -2  11  -2   32.75   19.87   2
  -2  11  -2   23.90   17.11   5
   2 -11   2   48.19   17.28   3
  -2  11  -2   12.98   24.53   4
   3 -11   2   87.02   10.96   3
  -3  11  -2   79.33    8.71   2
  -3  11  -2   97.31   10.44   5
   4 -11   2   -0.19    3.16   7
   4 -11   2   -0.48    3.81   3
  -4  11  -2   -0.27    3.24   5
   5 -11   2  128.02   11.36   7
   5 -11   2  104.21   12.10   3
  -5  11  -2  105.50   11.63   5
   4  10  -2   -4.24    3.64   4
  -4 -10   2    4.31    4.86   8
   4  10  -2    2.66    3.29   6
   3  10  -2   36.34    5.78   4
  -3 -10   2   33.41    7.18   8
   2  10  -2    0.87    1.59   6
   2  10  -2    6.72    2.58   2
  -2 -10   2    8.50    4.58   8
   2  10  -2   -3.50    2.88   4
   1  10  -2   96.99    8.62   2
   1  10  -2   94.61    8.46   6
   1  10  -2  100.47    9.29   5
   1  10  -2   87.89    7.85   4
   0  10  -2   37.67    5.03   2
   0  10  -2   32.11    4.83   6
   0  10  -2   36.06    5.41   5
   0  10  -2   38.07    4.61   4
  -1  10  -2  148.36    9.98   4
  -1  10  -2  150.25   11.14   2
  -1  10  -2  164.84   13.13   5
   1 -10   2  159.61   14.49   3
  -1  10  -2  164.84   11.93   6
  -2  10  -2  107.87   14.60   5
   2 -10   2  146.27   30.52   3
  -2  10  -2  119.12   18.30   2
  -2  10  -2  123.05   40.73   4
   3 -10   2  139.37   11.17   7
  -3  10  -2  133.50   11.54   2
   3 -10   2  154.54   13.80   3
  -3  10  -2  145.19   12.70   5
   4 -10   2  202.93   16.55   3
  -4  10  -2  190.25   15.47   5
   4 -10   2  222.96   14.98   7
   4 -10   2  188.28   10.05   1
  -4  10  -2  224.13   15.24   2
   5 -10   2   67.10    7.93   7
   5 -10   2   57.42    5.09   1
   5 -10   2   52.13    8.00   3
  -5  10  -2   62.94    7.68   2
  -5  10  -2   61.30    8.75   5
   6 -10   2  218.43   12.32   1
   6 -10   2  225.32   16.02   7
   6 -10   2  227.71   17.61   3
  -6  10  -2  198.99   17.29   5
  -5  -9   2    6.83    5.05   8
   5   9  -2    8.33    3.55   4
   5   9  -2   10.44    3.92   6
   4   9  -2   17.99    4.64   6
   4   9  -2   34.03    5.67   4
  -4  -9   2   22.58    4.38   9
   3   9  -2    3.86    3.26   4
  -3  -9   2    7.49    4.38   8
   3   9  -2   17.22    4.69   6
  -3  -9   2   10.40    3.41   9
  -2  -9   2  123.79   11.66   8
   2   9  -2  122.54    9.83   4
   2   9  -2  139.68   10.94   5
   2   9  -2  123.92    9.81   6
  -2  -9   2  135.22   10.79   9
   1   9  -2    1.94    1.39   4
  -1  -9   2   -3.72    3.16   9
   1   9  -2    1.03    1.54   6
   1   9  -2    1.52    1.55   2
   0   9  -2  612.68   29.20   4
   0   9  -2  537.51   67.65  11
   0   9  -2  623.81   33.43   5
   0   9  -2  645.87   30.98   2
   0   9  -2  643.61   30.71   6
   0  -9   2  667.23   37.30   3
  -1   9  -2   30.19    4.24   2
  -1   9  -2   30.86    3.92   4
   1  -9   2   26.56    5.84   3
  -1   9  -2   56.04   20.87  11
  -1   9  -2   42.45    6.13   5
  -2   9  -2  564.89   71.41  11
  -2   9  -2  563.64   31.36   5
  -2   9  -2  565.41   26.15   4
  -2   9  -2  571.79   29.30   2
   2  -9   2  583.32   33.98   3
   2  -9   2  613.76   29.76   7
   3  -9   2  111.51   12.23   1
  -3   9  -2  122.62   10.69   2
   3  -9   2  110.80   11.14   3
  -3   9  -2  129.55   11.31   5
  -3   9  -2  109.98   13.26  10
  -3   9  -2  120.33    7.20   4
   3  -9   2  127.75   33.42   7
   4  -9   2  452.25   24.16   7
  -4   9  -2  415.87   25.95   5
   4  -9   2  454.39   27.21   3
   4  -9   2  406.26   18.43   1
  -4   9  -2  446.68   24.63   2
   5  -9   2  191.49   10.79   1
   5  -9   2  203.22   15.94   3
  -5   9  -2  194.85   14.13   2
  -5   9  -2  226.35   16.72   5
   5  -9   2  206.28   14.15   7
   6  -9   2  149.10    9.76   1
   6  -9   2  176.12   12.91   7
  -6   9  -2  162.47   12.63   2
   6  -9   2  156.75   13.81   3
  -6   9  -2  157.22   14.12   5
  -7   9  -2  184.71   16.69   5
   7  -9   2  188.46   12.01   1
   7  -9   2  214.29   15.02   7
  -7   9  -2  191.17   14.51   2
   6   8  -2   56.41    7.75   6
  -5  -8   2   32.62    7.21   8
   5   8  -2   34.30    5.56   4
   5   8  -2   32.13    5.72   6
  -4  -8   2  158.83   11.45   9
  -4  -8   2  172.36   14.52   8
   4   8  -2  139.84   11.31   6
   4   8  -2  166.33   11.90   4
  -3  -8   2  263.40   18.37   8
   3   8  -2  234.15   15.41   6
   3   8  -2  255.36   15.43   4
  -3  -8   2  256.94   15.89   9
  -2  -8   2  319.80   19.90   8
  -2  -8   2  291.20   17.65   9
   2   8  -2  287.79   16.59   4
   2   8  -2  290.69   16.70   6
   1   8  -2  803.40   35.65   4
  -1  -8   2  752.50   38.65   9
   1   8  -2  804.61   36.80   2
  -1  -8   2  807.22   40.95   8
   1   8  -2  719.86   35.82   6
   1   8  -2  816.54   39.78   5
   0   8  -2  372.51   19.29   2
   0   8  -2  368.51   19.37   6
   0  -8   2  372.97   20.96   9
   0  -8   2  380.44   23.67   3
   0   8  -2  316.68   46.92  11
   0   8  -2  347.19   17.97   4
   0   8  -2  368.45   21.04   5
  -1   8  -2 1427.78   67.03   5
  -1   8  -2 1428.16   59.20   4
   1  -8   2 1405.56   71.15   3
  -1   8  -2 1427.69   61.98   2
  -1   8  -2 1311.01  111.04  11
   1  -8   2 1438.84   62.80   7
  -2   8  -2   40.09    5.37   5
  -2   8  -2   37.31   16.21   2
  -2   8  -2   26.58   17.44   4
  -2   8  -2   24.47    7.24   1
  -2   8  -2   36.27   16.75  10
   2  -8   2   30.46   11.20   1
  -2   8  -2   28.34    5.37  10
   3  -8   2 1246.60   49.33   1
  -3   8  -2 1373.88   54.71   4
  -3   8  -2 1402.43   60.63   2
  -3   8  -2 1267.71   65.34  10
   3  -8   2 1383.27   59.86   7
  -3   8  -2 1313.46   49.33   1
   3  -8   2 1307.67   66.84   3
  -3   8  -2 1333.84   64.03   5
  -4   8  -2   31.43    3.24   1
   4  -8   2   32.87    5.06   7
  -4   8  -2   30.79    2.52   4
   4  -8   2   33.77    3.47   1
   4  -8   2   44.40    6.36   3
   5  -8   2  734.57   41.10   3
   5  -8   2  783.14   37.32   7
  -5   8  -2  792.03   37.98   2
   5  -8   2  739.88   31.09   1
  -5   8  -2  749.49   40.67   5
   6  -8   2  109.67    8.25   1
   6  -8   2  133.36   10.62   7
  -6   8  -2  115.36   10.35   2
   6  -8   2  110.52   10.74   3
  -6   8  -2  120.07   12.05   5
   7  -8   2  225.79   13.30   1
  -7   8  -2  236.69   18.42   5
   7  -8   2  233.27   15.73   7
  -7   8  -2  207.14   15.58   2
   6   7  -2    2.38    3.43   4
  -6  -7   2   -1.91    2.03   1
   6   7  -2    4.99    3.65   6
  -5  -7   2  281.57   17.22   9
  -5  -7   2  279.52   19.70   1
   5   7  -2  332.18   18.80   4
   5   7  -2  305.68   18.46   6
   4   7  -2   56.37    6.47   4
   4   7  -2   55.02    6.49   6
  -4  -7   2   52.16    3.89   1
  -4  -7   2   58.42    6.17   9
  -4  -7   2   65.83    8.07   8
  -4  -7   2   46.23    9.90  10
  -3  -7   2  568.21   29.81   1
   3   7  -2  642.91   31.99   6
  -3  -7   2  743.09   37.09   8
   3   7  -2  706.05   32.27   4
  -3  -7   2  726.39   34.02   9
  -2  -7   2  416.39   22.65   9
  -2  -7   2  457.23   24.82   8
   2   7  -2  429.16   21.34   4
   2   7  -2  393.67   21.04   6
  -1  -7   2  912.62   44.81   8
   1   7  -2  908.60   40.59   2
   1   7  -2  902.38   39.37   4
  -1  -7   2  904.20   42.95   9
   1   7  -2  881.26   39.83   6
   1   7  -2  845.79   77.35  11
   0   7  -2 2037.96   88.05   2
   0  -7   2 2096.93  100.62   3
   0   7  -2 1954.30  137.62  11
   0   7  -2 2156.73   95.03   5
   0   7  -2 2065.53   85.30   4
   0  -7   2 2092.78   93.04   9
   0   7  -2 2122.59   86.70   6
   0  -7   2 2093.23   89.13   7
   1  -7   2  501.88   26.68   9
   1  -7   2  539.96   25.57   7
   1  -7   2  492.59   28.81   3
  -1   7  -2  491.58   22.96   4
  -1   7  -2  565.05   27.84   5
  -1   7  -2  497.01   24.78   2
   2  -7   2 1462.62   60.91   1
   2  -7   2 1534.15   67.77  10
  -2   7  -2 1655.04   70.92   2
   2  -7   2 1571.77   59.19   1
   2  -7   2 1701.93   71.06   7
  -2   7  -2 1672.74   75.72   5
  -2   7  -2 1650.77   71.82  10
   2  -7   2 1678.61   79.66   3
  -2   7  -2 1718.72   66.49   4
  -3   7  -2   54.81    3.61   4
   3  -7   2   51.04    9.45  10
   3  -7   2   59.52    4.04   1
   3  -7   2   43.42    3.40   1
  -3   7  -2   49.28   10.03  10
   3  -7   2   61.85    6.77   3
   3  -7   2   48.58    5.51   7
  -3   7  -2   58.17    3.89   1
  -3   7  -2   63.39    6.93   5
  -4   7  -2 1056.99   62.19  10
  -4   7  -2 1133.00   51.22   2
  -4   7  -2 1110.42   42.32   1
   4  -7   2 1151.03   63.11  10
   4  -7   2 1094.45   42.48   1
   4  -7   2 1065.55   50.12   7
  -4   7  -2 1108.64   54.44   5
   4  -7   2 1131.63   56.12   3
   5  -7   2   12.33    2.88   1
  -5   7  -2   12.03    4.77   5
   5  -7   2   29.48   10.26  10
  -5   7  -2   14.31    3.47   1
   5  -7   2   22.58    4.50   3
  -5   7  -2   23.27    4.46   2
  -5   7  -2   16.16    8.47  10
   5  -7   2   17.68    3.59   7
  -6   7  -2  401.39   18.28   1
  -6   7  -2  401.23   40.04  10
  -6   7  -2  385.31   24.25   5
   6  -7   2  351.10   22.76   3
   6  -7   2  385.66   21.59   7
   6  -7   2  403.27   18.68   1
  -6   7  -2  362.06   25.30   2
  -7   7  -2   63.74   13.58   2
   7  -7   2   62.31   26.05   1
   7  -7   2   63.09   23.85   7
  -7   7  -2   70.40   18.22   5
  -7   7  -2   67.38   11.24   1
  -8   7  -2   43.51    6.71   2
   8  -7   2   60.07    7.28   7
  -8   7  -2   59.22    8.90   5
  -8   7  -2   59.63    6.16   1
   8  -7   2   54.35    6.28   1
  -7  -6   2   52.27   12.07   1
   7   6  -2   49.05    7.39   6
   7   6  -2   44.90    7.13   4
   6   6  -2  328.37   19.61   4
  -6  -6   2  331.67   15.56   1
   6   6  -2  309.89   19.46   6
   5   6  -2   45.06    6.03   6
  -5  -6   2   52.49   12.06  10
   5   6  -2   41.60    5.81   4
  -5  -6   2   39.13    3.87   1
   4   6  -2  985.80   43.54   6
  -4  -6   2  880.10   52.26  10
   4   6  -2  996.00   36.38   1
   4   6  -2  979.46   43.32   4
  -4  -6   2  904.08   36.21   1
  -3  -6   2   -1.59    2.93  10
  -3  -6   2    2.78    1.06   1
   3   6  -2    1.73    7.18   4
  -3  -6   2    2.33    2.04  10
  -3  -6   2    0.91    2.37   8
  -3  -6   2   -8.73    9.80  11
   3   6  -2    2.27    0.92   1
   2   6  -2 1720.29   77.95   6
  -2  -6   2 1902.31   87.97   8
   2   6  -2 1956.73   78.59   4
  -2  -6   2 1954.09   84.22   9
  -1  -6   2  195.27   12.67   8
  -1  -6   2  193.79   12.10   9
   1   6  -2  221.64   32.37  11
   1   6  -2  186.20   10.60   4
   1   6  -2  182.77   10.89   6
   0   6  -2 3278.04  192.20  11
   0   6  -2 3236.10  133.48   4
   0   6  -2 3472.76  147.69   5
   0   6  -2 3360.16  134.64   6
   0   6  -2 3286.77  137.49   2
   0  -6   2 3290.90  155.58   3
   0  -6   2 3417.00  139.03   7
   0  -6   2 3241.85  144.46   9
   1  -6   2  490.53   19.29   1
  -1   6  -2  522.46   27.22  10
   1  -6   2  540.44   25.17   7
   1  -6   2  511.43   24.32  10
  -1   6  -2  516.35   19.73   1
  -1   6  -2  560.48   25.28   2
   1  -6   2  526.15   26.50   9
  -1   6  -2  489.51   20.76   1
  -1   6  -2  568.47   27.46   5
   1  -6   2  537.02   28.74   3
   1  -6   2  519.00   19.73   1
  -1   6  -2  553.65   23.14   4
   2  -6   2  868.07   33.63   1
   2  -6   2  928.36   44.42  10
  -2   6  -2  946.08   37.33   4
   2  -6   2  877.99   33.34   1
  -2   6  -2  922.29   41.19   2
  -2   6  -2  929.53   43.89   5
   2  -6   2  904.29   45.50   3
   2  -6   2  901.10   40.74   7
  -2   6  -2  884.77   45.47  10
  -2   6  -2  868.29   33.54   1
  -3   6  -2  574.48   28.26   2
   3  -6   2  551.76   22.31   1
  -3   6  -2  538.42   23.87   4
   3  -6   2  576.06   22.69   1
  -3   6  -2  587.53   29.93   5
   3  -6   2  600.06   30.64   3
   3  -6   2  568.33   27.38   7
   3  -6   2  544.21   36.00  10
  -3   6  -2  565.41   22.49   1
  -3   6  -2  570.54   37.17  10
   4  -6   2  132.32   10.32   3
  -4   6  -2  161.27   20.25  10
  -4   6  -2  140.92    7.75   1
   4  -6   2  154.48   19.70  10
   4  -6   2  132.07    7.56   1
   4  -6   2  140.89    9.82   7
  -4   6  -2  139.69   11.11   5
  -4   6  -2  145.83   10.57   2
   4  -6   2  145.29    8.03   1
   5  -6   2  288.98   60.54  10
   5  -6   2  262.77   16.76   3
  -5   6  -2  266.70   16.53   2
  -5   6  -2  264.94   29.37  10
  -5   6  -2  283.42   17.96   5
   5  -6   2  254.21   15.45   7
  -5   6  -2  274.33   28.88   1
   5  -6   2  268.26   26.98   1
   6  -6   2    5.49   23.84   7
  -6   6  -2   -1.65    2.22   1
   6  -6   2   -0.66    1.93   3
   6  -6   2   -3.86    2.70   1
  -6   6  -2   10.05    8.11  10
  -6   6  -2    6.19    2.89   2
   6  -6   2   -6.75    7.89  10
  -6   6  -2    2.47    3.81   5
  -7   6  -2   73.41    6.67   1
   7  -6   2   64.73    8.05   7
  -7   6  -2   61.47    7.74   2
   7  -6   2   73.13    8.02   1
  -7   6  -2   65.36    9.15   5
   8  -6   2    6.35    3.22   7
   8  -6   2    1.67    3.66   1
  -8   6  -2    2.60    3.36   1
   7   5  -2  132.03   11.86   6
   7   5  -2  145.66   12.06   4
  -7  -5   2  141.57    9.21   1
   6   5  -2  293.13   17.62   4
  -6  -5   2  296.87   13.97   1
   6   5  -2  252.72   16.93   6
  -5  -5   2  661.66   45.69  10
   5   5  -2  650.00   30.93   4
  -5  -5   2  613.87   25.59   1
   5   5  -2  606.85   25.49   1
   5   5  -2  631.13   30.83   6
  -4  -5   2  275.24   24.07  10
   4   5  -2  262.91   11.25   1
   4   5  -2  231.41   13.94   6
   4   5  -2  244.89   14.27   4
  -4  -5   2  248.93   11.14   1
  -4  -5   2  178.73   33.00  11
   3   5  -2 1527.08   64.30   7
   3   5  -2 1594.74   64.31   4
  -3  -5   2 1509.66   57.21   1
   3   5  -2 1587.54   55.42   1
  -3  -5   2 1397.82  105.67  11
  -3  -5   2 1608.05   68.77  10
  -3  -5   2 1486.93   55.38   1
  -3  -5   2 1437.90   67.48  10
   3   5  -2 1469.31   63.96   6
  -2  -5   2   31.96   54.89   1
  -2  -5   2   27.27   48.45  10
   2   5  -2   37.40   55.04   1
   2   5  -2   81.32   59.40   7
  -2  -5   2  111.75   52.97   8
   2   5  -2   46.64   80.19   1
   1   5  -2 1968.72   81.92   7
   1   5  -2 1955.21   79.68   4
  -1  -5   2 1968.28   89.48   8
   1   5  -2 2003.00  121.36  11
   1   5  -2 1911.98   79.72   6
  -1  -5   2 1905.78   86.05   9
   0  -5   2  247.00   13.93   9
   0  -5   2  241.49   15.05   3
   0   5  -2  254.03   12.96   2
   0   5  -2  247.91   12.43   6
   0  -5   2  251.38   12.91   7
   0   5  -2  249.59   11.94   4
   1  -5   2 1015.08   48.65   9
  -1   5  -2 1089.70   50.06   5
  -1   5  -2 1000.63   52.14   3
   1  -5   2 1067.19   46.67   7
  -1   5  -2 1058.64   38.63   1
  -1   5  -2 1093.94   39.04   1
   1  -5   2 1132.48   46.29   2
   1  -5   2 1098.51   52.50   3
   1  -5   2 1031.86   38.97   1
  -1   5  -2 1083.95   46.50   2
  -1   5  -2 1080.44   43.80   4
  -1   5  -2 1079.05   48.14  10
   2  -5   2  490.61   24.92   3
  -2   5  -2  499.53   23.34   2
  -2   5  -2  434.65   24.25   4
   2  -5   2  481.43   18.34   1
  -2   5  -2  459.07   18.50   1
  -2   5  -2  480.46   24.38   5
   2  -5   2  501.98   22.57   7
   2  -5   2  410.94   27.48  10
   2  -5   2  421.70   18.93   1
  -2   5  -2  454.06   28.98  10
   3  -5   2  176.09   11.05   7
  -3   5  -2  192.03   18.82   5
  -3   5  -2  190.95   19.56  10
   3  -5   2  188.32    8.90   1
   3  -5   2  176.01   18.92  10
   3  -5   2  200.12   12.20   3
  -3   5  -2  192.41    8.98   1
   3  -5   2  191.38    9.05   1
  -3   5  -2  190.48   12.03   2
   4  -5   2  244.60   19.45   3
  -4   5  -2  312.98   28.59  10
   4  -5   2  257.91   26.11  10
  -4   5  -2  278.14   12.43   1
   4  -5   2  245.13   12.02   1
  -4   5  -2  258.13   16.09   5
   4  -5   2  250.93   17.93   7
   4  -5   2  275.86   12.55   1
  -4   5  -2  257.45   15.46   2
  -5   5  -2    2.98   27.72   2
   5  -5   2   -0.57    5.20   3
  -5   5  -2   -2.38   12.49   5
   5  -5   2    1.74   27.86   1
  -5   5  -2    8.12   41.93  10
   5  -5   2   -2.28   34.86   7
   5  -5   2  -14.03   25.20  10
  -5   5  -2   -0.85   30.71   1
   6  -5   2   46.91   21.21   7
  -6   5  -2   46.59   25.20   2
  -6   5  -2   54.08    5.35   1
  -6   5  -2   36.01   16.91   5
   6  -5   2   36.42   28.07   3
   6  -5   2   61.33    5.78   1
  -6   5  -2   72.47   17.04  10
   6  -5   2   63.68   16.20  10
   7  -5   2   24.03    4.78   7
   7  -5   2   22.85    4.48   1
  -7   5  -2   28.67    5.49   5
  -7   5  -2   28.24    4.60   1
  -7   5  -2   28.48    5.30   2
  -8   5  -2    0.18    3.86   5
  -8   5  -2   -0.99    7.54   1
   8  -5   2   -2.37    2.89   7
  -8  -4   2    7.28   17.52   1
  -7  -4   2  400.11   19.09   1
   7   4  -2  365.54   22.85   6
   7   4  -2  440.41   23.47   4
  -6  -4   2  102.40    7.01   1
   6   4  -2   89.99    8.84   6
   6   4  -2  103.81    7.03   1
   6   4  -2  108.21    9.21   4
  -5  -4   2  632.76   24.45   1
  -5  -4   2  630.81   43.98  10
   5   4  -2  627.31   28.85   4
   5   4  -2  616.06   24.25   1
  -5  -4   2  481.09   57.95  11
   5   4  -2  584.36   28.62   6
   5   4  -2  502.71   31.94   7
  -4  -4   2  429.05   17.23   1
  -4  -4   2  428.43   17.10   1
  -4  -4   2  459.90   32.56  10
   4   4  -2  404.20   18.86   7
   4   4  -2  392.36   20.49   6
  -4  -4   2  313.79   42.02  11
   4   4  -2  421.98   17.14   1
   4   4  -2  420.29   20.72   4
   3   4  -2  532.39   77.66   4
  -3  -4   2  493.77   19.44   1
   3   4  -2  499.02  145.17   6
   3   4  -2  507.34   19.53   1
  -3  -4   2  497.53   30.63  10
  -3  -4   2  449.84   46.57  11
   3   4  -2  504.06   22.28   7
  -3  -4   2  515.90   19.52   1
   2   4  -2  599.69   27.75   1
  -2  -4   2  613.21   27.29   1
  -2  -4   2  653.21   25.62   1
  -2  -4   2  593.24   51.55  11
   2   4  -2  639.70   25.96   1
   2   4  -2  605.08   27.94   7
   2   4  -2  681.62   28.41   6
  -2  -4   2  662.47   32.15  10
  -2  -4   2  654.78   32.14  10
   2   4  -2  742.73   28.83   4
  -2  -4   2  652.95   32.28   8
  -2  -4   2  604.19   29.51   6
  -1  -4   2  175.38    6.68   1
   1   4  -2  169.93   11.39   3
   1   4  -2  179.61    8.97   6
   1   4  -2  172.42   23.30  11
  -1  -4   2  176.40   27.65   7
   1   4  -2  167.58    8.79   7
  -1  -4   2  170.34   18.38   8
   1   4  -2  157.36    6.72   1
  -1  -4   2  175.53   10.47  10
   1   4  -2  184.63    9.18   4
   1   4  -2  168.98    6.65   1
   0   4  -2  647.83   26.16   2
   0  -4   2  545.81   27.31   9
   0   4  -2  587.44   25.49  10
   0  -4   2  583.35   21.02   1
   0   4  -2  558.33   28.07   8
   0  -4   2  568.32   25.81   7
   0   4  -2  588.96   24.53   4
   0   4  -2  573.97   20.99   1
   0   4  -2  569.72   25.66   7
   0   4  -2  531.62   29.19   3
   0  -4   2  609.67   29.64   3
   0   4  -2  520.08   20.93   1
   0   4  -2  629.63   24.93   6
  -1   4  -2    2.35    0.65   1
  -1   4  -2   -0.44    1.52   2
  -1   4  -2    8.11    3.23  10
  -1   4  -2    0.84    0.67   1
  -1   4  -2    2.68    0.80   4
   1  -4   2    5.31    2.70  10
  -1   4  -2    0.05    1.33   3
   1  -4   2    2.59    0.69   1
   1  -4   2    2.72    0.85   1
   1  -4   2    2.69    1.29   2
   1  -4   2    1.68    1.25   3
  -1   4  -2    2.77    2.05   5
   1  -4   2    0.18    1.48   9
   2  -4   2   20.41    2.73   9
  -2   4  -2   24.81    6.19  10
   2  -4   2   17.72    2.79   7
   2  -4   2   21.59    5.95  10
  -2   4  -2   18.46    3.21   5
   2  -4   2   18.59    1.87   1
  -2   4  -2   22.64    2.01   1
   2  -4   2   26.23    3.24   2
  -2   4  -2   20.47    3.36   2
   2  -4   2   18.17    1.94   1
  -2   4  -2   21.48    1.99   1
   2  -4   2   16.01    2.64   3
   3  -4   2   21.27    2.89   3
   3  -4   2   19.65    4.38   1
   3  -4   2   27.84   14.82  10
   3  -4   2   19.52    2.32   1
  -3   4  -2   19.35   34.97   5
   3  -4   2   20.58    3.22   7
  -3   4  -2   26.88    3.16   9
  -3   4  -2   22.23    3.90   2
  -3   4  -2   25.11    6.28   1
  -3   4  -2   32.75    8.36  10
  -4   4  -2   39.56   39.82   2
   4  -4   2   58.83    5.50   7
  -4   4  -2   52.98    4.43   1
   4  -4   2   53.97   50.58  10
   4  -4   2   65.18   75.60   1
  -4   4  -2   36.08   55.13   5
   4  -4   2   61.09  128.91   3
  -4   4  -2   49.40   11.71  10
  -5   4  -2    9.33    3.57   5
   5  -4   2    4.47    2.22   3
  -5   4  -2    5.94    2.44   1
  -5   4  -2    5.91    7.00  10
   5  -4   2   17.01    9.41  10
   5  -4   2    3.18    2.44   1
  -5   4  -2   13.50    3.74   2
   5  -4   2    9.24    2.45   7
   6  -4   2   77.67    6.43   1
  -6   4  -2   70.12   16.77  10
  -6   4  -2   60.90   10.61   5
  -6   4  -2   67.16   11.49   2
  -6   4  -2   67.30    5.93   1
   6  -4   2   53.15   14.75  10
   6  -4   2   69.26   10.75   7
   7  -4   2   -2.26    2.99   1
  -7   4  -2    3.66    3.47   2
  -7   4  -2   -4.11    3.70   5
   7  -4   2   -2.10    2.92   7
  -8   4  -2   40.42    5.46   1
   8  -4   2   41.82    5.74   1
  -8   4  -2   33.37    6.42   5
   8  -4   2   45.78    5.97   7
  -8  -3   2  167.03   10.97   1
   8   3  -2  175.19   11.07   1
   8   3  -2  158.12   12.70   4
  -7  -3   2   33.91    4.65   1
   7   3  -2   28.35    6.54   1
   7   3  -2   18.43   15.05   4
   6   3  -2  300.47   14.33   1
   6   3  -2  284.95   17.38   6
   6   3  -2  291.96   17.07   4
  -6  -3   2  292.67   14.34   1
   5   3  -2   -1.85    2.02   6
  -5  -3   2    0.82    3.69  10
   5   3  -2    0.03    1.23   1
   5   3  -2   -0.01    2.65   4
  -4  -3   2  238.46   10.36   1
   4   3  -2  231.72   10.27   1
  -4  -3   2  212.22   10.04   1
   4   3  -2  217.71   12.54   6
   4   3  -2  191.59   10.28   7
   4   3  -2  230.39   12.65   4
  -4  -3   2  241.46   22.33  10
   3   3  -2   31.37    2.36   7
  -3  -3   2   29.76    2.41   1
  -3  -3   2   35.69   11.15  11
  -3  -3   2   33.65    8.25   6
   3   3  -2   29.12    2.45   1
  -3  -3   2   48.55    8.48  10
   3   3  -2   36.62    3.83   4
   3   3  -2   25.06    3.43   5
   3   3  -2   32.03    3.63   6
  -3  -3   2   32.94    2.58   1
   2   3  -2  101.06   95.23   1
  -2  -3   2  102.28   62.32   1
   2   3  -2  180.55  112.61   7
   2   3  -2  330.00   99.54   1
  -2  -3   2   46.40  131.19   6
  -2  -3   2   86.28  134.64  11
  -2  -3   2   39.18  153.38   4
   1   3  -2   47.22    3.20   7
  -1  -3   2   48.04    2.36   1
  -1  -3   2   48.53    3.25   7
   1   3  -2   43.87    2.33   1
   1   3  -2   45.01    3.17   6
   1   3  -2   50.88    3.56   4
  -1  -3   2   47.49    3.39   6
   1   3  -2   45.22    2.32   1
   1   3  -2   46.69    4.65   3
  -1  -3   2   47.90    2.43   1
   1   3  -2   60.35   11.58  11
  -1  -3   2   45.91    4.00   8
  -1  -3   2   51.49    3.56   4
  -1  -3   2   53.04    5.96  10
   0   3  -2    9.03    1.17   6
   0   3  -2    7.43    1.20   4
   0   3  -2    6.85    1.61   3
   0  -3   2    8.91    0.96   1
   0   3  -2    8.86    2.80  10
   0   3  -2   11.85    2.00   8
   0  -3   2    9.84    1.61   7
   0   3  -2    7.01    0.87   1
   0  -3   2    6.70    1.17   4
   0   3  -2    9.37    0.97   1
   0  -3   2    7.94    1.00   1
   0   3  -2    8.33    1.74   2
  -1   3  -2   18.27    2.35   3
  -1   3  -2   16.34    2.67   5
  -1   3  -2   17.81    1.53   1
  -1   3  -2   14.65    4.31  10
   1  -3   2   15.30    4.27  10
   1  -3   2   18.48    2.32   3
   1  -3   2   15.79    1.59   1
  -1   3  -2   18.50    1.30   4
  -1   3  -2   16.74    2.56   2
  -1   3  -2   17.09    1.59   1
   1  -3   2   19.10    2.46   9
   1  -3   2   16.42    1.52   1
   1  -3   2   19.89    2.24   7
   1  -3   2   16.13    2.35   2
  -2   3  -2   30.75    7.01  10
   2  -3   2   41.77    5.60   3
   2  -3   2   27.97    6.64  10
  -2   3  -2   35.12    3.62   5
  -2   3  -2   28.63    3.31   1
   2  -3   2   22.93    3.23   1
  -2   3  -2   19.73    3.70   1
  -2   3  -2   32.50    3.88   2
   2  -3   2   37.46    5.83   9
   2  -3   2   26.79    5.26   2
   3  -3   2  161.46    8.31   1
   3  -3   2  168.08    8.27   1
  -3   3  -2  173.97   31.14   5
   3  -3   2  212.51   20.82  10
  -3   3  -2  170.70    9.42   9
   3  -3   2  191.27   10.04   3
  -3   3  -2  153.33    8.68   6
  -3   3  -2  173.66   10.61   2
  -3   3  -2  161.09   18.12  10
  -3   3  -2  162.57    8.23   1
  -4   3  -2   12.30   33.76   2
   4  -3   2   20.15    2.81   1
  -4   3  -2   14.06    2.56   1
   4  -3   2   13.99    7.14  10
  -4   3  -2   14.49    3.21   5
  -4   3  -2   21.13    8.51  10
  -4   3  -2   17.89    2.40   9
   5  -3   2  199.93  110.14   1
  -5   3  -2  145.96   17.87   9
  -5   3  -2  189.47   79.32   5
  -5   3  -2  205.19  114.24   1
  -5   3  -2  204.27   59.01   2
  -5   3  -2  196.92  137.98  10
   5  -3   2  167.92  115.74  10
  -6   3  -2    5.35    3.14   5
   6  -3   2    8.21    6.62  10
  -6   3  -2   14.96    3.97   2
  -6   3  -2   12.63    7.64  10
   6  -3   2   10.41    2.48   4
  -7   3  -2   90.21    7.28   1
   7  -3   2   95.17    7.55   1
  -7   3  -2   68.46    8.07   5
   8  -3   2    1.41    3.00   1
  -8   3  -2   -0.53    2.84   1
  -8   3  -2    0.94    3.41   5
   9   2  -2   55.68    7.95   4
   9   2  -2   41.55    5.60   1
  -9  -2   2   59.37    6.41   1
   8   2  -2   57.73    9.35   4
  -8  -2   2   60.01    6.56   1
   8   2  -2   71.96    6.72   1
   7   2  -2  176.95   10.36   1
  -7  -2   2  166.15   10.27   1
   7   2  -2  149.15   11.51   4
   6   2  -2   45.55    4.48   1
   6   2  -2   37.91    5.37   4
  -6  -2   2   40.21    4.40   1
   5   2  -2  201.53   13.96   1
  -5  -2   2  211.55   12.42   1
   5   2  -2  209.44   13.26   4
  -5  -2   2  218.33   24.09  10
   5   2  -2  207.65   12.81   6
   4   2  -2   33.61   19.87   4
   4   2  -2   32.03    6.30   6
  -4  -2   2   35.27    3.01   1
  -4  -2   2   34.50    3.10   1
   4   2  -2   32.93    3.04   1
  -4  -2   2   35.03    8.92  10
  -3  -2   2   55.77    9.07  10
  -3  -2   2   53.27    3.42   1
   3   2  -2   52.87    4.48   4
   3   2  -2   51.95    3.36   1
   3   2  -2   45.14    4.53   5
   3   2  -2   43.80    2.72   7
   3   2  -2   53.13    4.29   6
  -3  -2   2   57.14    3.41   1
  -3  -2   2   48.73   21.16   6
   2   2  -2  204.87  147.57   1
  -2  -2   2  167.95  149.34   1
  -2  -2   2  185.49  150.03  10
  -2  -2   2  105.35  151.86   6
   2   2  -2  145.66  160.77   7
  -2  -2   2  105.73  133.50  10
  -2  -2   2  115.86  171.15  11
   2   2  -2  240.23  138.16   1
  -1  -2   2  130.49    7.64   8
   1   2  -2  139.40    5.68   1
   1   2  -2  153.01    7.09   4
   1   2  -2  133.52   10.18  10
   1   2  -2  128.83    5.59   1
  -1  -2   2  124.06   10.01  10
   1   2  -2  137.79    6.42   6
  -1  -2   2  141.36    6.63   6
   1   2  -2  127.95   14.44  11
  -1  -2   2  138.35    6.92   4
  -1  -2   2  140.65    5.67   1
  -1  -2   2  132.10    5.65   1
  -1  -2   2  137.83    6.59   7
   0   2  -2  280.94   11.57   1
   0   2  -2  300.11   12.68   4
   0  -2   2  295.22   12.64   4
   0  -2   2  296.67   11.66   1
   0   2  -2  301.17   11.67   1
   0  -2   2  319.20   19.46  10
   0   2  -2  287.66   13.65   2
   0   2  -2  301.90   15.26   3
   0  -2   2  287.31   11.56   1
   0   2  -2  295.04   18.59  10
   0  -2   2  310.38   13.74   2
  -1   2  -2  676.59   27.10   6
   1  -2   2  648.74   34.36  10
  -1   2  -2  665.18   31.50   3
  -1   2  -2  717.43   31.19   5
   1  -2   2  660.88   25.07   1
   1  -2   2  679.07   30.03   9
  -1   2  -2  659.87   24.93   1
   1  -2   2  676.52   29.44   2
  -1   2  -2  708.31   35.37  10
   1  -2   2  663.67   24.96   1
   1  -2   2  579.49   31.30   3
  -1   2  -2  680.81   25.07   1
  -1   2  -2  681.72   29.62   2
   2  -2   2  175.59   21.74   3
   2  -2   2  205.15   17.91  10
   2  -2   2  168.24   14.51   2
   2  -2   2  169.55   16.72   5
  -2   2  -2  166.74   10.06   2
  -2   2  -2  200.91   16.09   5
  -2   2  -2  175.24   12.89   1
   2  -2   2  165.53    9.75   1
  -2   2  -2  160.26    9.44   1
  -2   2  -2  199.37   17.72  10
   2  -2   2  208.99   17.57   9
  -2   2  -2  172.34   16.32   6
   3  -2   2  342.81   18.73   2
   3  -2   2  410.80   56.88  10
   3  -2   2  370.84   18.35   5
  -3   2  -2  358.85   16.53   6
  -3   2  -2  370.27   15.20   1
   3  -2   2  349.08   15.11   4
  -3   2  -2  369.97   18.55   2
   3  -2   2  353.08   21.82   1
   3  -2   2  357.10   15.14   1
  -3   2  -2  323.70   27.09  10
  -3   2  -2  345.52   16.83   9
  -3   2  -2  380.23   22.81   5
  -4   2  -2   81.74   14.49  10
  -4   2  -2   96.12    5.87   9
   4  -2   2  106.15   28.67   1
   4  -2   2   98.91    5.52   4
   4  -2   2  115.77   29.74  10
  -4   2  -2  103.87    6.20   1
  -4   2  -2  101.85   40.04   5
  -5   2  -2  115.81   18.78  10
  -5   2  -2   86.48    5.85   9
   5  -2   2   98.19   13.48   1
   5  -2   2  129.32   32.91  10
   5  -2   2  107.33   24.80   4
  -5   2  -2  121.51   16.93   5
  -5   2  -2  115.21   24.65   2
  -5   2  -2  103.82   11.79   1
  -6   2  -2   32.37    5.12   5
  -6   2  -2   30.34    4.07   1
   6  -2   2   35.01   11.90  10
  -6   2  -2   33.83    5.32   2
   6  -2   2   27.18    3.98   1
   6  -2   2   32.42    3.69   4
  -6   2  -2   44.26   13.76  10
  -7   2  -2   40.45    5.00   1
  -7   2  -2   35.39    5.49   5
   7  -2   2   37.01    4.86   1
  -8   2  -2    2.44    3.16   5
   8  -2   2    9.44    3.51   1
   9   1  -2   43.55    7.00   4
   9   1  -2   50.63    6.31   1
  -9  -1   2   55.43    6.52   1
   8   1  -2   29.78    5.29   4
   8   1  -2   16.05    3.88   1
  -8  -1   2   26.02    4.50   1
   7   1  -2   46.30    5.02   1
  -7  -1   2   33.05    6.64   5
  -7  -1   2   32.46    4.46   1
   7   1  -2   39.30    5.62   4
  -6  -1   2  117.51   19.69  10
  -6  -1   2  127.95   11.30   5
   6   1  -2  130.68    7.98   1
  -6  -1   2  119.44    7.70   1
   6   1  -2  107.87    8.62   4
  -5  -1   2   13.89    3.91   5
  -5  -1   2    5.63    3.39   1
   5   1  -2   15.17    3.27   4
   5   1  -2    8.86    4.71   1
  -5  -1   2   11.84    8.37  10
  -4  -1   2  459.92   56.69   5
   4   1  -2  417.10   69.58   1
  -4  -1   2  445.25   18.11   1
   4   1  -2  428.72   47.45   4
  -4  -1   2  447.63   32.23  10
  -4  -1   2  443.68   21.86   1
   3   1  -2    0.66    1.81   5
  -3  -1   2   -1.87    2.79   1
  -3  -1   2   -0.32    1.95   5
   3   1  -2    0.81    1.15   1
  -3  -1   2    0.50    1.35   4
  -3  -1   2    5.26    4.17  10
   3   1  -2   -0.36   24.82   4
  -3  -1   2   -2.17    1.64   6
   3   1  -2    2.17    1.95   1
  -3  -1   2    0.28    1.13   1
  -2  -1   2  853.94   40.37  10
   2   1  -2  855.30   35.22   4
  -2  -1   2  864.99   31.10   1
   2   1  -2  819.14   38.78   5
  -2  -1   2  831.74   31.00   1
  -2  -1   2  839.24   35.08   6
   2   1  -2  849.36   31.00   1
   2   1  -2  858.94   31.09   1
  -2  -1   2  794.39   34.97   4
   1   1  -2   50.38    2.82   1
  -1  -1   2   55.44    3.52   4
   1   1  -2   56.23    6.78  10
  -1  -1   2   59.44    6.96  10
  -1  -1   2   47.52    3.53   8
  -1  -1   2   55.62    2.92   1
   1   1  -2   54.95    2.92   1
   1   1  -2   53.55    3.51   4
  -1  -1   2   54.96    2.89   1
  -1  -1   2   54.11    3.13   6
   0  -1   2 1046.86   37.72   1
   0  -1   2 1022.64   47.08  10
   0   1  -2 1067.99   47.51  10
   0   1  -2  957.75   37.53   1
   0  -1   2 1026.98   41.55   4
   0   1  -2 1063.59   37.75   1
   0   1  -2 1026.66   42.97   2
   0  -1   2  988.38   37.55   1
   0  -1   2 1038.47   42.97   2
   1  -1   2  256.86   19.13  10
   1  -1   2  265.09   12.77   2
  -1   1  -2  244.80   10.46   1
   1  -1   2  254.11   10.60   1
  -1   1  -2  265.83   19.11  10
  -1   1  -2  254.45   10.56   1
   1  -1   2  245.59   10.47   1
  -1   1  -2  258.65   11.11   6
  -1   1  -2  256.90   12.77   2
   1  -1   2  261.26   11.28   6
  -2   1  -2  267.39   88.04   6
  -2   1  -2  403.55   79.65   5
  -2   1  -2  366.71   57.84   1
   2  -1   2  278.85   48.32   2
  -2   1  -2  255.37   38.43   1
  -2   1  -2  319.06   61.37  10
   2  -1   2  281.25  112.02   5
  -2   1  -2  318.37   61.53   2
   2  -1   2  263.53   40.06   1
   2  -1   2  262.79   36.18   6
  -3   1  -2   89.38   12.83   2
  -3   1  -2   71.78   12.06  10
   3  -1   2   82.83    5.10   1
   3  -1   2   72.87    5.42   5
   3  -1   2   92.40    4.85   4
  -3   1  -2   89.18    5.98   5
   3  -1   2   92.29    6.22   6
   3  -1   2   79.47    6.37   2
  -3   1  -2   81.84    5.03   1
  -3   1  -2   73.48    4.46   9
   3  -1   2   82.92    5.07   1
   3  -1   2   82.25   13.29  10
  -3   1  -2   91.75    5.73   6
  -4   1  -2   69.98   32.75   2
  -4   1  -2   67.75   13.17  10
   4  -1   2   71.55    8.02   1
  -4   1  -2   86.91   11.79   5
   4  -1   2   57.62    5.03   5
  -4   1  -2   76.93    5.07   1
   4  -1   2   71.00   13.51  10
   4  -1   2   73.00    4.82   4
  -4   1  -2   57.13    3.85   9
   4  -1   2   84.17   12.95   6
   5  -1   2    7.11   14.08   4
  -5   1  -2   -5.42   13.48  10
   5  -1   2   -1.76   16.07   1
  -5   1  -2   -2.64   14.48   2
  -5   1  -2    3.47   15.15   1
  -5   1  -2    0.88    0.71   9
   5  -1   2   -2.20    8.82  10
  -5   1  -2   -2.23    3.14   5
  -6   1  -2   22.78    3.71   1
   6  -1   2   30.54    4.03   1
   6  -1   2   15.09    9.54  10
   6  -1   2   24.54    3.44   4
  -6   1  -2   26.60    4.54   5
   7  -1   2   21.94    3.74   4
  -7   1  -2   22.60    4.73   5
  -7   1  -2   24.59    3.88   1
   7  -1   2   24.35    3.84   1
  -8   1  -2   22.85    3.93   1
   8  -1   2   14.53    3.49   1
  -9   0   2    6.30    6.89   5
   9   0  -2   15.39    4.19   1
  -9   0   2   19.61    4.34   1
  -8   0   2    5.71    4.00   5
   8   0  -2    2.62    3.26   4
   7   0  -2   21.82    3.40   1
  -7   0   2   23.68    3.55   1
  -7   0   2   20.15    5.30   5
   7   0  -2   16.89    4.02   4
  -6   0   2   -0.58    5.04  10
  -6   0   2   -1.42    3.01   5
   6   0  -2    1.10    0.75   7
   5   0  -2  123.49  111.61   1
   5   0  -2   92.04    4.77   7
  -5   0   2   96.12  116.36  10
  -5   0   2  112.84   82.17   5
  -5   0   2  116.95  105.41   1
   5   0  -2  110.82  103.57   4
  -4   0   2    2.78    4.38  10
  -4   0   2    7.48   11.96   5
   4   0  -2    1.23   14.81   1
  -4   0   2   -0.12    1.42   1
   4   0  -2    1.73   12.17   4
   3   0  -2  250.43   14.71   5
   3   0  -2  263.92   11.43   1
   3   0  -2  267.74   11.37   1
  -3   0   2  284.68   21.68  10
  -3   0   2  279.57   13.07   4
   3   0  -2  275.41   13.26   4
  -3   0   2  271.79   11.43   1
  -3   0   2  257.01   11.28   1
  -3   0   2  274.32   13.30   6
  -3   0   2  306.95   15.35   5
  -2   0   2    5.28    9.30  10
   2   0  -2   -0.85    8.97   4
  -2   0   2    4.71    9.58   5
  -2   0   2   11.26    8.36   1
  -2   0   2   -0.41   10.06   4
  -2   0   2    3.54    9.34   1
   2   0  -2   13.02    6.77   1
   2   0  -2   -0.12    7.89   5
  -1   0   2  408.63   22.57  10
  -1   0   2  473.82   20.18   5
  -1   0   2  383.54   19.15   8
  -1   0   2  426.50   15.95   1
   1   0  -2  421.61   23.14  10
   1   0  -2  417.59   20.02   5
  -1   0   2  432.80   18.23   4
   1   0  -2  427.16   16.00   1
   1   0  -2  391.79   15.84   1
  -1   0   2  415.25   15.92   1
   0   0   2    4.61    1.17   2
   0   0  -2    4.03    1.22   2
   0   0   2    4.08    0.97   1
   0   0  -2    7.47    1.21   1
   0   0  -2    4.94    3.49  10
   0   0  -2    3.47    1.05   1
  -1   0  -2  121.19    5.81   1
  -1   0  -2  115.32    5.77   1
  -1   0  -2  125.23    6.26   6
   1   0   2  126.26    6.89   2
  -1   0  -2  121.52    6.18   5
  -1   0  -2  129.07   13.11  10
  -1   0  -2  103.44    5.97   3
   1   0   2  120.43    5.81   1
   1   0   2  119.67   13.07  10
  -1   0  -2  133.63    7.17   2
   1   0   2  122.29    5.84   1
   1   0   2  116.68    6.22   6
  -2   0  -2  140.27  172.99  10
  -2   0  -2   87.16  213.60   2
  -2   0  -2   47.59  330.17   5
  -2   0  -2   36.27  240.39   6
   2   0   2   33.40  137.07   3
   2   0   2   43.72  143.64   6
   2   0   2  100.50  243.13   1
  -3   0  -2    1.20    1.12   5
   3   0   2   -6.74    9.70  10
  -3   0  -2    5.99    1.71   1
  -3   0  -2   -3.03    8.42   2
  -3   0  -2    7.62    5.37  10
   3   0   2   -0.35    1.36   1
   3   0   2   -1.62    2.10   6
  -3   0  -2    0.02    1.09   1
   3   0   2   -0.10    0.86   5
   3   0   2    1.30    1.22   4
   4   0   2   84.51    5.79   5
  -4   0  -2   85.76   15.14  10
  -4   0  -2   85.92    7.23   2
   4   0   2   71.66    5.40   4
   4   0   2   88.12    5.81   1
   4   0   2   83.61    6.96   6
  -4   0  -2   92.81    6.58   5
  -4   0  -2   90.03    5.84   1
   4   0   2   72.69   14.33  10
   5   0   2    8.16    6.85  10
  -5   0  -2    5.15    5.40  10
   5   0   2   10.54    2.32   1
   5   0   2    5.54    1.63   5
  -5   0  -2    4.11    2.29   5
   5   0   2   13.00    5.73   4
  -5   0  -2    9.20    2.24   1
   5   0   2    9.52    4.43   6
   6   0   2  143.99    9.35   1
   6   0   2  176.47   25.95  10
  -6   0  -2  155.97    9.57   1
   6   0   2  161.58   12.05   6
  -6   0  -2  145.30   11.29   5
   6   0   2  148.57    9.65   4
  -7   0  -2   -4.00    2.93   5
   7   0   2   -2.37   10.50   1
   8   0   2  117.72    9.19   1
  -8   0  -2  114.88    9.20   1
   9  -1  -2    0.54   15.92   4
  -9   1   2    9.17    3.90   1
   9  -1  -2    3.49    3.53   1
  -9   1   2    9.74    4.19   5
   8  -1  -2   40.26    5.39   1
   8  -1  -2   45.77    6.53   4
  -8   1   2   38.46    5.24   1
  -8   1   2   54.03    7.74   5
   7  -1  -2   29.61    2.62   7
   7  -1  -2   36.45    4.36   1
  -7   1   2   29.23    5.72   5
  -7   1   2   31.77    4.01   1
   7  -1  -2   35.94    5.26   4
  -6   1   2   96.09    8.99   5
  -6   1   2  105.29   18.29  10
   6  -1  -2   99.90    6.84   1
   6  -1  -2   95.79    7.83   4
   6  -1  -2   85.06    5.18   7
  -6   1   2  100.18    6.75   1
  -5   1   2   54.88   16.65  10
  -5   1   2   66.71   15.47   1
   5  -1  -2   65.89   16.77   4
   5  -1  -2   57.29   16.48   1
  -5   1   2   68.26   14.21   5
   5  -1  -2   53.93    3.41   7
  -4   1   2  130.70    9.71   1
   4  -1  -2  111.06  102.76   2
  -4   1   2  131.03  162.05   5
  -4   1   2  112.91   86.86   4
   4  -1  -2  132.17    8.22   4
   4  -1  -2  111.84   67.41   7
  -4   1   2  124.77   15.99  10
   4  -1  -2  121.48  100.12   1
   3  -1  -2   31.39    2.60   1
   3  -1  -2   36.72    4.05   5
  -3   1   2   35.84    3.89   5
  -3   1   2   34.55    2.71   1
  -3   1   2   36.99    2.78   1
   3  -1  -2   37.73    2.84   1
  -3   1   2   34.84    3.07   4
   3  -1  -2   34.38    2.96   2
   2  -1  -2   54.81    3.06   1
   2  -1  -2   55.01    3.12   1
   2  -1  -2   48.59    4.39   5
  -2   1   2   61.07    4.50   5
  -2   1   2   48.92    3.63   4
  -2   1   2   50.83    3.06   1
  -2   1   2   50.18    2.98   1
  -2   1   2   64.49    8.69  10
   1  -1  -2   22.99    4.64  11
  -1   1   2   21.79    4.61  10
   1  -1  -2   13.63    3.86  10
   1  -1  -2   13.43    1.00   2
   1  -1  -2   16.90    1.43   1
   1  -1  -2   19.10    2.08   5
  -1   1   2   15.80    1.34   1
  -1   1   2   13.78    1.32   1
   1  -1  -2   12.69    1.30   1
  -1   1   2   14.03    1.85   5
   0   1   2  106.85   12.02  10
   0   1   2  128.90    5.91   1
   0  -1  -2  130.56    6.42   5
   0   1   2  115.55    5.70   1
   0  -1  -2  117.01    5.76   1
   0  -1  -2  120.87    5.83   1
   0   1   2  125.43    6.19   5
   0  -1  -2  134.60    6.30   2
   0   1   2  124.67    6.13   2
   0  -1  -2  107.96   12.11  10
  -1  -1  -2   30.54    2.40   1
   1   1   2   29.12    2.34   1
   1   1   2   30.67    2.54   3
  -1  -1  -2   25.35    2.51   1
   1   1   2   37.26    7.35  10
  -1  -1  -2   34.85    7.34  10
   1   1   2   32.63    2.83   2
  -1  -1  -2   33.08    3.05   2
   1   1   2   31.69    3.05   6
  -1  -1  -2   34.26    2.79   3
  -1  -1  -2   34.33    3.03   6
   1   1   2   26.36    2.38   1
   2   1   2  462.42   18.00   1
  -2  -1  -2  487.62   20.24   5
   2   1   2  423.57   20.51   2
  -2  -1  -2  463.99   21.05   2
   2   1   2  400.69   21.56   3
   2   1   2  416.87   30.11  10
   2   1   2  450.80   20.47   6
   2   1   2  417.05   17.71   1
  -2  -1  -2  453.87   17.95   1
  -2  -1  -2  476.24   20.59   6
  -2  -1  -2  411.13   17.64   1
  -2  -1  -2  461.10   31.19  10
   3   1   2  116.06   20.35   1
   3   1   2  120.70  158.57   6
   3   1   2  105.15    5.85   5
  -3  -1  -2  112.53   15.69  10
  -3  -1  -2  103.33    6.07   1
   3   1   2  102.98   36.31   4
  -3  -1  -2  117.88    9.55   1
   3   1   2  123.27   16.27  10
  -3  -1  -2  105.59    6.61   5
   3   1   2  102.44    6.73   3
   4   1   2  520.26   40.19  10
   4   1   2  519.50   23.60   4
  -4  -1  -2  538.64   25.77   5
  -4  -1  -2  576.20   41.94  10
   4   1   2  423.58   30.90   3
   4   1   2  539.27   21.59   1
   4   1   2  446.19   29.79   5
  -4  -1  -2  543.08   21.68   1
   4   1   2  534.12   25.19   6
   5   1   2  246.47   14.85   6
  -5  -1  -2  228.21   14.56   5
  -5  -1  -2  233.97   12.13   1
   5   1   2  235.53   12.08   1
   5   1   2  270.08   30.15  10
   5   1   2  230.61   13.05   4
  -5  -1  -2  250.73   29.16  10
   6   1   2  247.69   13.37   1
   6   1   2  273.52   16.56   6
   6   1   2  255.68   14.59   4
  -6  -1  -2  271.73   13.78   1
  -6  -1  -2  237.62   16.35   5
   7   1   2  223.48   12.78   1
   7   1   2  224.11   13.89   4
  -7  -1  -2  201.46   12.43   1
   7   1   2  219.49   16.03   6
   8   1   2   54.59    6.16   1
  -8  -1  -2   69.13    6.79   1
   9  -2  -2    9.47    3.09   1
  -9   2   2    1.01    3.85   5
  -9   2   2    8.41    2.96   1
  -8   2   2   30.26    4.70   1
   8  -2  -2   30.95    4.95   1
  -8   2   2   38.56    6.85   5
   7  -2  -2    8.80    3.42   1
  -7   2   2   17.14    3.46   1
  -7   2   2   15.95    4.84   5
   7  -2  -2   13.71    2.00   7
   6  -2  -2   14.04    3.01   1
   6  -2  -2   11.18    4.25   7
  -6   2   2    8.42   14.27   1
  -6   2   2    5.83    6.76  10
  -6   2   2   17.63   52.16   5
  -5   2   2   15.14   32.48  10
   5  -2  -2   13.81   22.88   1
   5  -2  -2   15.97    1.85   7
  -5   2   2   15.52   23.87   1
  -5   2   2   15.67   13.25   5
  -4   2   2   18.35    6.40  10
   4  -2  -2   25.36   52.21   1
  -4   2   2   33.33   88.24   5
  -4   2   2   22.35   98.86   4
  -4   2   2   26.89    4.72   1
   4  -2  -2   22.07  151.51   7
   4  -2  -2   20.75   29.33   2
   3  -2  -2   13.30    1.64   1
  -3   2   2   14.07    4.82  10
   3  -2  -2   11.54    6.80   5
  -3   2   2   11.13    4.55  10
  -3   2   2   12.50    1.54   7
   3  -2  -2   15.32    2.01   2
  -3   2   2   14.26    2.52   5
  -3   2   2   14.81    1.72   1
   2  -2  -2  352.40   13.27   1
  -2   2   2  331.78   15.04   1
  -2   2   2  312.93   16.53   7
  -2   2   2  329.17   13.56   1
   2  -2  -2  316.96   14.29   2
  -2   2   2  357.15   16.89   5
   2  -2  -2  301.76   22.88   5
  -2   2   2  322.90   21.91  10
   2  -2  -2  343.52   14.74   1
   1  -2  -2  411.64   24.77  10
  -1   2   2  440.39   16.76   1
  -1   2   2  449.60   25.41  10
   1  -2  -2  435.13   16.81   1
   1  -2  -2  435.07   16.79   1
   1  -2  -2  401.23   20.63   5
  -1   2   2  445.78   16.74   1
  -1   2   2  469.19   20.77   5
   1  -2  -2  470.16   33.45  11
   0  -2  -2  962.31   37.66   1
   0   2   2 1067.01   50.47  10
   0   2   2 1029.97   37.67   1
   0  -2  -2 1040.12   37.78   1
   0   2   2 1006.85   37.78   1
   0   2   2 1061.56   44.89   5
   0  -2  -2 1086.06   49.10   3
   0  -2  -2  968.97   44.85   5
   0   2   2 1033.43   42.21   2
   0  -2  -2  957.14   48.52  10
  -1  -2  -2 1286.96   64.70  10
  -1  -2  -2 1448.13   91.90   3
   1   2   2 1252.55   51.05   1
  -1  -2  -2 1372.84   51.32   1
   1   2   2 1440.52   65.50  10
   1   2   2 1371.92   65.32   3
   1   2   2 1402.58   51.14   1
   1   2   2 1455.60   58.11   6
  -1  -2  -2 1412.70   51.19   1
   1   2   2 1503.25   58.35   2
  -2  -2  -2  231.27   63.03   1
  -2  -2  -2  199.99   83.00  10
   2   2   2  143.57  156.68   3
   2   2   2  405.83  198.32   2
  -2  -2  -2  196.15   66.12   1
   2   2   2  439.94   94.56   1
  -3  -2  -2 1621.86   57.38   1
   3   2   2 1559.75   65.01   6
  -3  -2  -2 1623.06   78.91  10
   3   2   2 1601.16   57.35   1
   3   2   2 1407.64   75.22   3
   3   2   2 1460.40   75.71  10
  -3  -2  -2 1471.19   56.85   1
  -4  -2  -2    4.40    2.06   1
   4   2   2    5.75    3.17   6
   4   2   2    4.60    1.13   5
   4   2   2    2.75    1.62   3
   4   2   2    5.26    2.14   4
   4   2   2   10.99    6.10  10
   5   2   2  887.44   37.91   4
   5   2   2  872.37   39.31   6
  -5  -2  -2  812.23   33.53   1
   5   2   2  825.58   58.10  10
   5   2   2  774.99   33.36   1
  -5  -2  -2  780.60   56.97  10
   6   2   2   88.82    6.98   1
  -6  -2  -2   92.55    7.09   1
   6   2   2   86.02    7.71   4
   6   2   2   99.62    9.41   6
   7   2   2  311.80   19.88   6
  -7  -2  -2  316.23   16.36   1
   7   2   2  287.65   17.71   4
   7   2   2  292.81   16.08   1
   8   2   2  107.62   10.03   4
  -8  -2  -2  104.32    9.22   1
   8   2   2  124.25    9.64   1
  -9   3   2    2.15    4.13   5
   8  -3  -2   -1.98   16.83   1
  -8   3   2    1.35   18.11   1
  -8   3   2    8.20    4.57   5
   7  -3  -2   20.44    3.54   1
  -7   3   2   32.42    5.84   5
  -7   3   2   16.64    3.13   1
   7  -3  -2   20.08    2.59   7
  -6   3   2   18.18    3.11   1
  -6   3   2   36.80   11.95  10
   6  -3  -2   18.41   10.32   7
  -6   3   2   20.62    4.86   5
  -5   3   2  265.15   32.95  10
   5  -3  -2  266.59   26.72   1
  -5   3   2  268.11   32.51   1
   5  -3  -2  242.23   18.29   2
   5  -3  -2  244.08   12.60   7
  -5   3   2  270.26   17.90   5
  -4   3   2    1.67    1.31   1
  -4   3   2    2.20    4.76   4
   4  -3  -2    0.57    5.42   7
  -4   3   2   -0.97   11.38   5
   4  -3  -2    0.14    3.82   1
  -4   3   2    8.13    5.41  10
   4  -3  -2    2.52    1.76   2
   3  -3  -2 1000.33   46.25   2
  -3   3   2 1127.35   54.11  10
  -3   3   2 1139.15   50.00   5
  -3   3   2 1125.43   39.96   1
  -3   3   2  995.28   45.41   7
   3  -3  -2 1029.75   39.80   1
   3  -3  -2 1079.50   40.02   1
  -3   3   2 1105.28   54.25  10
  -2   3   2  287.23   23.90   7
  -2   3   2  294.51   27.88   1
  -2   3   2  307.62   23.54  10
  -2   3   2  344.36   33.33  11
  -2   3   2  344.60   24.86   5
  -2   3   2  275.31   13.74   1
   2  -3  -2  248.88   37.83   5
   2  -3  -2  342.13   12.65   1
   2  -3  -2  293.23   26.17   1
   1  -3  -2 1632.81   82.60   8
   1  -3  -2 1818.90   76.64  10
  -1   3   2 2044.36  107.38  11
   1  -3  -2 1789.88   82.88   5
  -1   3   2 1881.09   67.06   1
   1  -3  -2 1875.51   67.13   1
   1  -3  -2 1933.90   88.37   3
  -1   3   2 1817.15   66.87   1
  -1   3   2 1891.93   77.81  10
  -1   3   2 1958.48   82.11   5
   1  -3  -2 1857.05   67.04   1
   0  -3  -2 2166.40   94.74   5
   0   3   2 1896.58   76.82   1
   0  -3  -2 2252.41  100.44   3
   0   3   2 2026.01   99.94   3
   0  -3  -2 2014.86   76.99   1
   0   3   2 2139.19   90.92  10
   0  -3  -2 1993.76   88.42  10
   0   3   2 2297.74   93.18   5
   0   3   2 2181.51   77.28   1
   0  -3  -2 2131.71   77.28   1
   0  -3  -2 2373.16  128.43  11
   0   3   2 2199.82   87.30   2
   1   3   2 1562.24   61.94   6
   1   3   2 1485.03   68.59  10
   1   3   2 1433.68   69.57   3
  -1  -3  -2 1478.11   54.28   1
  -1  -3  -2 1411.26   53.85   1
  -1  -3  -2 1447.36   69.91  10
   1   3   2 1483.81   61.34   2
  -1  -3  -2 1522.90   70.20   3
   1   3   2 1424.41   63.67   9
   1   3   2 1429.04   53.83   1
   1   3   2 1495.58   54.10   1
   2   3   2 1556.95   95.84   3
   2   3   2 1714.31   74.23   2
  -2  -3  -2 1735.03   63.78   1
  -2  -3  -2 1789.12   64.26   1
  -2  -3  -2 1742.37   82.91  10
   2   3   2 1817.25   81.61  10
   2   3   2 1858.92   73.29   6
   2   3   2 1712.05   64.08   1
  -3  -3  -2  422.86   17.45   1
   3   3   2  357.62   21.43   3
  -3  -3  -2  413.29   17.09   1
   3   3   2  458.20   34.03  10
  -3  -3  -2  412.41   34.04  10
   3   3   2  417.59   20.73   6
   3   3   2  373.92   17.11   1
   4   3   2 1234.67   50.03   1
  -4  -3  -2 1344.09   75.64  10
   4   3   2 1337.46   57.88   6
   4   3   2 1326.00   56.62   4
   4   3   2 1356.63   74.17  10
  -4  -3  -2 1303.36   50.23   1
   5   3   2   32.02   10.75  10
  -5  -3  -2   20.26    3.26   1
   5   3   2   26.35    3.57   1
   5   3   2   28.63    4.45   4
   5   3   2   28.89    4.86   6
  -6  -3  -2  558.65   24.33   1
   6   3   2  546.90   28.99   6
   6   3   2  505.87   26.82   4
   6   3   2  528.14   24.10   1
   7   3   2    2.99    3.47   4
   7   3   2   13.66   12.07   1
   7   3   2    8.06    3.75   6
  -7  -3  -2    9.46    5.78   1
   9  -4  -2    8.18    3.85   1
  -9   4   2   19.00    5.88   5
  -9   4   2   29.53    4.90   1
  -8   4   2   23.43    5.88   5
  -8   4   2   21.21    4.14   1
   8  -4  -2   13.65    3.98   1
   7  -4  -2  182.26   24.57   1
   7  -4  -2  100.49   33.93   7
  -7   4   2  152.36   29.53   1
  -7   4   2  161.09   39.78   5
   6  -4  -2  285.41   13.76   1
  -6   4   2  273.71   13.27   1
   6  -4  -2  241.42   13.67   7
  -6   4   2  282.08   30.63  10
  -6   4   2  283.82   36.87   5
   5  -4  -2  133.65    8.10   7
  -5   4   2  163.63   25.38  10
  -5   4   2  144.29   10.77   5
   5  -4  -2  136.55   16.64   1
   5  -4  -2  121.35   10.04   2
  -5   4   2  139.33   20.34   1
  -4   4   2 1271.29   45.82   1
  -4   4   2 1248.82   57.34   5
  -4   4   2 1254.88   64.06  10
   4  -4  -2 1231.67   45.89   1
  -4   4   2 1207.42   63.88  10
   4  -4  -2 1103.15   53.04   2
   3  -4  -2   23.48    2.09   2
  -3   4   2   20.92    6.37  10
  -3   4   2   25.67    1.96   2
   3  -4  -2   24.71    2.52   1
  -3   4   2   28.83    2.51   1
  -3   4   2   24.13    3.46   5
   3  -4  -2   22.00    2.28   1
  -3   4   2   26.10    2.77   7
  -3   4   2   31.15    7.65  10
   2  -4  -2 2450.22  132.15   5
   2  -4  -2 2672.05   96.98   1
  -2   4   2 2817.80  150.87  11
  -2   4   2 2804.63  110.03  10
  -2   4   2 2924.36  119.50   5
  -2   4   2 2593.97  120.48   8
   2  -4  -2 2714.80   97.04   1
  -2   4   2 2640.92  112.30   7
   1  -4  -2  191.66    8.37   1
  -1   4   2  191.48    8.06   1
  -1   4   2  195.57    8.32   1
   1  -4  -2  188.35   10.14   8
   1  -4  -2  177.71   15.32  10
  -1   4   2  173.05   15.99  10
   1  -4  -2  214.62   13.26   3
  -1   4   2  202.24   25.90  11
   1  -4  -2  190.35    8.19   1
  -1   4   2  173.06    8.54   2
  -1   4   2  207.33   10.67   5
   1  -4  -2  167.86   10.49   5
   0  -4  -2 5037.60  233.28   5
   0  -4  -2 5407.75  269.37  11
   0  -4  -2 4938.84  189.48  10
   0  -4  -2 5181.13  179.58   1
   0   4   2 5287.36  179.92   1
   0   4   2 4409.05  270.30   3
   0   4   2 4989.79  192.80  10
  -1  -4  -2  866.44   78.15  11
   1   4   2  996.19   50.63  10
   1   4   2  989.01   42.25   6
  -1  -4  -2 1029.79   49.21   3
   1   4   2  888.90   35.75   1
  -1  -4  -2  882.39   50.83  10
   1   4   2  954.21   42.32   5
  -1  -4  -2  977.71   35.79   1
   1   4   2  970.24   42.64   9
  -1  -4  -2  933.96   36.09   1
   2   4   2 1529.81   74.52  10
  -2  -4  -2 1487.07   57.27   1
  -2  -4  -2 1615.02   58.11   1
  -2  -4  -2 1622.21   79.55  10
  -2  -4  -2 1592.12   75.53   3
   2   4   2 1591.55   57.98   1
   2   4   2 1478.80   66.20   6
   3   4   2 1105.40   49.07   6
  -3  -4  -2 1075.29   42.17   1
   3   4   2 1228.19   63.51  10
   3   4   2 1036.91   42.06   1
  -3  -4  -2 1064.27   41.64   1
  -3  -4  -2 1136.77   64.70  10
   4   4   2  392.95   22.20   6
  -4  -4  -2  423.66   18.72   1
   4   4   2  429.02   18.80   1
  -4  -4  -2  432.15   38.76  10
   4   4   2  436.27   36.61  10
   4   4   2  392.62   21.36   4
   5   4   2  642.79   26.53   1
   5   4   2  570.95   29.76   4
  -5  -4  -2  606.72   26.26   1
   5   4   2  606.44   31.39   6
   6   4   2   42.71    7.02   6
  -6  -4  -2   30.67    4.32   1
   6   4   2   35.73    4.49   1
   6   4   2   40.74    5.87   4
  -7  -4  -2  182.16   11.90   1
   7   4   2  171.75   13.42   4
   7   4   2  190.48   15.23   6
   9  -5  -2    7.73    3.99   1
  -9   5   2    1.14    3.34   1
  -9   5   2   -0.52    3.29   5
   8  -5  -2  211.80   12.88   1
  -8   5   2  214.10   16.99   5
  -8   5   2  199.24   12.24   1
  -7   5   2  127.77    8.57   1
   7  -5  -2  146.07    9.23   7
   7  -5  -2  123.52    8.97   1
  -7   5   2  161.90   13.28   5
  -6   5   2  497.91   30.47   5
   6  -5  -2  448.02   23.26   7
   6  -5  -2  512.34   21.87   1
  -6   5   2  495.99   21.30   1
  -6   5   2  503.72   42.50  10
  -5   5   2  920.50   35.36   1
  -5   5   2  955.78   57.24  10
  -5   5   2  921.81   56.90  10
   5  -5  -2  941.20   35.73   1
   5  -5  -2  839.85   40.07   7
  -5   5   2  949.35   45.33   5
   5  -5  -2  823.19   41.18   2
   4  -5  -2  591.64   25.05   1
  -4   5   2  672.62   25.28   1
  -4   5   2  637.34   41.52  10
  -4   5   2  674.56   32.68   5
  -4   5   2  683.59   43.58  10
   4  -5  -2  592.48   27.84   2
  -4   5   2  618.83   27.32   2
   4  -5  -2  624.28   25.27   1
  -3   5   2 2756.41  118.27   5
  -3   5   2 2682.98  118.13   8
  -3   5   2 2655.26  112.18  10
  -3   5   2 2555.84  109.95  10
   3  -5  -2 2596.41   96.11   1
   3  -5  -2 2725.04  127.41   3
  -3   5   2 2643.58   95.47   1
   3  -5  -2 2673.14  114.26   2
  -3   5   2 2514.61  110.18   2
   3  -5  -2 2636.46   95.68   1
   2  -5  -2  359.87   14.96   1
   2  -5  -2  387.14   15.02   1
  -2   5   2  364.60   25.63  10
  -2   5   2  398.79   19.60   5
  -2   5   2  339.73   16.48   2
  -2   5   2  429.45   41.92  11
  -2   5   2  356.66   14.67   1
   2  -5  -2  362.10   22.49   3
   1  -5  -2 3640.40  140.11  10
  -1   5   2 3749.19  143.19  10
   1  -5  -2 3709.61  173.70   3
   1  -5  -2 3616.59  129.78   1
   1  -5  -2 3293.17  178.79   5
  -1   5   2 3623.98  152.91   2
  -1   5   2 3770.52  158.95   5
   0  -5  -2   40.80    2.88   1
   0   5   2   42.26    8.91  10
   0   5   2   37.54    2.66   1
   0  -5  -2   39.72    3.05   1
   0  -5  -2   38.69    5.58   3
   0  -5  -2   47.10    8.16  10
   0  -5  -2   36.90    4.08   8
   0   5   2   37.98    3.64   5
   0  -5  -2   70.60   19.75  11
   1   5   2 2405.75  100.84  10
  -1  -5  -2 2157.14  101.13  10
   1   5   2 2463.19  102.67   9
   1   5   2 2419.26  102.78   5
  -1  -5  -2 2179.10   85.39   1
  -1  -5  -2 2615.26  113.20   3
  -1  -5  -2 2283.63  155.26  11
   1   5   2 2468.03   98.47   6
   1   5   2 2162.56   90.60   1
   2   5   2   71.97    4.87   1
  -2  -5  -2   59.78   22.96  11
  -2  -5  -2   57.25   12.15  10
   2   5   2   81.86   12.64  10
  -2  -5  -2   64.28    4.34   1
  -2  -5  -2   78.79    7.70   3
  -2  -5  -2   70.82    5.00   1
   2   5   2   60.76    6.18   5
   2   5   2   82.23    7.58   6
   3   5   2  839.20   33.24   1
  -3  -5  -2  800.33   54.80  10
   3   5   2  880.80   52.44  10
   3   5   2  828.35   39.40   6
  -3  -5  -2  839.32   33.43   1
   4   5   2  132.44   11.18   6
   4   5   2  140.14   10.69   4
   4   5   2  146.23   20.68  10
   4   5   2  143.65    8.78   1
  -4  -5  -2  147.59    8.90   1
  -4  -5  -2  155.60   23.17  10
   5   5   2  144.62    9.46   1
   5   5   2  155.96   12.69   6
   5   5   2  166.35   12.00   4
  -5  -5  -2  135.11    9.16   1
  -6  -5  -2   77.24    7.00   1
   6   5   2   71.04    9.12   6
   6   5   2   72.94    8.24   4
   7   5   2   18.96    5.10   4
  -7  -5  -2   10.45    3.82   1
  -8   6   2    9.84    8.41   1
   7  -6  -2  643.55   28.01   1
  -7   6   2  612.31   52.02  10
  -7   6   2  626.75   35.43   5
  -7   6   2  631.16   27.25   1
  -6   6   2   95.88    6.44   1
  -6   6   2   88.78   17.16  10
   6  -6  -2   78.61    6.32   1
  -6   6   2   87.77    9.48   5
  -5   6   2  950.36   48.35   5
  -5   6   2  960.21   59.52  10
   5  -6  -2  988.16   38.41   1
  -5   6   2  970.62   37.96   1
  -5   6   2 1028.25   61.90  10
  -4   6   2  508.91   26.72   5
  -4   6   2  497.36   20.09   1
   4  -6  -2  461.06   20.04   1
   4  -6  -2  517.41   20.52   1
   4  -6  -2  462.77   22.31   2
  -4   6   2  524.01   37.22  10
  -4   6   2  479.86   21.56   2
   4  -6  -2  470.46   30.30   3
  -4   6   2  496.93   35.79  10
  -3   6   2  756.86   44.10  10
  -3   6   2  727.72   64.41  11
   3  -6  -2  640.37   38.82   3
  -3   6   2  681.13   29.88   2
  -3   6   2  708.59   35.01   5
  -3   6   2  704.32   33.76   1
   3  -6  -2  729.67   27.38   1
  -3   6   2  653.70   33.15   8
   3  -6  -2  733.99   27.43   1
  -3   6   2  733.11   42.08  10
   2  -6  -2 1160.54   41.80   1
   2  -6  -2 1122.57   58.03   3
  -2   6   2 1119.62   53.86  10
  -2   6   2 1177.40   86.63  11
   2  -6  -2 1151.62   42.20   1
  -2   6   2 1170.63   57.16  10
  -2   6   2 1179.67   52.61   5
  -2   6   2 1095.81   41.43   1
  -2   6   2  949.83   61.48   2
  -1   6   2  188.90   10.76   5
  -1   6   2  175.21    9.07   2
  -1   6   2  223.95   19.70  10
   1  -6  -2  177.66   38.65   3
  -1   6   2  169.17    7.66   1
   1  -6  -2  174.57    7.90   1
   1  -6  -2  170.77    8.23   1
   1  -6  -2  176.87   15.84  10
   0   6   2 2058.65   87.40   5
   0  -6  -2 2067.64   71.72   1
   0  -6  -2 1911.75   72.30   1
   0  -6  -2 1833.58  134.61  11
   0  -6  -2 1876.94   82.88  10
   0  -6  -2 2083.46   96.25   3
   0   6   2 1973.25   86.40  10
   0   6   2 1753.61   76.12   1
   0  -6  -2 2098.29   90.64   8
   1   6   2    8.70    4.51  10
   1   6   2    6.52    1.42   1
  -1  -6  -2    8.09    4.99  10
  -1  -6  -2    3.09    7.50  11
   1   6   2    4.83    3.23   6
  -1  -6  -2    7.34    1.63   1
   2   6   2  608.99   38.78  10
  -2  -6  -2  642.02   34.77   3
  -2  -6  -2  634.46   24.72   1
   2   6   2  618.52   24.35   1
  -2  -6  -2  609.82   42.85  10
   2   6   2  511.52   32.79   5
   2   6   2  607.41   30.41   6
  -3  -6  -2   11.95    2.46   1
   3   6   2    9.28    3.55   4
   3   6   2   13.16    2.43   1
  -3  -6  -2    4.45    5.09  10
   3   6   2    8.28    3.60   6
   4   6   2  141.40   12.03   6
  -4  -6  -2  144.80    9.04   1
   4   6   2  141.57   11.33   4
   4   6   2  147.46   20.82  10
  -5  -6  -2   14.33    3.28   1
   6   6   2   26.95    5.78   4
   8  -7  -2  277.70   15.75   1
  -8   7   2  271.21   20.75   5
  -8   7   2  298.81   15.57   1
   7  -7  -2   -3.47   11.84   1
   7  -7  -2   13.78    6.66   3
  -7   7   2   23.04    5.95   5
  -7   7   2    1.87    7.05   1
  -6   7   2  728.96   39.75   5
   6  -7  -2  760.83   31.04   1
   6  -7  -2  741.38   45.49   3
  -6   7   2  753.02   54.63  10
  -6   7   2  729.19   30.39   1
  -5   7   2   75.21    5.38   1
  -5   7   2   64.38    4.74   2
  -5   7   2   88.14   15.97  10
  -5   7   2  104.27   17.18  10
   5  -7  -2   71.60    5.64   1
  -5   7   2   73.40    8.30   5
   5  -7  -2   73.30    9.93   3
  -4   7   2 1171.66   64.13  10
  -4   7   2 1149.22   54.35   5
  -4   7   2 1153.13   42.42   1
   4  -7  -2 1147.92   42.76   1
  -4   7   2 1171.48   93.23  11
  -4   7   2 1125.46   61.47  10
  -4   7   2 1032.36   48.71   2
   4  -7  -2 1013.25   59.36   3
   3  -7  -2  286.69   12.65   1
  -3   7   2  290.94   40.74  11
  -3   7   2  278.44   13.42   2
  -3   7   2  291.02   17.31   5
  -3   7   2  310.69   25.94  10
  -3   7   2  327.12   25.39  10
   3  -7  -2  261.86   20.15   3
  -3   7   2  288.33   12.39   1
  -3   7   2  286.26   15.33   8
  -2   7   2  837.70   44.69  10
  -2   7   2  915.67   52.25   5
  -2   7   2  837.64   36.52   1
  -2   7   2  846.75   76.33  11
   2  -7  -2  921.13   49.74   3
  -2   7   2  906.37   49.18  10
   2  -7  -2  915.70   43.63   1
  -1   7   2  379.40   19.70   5
  -1   7   2  363.77   14.59   1
   1  -7  -2  348.95   15.25   1
   1  -7  -2  357.71   14.72   1
  -1   7   2  390.58   17.66   2
  -1   7   2  366.67   27.92  10
   1  -7  -2  404.87   24.59   3
   0   7   2  392.86   16.48   1
   0   7   2  440.48   23.25   6
   0  -7  -2  422.93   26.53   3
   0  -7  -2  440.69   23.58   8
   0   7   2  447.44   21.69   5
   0   7   2  432.92   28.94  10
   0  -7  -2  425.23   26.68  10
   0  -7  -2  431.98   16.81   1
  -1  -7  -2  209.11   19.66  10
  -1  -7  -2  228.18   15.12   8
   1   7   2  227.10   19.85  10
   1   7   2  231.06   14.92   6
   1   7   2  227.09   12.29   5
  -1  -7  -2  217.52   10.02   1
   1   7   2  223.85    9.85   1
  -1  -7  -2  246.20   17.73   3
   2   7   2   21.01    7.94  10
  -2  -7  -2   29.37    3.08   1
   2   7   2   21.00    4.97   5
   2   7   2   33.83    5.95   6
  -2  -7  -2   23.12    8.07  10
   3   7   2   66.83    7.42   4
  -3  -7  -2   68.83   14.86  10
   3   7   2   70.66    8.06   6
   3   7   2   65.88   12.42  10
  -3  -7  -2   71.56    5.68   1
   4   7   2    0.40    2.38   4
   4   7   2    1.04    3.74   6
  -4  -7  -2    7.63    2.75   1
   5   7   2    4.60    9.08   4
  -5  -7  -2    5.04    7.53   1
   8  -8  -2  119.05   15.33   3
   8  -8  -2  115.02    9.39   1
  -7   8   2  183.99   15.66   5
   7  -8  -2  178.24   11.24   1
   7  -8  -2  185.77   18.88   3
   6  -8  -2   69.50    5.98   1
   6  -8  -2   77.46   11.51   3
  -6   8   2   61.98    8.41   5
  -5   8   2  264.60   43.07  11
   5  -8  -2  258.21   21.05   3
  -5   8   2  237.16   16.98   5
   5  -8  -2  250.23   12.59   1
  -4   8   2    4.38    9.67  11
   4  -8  -2   12.38    5.36   3
  -4   8   2   11.40    3.35   5
   4  -8  -2   10.64    2.34   1
  -3   8   2  171.62   18.03  10
  -3   8   2  156.46   18.89  10
  -3   8   2  199.33   35.76  11
   3  -8  -2  156.06    8.12   1
   3  -8  -2  157.24   14.72   3
  -3   8   2  165.20    8.78   2
  -3   8   2  162.75   11.88   5
   2  -8  -2  127.63   72.27   1
  -2   8   2  110.66   88.13   5
  -2   8   2   32.49   68.99  10
  -2   8   2   44.80   47.00  10
   1  -8  -2   45.72    7.71   3
  -1   8   2   43.39    4.66   5
  -1   8   2   44.13    6.98  10
  -1   8   2   39.33    8.54  10
   1  -8  -2   47.78    2.97   1
  -1   8   2   41.74    4.06   2
   0   8   2    3.75    2.78  10
   0   8   2    4.87    3.47   6
   0  -8  -2    2.82    2.26   8
   0   8   2    5.22    1.62   5
   0  -8  -2    7.42    4.37   3
   1   8   2    2.17    2.10   5
  -1  -8  -2    8.17    3.68   8
  -1  -8  -2    0.61    2.18  10
  -1  -8  -2   -1.55    4.16   3
   1   8   2    4.34    3.03  10
   2   8   2    0.46    2.28  10
  -2  -8  -2   -5.37    4.39   3
   2   8   2   -0.05    2.47   6
  -2  -8  -2    0.43    3.28   8
   3   8   2    8.84    5.06  10
  -3  -8  -2    4.53    2.08   1
   3   8   2    0.99    2.73   6
   4   8   2    1.93    3.62   4
  -4  -8  -2    5.26    2.26   1
   4   8   2   -0.75    4.07   6
  -5  -8  -2   -0.33    2.53   1
   7  -9  -2   33.58    9.26   3
   7  -9  -2   48.82    5.76   1
  -7   9   2   59.10    8.83   5
   6  -9  -2   72.10    6.22   1
   6  -9  -2   60.54   10.80   3
  -6   9   2   61.25    8.43   5
   5  -9  -2   25.06    7.29   3
  -5   9   2   18.26    4.93   5
  -5   9   2   51.83   21.82  11
   5  -9  -2   21.29    3.31   1
  -4   9   2   55.99    6.95   5
  -4   9   2   49.18   11.79  10
   4  -9  -2   61.09    4.66   1
  -4   9   2   68.62   23.66  11
   4  -9  -2   57.91    9.72   3
  -3   9   2   -1.67    2.86   5
  -3   9   2   14.68    6.49  10
   3  -9  -2    1.98    1.35   1
   3  -9  -2    5.00    4.98   3
  -3   9   2  -10.68   12.18  11
  -2   9   2   41.41    9.31  10
   2  -9  -2   21.25    5.99   3
  -2   9   2   21.27    4.55   5
   2  -9  -2   14.66    1.75   1
   1  -9  -2    0.94    2.95   3
  -1   9   2   -0.43    1.20   5
  -1   9   2    2.98    1.92   2
   0   9   2    0.81    3.77   6
   0  -9  -2   -3.04    2.63   8
   0   9   2    3.42    1.45   5
  -1  -9  -2    4.61    3.41   8
   1   9   2   -1.36    3.80   6
  -1  -9  -2    2.63    4.34   3
   2   9   2   -2.60    3.91   6
  -2  -9  -2   -0.45    3.40   8
   3   9   2   -5.36    4.41   6
   3   9   2   -2.21    3.73   4
   4   9   2    6.07    3.86   6
  -4  -9  -2    6.45    5.30   8
  -6  10   2   14.25    5.14   5
   6 -10  -2   25.56    7.87   3
   6 -10  -2   20.70    3.67   1
  -5  10   2    9.47    4.35   5
   5 -10  -2    4.89    3.77   1
   5 -10  -2   -1.35    3.68   3
  -4  10   2    8.43    3.81   5
   4 -10  -2    3.65    4.95   3
   4 -10  -2    6.48    1.83   1
  -3  10   2   11.63    3.93   5
   3 -10  -2    6.93    5.41   3
   3 -10  -2    6.81    1.31   1
   2 -10  -2   99.87   15.02   3
   1 -10  -2   23.47    6.52   3
  -1  10   2   17.79    3.26   5
  -1  10   2   17.26    5.25   6
   0 -10  -2   -2.95    4.64   3
  -1 -10  -2   17.59    5.61   3
   1  10   2   16.92    5.67   6
   2  10   2   11.69    4.70   4
   5 -11  -2    6.76    6.29   3
  -5  11   2   -2.28    2.82   5
  -4  11   2   21.43    5.33   5
   3 -11  -2    1.43    4.54   3
  -1  11   2   -5.12    4.74   6
   0 -11  -2    7.37    5.79   3
  -1 -11  -2   -5.44    5.29   3
   1  12  -3    2.01    2.24   5
   1  12  -3    0.00    1.37   4
   1  12  -3    0.88    1.69   2
   0  12  -3  284.59   20.18   5
   0  12  -3  279.04   16.79   4
   0  12  -3  306.82   19.20   2
  -1  12  -3   15.91    4.96   5
  -2  12  -3  160.19   13.59   2
   2 -12   3  184.16   17.03   3
  -2  12  -3  172.54   15.15   5
   3 -12   3   92.54   11.36   3
  -3  12  -3  106.56   11.44   2
  -3  12  -3   79.90   10.37   5
   3  11  -3   90.44    9.18   6
   3  11  -3  109.87   10.07   4
  -3 -11   3  101.26   10.13   9
   3  11  -3  102.38   10.76   2
   2  11  -3   21.41    4.09   4
   2  11  -3   20.05    3.89   6
   2  11  -3   13.86    3.81   2
   2  11  -3   30.83    5.30   5
   1  11  -3  304.26   17.70   4
   1  11  -3  303.19   18.11   6
   1  11  -3  297.94   20.57   5
   1  11  -3  319.08   19.48   2
   0  11  -3    0.45    2.25   6
   0  11  -3    2.82    1.77   4
   0  11  -3   -0.62    1.72   5
  -1  11  -3  462.00   27.88   5
  -1  11  -3  461.13   25.55   2
  -1  11  -3  446.45   24.27   6
  -1  11  -3  460.91   22.69   4
  -2  11  -3   30.82    6.53   6
  -2  11  -3   21.99    5.60   5
   2 -11   3   32.60    7.06   3
  -2  11  -3   24.21    4.57   2
   3 -11   3  431.02   24.31   7
  -3  11  -3  402.72   24.81   2
   3 -11   3  404.08   27.18   3
  -3  11  -3  387.38   25.93   5
  -4  11  -3   78.54    9.96   5
   4 -11   3   71.24    8.50   7
   4 -11   3   77.93    9.81   3
  -4  11  -3   72.88    8.97   2
   5 -11   3  175.00   15.63   3
   5 -11   3  185.70   14.77   7
  -5  11  -3  185.36   14.81   2
   4  10  -3   88.92    8.81   6
  -4 -10   3   83.67   11.14   8
   4  10  -3   92.14    9.31   4
  -4 -10   3   71.81    8.35   9
  -3 -10   3  284.68   18.38   9
   3  10  -3  246.01   16.24   6
   3  10  -3  259.52   18.87   5
   3  10  -3  285.75   17.27   4
  -3 -10   3  298.50   21.18   8
   3  10  -3  257.44   18.02   2
   2  10  -3  260.69   16.21   6
   2  10  -3  281.85   17.72   2
   2  10  -3  267.09   16.40   4
  -2 -10   3  291.10   18.63   9
   2  10  -3  284.70   19.06   5
   1  10  -3  238.28   14.31   4
   1  10  -3  238.61   15.54   2
  -1 -10   3  245.57   16.82   9
   1  10  -3  247.76   16.97   5
   1  10  -3  226.63   14.44   6
   0  10  -3  999.63   50.29   5
   0  10  -3  992.73   43.55   4
   0  10  -3  960.29   44.42   6
   0  10  -3  961.90   46.06   2
  -1  10  -3   75.37    7.48   6
  -1  10  -3   81.27    7.80   2
   1 -10   3   82.34   10.09   3
  -1  10  -3   86.44    9.39   5
  -1  10  -3   78.42    6.45   4
   2 -10   3  674.29   38.51   3
  -2  10  -3  643.12   36.35   5
   2 -10   3  697.29   34.19   7
  -2  10  -3  654.32   34.04   2
  -2  10  -3  654.45   29.62   4
  -3  10  -3   16.54    5.97   2
  -3  10  -3    1.89    3.64   5
  -4  10  -3  372.99   22.90   2
   4 -10   3  387.38   22.23   7
   4 -10   3  382.65   24.68   3
  -4  10  -3  362.31   24.19   5
   4 -10   3  335.52   16.31   1
   5 -10   3   15.43    4.86   3
   5 -10   3   21.02    3.52   1
   5 -10   3   21.57    5.19   7
  -5  10  -3   29.81    5.90   2
  -5  10  -3   30.55    6.48   5
   6 -10   3   84.83    9.26   7
  -6  10  -3   92.26   11.16   5
   6 -10   3   78.06    7.01   1
  -6  10  -3   93.72    9.73   2
  -5  -9   3    1.78    4.35   8
   5   9  -3    1.54    2.65   4
   5   9  -3   -5.23    3.37   6
  -4  -9   3  349.53   23.52   8
   4   9  -3  306.29   19.06   6
  -4  -9   3  322.25   20.19   9
   4   9  -3  351.68   20.12   4
   3   9  -3   34.01    4.93   4
   3   9  -3   31.85    4.51   6
  -3  -9   3   39.80    5.62   9
  -3  -9   3   34.75    6.30   8
   2   9  -3  425.99   23.39   6
  -2  -9   3  522.79   28.99   8
   2   9  -3  451.93   23.81   4
   2   9  -3  480.75   25.41   2
  -2  -9   3  477.08   26.56   9
   1   9  -3  157.43   10.62   6
   1   9  -3  178.44   13.26   5
   1   9  -3  130.34   31.77  11
  -1  -9   3  163.56   12.59   9
   1   9  -3  172.41   11.73   2
   1   9  -3  154.35   10.40   4
   0   9  -3  511.88   28.56   5
   0   9  -3  481.33   23.90   4
   0   9  -3  519.28   65.22  11
   0  -9   3  514.69   28.09   9
   0   9  -3  517.48   26.10   2
   0   9  -3  494.74   24.81   6
  -1   9  -3  290.37   19.14   5
  -1   9  -3  296.77   16.53   6
   1  -9   3  304.28   20.52   3
  -1   9  -3  298.30   49.50  11
   1  -9   3  289.29   17.35   7
  -1   9  -3  286.25   17.05   2
  -1   9  -3  293.91   15.04   4
  -2   9  -3   60.97    7.25   5
   2  -9   3   49.13    6.10   7
   2  -9   3   62.15    7.81   3
  -2   9  -3   42.48    6.05   2
  -2   9  -3   59.44    4.56   4
   3  -9   3  239.47   15.19   7
   3  -9   3  254.23   17.63   3
  -3   9  -3  240.28   16.39   2
  -3   9  -3  250.71   17.29   5
   3  -9   3  220.74   11.03   1
   4  -9   3    2.88    3.46   3
  -4   9  -3    1.12    3.51   2
   4  -9   3    3.08    1.73   1
  -4   9  -3   -2.72    2.88   5
   5  -9   3   78.73    8.73   3
   5  -9   3   79.54   11.10   7
   5  -9   3   84.10   13.08   1
  -5   9  -3   87.87    9.24   2
  -5   9  -3   92.90   10.08   5
   6  -9   3   33.53    4.69   1
   6  -9   3   31.97    5.84   7
  -6   9  -3   32.61    6.96   5
  -6   9  -3   30.90    6.20   2
   7  -9   3    6.11    3.27   1
   7  -9   3   16.79    4.94   7
  -7   9  -3    8.28    4.17   2
   6   8  -3   86.61    9.22   4
   6   8  -3   67.50    8.02   6
  -5  -8   3  252.90   16.74   9
   5   8  -3  238.82   16.20   6
   5   8  -3  276.19   17.43   4
  -5  -8   3  303.42   20.76   8
   4   8  -3   42.21    5.42   6
  -4  -8   3   49.18    6.23   9
  -4  -8   3   59.07    8.19   8
   4   8  -3   38.97    5.86   4
   3   8  -3  539.33   26.63   4
  -3  -8   3  525.87   28.55   9
   3   8  -3  512.78   26.08   6
  -3  -8   3  551.96   31.18   8
  -2  -8   3   71.74   26.87   9
  -2  -8   3   62.72   27.71   8
   2   8  -3  100.86   21.15   2
   2   8  -3  139.10   23.47   4
   2   8  -3   99.77   25.51   6
  -1  -8   3  554.03   29.69   9
   1   8  -3  578.96   64.36  11
   1   8  -3  530.39   26.12   6
   1   8  -3  573.34   27.90   2
   1   8  -3  570.16   26.35   4
   0   8  -3  109.13    7.78   6
   0   8  -3  100.89    7.28   4
   0  -8   3  107.27    8.23   7
   0   8  -3  114.82   10.21   5
   0  -8   3  104.98    9.41   9
   0   8  -3  114.70   27.73  11
   0   8  -3  101.56    8.20   2
  -1   8  -3  258.62   15.68   2
   1  -8   3  258.85   18.15   3
   1  -8   3  285.16   16.27   7
  -1   8  -3  288.00   13.85   4
   1  -8   3  264.26   16.98   9
  -1   8  -3  284.22   17.92   5
  -2   8  -3   95.27   13.02  10
  -2   8  -3  101.32    9.57   5
  -2   8  -3  101.16    9.39   2
   2  -8   3   95.03    8.21   7
  -2   8  -3  107.82    5.60   1
   2  -8   3   98.39    5.46   1
   2  -8   3   97.95    9.47   3
  -2   8  -3  102.23    6.07   4
  -3   8  -3   37.39    6.05   2
  -3   8  -3   33.75    5.85   5
   3  -8   3   39.62    5.62   3
  -3   8  -3   45.47    3.61   1
  -3   8  -3   32.66    2.59   4
  -3   8  -3   32.77    9.08  10
   3  -8   3   37.30    3.47   1
   3  -8   3   32.46    5.10   7
   4  -8   3   37.32    5.60   3
  -4   8  -3   50.94    8.43   5
   4  -8   3   35.04   14.15   7
   4  -8   3   40.51    4.15   1
  -4   8  -3   48.67    6.52   2
  -4   8  -3   37.38    3.81   1
   5  -8   3   17.14    5.25   7
  -5   8  -3    2.01    4.61   5
  -5   8  -3    8.89    3.52   2
   6  -8   3   -1.55    2.43   7
  -6   8  -3    3.30    3.85   2
   6  -8   3    0.29    2.30   1
   7  -8   3   13.21    3.88   7
  -7   8  -3    9.00    4.12   5
   7  -8   3   13.90    3.38   1
  -7   8  -3   16.38    4.90   2
   6   7  -3   78.92    8.73   4
   6   7  -3   75.56    8.21   6
  -6  -7   3   76.17    5.84   1
  -6  -7   3   78.23    9.60   8
  -5  -7   3  144.44    7.84   1
   5   7  -3  119.73   10.26   6
  -5  -7   3  137.40   12.55   8
   5   7  -3  147.19   11.35   4
  -4  -7   3  227.51   21.25  10
   4   7  -3  205.04   13.32   4
  -4  -7   3  227.77   16.13   8
   4   7  -3  202.38   13.04   6
  -4  -7   3  197.67    9.56   1
   3   7  -3   62.95    8.85   6
  -3  -7   3   63.92    6.84   9
   3   7  -3   51.13   94.74   4
  -3  -7   3   45.97    7.74  10
  -3  -7   3   53.61    3.40   1
  -3  -7   3   67.43    7.51   8
   2   7  -3  264.22   14.20   4
  -2  -7   3  260.85   16.72   8
  -2  -7   3  252.02   15.91   9
   2   7  -3  239.98   13.60   6
   1   7  -3    0.34    1.00   6
  -1  -7   3   -3.23    2.27   9
   1   7  -3    1.06    1.03   4
   0  -7   3  134.35    9.60   7
   0   7  -3  162.58    9.21   6
   0  -7   3  136.60   10.63   9
   0   7  -3  164.84   11.81   5
   0   7  -3  138.45    8.40   4
   0   7  -3  191.21   32.65  11
   0   7  -3  145.14    9.78   2
   1  -7   3   38.20    4.41   7
   1  -7   3   37.04    5.06   3
  -1   7  -3   38.66    2.13   1
   1  -7   3   33.11    4.98  10
  -1   7  -3   38.67    2.46   1
  -1   7  -3   39.37    3.40   4
  -1   7  -3   37.21    6.31  10
   1  -7   3   37.21    2.38   1
  -1   7  -3   39.06    4.46   2
   1  -7   3   43.52    5.22   9
  -1   7  -3   39.19    5.22   5
  -2   7  -3    1.97    3.38  10
   2  -7   3   -3.13    2.70  10
   2  -7   3   -1.51    2.48   7
  -2   7  -3    2.99    1.15   1
  -2   7  -3   -1.03    2.53   5
   2  -7   3    5.10    1.37   1
  -2   7  -3    1.60    0.96   4
   2  -7   3    1.75    2.36   3
  -3   7  -3   38.05    9.40  10
   3  -7   3   28.21    4.54   7
   3  -7   3   38.56    5.17   3
  -3   7  -3   32.29    3.06   1
  -3   7  -3   46.21    6.21   5
   3  -7   3   28.02    7.72  10
   3  -7   3   37.97    3.38   1
  -3   7  -3   41.33    5.95   2
   4  -7   3   77.88    5.75   1
   4  -7   3   94.01   27.78   3
   4  -7   3   64.52   13.72  10
  -4   7  -3   84.90   30.51   5
   4  -7   3   88.97   35.01   7
  -4   7  -3   97.28    8.91   2
  -4   7  -3   79.86    5.56   1
  -4   7  -3   76.05   14.63  10
  -5   7  -3    9.16    6.51   1
   5  -7   3    9.86    3.63   7
  -5   7  -3    8.17   14.14  10
   5  -7   3   10.02    5.16   1
  -5   7  -3    8.57    3.49   5
  -6   7  -3   97.16    9.62   2
   6  -7   3   81.08    8.47   7
  -6   7  -3   83.15    9.76   5
   6  -7   3   87.56    7.28   1
  -6   7  -3   94.13    7.14   1
  -7   7  -3    1.72    4.03   5
   7  -7   3   -0.41    2.79   1
  -7   7  -3   -4.03    4.00   2
  -7   7  -3   -4.74    2.84   1
   7  -7   3    0.28    2.93   7
  -8   7  -3   45.25    8.13   5
   8  -7   3   44.25    6.13   1
   8  -7   3   45.79    6.74   7
  -8   7  -3   48.92    6.98   2
   7   6  -3    1.72    6.28   4
   7   6  -3    2.50    2.73   6
  -7  -6   3    4.07    2.62   1
  -6  -6   3  147.32    8.68   1
   6   6  -3  154.98   11.90   4
   6   6  -3  136.44   11.19   6
   5   6  -3    4.78    3.26   4
  -5  -6   3    1.45    3.47   1
  -5  -6   3    9.54    8.21  10
   5   6  -3    1.74    2.09   6
  -4  -6   3  128.40   11.06   8
  -4  -6   3  129.82    6.96   1
   4   6  -3  138.20   10.08   4
   4   6  -3  147.37    7.14   1
   4   6  -3  125.87    9.23   6
  -4  -6   3  127.34   15.94  10
   3   6  -3   -3.36    2.51   4
  -3  -6   3   -0.60    1.71   1
  -3  -6   3   -4.21    3.50  10
  -3  -6   3    0.26    0.91   1
  -3  -6   3    8.21    3.56  10
  -3  -6   3   -0.59    4.86   8
  -2  -6   3   42.81    9.69  10
   2   6  -3   43.84  138.26   1
   2   6  -3   43.81   26.59   1
  -2  -6   3   48.61   15.01   1
  -2  -6   3   36.80   83.79   1
  -2  -6   3   52.04  120.88  10
  -1  -6   3   22.46    6.50   7
   1   6  -3   18.44   10.08  11
   1   6  -3   25.01    3.43   2
   1   6  -3   22.10    3.11   4
  -1  -6   3   29.73    4.36   9
   1   6  -3   22.16    2.99   6
   0   6  -3    5.29    1.71   4
   0   6  -3   -2.51    2.11   2
   0  -6   3    1.60    1.80   9
   0   6  -3    4.06    1.56   6
   0  -6   3   -1.70    1.83   7
  -1   6  -3  104.51    8.76   5
   1  -6   3   87.60    9.83  10
  -1   6  -3  102.98    7.74   2
  -1   6  -3   96.13    5.18   1
   1  -6   3  108.05    8.18   9
  -1   6  -3   98.66    4.75   1
   1  -6   3   98.65    5.13   1
  -1   6  -3   91.60    5.62   4
   1  -6   3  118.08    8.71   3
   1  -6   3  112.57    7.60   7
  -1   6  -3  101.36   12.09  10
   2  -6   3   18.54   13.23  10
   2  -6   3    7.03   11.85   1
  -2   6  -3   17.57    3.59   5
   2  -6   3   10.90    4.53   7
  -2   6  -3   17.18    7.66   1
  -2   6  -3   13.85   10.54  10
   2  -6   3   26.16    7.93   3
   2  -6   3   29.38   10.07   1
  -2   6  -3    8.18   14.04   4
   3  -6   3  131.34    9.15   7
  -3   6  -3  130.79   10.21   2
   3  -6   3  130.58   17.20  10
  -3   6  -3   95.19   15.20  10
   3  -6   3  135.09    9.49   3
   3  -6   3  129.78    6.88   1
  -3   6  -3  119.03   10.11   5
  -3   6  -3  129.34    7.10   1
   3  -6   3  129.55    7.23   1
  -4   6  -3    1.74    1.38   1
   4  -6   3    1.48    1.99   3
   4  -6   3    2.76    1.55   1
  -4   6  -3    5.37    7.83   2
   4  -6   3   29.11    9.59  10
  -4   6  -3    3.94    3.36   5
   4  -6   3    3.14    2.33   7
  -4   6  -3    3.59    4.49  10
  -5   6  -3  108.72   51.88  10
  -5   6  -3   81.30   52.30   2
   5  -6   3   75.85   57.89  10
  -5   6  -3  104.67   54.59   1
   5  -6   3   97.91   40.09   1
   5  -6   3  111.85   69.40   7
   5  -6   3   79.56    7.15   3
  -5   6  -3   89.68   53.66   5
  -6   6  -3    0.06    3.07   2
   6  -6   3   -7.91    8.26  10
  -6   6  -3   -0.54    6.29  10
   6  -6   3   -2.12    3.04   7
   6  -6   3   -1.88    2.63   1
  -6   6  -3   -0.87    2.60   5
  -6   6  -3   -1.93    2.43   1
   7  -6   3   38.85    5.92   7
  -7   6  -3   31.25    6.04   2
   7  -6   3   27.67    4.64   1
  -7   6  -3   29.67    4.49   1
  -7   6  -3   32.17    6.58   5
   8  -6   3   -3.62    3.44   7
  -8   6  -3    1.75    3.07   5
  -8   6  -3   -0.51    2.48   2
  -8  -5   3   40.14    5.32   1
   7   5  -3   25.10    5.44   4
   7   5  -3   24.75    4.81   6
  -7  -5   3   21.56    3.71   1
   6   5  -3   14.70    4.36   4
  -6  -5   3   17.16    3.04   1
   6   5  -3   12.34    3.66   6
   5   5  -3   14.51    5.48   6
   5   5  -3    7.71    9.83   1
   5   5  -3    9.10    3.81   4
  -5  -5   3    5.91    6.15   1
  -5  -5   3  -12.71   15.27  10
  -5  -5   3   -6.92    9.01  11
  -4  -5   3    2.63    3.76  10
  -4  -5   3    0.98    6.57  11
   4   5  -3    5.41    5.32   4
  -4  -5   3   11.15    5.67  10
   4   5  -3    4.85    1.54   1
   4   5  -3    1.73    5.77   6
  -3  -5   3   13.18    3.51   8
   3   5  -3    3.17   28.53   4
  -3  -5   3    6.75    3.86  10
  -3  -5   3   10.13    1.46   1
   3   5  -3   10.38    1.46   1
  -3  -5   3    6.88   26.75  10
   3   5  -3    6.65   20.51   6
  -3  -5   3    8.57   17.15   1
   2   5  -3   50.96   70.47   1
   2   5  -3    5.92   41.43   1
  -2  -5   3    8.22   39.97  10
   2   5  -3   66.68   40.16   7
  -2  -5   3   20.29   48.08   1
  -2  -5   3   51.58   39.33  10
  -2  -5   3    9.37   39.11   1
  -2  -5   3   98.59   42.76   8
   1   5  -3   72.85    4.80   6
   1   5  -3   68.75    3.34   1
   1   5  -3   65.86   16.15  11
   1   5  -3   79.77    5.97   2
   1   5  -3   82.45    5.34   7
   1   5  -3   70.25    5.17   4
  -1  -5   3   72.77    6.38   8
  -1  -5   3   76.14   13.87   7
   1   5  -3   72.14    3.67   1
  -1  -5   3   73.17    3.39   1
   0   5  -3   64.27    5.28   2
   0  -5   3   63.22    3.21   1
   0   5  -3   70.09    4.35   6
   0   5  -3   61.35    3.22   1
   0  -5   3   64.43    5.05   7
   0   5  -3   70.23    7.73  10
   0  -5   3   69.35    5.95   9
   0   5  -3   58.52    4.24   4
   0   5  -3   61.09    3.17   1
  -1   5  -3   94.64   12.34  10
   1  -5   3   88.04    7.00   9
  -1   5  -3   92.92    7.68   5
  -1   5  -3   91.20    5.06   1
  -1   5  -3  109.87    7.90   3
   1  -5   3  121.68   12.30  10
   1  -5   3   91.40    6.63   7
  -1   5  -3   91.52    7.04   2
  -1   5  -3   86.48    4.61   1
   1  -5   3   93.54    5.10   1
  -1   5  -3   96.19    5.11   4
   1  -5   3  103.98    7.53   3
   1  -5   3   90.24    4.71   1
   2  -5   3  131.34    9.18   9
  -2   5  -3  138.64    9.66   2
   2  -5   3  125.06   14.95  10
  -2   5  -3  133.87    6.92   1
  -2   5  -3  140.63   10.17   5
   2  -5   3  140.04    8.91   7
  -2   5  -3  127.10   15.55  10
   2  -5   3  154.86    9.54   3
   2  -5   3  130.52    6.70   1
   2  -5   3  126.47    6.92   1
   3  -5   3   66.69   12.44  10
  -3   5  -3   69.11   24.08   5
  -3   5  -3   66.73    6.90   2
   3  -5   3   54.51    4.10   1
  -3   5  -3   50.52   28.85   1
   3  -5   3   59.87    6.08   7
  -3   5  -3   38.25   13.23  10
   3  -5   3   63.04    5.38   3
   3  -5   3   54.15   26.27   1
  -4   5  -3  112.53   26.09   2
   4  -5   3  156.35   21.25  10
  -4   5  -3  107.51   17.65  10
   4  -5   3  105.06   73.25   7
  -4   5  -3   96.73   19.09   5
   4  -5   3  123.27   30.55   3
  -4   5  -3  106.50    6.80   1
   4  -5   3  116.22   30.25   1
   5  -5   3   31.91    3.95   3
   5  -5   3   41.29    4.48   1
  -5   5  -3   31.78    5.59   2
   5  -5   3   32.41    4.70   7
   5  -5   3   37.99   12.29  10
  -5   5  -3   29.98    5.28   1
  -5   5  -3   38.51    5.84   5
  -5   5  -3   31.16   11.57  10
  -6   5  -3   20.89    4.84   5
   6  -5   3   22.65    4.72   7
   6  -5   3   29.63   11.78  10
  -6   5  -3   32.94    5.87   2
  -6   5  -3   27.58    3.99   1
  -6   5  -3   39.09   13.61  10
   6  -5   3   24.98    4.02   1
  -7   5  -3   24.12    5.61   5
   7  -5   3   26.97    4.73   7
  -7   5  -3   19.66    3.94   1
  -7   5  -3   23.16    4.85   2
   7  -5   3   21.20    4.27   1
  -8   5  -3    1.77    3.93   5
  -8   5  -3   -2.89    3.79   2
   8  -5   3    1.79    5.96   7
   8  -5   3    0.76    2.89   1
  -8  -4   3   -2.27    2.73   1
   8   4  -3   -1.22    3.75   4
   7   4  -3   35.89    6.12   4
  -7  -4   3   27.92    4.27   1
   7   4  -3   36.74    4.55   1
   6   4  -3   -0.47    2.12   4
   6   4  -3   -2.76    3.18   6
  -6  -4   3   -3.69    8.14  11
   6   4  -3   -2.29    1.95   1
   5   4  -3   39.93    5.24   6
   5   4  -3   29.77    2.63   7
   5   4  -3   33.53    4.71   1
   5   4  -3   48.78    5.79   4
  -5  -4   3   43.51    4.17   1
  -5  -4   3   43.58   10.66  10
  -4  -4   3   58.74    4.06   1
  -4  -4   3   51.35    3.80   1
   4   4  -3   52.95   20.59   1
   4   4  -3   50.88   54.46   6
   4   4  -3   69.25   54.96   4
  -4  -4   3   32.90   12.13  11
   4   4  -3   52.66    3.55   7
  -4  -4   3   41.95    9.84  10
  -4  -4   3   46.48   10.01  10
  -3  -4   3   69.16   15.98  11
  -3  -4   3   74.43    4.33   1
  -3  -4   3   80.15    6.72   8
  -3  -4   3   77.45   10.88  10
  -3  -4   3   80.01    4.47   1
   3   4  -3   82.25    4.49   1
   3   4  -3   73.32    5.88   6
   3   4  -3   85.95   12.42   4
  -3  -4   3   55.28    9.55  10
   3   4  -3   77.16    4.69   7
   2   4  -3  277.30   18.69   6
   2   4  -3  298.87   26.54   7
   2   4  -3  257.11   27.43   1
  -2  -4   3  229.84   26.00   1
  -2  -4   3  236.59   20.68  10
  -2  -4   3  221.31   25.69   6
  -2  -4   3  238.07   27.30  10
  -2  -4   3  299.65   20.50   8
   2   4  -3  276.83   24.75   1
   1   4  -3   83.25   16.08  11
   1   4  -3  112.73   10.05  10
  -1  -4   3  113.40   11.46  10
  -1  -4   3  108.49    4.82   1
  -1  -4   3  113.41    6.49   7
   1   4  -3  101.63    6.75   2
   1   4  -3  103.60    5.74   6
  -1  -4   3  114.46    6.61   4
   1   4  -3  107.85    4.82   1
  -1  -4   3  107.47    7.53   8
  -1  -4   3  107.24    5.09   1
   1   4  -3  108.38    6.43   4
   1   4  -3  109.92    8.53   3
   1   4  -3  103.70    4.99   1
   0   4  -3  574.68   29.39   8
   0  -4   3  610.51   26.93   7
   0  -4   3  585.94   32.18  10
   0   4  -3  616.22   25.30   4
   0   4  -3  579.07   24.70   6
   0  -4   3  580.85   22.49   1
   0   4  -3  612.11   30.66   3
   0   4  -3  598.51   22.54   1
   0  -4   3  601.65   22.49   1
   0  -4   3  615.55   25.52   4
   0   4  -3  612.03   22.54   1
   0   4  -3  576.64   27.01   2
   0   4  -3  584.82   31.84  10
  -1   4  -3   34.51    2.33   4
   1  -4   3   37.76    2.91   1
   1  -4   3   33.30    3.87   9
   1  -4   3   32.81    6.88  10
   1  -4   3   38.43    3.67   7
  -1   4  -3   35.76    2.83   1
  -1   4  -3   34.35    3.63   3
  -1   4  -3   35.00    2.50   1
   1  -4   3   33.61    2.51   1
   1  -4   3   33.90    3.66   3
   1  -4   3   36.06    3.86   2
  -1   4  -3   32.92    7.65  10
  -1   4  -3   36.55    4.14   2
   2  -4   3  197.57   89.73   1
   2  -4   3  247.59   78.80   3
   2  -4   3  438.95   65.72   1
  -2   4  -3  272.05   56.19   1
  -2   4  -3  314.79   50.73   5
   2  -4   3  370.81   53.79   9
  -2   4  -3  196.10   44.13   3
   2  -4   3  293.72   63.35  10
  -2   4  -3  292.97   61.86  10
  -3   4  -3   -4.12    6.20  10
  -3   4  -3    2.47    2.32   5
   3  -4   3    1.49    1.38   1
   3  -4   3    1.86   18.06   1
  -3   4  -3    0.14    8.74   2
   3  -4   3    1.81    1.33   3
  -3   4  -3    2.12    1.24   6
  -3   4  -3    2.11   14.24   1
   3  -4   3    4.49   14.28  10
  -4   4  -3   51.46    5.74   5
  -4   4  -3   45.72    4.03   1
   4  -4   3   51.19    5.34   3
   4  -4   3   46.36   12.22  10
  -4   4  -3   49.97   11.90  10
   4  -4   3   41.75    3.98   1
  -4   4  -3   60.18   31.24   2
   5  -4   3   36.20    4.15   1
   5  -4   3   58.15   14.62  10
  -5   4  -3   30.85    5.23   2
   5  -4   3   29.00    3.37   3
  -5   4  -3   27.72   11.17  10
  -5   4  -3   26.32    4.82   5
  -5   4  -3   32.44    4.70   1
   6  -4   3   33.03   12.82  10
  -6   4  -3   19.92    3.63   1
  -6   4  -3   56.42   15.52  10
  -6   4  -3   24.58    5.02   5
   6  -4   3   28.14    4.11   1
  -6   4  -3   28.83    5.47   2
  -7   4  -3   52.07    5.66   1
   7  -4   3   44.78    5.56   1
  -7   4  -3   42.66    6.71   5
  -7   4  -3   47.15    7.00   2
   8  -4   3   44.69    6.09   1
  -8   4  -3   52.26    6.32   1
  -8   4  -3   64.33    8.53   5
   8   3  -3    0.36    2.47   1
   8   3  -3   -2.33    3.28   4
  -8  -3   3    5.21    3.03   1
  -7  -3   3   74.93    6.49   1
   7   3  -3   76.52    6.52   1
   7   3  -3   84.27    8.48   4
  -5  -3   3  163.25  133.18  10
  -5  -3   3  130.08   80.38  11
   5   3  -3  180.58  133.45   1
   5   3  -3  167.40  116.50   4
  -5  -3   3  169.80  118.27   1
   5   3  -3  169.37   10.96   6
  -4  -3   3   14.35    6.33  10
   4   3  -3    7.94   21.07   4
  -4  -3   3    8.96    1.92   1
   4   3  -3    5.04    0.87   7
  -4  -3   3    9.24    6.33  11
   4   3  -3    6.52    6.25   6
   4   3  -3    7.36    1.76   1
  -4  -3   3   -1.17    4.05  10
  -3  -3   3  142.70    7.14   1
  -3  -3   3  150.50    9.23   6
  -3  -3   3  167.20   16.55  10
  -3  -3   3  160.80   16.11  10
   3   3  -3  156.52    8.77   6
  -3  -3   3  166.55    7.40   1
  -3  -3   3  142.87   20.20  11
   3   3  -3  154.23    7.27   1
   3   3  -3  157.56    9.32   4
   3   3  -3  148.66    7.39   7
   2   3  -3    4.46    0.95   1
   2   3  -3    2.41    0.90   1
  -2  -3   3    1.02    0.81   1
  -2  -3   3   10.75    4.04  10
  -2  -3   3    2.61    1.61   4
   2   3  -3    0.85    1.16   6
  -1  -3   3   49.61    4.39   8
   1   3  -3   53.15    3.15   6
  -1  -3   3   60.84    8.39  10
   1   3  -3   51.36    4.45   8
  -1  -3   3   52.33    2.93   1
   1   3  -3   44.16    6.69  10
   1   3  -3   56.52    3.96   4
  -1  -3   3   53.26    3.32   6
   1   3  -3   54.85    4.23   2
   1   3  -3   52.21    3.08   1
  -1  -3   3   61.76    3.87   7
  -1  -3   3   52.54    3.87   4
   1   3  -3   53.84    2.97   1
  -1  -3   3   60.04    3.23   1
   0  -3   3    5.00    1.40   2
   0  -3   3    4.75    3.45  10
   0   3  -3    3.34    0.87   4
   0  -3   3    4.18    1.02   4
   0   3  -3    3.06    0.99   1
   0  -3   3    3.47    1.07   1
   0  -3   3    2.60    1.03   1
  -1   3  -3    7.99    1.38   1
  -1   3  -3   14.19    1.97   3
   1  -3   3    8.84    1.90   2
  -1   3  -3    9.89    0.96   6
  -1   3  -3    6.26    4.33  10
   1  -3   3    9.79    1.62   1
   1  -3   3   16.23    5.43  10
  -1   3  -3   15.03    2.50   2
  -1   3  -3   11.53    1.73   1
   1  -3   3   11.17    1.09   4
   1  -3   3   13.38    1.63   1
  -2   3  -3  151.81  112.64   1
  -2   3  -3   31.29  164.24   6
  -2   3  -3  307.67  160.71   5
   2  -3   3   33.47  117.21   2
   2  -3   3  262.58  119.25  10
  -2   3  -3  159.36  118.00  10
   2  -3   3  379.80  128.85   9
  -3   3  -3   70.93   12.79  10
   3  -3   3   80.54   13.92  10
  -3   3  -3   78.18    6.63   2
   3  -3   3   55.55    4.14   3
   3  -3   3   64.13    4.61   1
  -3   3  -3   66.24    5.99   5
  -3   3  -3   64.26    4.51   6
  -3   3  -3   67.09    4.63   1
   3  -3   3   63.80    7.01   1
  -4   3  -3  164.51   21.89  10
   4  -3   3  188.13   23.69  10
  -4   3  -3  194.09   12.53   2
   4  -3   3  172.91    9.43   1
   4  -3   3  170.37    9.82   3
  -4   3  -3  193.89   12.02   5
  -4   3  -3  174.84    9.42   1
   5  -3   3   40.42    3.72   3
  -5   3  -3   42.46    6.15   2
  -5   3  -3   46.52    4.56   1
   5  -3   3   36.97    3.20   4
   5  -3   3   51.45   13.92  10
   5  -3   3   48.35    4.71   1
  -5   3  -3   40.63   12.50  10
  -5   3  -3   44.12    5.52   5
  -6   3  -3  254.15   16.54   5
  -6   3  -3  250.40   16.73   2
   6  -3   3  219.88   31.16  10
   6  -3   3  266.24   13.75   1
  -6   3  -3  254.06   13.47   1
  -6   3  -3  243.20   31.60  10
  -7   3  -3    0.84    2.61   1
  -7   3  -3    4.20    3.80   2
   7  -3   3    4.59   10.60   1
  -7   3  -3    3.73    2.71   5
  -8   3  -3  173.74   11.55   1
  -8   3  -3  153.23   13.30   5
   8  -3   3  149.75   11.07   1
   9   2  -3   -1.28    3.19   1
  -9  -2   3    1.21    3.22   1
   9   2  -3    8.15    6.50   4
   8   2  -3   -1.51    3.67   4
   8   2  -3    2.65    2.28   1
   7   2  -3    4.29    3.33   4
  -7  -2   3   12.22    3.32   1
   6   2  -3    2.03    2.27   1
   6   2  -3    3.46    2.75   4
   5   2  -3   -3.99    4.04   1
   5   2  -3    2.80    2.20   4
  -5  -2   3  -11.59    7.36  10
  -5  -2   3   -2.42    2.77   1
  -4  -2   3    1.39    8.85   1
   4   2  -3    5.23  112.85   4
  -4  -2   3    7.04   10.77  10
  -4  -2   3    9.38    5.76  10
  -4  -2   3    1.36    2.66   1
   4   2  -3    3.80   72.55   1
   3   2  -3    4.18   11.82   4
  -3  -2   3   -0.97   39.91   1
  -3  -2   3    3.56    4.38  10
  -3  -2   3    3.08   37.00  10
  -3  -2   3    4.96    1.22   1
  -3  -2   3    2.14    3.12  11
   3   2  -3    2.70   11.47   1
  -3  -2   3    3.32    1.61   6
  -2  -2   3  107.56    5.63   7
  -2  -2   3  121.11    5.64   1
   2   2  -3  118.80    6.92   4
  -2  -2   3  117.95    5.63   1
  -2  -2   3  121.25    6.91   4
  -2  -2   3  127.57   12.81  10
   2   2  -3  119.87    5.58   1
   2   2  -3  120.99    5.68   1
  -2  -2   3  127.51    6.76   6
  -2  -2   3  111.83    7.22   8
  -1  -2   3   22.55    1.83   1
   1   2  -3   17.30    4.51  10
  -1  -2   3   19.93    1.62   6
   1   2  -3   18.98    2.22   8
  -1  -2   3   20.16    2.22   4
   1   2  -3   19.03    1.72   1
   1   2  -3   19.52    2.18   2
   1   2  -3   19.99    1.67   1
  -1  -2   3   18.48    1.63   1
  -1  -2   3   22.32    5.43  10
   1   2  -3   21.78    2.16   4
   0  -2   3  966.82   40.25   4
   0   2  -3 1001.33   42.18   2
   0   2  -3 1025.09   36.79   1
   0  -2   3  971.09   36.69   1
   0  -2   3  997.36   50.05  10
   0  -2   3  976.78   36.63   1
   0  -2   3  968.08   42.05   2
   0   2  -3  985.38   49.72  10
   0   2  -3  974.19   36.69   1
   0   2  -3 1000.45   40.27   4
   1  -2   3   91.41    5.10   1
  -1   2  -3   87.06    5.15   3
   1  -2   3   94.01    6.26   2
  -1   2  -3   85.46   12.39  10
  -1   2  -3   86.19    4.92   1
  -1   2  -3   93.18    5.18   1
  -1   2  -3   90.67    6.37   2
   1  -2   3   91.91    5.02   1
   1  -2   3   90.79   12.52  10
   1  -2   3   90.95    4.56   4
  -1   2  -3   84.16    4.34   6
  -2   2  -3  787.41   35.29   6
   2  -2   3  888.35   49.78  10
  -2   2  -3  840.08   48.30  10
   2  -2   3  817.75   37.51   9
  -2   2  -3  818.76   32.18   1
   2  -2   3  851.85   38.33   2
  -2   2  -3  866.11   38.26   2
  -2   2  -3  810.35   34.24   1
   2  -2   3  821.10   33.07   1
   2  -2   3  877.46   32.43   1
  -2   2  -3  914.75   39.50   5
   3  -2   3  257.51   12.38   4
  -3   2  -3  297.96   40.49   2
  -3   2  -3  290.43  102.38   1
  -3   2  -3  307.64   15.88   5
  -3   2  -3  313.57   27.90  10
  -3   2  -3  296.24   13.97   6
   3  -2   3  292.98  113.68   1
   3  -2   3  295.96   27.64  10
   4  -2   3  493.52   22.25   4
  -4   2  -3  549.53   42.07  10
  -4   2  -3  523.32   22.05   1
  -4   2  -3  517.87   26.54   2
   4  -2   3  544.34   22.26   1
  -4   2  -3  516.33   26.46   5
   4  -2   3  565.75   43.56  10
   5  -2   3  501.72   43.37  10
  -5   2  -3  454.56   24.65   2
  -5   2  -3  457.20   20.33   1
  -5   2  -3  443.35   40.53  10
  -5   2  -3  477.10   24.66   5
   5  -2   3  438.49   20.20   1
  -6   2  -3  148.48   11.07   5
   6  -2   3  131.08    8.38   4
   6  -2   3  134.93    8.99   1
   6  -2   3  157.09   26.10  10
  -6   2  -3  154.55   11.97   2
  -6   2  -3  146.63    9.21   1
  -7   2  -3  352.48   22.00   5
  -7   2  -3  369.15   18.62   1
   7  -2   3  382.53   18.87   1
   8  -2   3   28.95    6.71   1
  -8   2  -3   18.09    6.07   1
  -9  -1   3    1.91    2.54   1
   9   1  -3    2.86    3.84   4
   8   1  -3   -1.57    6.77   1
   8   1  -3    6.94    3.86   4
  -8  -1   3    3.67    6.34   1
  -7  -1   3    6.60    2.56   1
   7   1  -3    0.04    3.48   4
   6   1  -3   -1.36   54.68   4
   6   1  -3    5.92    2.03   1
  -6  -1   3    9.66  108.34   5
  -6  -1   3    4.73   11.03   1
  -5  -1   3    3.45   44.22   1
   5   1  -3   17.46   33.42   4
   5   1  -3   15.74   48.40   1
  -5  -1   3   10.48   50.47   5
  -5  -1   3    3.93   44.33  10
  -4  -1   3  109.46    9.06   5
  -4  -1   3   99.86    5.86   1
   4   1  -3   97.99   16.31   4
  -4  -1   3  100.54   14.60  10
   4   1  -3   91.39   27.86   1
  -4  -1   3  119.25   15.64  10
  -3  -1   3  132.06    7.78   6
  -3  -1   3  150.10   15.56  10
  -3  -1   3  136.43   12.77   1
   3   1  -3  129.70    7.88   4
  -3  -1   3  140.55   13.92  11
  -3  -1   3  131.11    7.85   4
   3   1  -3  128.89    7.78   1
  -3  -1   3  139.07    6.70   1
  -3  -1   3  162.19   16.52  10
  -2  -1   3  324.48   15.82   8
   2   1  -3  337.22   13.03   1
  -2  -1   3  326.29   12.91   1
   2   1  -3  305.95   18.27   5
  -2  -1   3  322.25   13.22   1
  -2  -1   3  311.13   15.41   6
  -2  -1   3  311.08   14.89   4
  -2  -1   3  311.01   22.10  10
   2   1  -3  343.82   22.76  10
   2   1  -3  339.08   13.20   1
   2   1  -3  305.84   14.83   4
  -1  -1   3 1061.14   38.31   1
   1   1  -3 1077.65   49.10  10
   1   1  -3  992.45   38.18   1
   1   1  -3  900.71   47.02   8
   1   1  -3 1113.72   43.83   2
   1   1  -3 1038.67   42.91   4
  -1  -1   3 1087.99   43.13   4
  -1  -1   3 1018.98   38.18   1
   1   1  -3 1079.84   38.36   1
  -1  -1   3 1066.87   49.42  10
   0   1  -3  234.77   10.01   1
   0  -1   3  222.12    9.81   1
   0  -1   3  221.05    9.64   6
   0   1  -3  223.28   11.14   2
   0   1  -3  245.11   20.66  10
   0   1  -3  215.28    9.74   1
   0  -1   3  215.09   10.91   2
   0  -1   3  226.25    9.87   1
   0  -1   3  237.77   20.44  10
  -1   1  -3 2903.88  117.97   2
  -1   1  -3 2627.35  115.25   6
  -1   1  -3 2874.89  102.83   1
  -1   1  -3 2663.11  102.54   1
   1  -1   3 2939.15  113.61   6
   1  -1   3 3046.53  118.07   2
   1  -1   3 2880.03  119.31  10
   1  -1   3 2877.36  102.79   1
   1  -1   3 2778.54  102.60   1
  -1   1  -3 2897.24  119.87  10
  -2   1  -3  101.66   67.75  10
   2  -1   3   20.62   70.28   1
  -2   1  -3   23.08   67.37   1
  -2   1  -3  154.90   89.78   5
  -2   1  -3   12.47   81.03   6
  -2   1  -3  139.30   61.29   1
   2  -1   3  217.45   93.00   9
   2  -1   3   39.28   96.40   2
   2  -1   3  154.29   44.42  10
   3  -1   3 2553.58   95.47   1
  -3   1  -3 2541.81  116.65  10
   3  -1   3 2682.99  106.79   6
   3  -1   3 2463.92  112.85   4
  -3   1  -3 2672.55  110.42   2
  -3   1  -3 2738.60  115.24   5
  -3   1  -3 2623.11   95.49   1
   3  -1   3 2553.93  117.44  10
  -3   1  -3 2690.40  106.12   6
  -4   1  -3  180.66    9.53   1
  -4   1  -3  175.53   22.90  10
  -4   1  -3  205.72   12.53   2
   4  -1   3  171.42    9.06   4
   4  -1   3  177.56   23.40  10
   4  -1   3  174.33   10.88   6
   4  -1   3  152.96    9.97   5
  -4   1  -3  167.24   10.47   5
   4  -1   3  168.96    9.43   1
  -5   1  -3 1272.51   77.44  10
  -5   1  -3 1273.98   59.85   5
   5  -1   3 1289.35   53.81   4
  -5   1  -3 1264.31   58.41   2
  -5   1  -3 1306.05   50.03   1
   5  -1   3 1270.37   49.98   1
   5  -1   3 1221.91   77.09  10
   5  -1   3 1375.07   57.34   6
   6  -1   3  243.84   13.38   1
  -6   1  -3  257.54   13.52   1
   6  -1   3  234.77   13.10   4
  -6   1  -3  238.82   15.46   5
  -7   1  -3  279.80   18.70   5
  -7   1  -3  309.98   16.21   1
   7  -1   3  320.45   16.47   1
  -8   1  -3  143.76   10.79   1
   8  -1   3  150.17   11.00   1
   9   0  -3    0.12    3.54   4
   9   0  -3    6.10    2.97   1
  -9   0   3    8.70    5.01   5
  -9   0   3   13.10    3.44   1
   8   0  -3   -2.73    3.51   4
  -8   0   3   -1.34    3.59   5
   8   0  -3   -2.96   16.96   1
  -8   0   3   -0.42   16.30   1
  -7   0   3   93.41    7.11   1
   7   0  -3  108.02    7.47   1
  -7   0   3   83.59    9.28   5
   7   0  -3   74.71    8.00   4
   6   0  -3    3.58   25.09   4
   6   0  -3   11.66    2.70   1
  -6   0   3    0.38    5.39  10
  -6   0   3    7.67    3.24   5
  -5   0   3  502.66   26.35   5
   5   0  -3  472.98   57.44   1
  -5   0   3  462.22   57.87  10
  -5   0   3  491.79   58.23   1
   5   0  -3  437.86   28.71   4
  -4   0   3  216.10   13.48   5
  -4   0   3  194.33    9.69   1
   4   0  -3  218.10   11.82   4
  -4   0   3  209.88   21.50  10
  -4   0   3  220.01   21.69  10
   4   0  -3  212.89    9.95   1
   3   0  -3 1528.78   62.13   4
  -3   0   3 1589.24   68.43   5
  -3   0   3 1574.76   55.04   1
  -3   0   3 1552.70   61.88   4
   3   0  -3 1492.76   54.87   1
   3   0  -3 1427.56   54.84   1
   3   0  -3 1369.09   78.10   5
  -3   0   3 1415.21   54.71   1
  -3   0   3 1523.78   69.99  10
   2   0  -3 1457.34   77.03   5
   2   0  -3 1437.98   54.46   1
   2   0  -3 1521.14   66.71  10
  -2   0   3 1491.08   61.44   4
   2   0  -3 1539.88   54.67   1
  -2   0   3 1653.40   67.68   5
  -2   0   3 1428.92   54.46   1
  -2   0   3 1522.41   66.88  10
  -2   0   3 1442.43   68.74   8
   1   0  -3 2351.89  112.53   5
   1   0  -3 2527.88  103.13  10
  -1   0   3 2752.10  104.36  10
   1   0  -3 2582.02  106.43   2
  -1   0   3 2715.38   92.19   1
   1   0  -3 2636.97   92.24   1
  -1   0   3 2524.32   92.06   1
   1   0  -3 2462.55  114.11   8
   0   0   3 5630.29  211.51  10
   0   0  -3 5361.82  198.13   1
   0   0  -3 5715.41  212.26  10
  -1   0  -3 1345.47   72.71   3
   1   0   3 1491.50   55.25   1
   1   0   3 1462.35   55.26   1
   1   0   3 1526.97   63.24   2
   1   0   3 1518.82   73.15  10
   1   0   3 1546.75   61.11   6
  -1   0  -3 1581.61   61.21   6
  -1   0  -3 1570.35   63.61   2
  -1   0  -3 1485.18   72.48  10
  -1   0  -3 1466.52   55.35   1
  -1   0  -3 1472.11   55.28   1
  -2   0  -3 3223.07  115.42   1
  -2   0  -3 3009.25  149.14   5
   2   0   3 3045.70  115.23   1
   2   0   3 3253.12  135.47  10
  -2   0  -3 3038.33  115.22   1
   2   0   3 3285.47  128.73   6
   2   0   3 3317.76  115.59   1
  -2   0  -3 3262.59  132.70   2
  -2   0  -3 3359.35  128.62   6
   2   0   3 3094.64  137.35   2
  -2   0  -3 3238.41  134.59  10
  -3   0  -3  140.80    8.35   5
  -3   0  -3  137.81   19.08  10
   3   0   3  181.30   21.88  10
   3   0   3  146.38   19.93   6
  -3   0  -3  156.02   10.35   2
   3   0   3  154.41   12.34   1
  -3   0  -3  148.29   11.67   1
   4   0   3 1496.61   99.34   5
   4   0   3 1731.63   72.56   6
  -4   0  -3 1711.49   90.12  10
   4   0   3 1597.48   70.21   4
  -4   0  -3 1795.48   64.50   1
  -4   0  -3 1724.16   74.80   2
   4   0   3 1825.94   64.62   1
   4   0   3 1759.34   91.58  10
  -4   0  -3 1737.23   76.79   5
   5   0   3   12.83    2.27   5
  -5   0  -3   21.85    3.54   1
   5   0   3   17.24    2.69   4
   5   0   3   15.84    2.09   3
   5   0   3   28.48   11.18  10
   5   0   3   15.92    3.28   1
  -5   0  -3   37.52   12.63  10
  -5   0  -3   22.22    3.55   5
  -6   0  -3  576.40   30.99   5
   6   0   3  565.52   27.68   4
   6   0   3  613.13   26.43   1
  -6   0  -3  605.00   26.36   1
   6   0   3  619.30   30.99   6
   7   0   3   78.50   15.10   1
  -7   0  -3   88.93   13.89   1
   7   0   3   64.09    6.45   4
  -8   0  -3  121.19    9.65   1
   8   0   3  114.22    9.50   1
  -9   1   3   23.20    4.47   1
  -9   1   3   15.20    4.91   5
   9  -1  -3   25.49    4.79   1
  -8   1   3  128.49    9.28   1
  -8   1   3  130.10   12.72   5
   8  -1  -3  141.59    9.83   1
   7  -1  -3   46.88   19.68   1
  -7   1   3   50.88   19.72   1
  -7   1   3   51.02   19.82   5
   7  -1  -3   44.37   27.84   4
  -6   1   3  776.11   76.42   5
  -6   1   3  775.99   32.36   1
   6  -1  -3  748.07   35.29   4
   6  -1  -3  742.70   30.84   1
  -6   1   3  777.32   53.80  10
  -5   1   3   22.84    8.88   1
  -5   1   3   32.59   10.28  10
   5  -1  -3   24.04    7.97   1
  -5   1   3   26.14    4.88   5
  -4   1   3 2334.04   85.03   1
  -4   1   3 2273.74  102.85  10
  -4   1   3 2402.16  104.96   5
  -4   1   3 2375.64  104.23  10
   4  -1  -3 2284.07   85.07   1
  -3   1   3   92.80    5.84   4
  -3   1   3   93.53   12.70  10
   3  -1  -3   77.06    4.61   1
   3  -1  -3   84.34    4.69   1
  -3   1   3   85.33    6.57   5
  -3   1   3   77.79    4.52   1
  -3   1   3   70.16    4.02   7
   3  -1  -3   72.81    6.66   5
  -3   1   3   82.09    4.68   1
   2  -1  -3 4213.67  162.62  10
  -2   1   3 4534.42  184.21   5
   2  -1  -3 3942.77  191.66   5
   2  -1  -3 4135.73  150.52   1
  -2   1   3 4269.73  162.32  10
   1  -1  -3 1022.22   51.24  10
   1  -1  -3 1069.56   39.50   1
  -1   1   3 1015.24   45.72   2
  -1   1   3 1105.49   39.42   1
   1  -1  -3 1124.68   48.68   5
  -1   1   3 1074.55   51.84  10
  -1   1   3 1122.42   47.99   5
  -1   1   3 1048.84   39.33   1
   1  -1  -3 1074.88   39.44   1
   1  -1  -3  996.92   44.43   2
   0  -1  -3 5954.49  214.01   1
   0  -1  -3 5957.70  228.15  10
   0   1   3 6115.33  228.18  10
   1   1   3 2444.54   98.57   2
   1   1   3 2424.56   96.61   6
  -1  -1  -3 2265.18   86.53   1
   1   1   3 2376.95  105.28  10
  -1  -1  -3 2318.81   86.67   1
   1   1   3 2425.30   86.63   1
  -1  -1  -3 2269.39  112.44   3
  -1  -1  -3 2369.85  105.51  10
   1   1   3 2385.92   86.67   1
  -1  -1  -3 2534.36   99.19   2
   2   1   3 1408.86   52.55   1
  -2  -1  -3 1452.38   60.78   2
  -2  -1  -3 1413.19   52.56   1
  -2  -1  -3 1389.21   52.35   1
   2   1   3 1389.01   72.07  10
  -2  -1  -3 1515.46   58.99   6
   2   1   3 1384.51   58.66   6
   2   1   3 1300.70   59.76   2
  -2  -1  -3 1369.12   71.67  10
  -3  -1  -3 1947.96   96.10  10
  -3  -1  -3 2037.18   83.47   2
   3   1   3 1909.92   80.78   6
  -3  -1  -3 1847.29  102.21   5
   3   1   3 1929.84   72.03   1
  -3  -1  -3 1969.02   72.06   1
   3   1   3 1946.29   96.07  10
  -4  -1  -3  197.04   10.14   1
   4   1   3  160.55   10.17   3
  -4  -1  -3  201.01   25.10  10
   4   1   3  182.53   10.49   4
   4   1   3  161.37   13.19   5
  -4  -1  -3  165.48   10.51   5
   4   1   3  208.46   12.21   6
   4   1   3  238.87   27.08  10
   5   1   3  792.60   34.68   4
  -5  -1  -3  731.40   56.48  10
  -5  -1  -3  744.82   31.63   1
  -5  -1  -3  755.45   37.30   5
   5   1   3  817.57   36.84   6
   5   1   3  821.66   59.33  10
   5   1   3  701.89   31.41   1
   6   1   3    8.68    2.91   4
   6   1   3   13.55    3.96   6
  -7  -1  -3  176.82   12.02   1
   7   1   3  210.33   12.66   1
   7   1   3  206.12   15.39   6
   7   1   3  182.70   12.60   4
  -8  -1  -3    1.09    3.42   1
  -9   2   3   25.75    6.65   5
  -9   2   3   29.53    4.99   1
   9  -2  -3   22.93    4.69   1
  -8   2   3  213.99   12.33   1
  -8   2   3  216.62   16.54   5
   8  -2  -3  208.23   12.59   1
  -7   2   3  342.64   16.19   1
   7  -2  -3  332.74   16.36   1
  -7   2   3  309.71   20.83   5
  -6   2   3  388.44   22.63   5
   6  -2  -3  369.11   17.40   1
  -6   2   3  387.34   17.44   1
  -6   2   3  386.49   35.93  10
  -5   2   3 1501.07   58.00   1
  -5   2   3 1449.67   67.55   5
  -5   2   3 1413.48   76.32  10
   5  -2  -3 1266.71   86.89   2
   5  -2  -3 1475.59   57.44   1
  -5   2   3 1507.08   77.12  10
  -4   2   3  240.74   11.44   7
  -4   2   3  241.87   14.60   5
   4  -2  -3  248.80   11.38   1
   4  -2  -3  227.64   12.51   2
  -4   2   3  274.66   24.91  10
  -4   2   3  250.75   11.24   1
  -4   2   3  241.31   23.19  10
  -3   2   3 3602.90  152.65   5
  -3   2   3 3392.66  139.30  10
   3  -2  -3 3470.62  124.61   1
   3  -2  -3 3485.12  158.04   2
   3  -2  -3 3355.18  124.46   1
  -3   2   3 3459.17  124.43   1
  -3   2   3 3502.64  139.57   4
   2  -2  -3   52.27   19.81   1
  -2   2   3    8.73   17.57  10
  -2   2   3   26.37   14.11   1
  -2   2   3    8.00   23.64   1
   2  -2  -3   13.28   29.16   5
  -2   2   3   16.65   50.48  11
  -1   2   3 4846.13  183.43  10
   1  -2  -3 4930.67  183.75  10
   1  -2  -3 4358.98  238.15   5
   1  -2  -3 5073.83  240.49  11
   1  -2  -3 4707.78  171.75   1
   1  -2  -3 4899.31  171.85   1
  -1   2   3 4880.92  171.65   1
   0   2   3  969.79   36.87   1
   0  -2  -3 1035.34   41.38   2
   0  -2  -3 1003.55   37.07   1
   0   2   3 1040.52   37.13   1
   0   2   3  961.39   43.30   5
   0  -2  -3 1003.02   53.48  10
   0  -2  -3 1008.80   37.12   1
   0  -2  -3  889.01   44.82   5
   0   2   3 1006.95   53.76  10
   0   2   3  881.05   40.95   2
   0  -2  -3  975.23   47.49   3
   1   2   3 2752.76  102.83   1
   1   2   3 2836.99  116.83   2
  -1  -2  -3 3003.02  117.46   2
   1   2   3 2786.50  122.41  10
  -1  -2  -3 2694.25  122.07  10
   1   2   3 2907.04  115.40   6
   1   2   3 2811.31  102.82   1
  -1  -2  -3 2817.99  103.14   1
  -1  -2  -3 2795.35  102.90   1
  -1  -2  -3 2959.47  131.54   3
   2   2   3  795.37   37.56   2
   2   2   3  839.84   51.28  10
   2   2   3  877.84   37.05   6
   2   2   3  855.96   32.42   1
  -2  -2  -3  827.39   32.47   1
  -2  -2  -3  848.92   52.61  10
  -2  -2  -3  787.55   40.24   3
  -2  -2  -3  805.15   32.10   1
   3   2   3  610.57   45.70  10
   3   2   3  699.29   27.32   1
   3   2   3  631.94   30.72   6
  -3  -2  -3  688.41   27.21   1
  -3  -2  -3  660.00   47.22  10
   4   2   3  472.04   20.41   1
   4   2   3  456.19   23.61   6
   4   2   3  411.70   21.92   4
  -4  -2  -3  495.08   42.44  10
  -4  -2  -3  474.96   20.40   1
   4   2   3  452.82   40.04  10
   5   2   3   57.08    6.69   6
  -5  -2  -3   51.22    5.33   1
   5   2   3   57.44    5.55   1
   5   2   3   46.48    5.46   4
   5   2   3   56.21   14.78  10
   6   2   3  107.76   14.18   6
   6   2   3  124.93    9.51   4
   6   2   3  126.13    8.96   1
  -6  -2  -3  112.52    8.68   1
   7   2   3    0.67    2.29   4
  -7  -2  -3   10.45    6.17   1
   7   2   3   -5.11    4.29   6
   7   2   3    1.88    7.25   1
   9  -3  -3  251.57   15.35   1
  -9   3   3  286.07   15.68   1
  -9   3   3  270.02   20.41   5
  -8   3   3  214.07   16.71   5
  -7   3   3  632.85   34.73   5
   7  -3  -3  621.57   27.27   1
  -7   3   3  644.33   27.04   1
   6  -3  -3  520.34   22.49   1
  -6   3   3  529.20   28.87   5
  -6   3   3  519.19   22.31   1
  -6   3   3  524.21   42.62  10
  -6   3   3  500.86   42.62  10
   5  -3  -3  903.99   58.46   2
   5  -3  -3 1060.14   40.40   1
  -5   3   3 1056.14   61.70  10
  -5   3   3 1039.59   50.37   5
  -5   3   3 1081.90   40.27   1
  -5   3   3 1109.62   62.43  10
  -4   3   3 1715.22   62.03   1
  -4   3   3 1681.12   81.72  10
  -4   3   3 1640.54   70.33   7
   4  -3  -3 1726.97   62.28   1
  -4   3   3 1612.53   79.96  10
   4  -3  -3 1566.61   85.26   2
  -4   3   3 1768.08   77.15   5
  -3   3   3  882.34   48.77  10
   3  -3  -3  866.41   32.58   1
   3  -3  -3  747.60   40.09   2
  -3   3   3  886.96   40.65   5
  -3   3   3  806.34   36.57   7
  -3   3   3  863.54   63.18   1
  -3   3   3  951.59   57.96  11
   3  -3  -3  858.82   32.49   1
   2  -3  -3 2500.52  103.56  10
  -2   3   3 2460.99  102.67  10
  -2   3   3 2480.24  132.45  11
   2  -3  -3 2535.49   88.79   1
   2  -3  -3 2042.72  134.37   5
   2  -3  -3 2484.98   88.67   1
  -2   3   3 2619.73  108.66   5
   1  -3  -3  324.67   33.50  11
  -1   3   3  338.43   13.39   1
  -1   3   3  320.69   24.66  10
  -1   3   3  340.24   16.25   5
   1  -3  -3  333.84   19.15   3
   1  -3  -3  340.91   25.25  10
   1  -3  -3  289.52   16.30   5
   1  -3  -3  286.60   15.66   8
   1  -3  -3  334.73   13.57   1
  -1   3   3  336.52   13.55   1
   1  -3  -3  337.56   13.65   1
   0   3   3 2681.18   96.56   1
   0   3   3 2789.72  116.27  10
   0  -3  -3 2682.44  114.66  10
   0  -3  -3 2715.68   96.88   1
   0  -3  -3 2704.16   96.75   1
   0   3   3 2675.48  109.14   2
   0  -3  -3 2425.26  123.80   5
   0   3   3 2641.16  115.96   5
   0   3   3 2690.91   96.75   1
   0  -3  -3 2707.09  124.97   3
   1   3   3    4.61    2.02   2
   1   3   3    3.85    1.70   3
   1   3   3    7.22    2.68   6
  -1  -3  -3    9.83    5.73  10
   1   3   3    6.62    1.52   1
  -1  -3  -3    7.89    1.76   1
   1   3   3   16.64    7.01  10
  -1  -3  -3    8.11    1.82   1
   2   3   3  430.03   34.58  10
   2   3   3  439.01   18.55   1
   2   3   3  431.62   21.53   6
  -2  -3  -3  407.68   18.03   1
  -2  -3  -3  441.02   23.46   3
  -2  -3  -3  476.01   37.58  10
  -2  -3  -3  445.97   18.74   1
   2   3   3  400.61   22.58   3
  -3  -3  -3   26.00    3.04   1
  -3  -3  -3   28.92    9.76  10
   3   3   3   38.02   10.79  10
   3   3   3   17.77    3.00   3
  -3  -3  -3   22.99    3.07   1
   3   3   3   27.57    3.22   1
   3   3   3   25.15    4.04   6
   4   3   3   40.87   21.62  10
   4   3   3   33.63    4.31   1
   4   3   3   45.51    5.39   4
   4   3   3   54.52   19.77   6
  -4  -3  -3   45.41    5.48   1
  -4  -3  -3   38.33   12.51  10
   5   3   3   14.66    3.40   1
   5   3   3   12.17    3.49   4
   5   3   3   15.86    4.53   6
  -5  -3  -3   22.75    3.94   1
   6   3   3   -2.10    4.17   6
   6   3   3   -1.46    2.89   4
   6   3   3    4.12    2.70   1
  -7  -3  -3   -1.88    5.01   1
   7   3   3    0.39    3.07   4
   7   3   3   -4.05    5.01   1
  -9   4   3   17.71    3.63   1
   9  -4  -3   16.62    3.75   1
  -9   4   3    8.41    4.97   5
  -8   4   3  437.42   27.46   5
   8  -4  -3  443.24   21.63   1
  -8   4   3  453.57   21.19   1
  -7   4   3    9.40    4.22   5
  -7   4   3    9.68   15.85   1
   7  -4  -3    3.86   17.60   1
  -6   4   3  712.22   51.98  10
  -6   4   3  676.78   50.55  10
  -6   4   3  724.71   29.25   1
   6  -4  -3  694.56   29.32   1
  -6   4   3  731.84   37.67   5
   5  -4  -3  128.12    7.57   1
   5  -4  -3  106.86    8.84   2
  -5   4   3  126.66   10.03   5
  -5   4   3  143.58   19.63  10
  -5   4   3  123.01   18.60  10
  -5   4   3  125.67    7.36   1
  -4   4   3  666.29   42.01  10
   4  -4  -3  532.36   26.76   2
  -4   4   3  637.30   31.17   5
  -4   4   3  619.18   24.27   1
  -4   4   3  605.87   41.20  10
   4  -4  -3  605.56   24.47   1
  -3   4   3  429.88   39.31  11
  -3   4   3  408.56   30.73  10
  -3   4   3  428.77   20.85   1
  -3   4   3  364.30   20.92   8
  -3   4   3  450.99   22.31   5
   3  -4  -3  434.03   17.34   1
   3  -4  -3  414.34   17.24   1
   2  -4  -3  291.70  120.55   1
  -2   4   3  205.07   77.18   1
   2  -4  -3  430.06   77.42   1
   2  -4  -3  320.21  110.47  10
  -2   4   3  217.59   88.65  10
   2  -4  -3  196.65  162.31   5
  -2   4   3  397.41  107.13   5
   1  -4  -3  471.28   21.47   1
   1  -4  -3  577.19   21.80   1
   1  -4  -3  599.31   52.60  11
  -1   4   3  582.83   21.59   1
   1  -4  -3  557.26   30.25   3
  -1   4   3  586.03   26.51   5
   1  -4  -3  495.07   26.39   5
   1  -4  -3  625.66   36.57  10
  -1   4   3  521.23   34.97  10
   0  -4  -3    0.73    0.93   1
   0   4   3    0.25    0.82   1
   0  -4  -3   17.10   11.04  11
   0   4   3    0.32    3.92  10
   0  -4  -3    3.44    2.60   3
   0   4   3    2.39    0.76   5
   0  -4  -3    2.88    1.49   1
   0   4   3    1.49    0.69   2
   0  -4  -3   -0.85    2.96  10
  -1  -4  -3  236.40   24.37  10
   1   4   3  212.52   12.45   6
   1   4   3  201.64   10.72   2
  -1  -4  -3  215.75   10.23   1
   1   4   3  202.55    9.80   1
  -1  -4  -3  185.40    9.61   1
   1   4   3  192.39   10.87   9
   1   4   3  168.72   20.22  10
  -1  -4  -3  208.77   13.69   3
   2   4   3   31.00    3.44   1
  -2  -4  -3   30.09    3.64   1
   2   4   3   33.76    9.83  10
  -2  -4  -3   29.90    4.71   3
   2   4   3   31.30    4.59   6
  -2  -4  -3   22.80    9.20  10
  -2  -4  -3   24.69    2.91   1
  -3  -4  -3   12.59    2.25   1
   3   4   3    6.67    2.31   1
  -3  -4  -3   10.80    6.43   1
   3   4   3   15.76    7.61  10
  -3  -4  -3   25.19   10.67  10
   3   4   3   15.51    3.61   6
   4   4   3   31.32   11.08  10
   4   4   3   19.33    3.31   1
   4   4   3   20.84    4.29   4
  -4  -4  -3   18.01    3.19   1
  -4  -4  -3   32.28   11.53  10
   4   4   3   19.74    4.64   6
   5   4   3    8.09   28.29   4
  -5  -4  -3    8.19   21.28   1
   5   4   3    5.33   42.64   1
   5   4   3    7.92   22.91   6
  -6  -4  -3    5.07    2.94   1
   6   4   3   11.44    4.59   6
   6   4   3   10.69    4.02   4
   6   4   3    8.45    3.04   1
   7   4   3   11.10    3.61   4
   7   4   3   16.01    5.35   6
  -7  -4  -3   10.63    3.23   1
   9  -5  -3  125.43    9.85   1
  -9   5   3  126.98    9.52   1
  -8   5   3  175.54   15.10   5
  -7   5   3  343.45   16.61   1
   7  -5  -3  322.68   16.87   1
  -7   5   3  363.92   22.73   5
  -6   5   3    6.55    3.42   5
   6  -5  -3   10.96    2.92   1
  -6   5   3    7.75    2.54   1
  -6   5   3    5.57    6.51  10
  -5   5   3  476.47   20.31   1
  -5   5   3  478.67   26.50   5
  -5   5   3  524.36   40.37  10
  -5   5   3  478.85   38.43  10
   5  -5  -3  459.12   20.41   1
   4  -5  -3    5.26    1.87   1
  -4   5   3    2.11    2.89   5
  -4   5   3    3.72    6.25  11
  -4   5   3    8.37    1.86   1
  -4   5   3   20.41    7.32  10
  -4   5   3    7.33    5.89  10
  -3   5   3  292.80   41.31   1
   3  -5  -3  297.68   13.02   1
  -3   5   3  320.69   35.70  11
  -3   5   3  259.81   14.19   8
  -3   5   3  317.06   26.57  10
   3  -5  -3  300.72   13.08   1
  -3   5   3  311.29   17.20   5
   3  -5  -3  299.27   20.59   3
  -2   5   3  178.09   91.57   5
   2  -5  -3  103.88  114.89   1
  -2   5   3   72.72   70.50   1
   2  -5  -3  229.94   70.70   1
  -2   5   3   90.58   89.31  10
   1  -5  -3   46.48    6.19   3
   1  -5  -3   51.68    9.89  10
  -1   5   3   52.97    3.49   1
   1  -5  -3   42.14    4.56   5
  -1   5   3   55.85    3.13   2
  -1   5   3   54.72    4.54   5
  -1   5   3   53.52   10.83  10
   1  -5  -3   48.58    3.72   1
   1  -5  -3   57.78    3.84   1
   0  -5  -3    1.01    2.07   3
   0   5   3    0.48    0.55   2
   0   5   3    1.58    0.76   5
   0   5   3    2.01    4.37  10
   0  -5  -3    5.23    9.23  11
   0  -5  -3   -0.59    1.22   1
   0  -5  -3    4.11    1.54   5
   0  -5  -3   -5.70    4.73  10
   0  -5  -3    2.07    1.35   1
  -1  -5  -3    9.75    3.64   3
   1   5   3    4.37    1.80   9
   1   5   3    6.50    0.98   5
  -1  -5  -3    1.29    8.99  11
   1   5   3    6.52    5.17  10
   1   5   3    6.42    1.46   2
   1   5   3   12.00    2.08   1
   1   5   3    5.17    2.47   6
  -1  -5  -3    0.05    4.30  10
  -2  -5  -3    5.24    6.07  10
  -2  -5  -3   14.38    2.84   1
   2   5   3   16.91    2.71   1
   2   5   3   35.54    9.76  10
   2   5   3   15.80    4.19   6
  -2  -5  -3   18.27    4.28   3
  -2  -5  -3   14.04    2.07   1
   3   5   3   14.82    3.96   6
  -3  -5  -3   18.87    9.96  10
   3   5   3   24.12    3.46   1
   3   5   3   23.88    9.13  10
  -3  -5  -3   18.66   17.70   1
   4   5   3   21.32    3.69   1
  -4  -5  -3   21.16    3.80   1
   4   5   3   23.37    5.66   6
   4   5   3   32.41    5.39   4
  -5  -5  -3   14.93    3.69   1
   5   5   3   17.07    4.49   6
  -6  -5  -3    9.11    3.60   1
   8  -6  -3   19.96    3.93   1
  -8   6   3   29.56    6.52   5
   7  -6  -3   54.00    6.57   1
  -7   6   3   56.53    5.49   1
  -7   6   3   52.91    7.84   5
  -6   6   3   -0.63    3.39   5
   6  -6  -3   10.80    2.94   1
  -6   6   3    6.62    2.31   1
  -6   6   3   -1.52    5.38  10
  -5   6   3   33.51   10.51  10
   5  -6  -3   13.31    2.87   1
  -5   6   3   17.69    4.09   5
  -5   6   3   12.14    4.10   1
  -5   6   3   28.38    9.79  10
  -4   6   3    2.74    1.44   1
  -4   6   3    5.38    1.40   8
   4  -6  -3    0.68    4.12   1
  -4   6   3    6.22    7.76  11
  -4   6   3   -6.49    5.77  10
  -4   6   3   -2.06    4.25  10
   4  -6  -3    6.57    4.50   3
   3  -6  -3    7.84    1.78   1
   3  -6  -3    3.40   12.23   3
  -3   6   3   24.73    7.37  10
   3  -6  -3    8.97    7.38   1
  -3   6   3   23.62   11.35  11
  -3   6   3    4.72   22.46   1
  -3   6   3   11.65    9.77   5
  -3   6   3    7.92   35.66  10
   2  -6  -3   69.67    4.55   1
  -2   6   3   70.89    6.32   5
   2  -6  -3   66.66    4.65   1
  -2   6   3   73.38   12.66  10
   2  -6  -3   87.16    9.39   3
   1  -6  -3   22.14    5.09   3
   1  -6  -3   33.86    8.13  10
   1  -6  -3   18.44    2.24   1
   1  -6  -3   17.86    2.87   8
   1  -6  -3   23.47    2.63   1
  -1   6   3   34.81    9.18  10
  -1   6   3   15.66    1.86   2
  -1   6   3   24.84    2.28   1
  -1   6   3   22.78    2.93   5
  -1   6   3   23.42    2.19   2
   0   6   3  176.33    9.69   2
   0  -6  -3  195.68   12.09   8
   0   6   3  196.92   21.63  10
   0   6   3  193.27    8.89   1
   0  -6  -3  191.94    9.17   1
   0  -6  -3  164.79   34.38  11
   0  -6  -3  215.96   15.39   3
   0   6   3  191.56   10.63   5
   0   6   3  175.87   12.46   6
   0  -6  -3  193.10   19.91  10
   0  -6  -3  198.93    9.59   1
   1   6   3   40.16    9.96  10
   1   6   3   30.39    3.11   1
  -1  -6  -3   42.51    6.40   3
   1   6   3   36.63    2.81   5
  -1  -6  -3   44.98   11.15  10
  -1  -6  -3   26.11    3.14   1
   1   6   3   35.31    5.53   6
   2   6   3   85.18   15.12  10
  -2  -6  -3  113.43   18.64  10
  -2  -6  -3  104.35    7.38   1
   2   6   3   93.74    8.77   1
   2   6   3  128.63   10.42   6
  -2  -6  -3  117.97   10.93   3
   3   6   3   31.18   10.02  10
  -3  -6  -3    9.76    7.80  10
   3   6   3   20.28    5.24   6
   3   6   3   11.52    2.79   1
  -3  -6  -3   20.19    3.45   1
  -4  -6  -3   38.57    4.81   1
   4   6   3   29.50    5.18   4
   4   6   3   34.87    6.45   6
   5   6   3    4.77    5.27   4
  -5  -6  -3   -0.03    2.15   1
  -6  -6  -3    9.46    3.20   1
   8  -7  -3   16.74    4.28   1
  -8   7   3   21.20    3.90   1
  -7   7   3   -2.59    2.55   1
  -7   7   3    3.98    4.33   5
   6  -7  -3    2.15    5.69   3
  -6   7   3    3.91    3.89   5
   6  -7  -3    1.53    2.30   1
   5  -7  -3   14.52   19.86   1
  -5   7   3    8.27   11.50   5
  -5   7   3   11.86   24.51   1
  -5   7   3   -2.19    7.81  11
  -5   7   3    3.93   26.82  10
  -4   7   3   -6.86    5.46  10
  -4   7   3   -3.23    3.00   5
   4  -7  -3   -0.16    3.13   3
  -4   7   3    6.00    5.73  10
  -4   7   3    0.71    1.30   1
  -4   7   3   15.69   10.87  11
  -3   7   3   49.03   12.06  10
  -3   7   3   46.41    5.62   5
  -3   7   3   35.96    8.97  10
   3  -7  -3   36.47    3.47   1
   3  -7  -3   44.19    7.89   3
  -3   7   3   40.54    3.37   1
  -3   7   3   28.18   13.41  11
  -2   7   3   31.61   30.31  10
  -2   7   3   32.29   21.46   1
  -2   7   3   61.13   20.02   5
   2  -7  -3   95.23   33.13   1
   1  -7  -3   57.01    7.87   3
  -1   7   3   53.51    4.96   5
   1  -7  -3   53.52    3.82   1
  -1   7   3   51.99    3.52   1
   1  -7  -3   60.00   10.57  10
  -1   7   3   59.44   11.96  10
  -1   7   3   54.41    3.70   2
   0  -7  -3   12.40    1.98   1
   0   7   3   12.58    1.73   1
   0   7   3   15.30    6.61  10
   0  -7  -3   10.24    3.06   8
   0  -7  -3   28.13    7.85  10
   0   7   3    9.64    1.63   2
   0   7   3   11.10    1.90   5
   0   7   3   11.93    4.33   6
   0  -7  -3    9.27    4.04   3
   1   7   3   15.85    4.06   6
  -1  -7  -3   16.43    2.49   1
  -1  -7  -3   20.23    4.31   8
   1   7   3   22.56    7.53  10
  -1  -7  -3   24.06    8.29  10
   1   7   3   23.00    2.33   5
  -2  -7  -3   21.50    8.35   3
  -2  -7  -3    8.59   16.66  10
   2   7   3   18.40   24.41  10
   3   7   3   36.69   10.75  10
   3   7   3   10.84    4.68   6
  -3  -7  -3   10.24    2.87   1
  -4  -7  -3   14.30    3.49   1
   4   7   3   11.85    5.16   6
   5   7   3   -4.14    3.37   6
  -5  -7  -3    9.54    3.27   1
   7  -8  -3   11.95    3.37   1
   7  -8  -3    6.88    7.06   3
  -6   8   3   39.79    6.46   5
   6  -8  -3   47.09    5.02   1
  -6   8   3   53.84   20.13  11
  -5   8   3    2.83    3.86   5
   5  -8  -3    7.60    4.77   3
   5  -8  -3    3.49    2.27   1
  -5   8   3    9.85   10.63  11
   4  -8  -3   81.21    6.54   1
  -4   8   3   79.04    8.01   5
  -4   8   3   96.54   25.12  11
   4  -8  -3   80.34   12.23   3
  -4   8   3   80.86   15.35  10
  -3   8   3    0.73    4.24   5
   3  -8  -3   -0.65    3.74   3
  -3   8   3   -4.56    6.06  10
   3  -8  -3    1.67    1.42   1
  -3   8   3   21.09   13.27  11
   2  -8  -3   96.04   10.95   3
  -2   8   3   82.78    7.72   5
  -2   8   3   71.39   13.59  10
   2  -8  -3   82.50    5.17   1
  -1   8   3    3.80    4.42  10
  -1   8   3   -0.86    1.03   5
  -1   8   3    0.26    1.13   2
   0   8   3   58.48    7.61   6
   0  -8  -3   46.57    6.02   8
   0   8   3   53.06    4.71   5
   0  -8  -3   57.83    8.31   3
   0  -8  -3   54.74    3.83   1
   0  -8  -3   57.18   10.50  10
   0   8   3   45.56   10.19  10
   1   8   3    5.33    4.43  10
  -1  -8  -3   19.19    7.12  10
   1   8   3    4.88    3.92   6
  -1  -8  -3   -3.49    4.69   3
  -1  -8  -3   -4.44    6.60   8
  -2  -8  -3   -1.86    3.45   8
  -2  -8  -3    0.82    1.61   1
   2   8   3    5.87    3.41   6
  -2  -8  -3   11.11    5.14   3
   2   8   3   -3.53    4.15  10
   3   8   3   31.40    6.45   6
  -3  -8  -3   17.05    3.22   1
  -4  -8  -3    1.98    2.28   1
   4   8   3    4.78    4.59   6
   4   8   3    6.51    4.33   4
  -7   9   3    5.09    4.27   5
   7  -9  -3    7.52    7.13   3
   6  -9  -3   11.18    3.11   1
  -6   9   3   -0.70   26.05   5
   6  -9  -3   17.89    7.75   3
   5  -9  -3    7.30    6.20   1
  -5   9   3   33.69   17.75  11
  -5   9   3   20.44    5.28   5
  -4   9   3   12.30   10.87  11
   4  -9  -3   11.14    6.35   3
   4  -9  -3   11.43    2.51   1
   3  -9  -3   -1.39    1.43   1
  -3   9   3   -3.94    9.09   5
  -3   9   3    5.50    5.25  10
   3  -9  -3   -2.10    4.63   3
  -2   9   3   12.29    3.67   5
   2  -9  -3    9.84    5.57   3
  -2   9   3    8.19    5.68  10
  -1   9   3   23.62    7.79  10
  -1   9   3   16.27    2.92   5
   1  -9  -3   16.10    1.80   1
   1  -9  -3   17.89    5.94   3
   0   9   3    6.83    4.76   6
   0  -9  -3   15.36    6.34   3
   0  -9  -3    8.33    3.32   8
   0  -9  -3    7.52    1.26   1
   1   9   3   61.88    8.47   6
  -1  -9  -3   61.22   14.99   8
  -1  -9  -3   61.22   10.31   3
  -2  -9  -3   11.38   13.85   8
  -2  -9  -3    4.56    9.26   3
  -3  -9  -3   90.31   11.48   8
   3   9   3  104.00   11.38   6
   3   9   3  109.19   11.32   4
  -6  10   3    4.95    4.37   5
   6 -10  -3    0.03    5.09   3
  -5  10   3   -0.45    3.43   5
   5 -10  -3    5.19    5.98   1
   4 -10  -3    1.51    1.69   1
  -4  10   3    0.42    2.02   5
   4 -10  -3   -3.52    4.77   3
   3 -10  -3   32.21    3.19   1
  -3  10   3   33.00    5.18   5
   3 -10  -3   37.89    8.02   3
  -2  10   3   31.62    5.30   5
   1 -10  -3   40.86    8.03   3
   0 -10  -3  152.67   15.51   3
   0  10   3  129.98   12.26   6
  -1 -10  -3   40.52    8.49   3
   1  10   3   38.18    7.38   6
  -1 -10  -3   33.41    6.63   8
  -2 -10  -3  142.70   14.30   8
   2  10   3  144.07   13.62   6
  -4  11   3   51.87    7.22   5
   3 -11  -3    0.19    3.47   3
  -3  11   3    1.26    2.79   5
   2 -11  -3  124.17   15.13   3
  -1  11   3   13.89    5.71   6
   1 -11  -3   27.64    7.81   3
   0 -11  -3  227.30   21.57   3
   0  11   3  240.60   18.28   6
   0  12  -4   84.78   10.73   5
   0  12  -4   89.68    9.51   2
  -1  12  -4  113.41   11.06   2
  -1  12  -4  109.51   11.80   5
  -2  12  -4    4.10    3.95   5
  -3  12  -4   66.18    9.00   2
   3  11  -4  120.56   10.52   4
  -3 -11   4  119.91   11.73   9
   3  11  -4  112.54   11.93   5
   3  11  -4  135.64   12.40   2
   2  11  -4   14.47   13.06   5
   2  11  -4   23.53    5.48   4
  -2 -11   4    5.90    4.38   9
   1  11  -4   92.74    8.07   4
  -1 -11   4   96.31   10.18   9
   1  11  -4   96.73   10.38   5
   1  11  -4  103.86   10.17   2
   0  11  -4   30.18    5.64   2
   0  11  -4   30.21    4.10   4
   0  11  -4   37.09    7.02   5
  -1  11  -4   19.57    5.64   5
  -1  11  -4   23.10    5.93   2
  -2  11  -4   24.86    6.01   5
   2 -11   4   28.07    5.45   7
  -3  11  -4    2.75    4.28   5
  -3  11  -4   -5.54    3.65   2
   3 -11   4    3.19    3.71   3
   3 -11   4   -0.61    3.63   7
   4 -11   4    9.26    4.19   3
  -4  11  -4    4.93    4.48   5
  -5  11  -4   11.05    4.36   2
   4  10  -4   77.14    7.84   6
   4  10  -4   83.15    9.39   2
  -4 -10   4   93.28   11.34   8
  -4 -10   4   72.22    8.45   9
   4  10  -4   80.10    8.45   4
   3  10  -4   11.73    2.84   6
   3  10  -4    8.58    3.56   2
  -3 -10   4    9.99    4.26   9
   3  10  -4   14.94   20.69   4
   2  10  -4   98.78    8.28   4
  -2 -10   4   82.59    9.29   9
   2  10  -4  104.33   10.56   5
   2  10  -4  110.40   10.07   2
   2  10  -4   87.29    7.49   6
   1  10  -4    0.66    1.34   4
   1  10  -4   -1.63    1.85   6
  -1 -10   4    4.42    3.06   9
   1  10  -4    0.09    1.75   5
   0  10  -4   64.91    8.37   5
   0 -10   4   52.10    7.61   9
   0  10  -4   76.84    8.02   2
   0  10  -4   60.48    5.64   4
   0  10  -4   61.55    5.80   6
  -1  10  -4   20.86    5.23   5
  -1  10  -4    8.84    2.24   4
  -1  10  -4    6.94    4.84   2
   1 -10   4   10.58    3.63   7
  -2  10  -4    7.50    4.37   5
   2 -10   4   11.00    3.76   3
   2 -10   4    5.92    3.05   7
   3 -10   4   11.83    4.25   3
   3 -10   4    2.85    3.34   7
  -3  10  -4    5.18    3.31   2
  -4  10  -4   15.81    4.81   5
  -4  10  -4   21.94    5.79   2
   4 -10   4   18.92    4.38   7
   4 -10   4   17.58    3.04   1
  -5  10  -4   -0.05    3.55   2
   5 -10   4   -5.38    3.68   1
  -5  10  -4    1.92    3.22   5
  -6  10  -4   26.62    6.15   2
   6 -10   4   26.13    4.57   1
   5   9  -4    3.65    3.74   4
   5   9  -4    2.30    2.81   6
  -5  -9   4    6.68    3.58   9
   4   9  -4   23.41    4.48   6
  -4  -9   4   26.50    6.21   8
  -4  -9   4   17.35    4.71   9
   4   9  -4   15.57    3.87   4
  -3  -9   4    2.82    3.88   8
   3   9  -4    4.84    3.17   4
   3   9  -4   -0.95    3.23   2
   2   9  -4  100.49   31.71   2
   2   9  -4   76.25   29.18   6
  -2  -9   4   79.07   36.22   9
   2   9  -4  126.19   28.07   4
  -1  -9   4    1.95    3.25   9
   1   9  -4   22.59   15.25  11
   0   9  -4    5.85    8.68  11
   0  -9   4   17.51    3.92   7
   0  -9   4   15.67    4.65   9
   0   9  -4   10.13    2.16   4
   0   9  -4   21.30    4.94   2
   0   9  -4   12.66    2.61   6
  -1   9  -4   32.58    4.12   6
   1  -9   4   33.07    5.32   7
  -1   9  -4   32.08    3.53   4
  -1   9  -4   32.72    6.19   5
   1  -9   4   44.38    6.40   9
  -2   9  -4   22.78   16.93   4
  -2   9  -4   32.41   10.48   5
  -2   9  -4   47.38    9.33   2
   2  -9   4   44.99   15.42   3
  -3   9  -4   63.98    8.32   5
  -3   9  -4   49.66    7.41   2
   3  -9   4   61.74    7.42   3
   3  -9   4   56.71    4.66   1
   3  -9   4   57.38    6.87   7
  -4   9  -4   15.22    4.94   2
   4  -9   4    2.77    3.24   7
  -4   9  -4    6.64    4.48   5
   4  -9   4    6.49    2.46   1
  -5   9  -4   57.98   16.89   5
   5  -9   4   56.71   25.52   7
  -5   9  -4   40.62    8.47   2
   5  -9   4   32.34   20.24   1
   5  -9   4   41.71    4.69   1
   6  -9   4    5.28    3.75   7
  -6   9  -4    4.88    4.94   5
   6  -9   4    4.06    2.93   1
  -6   9  -4    0.40    2.70   2
  -6  -8   4   -2.10    3.97   8
   6   8  -4    4.94    3.26   4
   6   8  -4    7.70    3.28   6
   5   8  -4   15.18    3.83   6
   5   8  -4   14.11    4.62   4
  -5  -8   4   19.24    5.72   8
  -5  -8   4    9.83    3.83   9
  -4  -8   4    7.78    3.78   9
  -4  -8   4   12.03    4.70   8
   4   8  -4    8.47    3.25   6
  -4  -8   4    6.12    1.13   1
   3   8  -4    4.68    1.70   6
  -3  -8   4   -0.54    2.94   9
  -3  -8   4    1.52    3.69   8
   3   8  -4    5.51    5.61   4
   2   8  -4   27.22    3.33   6
   2   8  -4   30.85    3.95   4
   2   8  -4   17.53    3.94   2
  -2  -8   4   17.53    4.48   9
   1   8  -4   18.47   11.89  11
  -1  -8   4    3.60    2.30   7
   1   8  -4    5.16    2.80   2
   1   8  -4    1.03    1.23   4
   0   8  -4   36.08   16.43  11
   0  -8   4   48.92    6.39   9
   0   8  -4   36.70    4.04   4
   0   8  -4   38.68    3.97   6
   0   8  -4   45.18    5.62   2
   0   8  -4   54.48    7.17   5
  -1   8  -4   12.09    3.67   2
   1  -8   4   11.41    2.90   7
   1  -8   4   11.32    1.34   1
  -1   8  -4    9.74    3.64  10
  -1   8  -4    5.10    3.37   5
  -1   8  -4    8.59    1.90   4
  -2   8  -4   18.96    7.19  10
   2  -8   4   19.84    4.07   7
   2  -8   4   26.04    4.46   3
  -2   8  -4   26.30    5.12   5
  -2   8  -4   21.20    4.98   2
  -2   8  -4   17.27    2.10   4
   2  -8   4   16.95    4.38   9
   2  -8   4   21.84    2.55   1
  -3   8  -4    9.13    4.18   5
   3  -8   4    9.22    3.44   3
   3  -8   4   11.22   13.07   7
  -3   8  -4   10.56    4.33   2
   3  -8   4   11.62    6.48   1
  -4   8  -4   -1.81    2.70   5
   4  -8   4    0.38    1.94   1
   4  -8   4    2.60    2.62   3
   4  -8   4   13.16   13.68   7
   5  -8   4   16.77    4.05   7
  -5   8  -4    7.08    4.46   5
  -5   8  -4    6.16    4.24   2
   5  -8   4    8.71    2.95   1
  -6   8  -4    5.07    4.22   2
   6  -8   4   11.18    3.66   7
   6  -8   4    0.48    2.72   1
  -7   8  -4   18.35    5.31   2
   7  -8   4   12.86    4.33   7
  -7   8  -4   19.00    5.37   5
   6   7  -4    2.88    2.90   6
  -6  -7   4   -3.59    3.74   8
   6   7  -4   -4.01    3.65   4
  -5  -7   4    3.74   11.17   1
  -5  -7   4    0.25    3.07   8
   5   7  -4    2.84    4.90   4
   4   7  -4   23.73    8.57   6
  -4  -7   4   10.21    4.35   8
  -4  -7   4   20.22    6.49  10
   4   7  -4   19.17    6.20   4
  -4  -7   4    9.82    1.76   1
   3   7  -4    3.48    1.55   6
   3   7  -4    1.35    2.46   4
  -3  -7   4    5.33    4.58  10
  -3  -7   4   -1.46    7.16   1
  -3  -7   4   -4.52   34.75   8
   2   7  -4   46.12   17.05  11
  -2  -7   4   36.49    2.21   1
  -2  -7   4   34.21    5.40  10
  -2  -7   4   40.63    5.78   8
  -2  -7   4   29.90    6.06  10
   2   7  -4   50.96    5.39   2
   2   7  -4   38.18    2.23   1
   1   7  -4    6.37    2.74   2
   1   7  -4    0.49    1.13   4
  -1  -7   4    3.30    3.12   9
  -1  -7   4   -0.88    1.77   7
   1   7  -4    1.57    7.01  11
   0  -7   4   78.74    3.84   1
   0  -7   4   80.01    8.33  10
   0   7  -4   84.09    7.18   2
   0  -7   4   81.33    3.80   1
   0  -7   4   93.00    8.20   9
   0   7  -4   75.98    3.83   1
   0   7  -4   89.13    5.62   6
   0   7  -4   84.22    3.86   1
   0   7  -4   83.92    5.73   4
   0  -7   4   84.74    6.75   7
   0   7  -4   82.23    8.18  10
   1  -7   4    2.97    1.11   1
   1  -7   4    5.31    0.90   1
  -1   7  -4    6.70    1.58   4
   1  -7   4    3.74    2.46  10
  -1   7  -4   -1.54    2.87   2
  -1   7  -4    6.24    4.16  10
  -1   7  -4   10.67    3.88   5
  -2   7  -4   87.76   65.16  10
   2  -7   4  161.74   58.02   1
  -2   7  -4   86.02   48.27   1
  -2   7  -4  147.35   39.94   5
   2  -7   4   69.74  103.76  10
  -2   7  -4   39.72  130.02   4
   2  -7   4   44.08  163.52   1
  -2   7  -4  246.15   67.19   2
   3  -7   4   20.55    7.65  10
   3  -7   4   17.63    3.63   3
  -3   7  -4   29.41    5.43   2
  -3   7  -4   14.99    4.00   5
  -3   7  -4   18.70    2.79   1
  -3   7  -4   18.81    7.97  10
   3  -7   4   21.52    4.09   1
   3  -7   4   21.26    9.23   7
   4  -7   4   41.34   11.88  10
   4  -7   4   26.11    3.39   1
   4  -7   4   35.31    5.46   7
  -4   7  -4   29.85    3.43   1
  -4   7  -4   33.06    5.63   2
   4  -7   4   24.37    3.97   3
  -4   7  -4   38.63   11.43  10
  -4   7  -4   31.73    5.83   5
  -5   7  -4   46.87   14.00  10
   5  -7   4   45.50    6.45   7
  -5   7  -4   43.62    7.00   5
  -5   7  -4   39.57    6.78   2
  -5   7  -4   43.08    4.77   1
   5  -7   4   48.29    5.15   1
  -6   7  -4   23.05    5.63   2
  -6   7  -4   36.81    4.75   1
   6  -7   4   41.28    6.48   7
  -6   7  -4   36.53    6.48   5
   6  -7   4   28.22    4.71   1
  -7   7  -4   44.42    5.63   1
  -7   7  -4   50.20    8.11   5
  -7   7  -4   35.07    6.99   2
   7  -7   4   48.55    7.27   7
   7  -7   4   42.98    5.92   1
  -7  -6   4   -0.94    2.27   1
   7   6  -4   -2.61    3.78   4
   6   6  -4   -1.88    3.36   4
  -6  -6   4   -1.40    3.46   8
  -6  -6   4    3.08    2.04   1
   5   6  -4   20.61   29.69   6
  -5  -6   4   13.25   53.45   1
  -5  -6   4   12.75   57.66   8
   5   6  -4    8.46   44.46   4
  -4  -6   4   -3.32    3.49   8
   4   6  -4    2.83    2.71   6
  -4  -6   4    3.67    1.41   1
  -4  -6   4   14.60    5.97  10
   3   6  -4   10.41    1.48   1
  -3  -6   4   10.48    3.12   8
  -3  -6   4   11.88    4.80  10
   3   6  -4    6.15    3.01   4
  -3  -6   4   10.01    1.53   1
   3   6  -4    5.93    1.90   6
   2   6  -4    0.24    1.24   4
  -2  -6   4    2.61    1.51   7
   2   6  -4    1.06    6.50  11
  -2  -6   4    0.16    2.04  10
  -2  -6   4    0.55    0.72   1
   2   6  -4    0.76    0.90   6
   2   6  -4    0.21    0.61   1
   1   6  -4    1.09    1.03   4
   1   6  -4    2.67    0.71   1
   1   6  -4   -2.83    7.20  11
   1   6  -4    0.58    1.61   6
  -1  -6   4    1.10    1.63   7
   0   6  -4   57.75    3.86   6
   0  -6   4   55.44    3.18   1
   0  -6   4   59.87    6.40   9
   0   6  -4   54.00    4.13   4
   0  -6   4   46.31    7.80  10
   0   6  -4   53.91    3.19   1
   0   6  -4   58.62    5.65   2
   0  -6   4   56.02    3.33   1
   0  -6   4   54.77    5.17   7
   0   6  -4   52.33    7.82  10
  -1   6  -4   36.71    3.15   1
   1  -6   4   42.35    4.71   7
  -1   6  -4   32.39    8.62  10
  -1   6  -4   40.46    3.23   4
   1  -6   4   29.41    7.21  10
   1  -6   4   30.62    2.60   1
  -1   6  -4   38.01    4.89   2
   1  -6   4   34.38    3.01   1
  -1   6  -4   35.08    5.50   5
   1  -6   4   32.02    4.78   9
  -2   6  -4  285.01   62.82  10
   2  -6   4  265.03   77.11   3
  -2   6  -4  263.42   53.44   1
   2  -6   4  189.75   88.24   1
  -2   6  -4  332.22   54.01   2
  -2   6  -4  289.97   35.89   5
   2  -6   4  350.99   49.72   9
   2  -6   4  330.51   47.91   1
   2  -6   4  246.54   67.48  10
  -3   6  -4   50.51    6.27   2
  -3   6  -4   48.06    7.24   1
   3  -6   4   29.96    9.16  10
   3  -6   4   56.31    5.27   3
  -3   6  -4   59.89    6.92   5
   3  -6   4   47.10    4.40   1
   3  -6   4   42.76    3.79   1
  -3   6  -4   54.33   12.53  10
   3  -6   4   44.57   29.88   7
  -3   6  -4   45.77    3.75   6
  -4   6  -4  357.08   21.34   5
  -4   6  -4  365.65   21.06   2
   4  -6   4  342.27   19.15   3
   4  -6   4  333.55   16.11   1
   4  -6   4  356.86   19.93   7
   4  -6   4  335.43   34.01  10
  -4   6  -4  329.87   15.83   1
  -4   6  -4  325.93   33.26  10
   5  -6   4   18.03    8.99  10
  -5   6  -4   33.13   12.07  10
   6  -6   4  353.55   20.96   7
  -6   6  -4  333.91   38.88  10
  -6   6  -4  322.47   21.70   5
   6  -6   4  355.78   17.63   1
  -6   6  -4  336.80   21.19   2
  -6   6  -4  316.35   16.74   1
   6  -6   4  299.47   37.58  10
  -7   6  -4    7.40    4.39   2
   7  -6   4    1.58    8.20   1
   7  -6   4   -0.24    2.42   7
  -7   6  -4    6.27    3.23   1
  -8  -5   4    1.56    2.57   1
   6   5  -4    0.84    3.24   4
  -6  -5   4    2.30    2.16   1
   5   5  -4    3.63    2.65   6
   5   5  -4   -2.46    9.53   1
   5   5  -4    0.84    2.27   4
  -5  -5   4   -4.00    6.76   1
  -5  -5   4    5.50   16.69  10
  -4  -5   4   40.19   11.75   8
  -4  -5   4   40.48    9.60  10
   4   5  -4   36.93    5.46   1
  -4  -5   4   28.54    8.12  10
   4   5  -4   41.67   57.37   6
   4   5  -4   40.21   26.93   4
  -4  -5   4   37.94    3.31   1
  -3  -5   4    2.25    1.08   1
  -3  -5   4    4.84    3.81  10
   3   5  -4    1.76    1.08   1
  -3  -5   4   -3.52    5.70  10
  -3  -5   4    5.11   16.70   1
  -3  -5   4    2.03   20.53   8
   3   5  -4    7.97    3.04   4
   3   5  -4   -1.18    1.32   6
   2   5  -4  195.04   10.91   4
  -2  -5   4  191.73   10.39   7
  -2  -5   4  214.71   12.99   8
   2   5  -4  191.53    9.93   6
   2   5  -4  200.57    8.48   1
  -2  -5   4  200.66    8.79   1
  -2  -5   4  193.04    8.40   1
   2   5  -4  156.95   25.75  11
  -2  -5   4  227.31   19.20  10
  -2  -5   4  181.52   10.48   6
   1   5  -4   38.89    6.57  10
  -1  -5   4   35.53    2.31   1
  -1  -5   4   26.97    2.49   1
   1   5  -4   30.29    2.21   1
   1   5  -4   33.99    2.83   6
  -1  -5   4   31.70    7.42  10
  -1  -5   4   35.68    3.61   7
   1   5  -4   30.02    2.49   1
   1   5  -4   36.84    4.19   2
   1   5  -4   30.32    3.18   4
   0  -5   4  903.15   40.00   7
   0  -5   4  979.44   38.20   4
   0  -5   4  852.66   33.59   1
   0   5  -4  886.84   37.59   4
   0   5  -4  914.37   33.67   1
   0  -5   4  898.21   33.58   1
   0   5  -4  873.76   36.54   6
   0   5  -4  898.53   40.29   2
   0   5  -4  873.32   46.38  10
   0  -5   4  904.77   47.56  10
  -1   5  -4  213.43   21.81  10
   1  -5   4  188.97    9.10   1
  -1   5  -4  190.70   12.21   2
  -1   5  -4  210.51   12.82   3
  -1   5  -4  215.36    9.89   1
   1  -5   4  200.32    9.59   1
   1  -5   4  209.78   12.78   9
  -1   5  -4  196.62    9.37   4
   1  -5   4  198.48   11.61   7
   1  -5   4  197.06   19.39  10
  -2   5  -4  715.46   37.54   3
  -2   5  -4  681.25   46.53   6
   2  -5   4  762.61   29.68   1
   2  -5   4  654.03   38.21   1
   2  -5   4  803.88   36.47   9
   2  -5   4  712.58   45.87  10
  -2   5  -4  712.18   47.52  10
  -2   5  -4  744.40   30.80   1
  -2   5  -4  754.77   37.62   5
  -2   5  -4  793.92   36.28   2
   2  -5   4  876.24   35.85   7
   3  -5   4  466.46   24.60   3
  -3   5  -4  497.08   26.50   5
  -3   5  -4  468.93   21.31   6
   3  -5   4  489.01   38.72  10
   3  -5   4  507.08   85.57   1
  -3   5  -4  519.65   39.66  10
  -3   5  -4  488.95   25.79   2
   3  -5   4  462.97   20.33   1
  -3   5  -4  490.04   28.24   1
   3  -5   4  509.54   25.12   9
   4  -5   4  399.88   21.42   3
   4  -5   4  427.08   18.97   1
  -4   5  -4  431.85   18.76   1
  -4   5  -4  439.71   24.19   5
  -4   5  -4  392.90   22.94   2
  -4   5  -4  444.82   39.06  10
   4  -5   4  379.69   37.11  10
   5  -5   4  534.90   23.93   1
  -5   5  -4  524.53   23.57   1
  -5   5  -4  551.96   47.50  10
  -5   5  -4  554.38   29.37   2
   5  -5   4  457.73   44.92  10
  -5   5  -4  573.45   30.20   5
  -6   5  -4  114.82    8.30   1
  -6   5  -4   99.15   10.05   5
   6  -5   4  103.54   22.74  10
   6  -5   4  105.54    8.29   1
  -6   5  -4  113.56   10.75   2
  -6   5  -4   65.72   17.91  10
   7  -5   4  335.84   20.69   7
  -7   5  -4  308.02   21.35   5
   7  -5   4  339.23   17.74   1
  -7   5  -4  311.69   21.04   2
  -7   5  -4  301.74   16.83   1
   8  -5   4   26.43    9.79   7
  -8   5  -4   34.29   13.46   5
  -8  -4   4   -2.47    3.06   1
   8   4  -4    5.90    4.25   4
  -7  -4   4   11.93    2.92   1
   7   4  -4    2.84    2.98   4
   7   4  -4    8.54    2.52   1
   6   4  -4   23.12   15.93   4
   6   4  -4   16.51    2.92   1
  -6  -4   4   19.78    3.18   1
  -5  -4   4  116.31   22.14  11
   5   4  -4  112.67   24.42   1
   5   4  -4  101.71   16.24   4
  -5  -4   4  106.81   20.31   1
  -5  -4   4  105.94   25.02  10
  -5  -4   4  149.63   29.12  10
   4   4  -4   47.20    5.26   4
   4   4  -4   43.44    3.52   1
  -4  -4   4   32.82    3.07   1
  -4  -4   4   41.65    3.54   1
  -4  -4   4   33.55    4.92   8
  -4  -4   4   33.60    8.92  10
  -4  -4   4   44.87   10.51  10
   4   4  -4   34.90    4.06   6
  -3  -4   4  578.49   24.29   1
   3   4  -4  654.80   29.00   4
   3   4  -4  626.12   27.87   6
   3   4  -4  640.10   24.52   1
  -3  -4   4  589.08   37.79  10
  -3  -4   4  654.03   24.56   1
  -3  -4   4  677.29   38.75  10
  -3  -4   4  641.17   32.01   8
  -3  -4   4  623.51   28.97   6
   2   4  -4   36.80   11.06  11
  -2  -4   4   30.31    6.96   6
   2   4  -4   55.49    4.34   6
  -2  -4   4   31.60    6.98   1
  -2  -4   4   52.86    5.01   8
  -2  -4   4   48.63    3.97   7
   2   4  -4   36.77    5.40   1
  -1  -4   4 1835.53   65.58   1
   1   4  -4 1644.52   65.74   1
  -1  -4   4 1839.55   74.26   4
   1   4  -4 1808.35   73.93   4
  -1  -4   4 1900.19   76.46   7
   1   4  -4 1795.73   72.69   6
  -1  -4   4 1818.27   66.08   1
   1   4  -4 1888.24   65.69   1
  -1  -4   4 1786.84   80.94  10
   1   4  -4 1808.34   77.31  10
   0   4  -4    4.35    1.36   1
   0   4  -4    8.74    5.12  10
   0   4  -4    9.85    2.51   2
   0  -4   4    6.66    4.25  10
   0   4  -4    3.77    1.11   1
   0  -4   4    5.33    1.26   1
   0  -4   4    7.24    1.57   4
   0   4  -4    5.17    2.22   3
   0  -4   4    8.47    1.63   1
   0   4  -4    6.97    1.33   4
  -1   4  -4 2195.24  108.76   3
   1  -4   4 2320.44   92.88   4
   1  -4   4 2196.78   84.33   1
   1  -4   4 2292.97  101.81  10
  -1   4  -4 2415.94   85.13   1
  -1   4  -4 2359.88   98.29   2
  -1   4  -4 2332.52  105.13  10
   1  -4   4 2336.00   84.85   1
  -1   4  -4 2482.00   94.54   4
  -2   4  -4  258.02   63.21   5
  -2   4  -4  241.10   57.66  10
  -2   4  -4  198.31   74.50   6
   2  -4   4  331.36   27.84   9
  -2   4  -4  194.43   52.63   3
   2  -4   4  273.13   60.92  10
   2  -4   4  167.50   81.58   1
  -2   4  -4  248.27   50.16   1
   3  -4   4 1613.09   58.46   1
   3  -4   4 1301.16   97.76   3
  -3   4  -4 1488.70   63.13   6
   3  -4   4 1577.67   69.04   9
   3  -4   4 1525.74   81.39  10
  -3   4  -4 1650.39   71.85   5
  -3   4  -4 1526.78   81.55  10
  -3   4  -4 1562.96   68.55   2
  -3   4  -4 1603.59   58.24   1
  -4   4  -4  501.05   25.95   5
   4  -4   4  439.07   20.51   1
   4  -4   4  466.73   41.51  10
  -4   4  -4  429.79   39.03  10
  -4   4  -4  468.17   20.54   1
  -4   4  -4  499.05   25.83   2
   5  -4   4  588.32   49.74  10
  -5   4  -4  543.52   29.35   5
  -5   4  -4  534.08   28.93   2
   5  -4   4  557.10   24.18   1
  -5   4  -4  546.73   23.85   1
  -5   4  -4  478.79   44.76  10
  -6   4  -4  465.15   27.14   5
  -6   4  -4  503.41   27.87   2
  -6   4  -4  469.82   22.21   1
   6  -4   4  491.90   22.74   1
   6  -4   4  467.71   48.30  10
  -7   4  -4  101.49    8.41   1
  -7   4  -4   87.20   10.04   2
   7  -4   4  110.98    8.92   1
  -7   4  -4   90.62    9.85   5
   8  -4   4  241.12   15.18   1
  -8   4  -4  246.55   18.59   2
  -8   4  -4  257.99   15.21   1
  -8  -3   4    3.67    3.10   1
   8   3  -4    3.84    2.82   1
   8   3  -4   -2.86    3.46   4
  -7  -3   4  124.09    8.31   1
   7   3  -4  122.88   15.99   4
   7   3  -4  113.22    8.23   1
  -6  -3   4   26.85   10.48  10
   6   3  -4   42.98    4.26   1
   6   3  -4   36.39   18.17   4
  -6  -3   4   36.93    4.01   1
   5   3  -4  551.99   51.30   4
   5   3  -4  532.37   68.06   1
  -5  -3   4  506.59   65.38  10
  -5  -3   4  532.59   41.30  10
  -5  -3   4  535.22   62.97   1
   4   3  -4  334.41   17.32   4
   4   3  -4  328.26   14.31   1
  -4  -3   4  335.96   28.36  10
  -4  -3   4  309.46   27.62  10
  -4  -3   4  335.26   14.33   1
  -4  -3   4  322.94   14.21   1
   3   3  -4 1105.13   45.91   4
  -3  -3   4 1060.82   39.83   1
  -3  -3   4 1081.41   55.78  10
  -3  -3   4  982.40   39.76   1
   3   3  -4 1067.35   39.92   1
  -3  -3   4 1080.02   45.87   6
  -3  -3   4 1101.10   50.58   8
  -2  -3   4 1347.94   57.65   7
   2   3  -4 1304.51   62.20  10
   2   3  -4 1396.60   50.08   1
  -2  -3   4 1366.70   56.23   6
  -2  -3   4 1306.24   49.98   1
  -2  -3   4 1405.56   64.53  10
  -2  -3   4 1390.51   63.05   8
   2   3  -4 1396.27   56.80   4
   1   3  -4 1020.13   42.40   2
   1   3  -4  937.47   36.28   1
  -1  -3   4  979.60   36.11   1
   1   3  -4  976.06   36.21   1
  -1  -3   4 1007.63   51.26  10
   1   3  -4  976.77   48.78  10
   1   3  -4 1010.65   40.79   4
  -1  -3   4  968.57   41.78   7
  -1  -3   4 1017.43   36.53   1
   1   3  -4  945.34   45.69   8
  -1  -3   4  878.43   39.37   6
  -1  -3   4  971.05   40.85   4
   0  -3   4 5494.87  211.73  10
   0   3  -4 5564.72  211.12  10
   0  -3   4 5232.24  195.38   1
   0   3  -4 5489.10  194.92   1
   0   3  -4 5511.16  223.02   2
   1  -3   4  238.85   23.43  10
  -1   3  -4  242.62   24.44  10
  -1   3  -4  260.41   14.21   2
   1  -3   4  251.35   11.55   1
   1  -3   4  237.20   11.19   1
   1  -3   4  238.69   11.14   4
  -1   3  -4  264.72   11.73   1
  -1   3  -4  245.14   13.30   3
   2  -3   4 3431.25  143.23  10
  -2   3  -4 2740.19  263.93   3
  -2   3  -4 3648.61  147.53   5
   2  -3   4 3324.80  120.68   1
  -2   3  -4 3377.25  120.70   1
   2  -3   4 3232.70  120.40   1
   2  -3   4 3291.38  143.43   9
  -2   3  -4 3286.98  137.13   6
  -2   3  -4 3414.80  143.47  10
   3  -3   4    7.24    5.65  10
  -3   3  -4    6.73    3.12   2
  -3   3  -4    8.30    2.19   1
  -3   3  -4   22.07    8.89  10
  -3   3  -4    4.54    2.42   5
  -4   3  -4 1793.24   68.31   1
   4  -3   4 1782.87   96.80  10
  -4   3  -4 1915.42   83.42   5
   4  -3   4 1815.17   68.55   1
  -4   3  -4 1812.26   80.00   2
  -4   3  -4 1759.24   95.17  10
   5  -3   4   89.97   19.36  10
  -5   3  -4   78.47   17.37  10
  -5   3  -4   89.01    6.75   1
  -5   3  -4   89.19    9.02   2
  -5   3  -4   88.89    8.03   5
   5  -3   4   87.04    6.85   1
  -6   3  -4  434.44   25.96   2
   6  -3   4  472.96   21.83   1
  -6   3  -4  458.14   21.49   1
  -6   3  -4  445.13   25.56   5
  -7   3  -4  104.46   14.31   1
  -7   3  -4   86.84   13.19   5
  -7   3  -4   90.27   25.06   2
   7  -3   4   95.14   18.04   1
   8  -3   4   49.93    6.67   1
  -8   3  -4   48.16    6.44   1
   9   2  -4    2.09    3.03   4
  -9  -2   4   12.28    3.76   1
  -8  -2   4  198.65   12.19   1
   8   2  -4  200.58   12.30   1
   8   2  -4  186.72   14.37   4
   7   2  -4    3.38   30.60   4
  -7  -2   4   -7.51   42.97  10
  -7  -2   4   43.12   31.59   1
   6   2  -4  771.30   48.91   4
  -6  -2   4  719.07   29.66   1
  -6  -2   4  747.70   53.38  10
   6   2  -4  684.19   29.49   1
  -5  -2   4   64.16   13.42  11
   5   2  -4   74.25    5.34   1
  -5  -2   4   88.65   15.76  10
  -5  -2   4   64.91   13.59  10
   5   2  -4   68.14    6.72   4
  -5  -2   4   68.44    5.22   1
   4   2  -4 1855.57   77.61   4
  -4  -2   4 1983.93   68.78   1
  -4  -2   4 1880.60   88.45  10
  -4  -2   4 1617.11  100.39  11
   4   2  -4 1895.94   68.69   1
  -4  -2   4 1943.64   88.74  10
  -3  -2   4  680.98   30.43   6
  -3  -2   4  704.97   33.31   8
  -3  -2   4  686.38   26.60   1
  -3  -2   4  706.59   41.73  10
  -3  -2   4  698.90   26.69   1
   3   2  -4  675.31   30.58   4
   3   2  -4  685.86   26.67   1
  -2  -2   4 2677.62   97.59   1
  -2  -2   4 2771.83  108.99   6
   2   2  -4 2731.81   97.66   1
   2   2  -4 2739.80  109.57   4
   2   2  -4 2580.03  110.43  10
   2   2  -4 2776.41  136.43  11
  -2  -2   4 2723.32  109.73   4
  -2  -2   4 2621.18  121.30   8
  -2  -2   4 2780.86  112.24  10
  -1  -2   4 2093.08   75.18   1
   1   2  -4 2070.60   75.26   1
  -1  -2   4 2081.15   75.34   1
  -1  -2   4 2077.87   90.63  10
  -1  -2   4 2098.40   84.24   4
   1   2  -4 2067.25   89.44  10
   1   2  -4 2066.48   93.51   8
   1   2  -4 2116.57   84.09   4
   1   2  -4 2161.69   86.32   2
   1   2  -4 1981.67   75.18   1
  -1  -2   4 2011.12   82.65   6
   0   2  -4 3215.21  131.93   2
   0  -2   4 3272.40  134.37  10
   0  -2   4 3205.57  131.73   2
   0  -2   4 3101.95  115.26   1
   0   2  -4 3178.93  134.21  10
   0  -2   4 3208.78  128.05   4
   0   2  -4 3182.32  115.50   1
   0  -2   4 3225.97  115.40   1
   1  -2   4 2400.26   90.55   1
   1  -2   4 2540.37  111.88  10
  -1   2  -4 2528.14  112.44  10
  -1   2  -4 2299.18  120.87   3
  -1   2  -4 2396.94   90.60   1
  -1   2  -4 2441.01  102.91   6
   1  -2   4 2480.96   90.47   1
   1  -2   4 2544.70  103.92   2
   1  -2   4 2682.15   99.95   4
  -1   2  -4 2546.99  104.28   2
   2  -2   4  329.54   15.36   1
  -2   2  -4  328.49   30.32  10
   2  -2   4  352.52   15.68   1
   2  -2   4  347.84   31.14  10
  -2   2  -4  375.56   18.76   5
  -2   2  -4  342.38   18.81   2
   2  -2   4  396.54   16.80   6
  -2   2  -4  357.52   16.06   6
  -2   2  -4  350.49   15.67   1
  -3   2  -4 1669.16   72.06   5
  -3   2  -4 1542.40   83.28  10
   3  -2   4 1581.41   85.32  10
   3  -2   4 1644.55   59.98   1
  -3   2  -4 1585.72   59.70   1
   3  -2   4 1354.32   75.48   9
  -3   2  -4 1530.46   69.43   2
   3  -2   4 1740.98   66.83   6
  -3   2  -4 1606.15   65.43   6
  -4   2  -4   26.09   10.47  10
  -4   2  -4    2.69    2.00   5
  -4   2  -4    2.50    3.21   2
  -4   2  -4   -1.10    2.00   1
   4  -2   4    5.55    5.80  10
  -5   2  -4  525.69   28.68   2
   5  -2   4  537.43   48.87  10
  -5   2  -4  540.49   27.80   5
   5  -2   4  561.82   24.09   1
  -5   2  -4  584.02   49.23  10
  -5   2  -4  541.35   23.77   1
   5  -2   4  491.75   23.36   4
   6  -2   4   54.30    5.97   1
  -6   2  -4   38.62    6.70   2
  -6   2  -4   51.28    5.73   1
  -6   2  -4   45.06    5.83   5
   7  -2   4   96.05    8.56   1
  -7   2  -4  111.62    8.86   1
  -8   2  -4   27.51    5.29   1
   8  -2   4   43.83    6.27   1
  -9  -1   4  112.87    9.28   1
   9   1  -4   98.69   10.31   4
   9   1  -4  101.40    8.98   1
   8   1  -4  123.54   11.02   4
   8   1  -4  118.53    8.88   1
  -8  -1   4  130.11    9.04   1
  -7  -1   4  525.59   23.12   1
   7   1  -4  513.44   23.20   1
  -7  -1   4  502.21   46.20  10
   7   1  -4  528.31   27.04   4
  -6  -1   4  146.51    8.71   1
   6   1  -4  136.22    8.55   1
   6   1  -4  139.53   33.56   4
  -6  -1   4  140.95   21.59  10
  -5  -1   4 1756.95   87.99  10
   5   1  -4 1725.42   73.36   4
  -5  -1   4 1675.67   88.30  10
  -5  -1   4 1762.56   78.87   1
   5   1  -4 1685.60   83.98   1
  -4  -1   4    9.93    3.73  11
   4   1  -4   14.54    2.17   1
   4   1  -4   13.27    2.69   4
  -4  -1   4   17.79    2.23   1
  -4  -1   4    4.80    4.56  10
  -4  -1   4   16.22    6.78  10
  -3  -1   4 3365.96  135.66   6
  -3  -1   4 3421.28  121.18   1
  -3  -1   4 3405.54  121.14   1
  -3  -1   4 3350.21  137.63  10
  -3  -1   4 3420.17  150.04   8
   3   1  -4 3372.25  136.11   4
   3   1  -4 3245.41  121.05   1
   2   1  -4  364.63   31.16   1
   2   1  -4  353.68   33.41  10
  -2  -1   4  264.46   35.57  10
  -2  -1   4  367.57   40.73   4
  -2  -1   4  262.54   41.37   8
  -2  -1   4  280.67   34.26   1
   2   1  -4  268.76   53.29   1
   2   1  -4  309.54   14.64   2
  -2  -1   4  257.04   46.55   1
  -1  -1   4 3885.92  147.75  10
   1   1  -4 3591.51  146.76  10
  -1  -1   4 3695.53  131.89   1
  -1  -1   4 3679.68  147.46   4
   1   1  -4 3807.62  150.50   2
   1   1  -4 3331.27  131.68   1
   1   1  -4 3776.43  132.07   1
   0   1  -4 1813.05   75.76   2
   0  -1   4 1768.08   66.32   1
   0   1  -4 1725.98   66.27   1
   0   1  -4 1933.54   66.77   1
   0  -1   4 1831.19   85.90  10
   0   1  -4 1841.42   86.75  10
   0  -1   4 1777.99   66.32   1
   0  -1   4 1791.15   73.11   6
   0  -1   4 1779.02   75.34   2
  -1   1  -4 1584.39   68.75   2
   1  -1   4 1606.16   59.89   1
   1  -1   4 1617.96   80.71  10
   1  -1   4 1635.28   65.31   6
  -1   1  -4 1683.95   60.16   1
  -1   1  -4 1535.14   59.74   1
  -1   1  -4 1492.64   59.67   1
   1  -1   4 1697.49   68.76   2
   1  -1   4 1566.30   59.73   1
  -1   1  -4 1713.17   82.85  10
   2  -1   4 1036.49   60.76  10
   2  -1   4 1012.18   42.16   6
  -2   1  -4 1017.47   38.61   1
   2  -1   4  993.66   38.46   1
  -2   1  -4 1051.93   45.59   5
  -2   1  -4  944.73   44.64   2
  -2   1  -4  961.37   59.07  10
  -2   1  -4  946.70   41.66   6
   3  -1   4  277.09   14.37   6
   3  -1   4  253.37   28.45  10
  -3   1  -4  276.78   14.46   5
  -3   1  -4  261.40   12.89   1
   3  -1   4  269.27   13.07   1
  -3   1  -4  245.93   27.33  10
  -3   1  -4  262.44   15.70   2
   4  -1   4  344.79   16.12   1
  -4   1  -4  334.12   19.64   2
  -4   1  -4  347.23   16.01   1
   4  -1   4  299.84   15.52   4
  -4   1  -4  299.55   33.07  10
   4  -1   4  366.50   21.91   6
   4  -1   4  315.07   34.24  10
  -4   1  -4  343.64   17.88   5
  -5   1  -4    5.23    7.42  10
   5  -1   4    2.03    8.07   4
  -5   1  -4    4.88    2.26   5
  -5   1  -4    0.45    5.59   1
   5  -1   4    1.73    2.32   6
  -5   1  -4   -3.09    5.00   2
   5  -1   4   -6.30    6.58  10
   5  -1   4    7.69    5.93   1
   6  -1   4   37.20    4.31   4
  -6   1  -4   47.58    5.52   1
  -6   1  -4   41.65    7.78   5
   6  -1   4   48.48    5.37   1
  -7   1  -4   13.33    4.00   1
   7  -1   4    7.57    5.63   1
   8  -1   4   -3.86    3.52   1
  -9   0   4  243.70   14.67   1
   9   0  -4  246.89   14.91   1
  -8   0   4  145.89    9.83   1
   8   0  -4  136.98    9.68   1
  -8   0   4  178.29   15.45   5
  -7   0   4  475.18   27.60   5
   7   0  -4  452.16   24.33   4
   7   0  -4  432.46   20.47   1
  -7   0   4  450.46   43.27  10
  -7   0   4  438.94   20.39   1
  -6   0   4  584.91   46.27  10
  -6   0   4  657.75   48.78  10
   6   0  -4  602.02   29.92   4
  -6   0   4  636.16   33.57   5
   6   0  -4  615.25   25.91   1
  -6   0   4  600.31   25.71   1
  -5   0   4  460.07   37.82  10
   5   0  -4  491.03   24.21   4
  -5   0   4  492.56   20.73   1
  -5   0   4  526.77   27.36   5
  -5   0   4  492.96   39.45  10
   5   0  -4  485.18   20.84   1
  -4   0   4 1546.53   68.94   5
   4   0  -4 1436.59   62.36   4
  -4   0   4 1505.51   75.01  10
   4   0  -4 1449.05   55.18   1
  -4   0   4 1475.35   73.96  10
  -3   0   4  189.42   11.82   5
   3   0  -4  184.48    8.95   1
  -3   0   4  184.42   99.26   1
  -3   0   4  185.65   19.38  10
  -2   0   4 1758.86   62.54   1
  -2   0   4 1744.43   62.53   1
   2   0  -4 1628.36   62.37   1
   2   0  -4 1681.58   77.83  10
   2   0  -4 1510.90   82.68   5
  -2   0   4 1741.73   78.03  10
   2   0  -4 1821.17   70.85   2
   2   0  -4 1734.65   62.66   1
  -2   0   4 1766.79   70.68   4
   1   0  -4    3.87    1.31   2
   1   0  -4    3.78    1.08   1
  -1   0   4    4.57    1.13   1
  -1   0   4    6.18    1.33   2
   1   0  -4   16.09    6.40  10
   1   0  -4    5.72    2.10   5
  -1   0   4   -3.11    3.29  10
   0   0  -4 1435.05   54.31   1
   0   0   4 1430.68   73.49  10
   0   0   4 1531.13   54.46   1
   0   0   4 1443.99   54.31   1
   0   0  -4 1372.49   73.51  10
   0   0   4 1473.41   61.38   2
   0   0  -4 1498.92   54.66   1
   0   0  -4 1459.72   61.71   2
   1   0   4  170.63    8.75   1
   1   0   4  174.19   10.03   2
  -1   0  -4  161.32    9.05   3
  -1   0  -4  199.04   22.69  10
  -1   0  -4  169.48    8.97   1
   1   0   4  160.67   20.36  10
   1   0   4  160.93    8.78   6
   1   0   4  156.71    8.61   1
  -1   0  -4  167.61   10.14   2
  -1   0  -4  171.58    8.83   1
  -2   0  -4   95.55    6.37   1
  -2   0  -4   95.08   16.47  10
  -2   0  -4   92.85    6.49   6
   2   0   4   81.82   15.58  10
  -2   0  -4  109.37    8.03   2
   2   0   4   93.97    6.23   1
  -2   0  -4   97.19    6.25   5
   2   0   4  111.12    6.97   6
   3   0   4  126.87    8.48   6
   3   0   4  106.86   18.91  10
   3   0   4  128.62    7.87   1
  -3   0  -4  119.77    7.61   1
  -3   0  -4  132.27    9.97   2
  -3   0  -4  118.81    7.35   5
  -3   0  -4  163.86   22.32  10
   4   0   4   -3.95   24.91  10
  -4   0  -4    9.32    8.19   1
   4   0   4    7.82   24.75   1
  -4   0  -4    5.98    1.84   5
  -4   0  -4    6.55    7.58  10
   4   0   4    3.12    1.87   4
   4   0   4   11.02   33.92   6
  -4   0  -4    2.62   21.42   2
   5   0   4   19.61   10.18   1
   5   0   4   15.28    5.17   6
  -5   0  -4   11.99    6.64   1
   5   0   4   37.95   13.62  10
  -5   0  -4   17.25   12.24   2
   5   0   4   16.35    9.82   4
  -5   0  -4   16.64    3.03   5
   6   0   4   24.52    4.31   1
   6   0   4   27.43    5.72   6
  -6   0  -4   29.17    4.56   1
   6   0   4   27.55    3.80   4
  -7   0  -4   -0.32    2.02   1
   7   0   4   -0.71    2.08   1
   8   0   4   21.17    4.87   1
  -8   0  -4   19.12    4.74   1
   9  -1  -4    5.36    2.95   1
  -8   1   4  405.43   25.46   5
  -8   1   4  399.28   19.22   1
   8  -1  -4  367.41   19.04   1
   7  -1  -4   42.67   19.55   1
  -7   1   4   51.37    7.39   5
  -7   1   4   48.75   23.38   1
  -6   1   4  605.93   24.93   1
  -6   1   4  596.99   31.92   5
  -6   1   4  554.42   45.44  10
   6  -1  -4  574.15   24.80   1
  -6   1   4  579.42   45.86  10
  -5   1   4  240.80   26.10  10
  -5   1   4  314.87   29.79  10
   5  -1  -4  253.53   12.30   1
  -5   1   4  248.27   12.11   1
  -5   1   4  248.82   15.85   5
  -4   1   4  443.21   33.92  10
   4  -1  -4  443.45   18.58   1
  -4   1   4  446.66   23.60   5
  -4   1   4  445.30   33.70  10
  -4   1   4  441.16   18.35   1
  -3   1   4  473.15   23.86   5
   3  -1  -4  446.18   18.87   1
  -3   1   4  480.74   33.58  10
  -3   1   4  461.85   18.76   1
   2  -1  -4  346.85  207.63   1
  -2   1   4  319.04  136.24   1
  -2   1   4  278.49  140.23  10
   2  -1  -4  182.42  143.51   2
   2  -1  -4  147.97  161.47   5
   2  -1  -4  558.93  135.97  10
  -2   1   4  205.90  251.83   1
  -1   1   4  240.56   10.83   2
   1  -1  -4  250.35   10.81   1
   1  -1  -4  223.21   21.98  10
   1  -1  -4  215.98   13.06   5
  -1   1   4  234.73   10.47   1
   1  -1  -4  216.84   11.11   2
  -1   1   4  234.08   10.43   1
  -1   1   4  243.88   22.13  10
   1  -1  -4  221.54   10.37   1
   0   1   4   31.55    3.03   1
   0   1   4   23.40    2.60   2
   0  -1  -4   24.17    2.98   2
   0  -1  -4   26.29    2.86   1
   0   1   4   42.99   10.41  10
   0  -1  -4   25.80    8.54  10
   0  -1  -4   22.59    2.87   5
   0  -1  -4   23.67    2.77   1
   0   1   4   21.50    2.54   1
  -1  -1  -4    3.47    1.39   3
  -1  -1  -4    5.85    1.89   1
  -1  -1  -4    5.72    2.13   2
  -1  -1  -4   10.03    2.33   1
   1   1   4    7.61    2.06   2
  -1  -1  -4    4.44    1.13   5
   1   1   4    7.14    2.00   1
   1   1   4   -2.79    5.02  10
   1   1   4    1.39    1.64   6
  -1  -1  -4    6.62    6.14  10
  -2  -1  -4    1.72    0.70   5
  -2  -1  -4   16.30    7.50  10
   2   1   4    0.77    4.46  10
  -2  -1  -4    5.77    2.69   2
   2   1   4    3.74    2.16   6
   2   1   4    2.19    1.67   1
  -3  -1  -4   42.75   23.54   2
   3   1   4   48.19    5.16   6
  -3  -1  -4   42.78    7.80   1
  -3  -1  -4   35.37    2.99   5
  -3  -1  -4   54.12   13.93  10
   3   1   4   41.14    3.42   3
   3   1   4   33.17   11.25  10
   3   1   4   50.24    4.66   1
   4   1   4    1.25    1.92   4
  -4  -1  -4    3.46    2.63   1
  -4  -1  -4    1.98    8.49   2
   4   1   4    9.73    7.95  10
   4   1   4   -1.29    4.05   6
  -4  -1  -4    8.91    8.04  10
  -5  -1  -4   55.49   53.02   1
   5   1   4   62.80   51.22   6
   5   1   4   72.83   69.68   1
   5   1   4   56.01   73.16   4
   6   1   4   -2.93    2.10   1
   6   1   4   -3.04    3.82   6
   6   1   4   -3.36    2.23   4
  -6  -1  -4    0.41    1.99   1
  -7  -1  -4   24.46    4.47   1
   7   1   4   40.25    5.26   1
   7   1   4   37.43    6.69   6
  -9   2   4  115.32   12.51   5
  -9   2   4  124.06    9.48   1
   9  -2  -4  115.49    9.59   1
  -8   2   4   46.79   14.54   1
   8  -2  -4   32.22   10.17   1
   7  -2  -4  194.37   11.36   1
  -7   2   4  207.74   11.37   1
  -7   2   4  181.52   14.41   5
  -6   2   4   -3.15    5.62  10
   6  -2  -4   -1.29    1.93   1
  -6   2   4   -1.51    2.24   5
  -6   2   4    6.71    6.67  10
   5  -2  -4  120.72    8.70   2
  -5   2   4  133.95   19.49  10
  -5   2   4  160.06   20.84  10
   5  -2  -4  141.43    8.22   1
  -5   2   4  161.29    8.36   1
  -5   2   4  148.63   11.08   5
   4  -2  -4   14.14    2.33   1
  -4   2   4   13.60    6.12  10
   4  -2  -4    9.95    1.83   2
  -4   2   4    8.23    3.90  11
  -4   2   4    8.48    1.31   7
  -4   2   4    5.89    1.76   1
  -4   2   4   11.79   23.20   5
   3  -2  -4    6.37    3.37   1
  -3   2   4    5.67    5.46  10
  -3   2   4    8.47    1.38   7
  -3   2   4    5.14   63.94   1
  -3   2   4    6.66    2.09   5
   2  -2  -4    8.34   80.56   5
  -2   2   4   73.12   64.76  10
  -2   2   4   80.46   61.85   1
   2  -2  -4  119.84   90.26   1
   2  -2  -4  205.90   60.21  10
   1  -2  -4   96.82    5.38   2
  -1   2   4   75.33    4.61   2
   1  -2  -4   81.73    6.75   5
   1  -2  -4   91.60    5.55   1
   1  -2  -4   91.24    5.39   1
  -1   2   4   93.74    5.40   1
   1  -2  -4   96.30   14.33  10
  -1   2   4  102.35    6.18   5
  -1   2   4  108.32   14.88  10
   0  -2  -4   40.00    3.63   5
   0  -2  -4   45.97    3.84   1
   0   2   4   35.69    3.22   2
   0  -2  -4   35.50    3.53   1
   0  -2  -4   33.97    9.48  10
   0   2   4   33.72    3.37   1
   0  -2  -4   45.82    3.94   2
   0  -2  -4   42.93    4.63   3
  -1  -2  -4  194.33   11.51   3
  -1  -2  -4  179.87    9.75   1
  -1  -2  -4  208.26   11.15   2
  -1  -2  -4  190.95   23.15  10
  -1  -2  -4  180.33    9.59   1
   1   2   4  163.30    9.24   1
   1   2   4  156.42    9.86   2
   1   2   4  198.70   10.98   6
   1   2   4  205.91   23.66  10
   2   2   4  122.88    8.88   6
  -2  -2  -4  134.86    8.95   3
  -2  -2  -4  129.52   20.21  10
   2   2   4  171.27   22.65  10
   2   2   4  129.81    7.96   1
  -2  -2  -4  136.52    8.19   1
  -2  -2  -4  144.90    9.78   2
  -3  -2  -4  105.99   28.08   1
   3   2   4  145.68   22.18  10
   3   2   4  113.01    7.36   1
  -3  -2  -4  131.59   21.82  10
   3   2   4   97.70    7.06   3
   3   2   4   97.34    8.30   6
   4   2   4  118.65   46.98   6
  -4  -2  -4   96.65   19.94  10
  -4  -2  -4  122.76   12.29   1
   4   2   4   84.64   18.07  10
   4   2   4  140.44    8.88   1
  -5  -2  -4   42.25    4.88   1
   5   2   4   43.24    6.26   6
   5   2   4   29.76    4.32   1
   5   2   4   37.63    5.08   4
  -6  -2  -4   43.51    5.70   1
   6   2   4   53.61    6.22   4
   6   2   4   44.79    7.04   6
   6   2   4   55.28    6.15   1
   7   2   4    9.55    3.74   1
   7   2   4   13.61    3.88   4
  -7  -2  -4   13.39    4.18   1
   7   2   4   15.34    5.25   6
  -9   3   4   52.41    7.94   5
  -9   3   4   47.31    5.61   1
   9  -3  -4   49.74    6.02   1
  -8   3   4   20.83    4.06   1
  -8   3   4   21.56    5.89   5
   8  -3  -4   27.79    4.53   1
   7  -3  -4   43.05   11.84   1
  -7   3   4   41.82    6.28   5
  -7   3   4   45.50   10.13   1
  -6   3   4    9.94    6.52  10
  -6   3   4   18.65    4.67   5
  -6   3   4   43.24   12.40  10
   5  -3  -4   44.26    7.67   1
  -5   3   4   51.87   10.51   1
  -5   3   4   40.69   10.87  10
  -5   3   4   50.67   10.00   5
   5  -3  -4   42.96    4.81   2
  -5   3   4   56.89   13.11  10
  -5   3   4   41.74   13.54   7
   4  -3  -4   21.13   20.82   1
  -4   3   4   18.13    4.37   5
  -4   3   4   19.54    2.60   1
  -4   3   4   17.34    7.62  10
  -4   3   4   19.27    7.62  11
   4  -3  -4   15.65    2.40   2
  -4   3   4   16.06    1.98   7
  -3   3   4   84.35    5.38   7
  -3   3   4   73.68   56.87  10
  -3   3   4   72.68   13.06  11
  -3   3   4   86.00   27.70   1
  -3   3   4   85.21    6.79   5
   3  -3  -4   87.39   28.66   1
  -2   3   4  177.25   35.16   1
   2  -3  -4  111.47   70.57   5
  -2   3   4  149.76   20.35  10
   2  -3  -4  185.97   27.39   1
   2  -3  -4  245.48   40.45  10
  -1   3   4  166.88   19.04  10
   1  -3  -4  145.19    7.65   1
   1  -3  -4  142.94   23.13  11
   1  -3  -4  143.20    7.55   1
   1  -3  -4  174.34   19.48  10
  -1   3   4  148.18    8.47   5
  -1   3   4  151.03    7.48   1
   1  -3  -4  121.69    8.77   5
   0  -3  -4  271.09   16.63   3
   0   3   4  265.54   13.19   2
   0   3   4  274.35   12.63   1
   0  -3  -4  293.67   13.03   1
   0   3   4  259.44   13.30   5
   0  -3  -4  286.86   12.95   1
   0   3   4  295.74   28.22  10
   0  -3  -4  278.38   27.70  10
  -1  -3  -4  152.74   10.43   3
  -1  -3  -4  121.18   19.21  10
   1   3   4  161.18   10.05   6
  -1  -3  -4  145.30    8.40   1
   1   3   4  140.36    7.98   1
   1   3   4  120.95   19.09  10
  -1  -3  -4  156.46    8.49   1
   1   3   4  138.05    8.53   2
   2   3   4  178.03   13.94   1
   2   3   4  147.03   31.56  10
  -2  -3  -4  109.09   26.43  10
  -2  -3  -4  103.80   29.64   3
  -2  -3  -4  136.44   16.87   1
  -2  -3  -4   87.95   48.19   1
  -3  -3  -4   75.66    6.32   1
   3   3   4   75.07    6.14   1
  -3  -3  -4  106.12   20.28  10
   3   3   4   64.35    6.06   3
   3   3   4   87.74    7.87   6
   3   3   4   88.50   17.33  10
   4   3   4   40.44   13.28  10
   4   3   4   23.30    3.51   1
   4   3   4   23.75    4.54   6
  -4  -3  -4   19.28    3.43   1
   5   3   4   23.52   15.79   1
  -5  -3  -4    4.00   10.15   1
   5   3   4    8.96   19.80   4
   5   3   4   11.52   12.42   6
   6   3   4   14.21    3.46   1
   6   3   4   16.05    4.23   4
  -6  -3  -4   14.75    3.46   1
  -7  -3  -4    3.51    2.62   1
   7   3   4   -4.16    3.41   4
  -8   4   4   10.94    4.92   5
  -8   4   4    6.67    3.12   1
   7  -4  -4   40.78    5.02   1
  -7   4   4   34.63    4.53   1
  -7   4   4   50.64    7.15   5
  -6   4   4    1.21    1.57   1
  -6   4   4   -4.19    3.30   5
  -6   4   4   10.52    6.59  10
  -5   4   4   91.48   41.77  10
   5  -4  -4  130.38   41.77   1
  -5   4   4  120.64   18.61  10
  -5   4   4  118.85   43.67   1
   5  -4  -4  103.63    7.62   2
  -5   4   4  128.49   49.17   5
  -4   4   4   -1.72   40.21   5
  -4   4   4   -0.38    3.90  11
   4  -4  -4    2.16    1.39   1
  -4   4   4   -2.30    3.95  10
  -4   4   4   -0.97    1.12   1
  -4   4   4    6.79    4.91  10
  -3   4   4  266.20   29.70  11
  -3   4   4  230.31   23.71  10
   3  -4  -4  256.47   16.38   1
  -3   4   4  256.69   11.72   1
  -3   4   4  275.24   20.44   5
  -2   4   4   29.36   18.99   1
  -2   4   4   70.05   23.35   5
   2  -4  -4   52.93   19.13  10
   2  -4  -4   34.07   28.54   1
  -2   4   4   23.26   19.56  10
   1  -4  -4  276.55   12.77   1
   1  -4  -4  266.39   15.25   5
   1  -4  -4  277.62   36.45  11
   1  -4  -4  291.07   18.31   3
   1  -4  -4  287.22   12.82   1
  -1   4   4  289.11   12.50   1
  -1   4   4  284.08   26.98  10
  -1   4   4  297.80   14.78   5
   1  -4  -4  259.56   13.91   8
   1  -4  -4  323.56   27.86  10
   0  -4  -4   41.31   16.33  11
   0  -4  -4   37.17    3.55   1
   0  -4  -4   24.19    2.91   1
   0  -4  -4   26.24    2.71   5
   0  -4  -4   32.76    4.89   3
   0   4   4   28.09    9.20  10
   0   4   4   33.06    3.03   2
   0   4   4   29.31    3.11   1
   0  -4  -4   29.81    9.63  10
   0   4   4   26.51    2.51   5
   1   4   4  129.39    8.65   2
  -1  -4  -4  156.34    8.67   1
  -1  -4  -4  155.86    8.84   1
   1   4   4  156.41   10.67   6
  -1  -4  -4  145.33   21.44  10
   1   4   4  162.30    8.68   1
   1   4   4  154.60   21.50  10
  -1  -4  -4  165.28   11.69   3
   2   4   4   45.15   68.04   9
  -2  -4  -4   37.65   43.25  10
  -2  -4  -4  105.69   42.12   1
   2   4   4   75.97   51.56  10
  -2  -4  -4   31.51   54.40   1
   2   4   4   99.26   42.17   1
  -2  -4  -4   38.63   29.27   3
   3   4   4   48.81    6.38   6
   3   4   4   55.32   14.31  10
   3   4   4   41.25    4.77   1
  -3  -4  -4   51.47    5.28   1
  -3  -4  -4   59.50   16.13  10
  -4  -4  -4   22.19    4.06   1
   4   4   4   23.74    5.38   6
   4   4   4   19.46    3.76   1
   5   4   4   20.17    5.28   6
  -5  -4  -4   14.21    4.00   1
   5   4   4    8.44    3.73   4
  -6  -4  -4   47.95    5.80   1
   6   4   4   39.09    6.33   4
   6   4   4   39.26    7.06   6
   9  -5  -4    1.24    2.69   1
  -9   5   4    3.57    2.46   1
  -8   5   4   22.67    3.92   1
   8  -5  -4   20.01    4.24   1
  -8   5   4   19.90    5.43   5
   7  -5  -4    1.05    2.40   1
  -7   5   4    0.74    2.18   1
  -7   5   4   -2.25    3.96   5
  -6   5   4   67.44    8.08   5
   6  -5  -4   77.36    6.24   1
  -6   5   4   55.88   14.30  10
  -6   5   4   65.33    5.58   1
   5  -5  -4    5.63    2.26   1
  -5   5   4    2.67    4.79  11
  -5   5   4    4.43    2.66   5
  -5   5   4   -0.61    4.60  10
  -5   5   4   -1.01    5.27  10
  -4   5   4  101.32   19.44  11
  -4   5   4  140.82   18.77  10
  -4   5   4  111.13   17.14  10
  -4   5   4  110.69   12.25   5
   4  -5  -4  113.79   52.36   1
  -4   5   4  110.55    6.68   1
  -3   5   4    4.03    4.07   1
   3  -5  -4    8.12   35.68   1
  -3   5   4   16.29   47.08  10
  -3   5   4    3.82   41.53   5
   2  -5  -4   56.00    4.27   1
   2  -5  -4   53.33   11.56  10
  -2   5   4   63.98    5.64   5
  -2   5   4   55.70    4.04   1
  -2   5   4   51.14   11.05  10
   2  -5  -4   47.70    7.30   3
   2  -5  -4   57.04    4.33   1
   1  -5  -4   10.12    2.18   1
   1  -5  -4   20.32    7.79  10
   1  -5  -4   11.59    2.18   1
   1  -5  -4    7.79    9.61  11
  -1   5   4   11.95    2.25   5
  -1   5   4   13.30    2.11   1
   1  -5  -4    8.11    1.79   8
   1  -5  -4   11.25    3.45   3
   1  -5  -4   10.21    2.33   5
   0  -5  -4    0.27    2.05   3
   0   5   4    3.27    1.61   1
   0  -5  -4    0.29    6.89  11
   0  -5  -4    2.49    5.66  10
   0  -5  -4    2.96    1.76   1
   0  -5  -4   -0.83    1.46   1
   0   5   4   -4.27    5.42  10
   1   5   4   15.25    2.48   1
  -1  -5  -4   13.58    2.50   1
  -1  -5  -4   22.86   15.34   3
  -1  -5  -4   17.05    8.61  10
   1   5   4    3.31    5.48  10
  -1  -5  -4   17.13    2.86   1
   1   5   4   23.99    4.62   6
  -2  -5  -4   27.83    3.90   1
  -2  -5  -4   39.54   12.64  10
   2   5   4   28.87   10.38  10
   2   5   4   35.54    4.35   1
  -2  -5  -4   22.75    5.07   3
   3   5   4   51.81    6.64   6
   3   5   4   36.36   12.08  10
   3   5   4   48.88    5.08   1
  -3  -5  -4   44.44    5.12   1
   4   5   4   11.09    3.91   6
   4   5   4   12.31    3.29   1
   5   5   4   90.78    9.98   6
  -5  -5  -4   76.00    7.21   1
   5   5   4   72.57    8.45   4
  -6  -5  -4    8.49    3.52   1
   6   5   4   -2.30    3.42   6
  -8   6   4   24.94    4.20   1
   8  -6  -4   26.51    4.73   1
  -8   6   4   15.87    4.94   5
  -7   6   4   38.24    6.82   5
  -7   6   4   43.60    4.64   1
   7  -6  -4   35.76    4.56   1
  -6   6   4   16.80    4.45   5
  -6   6   4   16.01    2.75   1
   6  -6  -4   10.11    2.61   1
  -6   6   4   11.64    7.06  10
  -6   6   4   15.30    9.52  11
  -5   6   4   41.17   29.83   5
  -5   6   4   47.24   14.77  11
  -5   6   4   60.05   27.75  10
  -5   6   4   37.90   31.66   1
   5  -6  -4   39.49   26.70   1
   4  -6  -4    6.40   11.86   1
  -4   6   4    5.22    3.10   5
  -4   6   4   -1.85    4.40  10
  -4   6   4    0.90    5.82  11
  -4   6   4    6.09    5.76  10
  -3   6   4   12.53    2.13   1
   3  -6  -4   19.37    5.72   3
  -3   6   4    9.46    7.36   5
   3  -6  -4   12.75    2.17   1
  -3   6   4    7.52   17.54  10
   3  -6  -4   15.20   12.80   1
  -2   6   4   11.85    2.03   1
   2  -6  -4   20.54    4.92   3
   2  -6  -4   15.80    2.46   1
   2  -6  -4   14.00    2.34   1
   2  -6  -4   20.16    7.76  10
  -2   6   4   32.45    9.72  10
  -2   6   4   21.71    3.49   5
   1  -6  -4   56.37   12.00  10
   1  -6  -4   27.77    5.40   3
   1  -6  -4   25.57    3.11   1
   1  -6  -4   26.95    3.36   8
  -1   6   4   24.30    8.97  10
  -1   6   4   33.98    3.06   1
   1  -6  -4   29.72    3.17   1
   0  -6  -4   12.14    2.20   1
   0  -6  -4   14.25    4.68   3
   0   6   4   23.10    4.66   6
   0  -6  -4   14.16    2.90   8
   0   6   4   15.85    2.69   5
   0   6   4   14.80    7.48  10
   0  -6  -4   20.14    7.86  10
   0   6   4   11.51    1.93   1
   1   6   4  187.57    9.74   1
  -1  -6  -4  147.07   22.26  10
   1   6   4  180.73   12.95   6
  -1  -6  -4  180.43   31.15   3
  -1  -6  -4  178.91    9.94   1
   1   6   4  188.54   24.09  10
   2   6   4   47.24   47.29   1
  -2  -6  -4   46.99   52.93   3
   2   6   4   49.28   80.28  10
  -2  -6  -4   50.10   62.98  10
  -2  -6  -4   54.55   50.21   1
   3   6   4  248.82   17.17   6
  -3  -6  -4  255.02   13.81   1
   4   6   4   49.99    7.57   6
   4   6   4   34.65    6.30   4
  -4  -6  -4   54.49    6.07   1
  -5  -6  -4  171.30   11.52   1
   5   6   4  148.44   13.39   6
   5   6   4  153.77   13.05   4
  -8   7   4    8.55    3.02   1
  -7   7   4   14.33    4.98   1
   7  -7  -4    6.30    2.99   1
   6  -7  -4    7.78    6.70   3
   6  -7  -4   -2.85    2.30   1
  -6   7   4    2.77    1.79   1
  -5   7   4   24.13   22.93  10
  -5   7   4   43.98   15.87  11
   5  -7  -4   33.86   25.79   1
  -5   7   4   33.28    5.72   5
  -5   7   4   28.18   35.49   1
   5  -7  -4   38.31    9.45   3
  -4   7   4   15.73    4.12   5
  -4   7   4   32.34    9.80  10
   4  -7  -4   31.89    7.94   3
  -4   7   4   46.10   12.24  10
  -4   7   4   26.66    3.13   1
   4  -7  -4   20.83    3.16   1
  -4   7   4   23.78   12.47  11
  -3   7   4  154.68   21.11  10
   3  -7  -4  128.89   13.81   3
  -3   7   4  125.59    7.09   1
  -3   7   4  134.09   10.11   5
   3  -7  -4  132.46    7.61   1
  -2   7   4  181.00   11.80   5
  -2   7   4  159.17   21.80  10
   2  -7  -4  176.54    9.24   1
  -2   7   4  172.93    8.79   1
   2  -7  -4  187.71   15.83   3
  -1   7   4  179.05    8.60   1
   1  -7  -4  163.47   14.83   3
   1  -7  -4  164.06    8.79   1
   1  -7  -4  169.53   20.78  10
  -1   7   4  169.90   22.42  10
  -1   7   4  166.26   10.82   5
   0   7   4  695.51   27.16   1
   0   7   4  618.40   31.74   5
   0  -7  -4  703.53   34.86   8
   0  -7  -4  706.16   27.60   1
   0  -7  -4  690.90   47.96  10
   0  -7  -4  694.95   39.44   3
   0   7   4  693.25   34.38   6
   0   7   4  625.67   47.88  10
  -1  -7  -4   63.30   14.40  10
  -1  -7  -4   61.33    8.74   3
  -1  -7  -4   59.24    5.05   1
   1   7   4   59.11    7.75   6
   1   7   4   64.03   14.10  10
   2   7   4  386.75   37.86  10
  -2  -7  -4  462.94   29.04   3
  -2  -7  -4  450.26   20.57   1
   2   7   4  481.97   26.17   6
  -3  -7  -4    1.95    2.37   1
   4   7   4  270.14   19.16   6
   4   7   4  278.98   18.95   4
  -4  -7  -4  263.44   15.15   1
  -7   8   4   24.17    7.52   5
   7  -8  -4   29.97   10.03   3
   7  -8  -4   23.81    6.51   1
  -6   8   4   48.05    7.78   5
   6  -8  -4   72.67   12.41   3
   6  -8  -4   60.08    5.78   1
  -5   8   4    1.44    7.77  11
  -5   8   4    2.98    3.42   5
   5  -8  -4    5.58    2.54   1
   4  -8  -4  226.14   20.98   3
   4  -8  -4  233.67   11.88   1
  -4   8   4  233.24   15.87   5
  -4   8   4  217.50   37.51  11
  -3   8   4   21.68    4.42   5
  -3   8   4   25.26    9.44  10
   3  -8  -4   17.92    6.53   3
   3  -8  -4   17.50    2.72   1
  -2   8   4  392.45   36.05  10
   2  -8  -4  396.51   17.24   1
  -2   8   4  391.16   21.89   5
   2  -8  -4  416.94   28.17   3
  -1   8   4  191.63   24.43  10
   1  -8  -4  222.44   23.42  10
   1  -8  -4  168.76    9.13   1
   1  -8  -4  190.54   16.74   3
  -1   8   4  167.75   11.49   5
   0  -8  -4  596.95   23.69   1
   0  -8  -4  522.35   30.19   8
   0  -8  -4  566.86   35.12   3
   0   8   4  579.70   30.75   6
   0  -8  -4  617.64   43.59  10
   0   8   4  551.34   43.43  10
   1   8   4  360.50   33.73  10
  -1  -8  -4  349.86   22.32   8
  -1  -8  -4  297.73   15.05   1
   1   8   4  331.25   20.71   6
  -1  -8  -4  338.97   24.10   3
   2   8   4  139.63   12.20   6
  -2  -8  -4  122.22    8.35   1
  -2  -8  -4  157.75   14.70   3
  -3  -8  -4  259.55   14.22   1
   3   8   4  275.53   19.28   6
  -4  -8  -4    7.84    3.02   1
   6  -9  -4   71.18   13.75   3
  -6   9   4   58.74    8.26   5
   6  -9  -4   67.14    6.31   1
  -5   9   4  277.33   18.96   5
   5  -9  -4  271.99   14.30   1
  -5   9   4  256.74   43.74  11
   5  -9  -4  319.21   26.55   3
   4  -9  -4   33.73    3.89   1
   4  -9  -4   26.22    7.45   3
  -4   9   4   31.88    5.24   5
   3  -9  -4  598.68   24.59   1
   3  -9  -4  590.93   38.74   3
  -3   9   4  581.71   31.48   5
  -2   9   4    2.48    2.30   5
   2  -9  -4    1.27    1.50   1
  -2   9   4    4.47    7.10  10
   2  -9  -4    4.36    5.01   3
  -1   9   4  633.04   46.91  10
   1  -9  -4  637.60   25.67   1
  -1   9   4  634.25   33.92   6
   1  -9  -4  645.54   39.88   3
   0  -9  -4   91.56   11.49   3
   0  -9  -4   94.12    6.03   1
   0   9   4   84.91    9.63   6
   1   9   4  374.60   23.26   6
  -1  -9  -4  372.04   27.16   3
   2   9   4  113.91   11.65   6
  -2  -9  -4  106.32   13.11   3
  -2  -9  -4  110.10   11.92   8
   5 -10  -4  133.76    8.68   1
   5 -10  -4  137.00   17.61   3
  -5  10   4  115.19   11.26   5
   4 -10  -4  322.80   15.31   1
   4 -10  -4  364.40   28.74   3
  -4  10   4  282.53   19.87   5
  -3  10   4   59.14    7.00   5
   3 -10  -4   54.18    4.55   1
   3 -10  -4   49.80   10.33   3
   2 -10  -4  418.67   30.87   3
  -1  10   4   -3.65    4.73   6
   1 -10  -4    4.57    5.40   3
   0  10   4  529.81   30.14   6
   0 -10  -4  507.96   35.22   3
  -1 -10  -4    3.08    4.17   3
   1  10   4    9.65    4.71   6
   0  12  -5    3.62    4.30   5
   0  12  -5   13.62    4.79   2
  -1  12  -5    4.57    3.31   2
  -1  12  -5   -1.93    4.08   5
  -2  12  -5    4.03    4.37   2
   2  11  -5    4.13    2.72   5
  -2 -11   5    5.64    4.27   9
   2  11  -5    6.20    2.24   4
   1  11  -5   14.89    5.48   5
   1  11  -5   12.39    2.93   4
   1  11  -5   16.50    4.75   2
  -1 -11   5   14.77    5.22   9
   0  11  -5    2.92    3.65   5
   0  11  -5   12.00    4.32   2
   0 -11   5    2.18    3.83   9
   1 -11   5   21.68    5.04   7
  -1  11  -5   16.54    5.13   5
  -2  11  -5   16.37    5.39   2
  -3  11  -5   17.52    5.08   5
   3 -11   5   17.52   11.94   7
   4 -11   5   -1.77    4.04   7
  -4  11  -5   -1.21    4.43   5
  -4  11  -5   -6.95    5.07   2
   4  10  -5    0.35    3.22   4
  -4 -10   5    1.26    2.61   9
   2  10  -5    5.86    2.01   4
   2  10  -5   -0.48    3.02   2
  -2 -10   5    5.11    3.13   9
  -1 -10   5   13.28    4.50   9
   1  10  -5   12.19    4.15   2
   0  10  -5    0.23    1.35   4
   0 -10   5    1.66    3.58   9
   0  10  -5    2.40    2.87   2
   0  10  -5   -2.58    3.23   5
  -1  10  -5   15.24    4.55   2
   1 -10   5   19.49    5.33   9
   1 -10   5   13.41    3.65   7
  -1  10  -5   17.62    5.58   5
  -2  10  -5   85.52   24.60   2
   2 -10   5   53.51   13.55   7
  -3  10  -5   41.41    6.98   5
  -3  10  -5   41.23    7.24   2
   3 -10   5   35.26    6.09   7
   3 -10   5   30.96    3.45   1
   4 -10   5   17.59    3.23   1
  -4  10  -5   16.94    5.24   2
   4 -10   5   21.77    5.32   7
  -4  10  -5   19.31    5.21   5
   5 -10   5   40.70    5.03   1
  -5  10  -5   52.36    8.64   5
  -5  10  -5   43.95    7.48   2
   5 -10   5   51.68    7.79   7
   5   9  -5   -8.80    5.83   4
  -5  -9   5    1.14    3.30   8
   4   9  -5   17.54    4.96   2
  -4  -9   5   14.81    5.20   8
   4   9  -5    9.86    3.53   6
   4   9  -5   15.49    4.40   4
  -3  -9   5    2.03    3.45   9
   3   9  -5    4.11    3.62   2
   2   9  -5   41.80    4.22   6
   2   9  -5   48.59    5.31   4
   2   9  -5   48.06    6.52   2
  -2  -9   5   41.14    6.81   9
  -1  -9   5   -1.14    3.03   9
   1   9  -5    0.93    1.39   4
   1   9  -5   -2.84    3.21   2
   1   9  -5    0.85    7.04  11
   0  -9   5  211.57   15.77   9
   0   9  -5  208.59   16.27   5
   0   9  -5  205.11   11.73   4
   0   9  -5  209.58   14.35   2
   0   9  -5  261.83   47.20  11
   0   9  -5  205.93   11.08   6
   0  -9   5  217.30   14.00   7
   1  -9   5    3.18    3.70   9
   1  -9   5    3.40    0.69   1
   1  -9   5   -0.90   11.51   7
  -1   9  -5    3.92    3.12   5
   2  -9   5  270.69   17.81   9
   2  -9   5  275.25   16.51   7
   2  -9   5  214.35   11.17   1
  -2   9  -5  255.24   18.36   5
  -2   9  -5  237.06   17.00   2
  -3   9  -5   -4.22    4.00   2
   3  -9   5   -0.21   25.79   7
   3  -9   5    2.32    2.00   1
  -3   9  -5    1.05    2.76   5
  -4   9  -5  236.14   18.57   5
  -4   9  -5  275.30   18.94   2
   4  -9   5  243.65   13.19   1
   4  -9   5  239.23   16.83   7
  -5   9  -5    2.84    4.37   5
   5  -9   5    5.45    3.30   7
  -5   9  -5    0.82    4.29   2
   5  -9   5    4.21    2.77   1
   6  -9   5  150.42   11.12   1
  -6   9  -5  173.52   16.00   5
  -6   9  -5  169.92   15.19   2
   6  -9   5  176.63   14.67   7
   6   8  -5    7.81    3.49   6
   5   8  -5    1.73    2.63   4
  -5  -8   5   -0.09    3.55   8
   4   8  -5   63.02    6.86   4
   4   8  -5   65.23    6.40   6
  -4  -8   5   56.96    3.86   1
   3   8  -5   14.89    4.28   2
   3   8  -5   15.81    4.51   4
   3   8  -5    7.58    1.91   6
  -3  -8   5    9.83    4.25   8
  -3  -8   5    4.95    1.79   1
   2   8  -5  215.74   12.68   4
   2   8  -5  221.04   14.31   2
   2   8  -5  228.92   40.18  11
   2   8  -5  194.78   11.19   6
   1   8  -5   69.68    5.81   4
   1   8  -5   60.12   21.06  11
  -1  -8   5   75.16    8.46   9
   1   8  -5   76.89    5.39   6
   1   8  -5   67.23    7.09   2
  -1  -8   5   75.66    6.84   7
   0   8  -5  616.13   27.60   4
   0   8  -5  609.92   30.66   2
   0  -8   5  567.26   22.79   1
   0   8  -5  598.74   26.50   6
   0  -8   5  633.76   30.32   7
   0   8  -5  596.35   31.43  10
   0  -8   5  684.83   33.71   9
   1  -8   5  254.81   11.09   1
   1  -8   5  248.39   16.98   9
  -1   8  -5  254.68   22.82  10
  -1   8  -5  267.41   16.55   2
  -1   8  -5  266.14   18.22   5
  -1   8  -5  246.57   12.55   4
  -1   8  -5  246.20   12.21   6
   1  -8   5  249.51   15.40   7
   2  -8   5  377.21   20.46   7
  -2   8  -5  325.26   21.59   4
   2  -8   5  381.53   21.83   9
  -2   8  -5  336.66   22.30   5
   2  -8   5  325.99   15.47   1
  -2   8  -5  360.61   21.40   2
   3  -8   5  465.93   28.39   7
  -3   8  -5  445.07   27.25   5
  -3   8  -5  464.48   26.33   2
   3  -8   5  444.26   20.17   1
   4  -8   5  119.62   10.66   7
   4  -8   5  108.70    7.90   1
  -4   8  -5  128.19   12.10   5
  -4   8  -5  119.34   11.34   2
  -5   8  -5  439.77   26.81   2
   5  -8   5  457.70   26.38   7
  -5   8  -5  440.47   28.14   5
   5  -8   5  455.07   21.59   1
   6  -8   5    4.19    3.50   1
  -6   8  -5    7.65    4.99   2
   6  -8   5    2.50    4.16   7
  -6   8  -5    6.33    5.06   5
  -6  -7   5    7.97    2.44   1
   6   7  -5   14.29    4.71   4
   5   7  -5  140.89   11.45   4
  -5  -7   5  140.64    9.75   1
   5   7  -5  134.43   10.12   6
  -5  -7   5  155.76   13.30   8
  -4  -7   5    3.56    1.39   1
  -4  -7   5    8.44    3.41   8
  -4  -7   5   -0.39    3.76  10
  -3  -7   5  361.59   26.70  10
   3   7  -5  392.87   19.67   6
   3   7  -5  441.66   21.74   4
   3   7  -5  421.44   22.61   2
  -3  -7   5  392.82   16.49   1
  -3  -7   5  456.42   25.04   8
  -2  -7   5    1.38    2.53  10
   2   7  -5    9.37    2.19   4
   2   7  -5    7.60    3.40   2
  -2  -7   5    4.68    2.08   7
   2   7  -5    4.54    1.30   6
   1   7  -5  760.93   33.65   6
   1   7  -5  812.18   35.37   4
  -1  -7   5  814.25   36.91   7
   1   7  -5  822.93   37.97   2
  -1  -7   5  797.83   29.78   1
   1   7  -5  826.26   30.29   1
   1   7  -5  753.73   74.37  11
   0   7  -5  157.34   10.77   2
   0   7  -5  151.73    7.51   6
   0   7  -5  151.47    8.65   4
   0  -7   5  153.07    6.99   1
   0  -7   5  144.95    9.95   7
   0  -7   5  158.00   11.88   9
   0   7  -5  158.38    7.15   1
   0   7  -5  132.48   14.38  10
   0  -7   5  133.31   14.99  10
   1  -7   5  926.29   35.20   1
  -1   7  -5  887.29   37.74   6
  -1   7  -5  948.46   38.45   4
   1  -7   5  933.03   42.59   7
   1  -7   5  912.80   51.28  10
  -1   7  -5  910.04   35.32   1
  -1   7  -5  915.60   46.65   5
  -1   7  -5  925.93   43.21   2
   1  -7   5  909.05   44.89   9
  -1   7  -5  874.55   53.20  10
  -2   7  -5  357.56   20.54   2
  -2   7  -5  373.61   34.10  10
  -2   7  -5  320.55   15.39   1
   2  -7   5  329.88   15.29   1
   2  -7   5  292.09   27.95  10
   2  -7   5  356.83   20.19   9
  -2   7  -5  344.12   21.17   5
   2  -7   5  317.33   18.77   7
  -3   7  -5  611.57   33.51   5
  -3   7  -5  603.95   25.59   1
   3  -7   5  633.84   32.10   9
  -3   7  -5  569.59   47.36  10
   3  -7   5  590.29   25.54   1
   3  -7   5  608.82   31.21   7
  -3   7  -5  603.93   31.97   2
   3  -7   5  580.87   45.31  10
  -4   7  -5  418.72   25.72   5
  -4   7  -5  419.14   24.90   2
   4  -7   5  431.13   24.40   7
  -4   7  -5  409.89   19.41   1
   4  -7   5  425.32   19.80   1
  -4   7  -5  460.31   42.57  10
  -5   7  -5  179.30   14.86   5
  -5   7  -5  164.81   10.54   1
   5  -7   5  195.28   14.37   7
  -5   7  -5  167.71   14.28   2
   5  -7   5  161.55   10.83   1
  -6   7  -5  275.33   15.35   1
   6  -7   5  285.62   19.51   7
  -6   7  -5  253.49   19.68   5
  -6   7  -5  283.48   19.89   2
   6  -7   5  297.55   16.20   1
   7  -7   5   14.94    3.94   1
  -7   7  -5   17.36    5.64   5
  -7  -6   5   84.43    6.64   1
   7   6  -5   75.67    9.03   4
  -7  -6   5   71.67   10.17   8
  -6  -6   5   92.06   10.11   8
  -6  -6   5   86.03    6.45   1
   6   6  -5   92.57    9.30   4
  -5  -6   5  163.43   45.60   1
   5   6  -5  156.86   11.01   6
  -5  -6   5  183.12   14.05   8
   5   6  -5  172.51   15.34   4
  -4  -6   5  480.56   19.45   1
  -4  -6   5  490.38   27.17   8
   4   6  -5  435.53   22.39   6
   4   6  -5  480.49   24.18   4
  -4  -6   5  456.23   34.24  10
  -3  -6   5  237.52   22.99  10
  -3  -6   5  233.71   15.43   8
   3   6  -5  207.73   11.71   6
   3   6  -5  227.13   10.20   1
  -3  -6   5  235.11   21.24  10
  -3  -6   5  240.17   10.26   1
   3   6  -5  217.91   13.27   4
  -2  -6   5 1301.84   48.24   1
   2   6  -5 1249.68   54.31   6
   2   6  -5 1299.81   57.99   2
   2   6  -5 1307.44   48.35   1
  -2  -6   5 1374.58   57.26   7
  -2  -6   5 1340.90   67.39  10
   2   6  -5 1338.01   56.07   4
   2   6  -5 1350.74   97.69  11
  -2  -6   5 1291.69   51.96   1
   1   6  -5  105.44    8.19   2
  -1  -6   5  109.89    7.48   7
   1   6  -5  103.49    6.85   4
   1   6  -5   94.48    5.39   6
  -1  -6   5  105.59    5.24   1
  -1  -6   5  116.12   15.25  10
   1   6  -5  106.16    5.32   1
   1   6  -5  121.54   13.27  10
  -1  -6   5   85.43    5.48   1
   0  -6   5 3539.51  143.57   4
   0  -6   5 3333.31  120.39   1
   0  -6   5 3270.33  140.57   7
   0   6  -5 3342.17  134.54   4
   0   6  -5 3283.69  136.51  10
   0   6  -5 3368.82  120.49   1
   0  -6   5 3353.81  138.13  10
   0   6  -5 3312.18  140.08   2
   1  -6   5    2.54    1.65   1
  -1   6  -5    6.93    5.67  10
   1  -6   5    8.28    3.36   9
  -1   6  -5   -2.30    2.78   2
  -1   6  -5    2.97    1.00   4
   1  -6   5   -2.40    3.70  10
  -1   6  -5    7.35    2.02   1
   1  -6   5    2.00    2.55   7
  -2   6  -5 1448.30   81.88  10
   2  -6   5 1562.54   67.59   7
   2  -6   5 1408.17   56.55   1
   2  -6   5 1553.33   57.46   1
   2  -6   5 1610.72   69.91   9
  -2   6  -5 1520.92   71.78   5
  -2   6  -5 1533.55   68.13   2
  -2   6  -5 1488.79   57.32   1
   2  -6   5 1485.23   79.03  10
  -3   6  -5  166.17   12.84   5
  -3   6  -5  162.28    9.34   1
  -3   6  -5  145.77   12.21   2
   3  -6   5  164.62   11.97   7
   3  -6   5  170.31   11.63   9
  -3   6  -5  176.55   24.45  10
  -3   6  -5  135.42    7.99   6
   3  -6   5  183.30   23.79  10
   3  -6   5  157.34    9.24   1
  -4   6  -5  669.32   52.81  10
   4  -6   5  655.72   34.06   7
  -4   6  -5  670.02   35.82   5
   4  -6   5  617.51   51.50  10
  -4   6  -5  663.73   34.55   2
   4  -6   5  670.31   28.40   1
  -4   6  -5  658.46   27.95   1
   5  -6   5  264.25   18.00   7
  -5   6  -5  267.65   18.65   5
  -5   6  -5  275.71   18.62   2
  -5   6  -5  259.38   33.63  10
  -5   6  -5  264.22   14.27   1
   5  -6   5  254.79   33.81  10
   5  -6   5  265.47   14.66   1
   6  -6   5  145.86   12.73   7
  -6   6  -5  115.77    8.92   1
   6  -6   5  129.45    9.58   1
  -6   6  -5  131.70   12.43   5
  -6   6  -5  130.32   12.32   2
  -7   6  -5  172.29   11.55   1
   7  -6   5  147.56   13.66   7
  -7   6  -5  142.81   14.14   2
  -7   6  -5  150.41   19.15   5
   7  -6   5  158.70   11.70   1
  -7  -5   5    3.43    9.38   8
   7   5  -5   -0.39    4.52   4
   6   5  -5  522.33   27.90   4
  -6  -5   5  518.83   22.87   1
  -6  -5   5  544.81   30.53   8
  -5  -5   5  104.61    6.79   1
   5   5  -5  101.78    8.79   4
  -5  -5   5  113.78   10.11   8
   5   5  -5  109.67    6.84   1
   4   5  -5  920.08   37.26   1
   4   5  -5  997.02   43.95   4
  -4  -5   5  950.40   37.30   1
  -4  -5   5 1054.10   49.13   8
  -4  -5   5  997.58   56.46  10
  -4  -5   5  925.23   55.69  10
  -3  -5   5  450.80   20.68   1
   3   5  -5  539.87   25.16   4
  -3  -5   5  476.67   24.38   6
  -3  -5   5  549.71   37.34  10
  -3  -5   5  557.90   28.21   8
  -3  -5   5  544.74   20.96   1
   3   5  -5  544.14   20.98   1
   3   5  -5  539.82   23.63   6
  -3  -5   5  496.78   33.98  10
  -2  -5   5  983.32   48.11   6
  -2  -5   5  994.04   41.53   1
   2   5  -5 1054.28   45.52   6
  -2  -5   5 1115.93   46.32   7
   2   5  -5 1136.70   46.04   4
   2   5  -5 1087.29   47.53   2
   2   5  -5 1033.19   77.65  11
   2   5  -5 1082.94   39.84   1
  -2  -5   5 1091.63   58.14  10
   1   5  -5 1293.92   47.18   1
   1   5  -5 1261.86   53.25   4
  -1  -5   5 1291.05   66.96  10
   1   5  -5 1372.77   63.21  10
   1   5  -5 1215.81   53.01   6
   1   5  -5 1304.45   55.97   2
  -1  -5   5 1233.49   47.65   1
  -1  -5   5 1275.48   47.04   1
  -1  -5   5 1254.52   55.17   7
   0  -5   5  843.65   32.50   1
   0  -5   5  853.49   35.97   4
   0  -5   5  799.18   37.95   7
   0   5  -5  857.11   35.70   4
   0  -5   5  887.98   50.96  10
   0   5  -5  878.61   50.75  10
   0   5  -5  833.96   38.52   2
   0  -5   5  815.94   32.27   1
   0   5  -5  843.79   32.51   1
  -1   5  -5 1594.32   57.36   1
  -1   5  -5 1626.14   82.44  10
   1  -5   5 1493.92   77.14  10
   1  -5   5 1511.04   61.74   4
   1  -5   5 1553.11   56.99   1
   1  -5   5 1429.74   56.38   1
  -1   5  -5 1460.32   66.55   2
   1  -5   5 1509.33   66.50   7
   2  -5   5   47.05    4.19   1
   2  -5   5   52.54   12.19  10
  -2   5  -5   57.99    6.61   2
  -2   5  -5   51.79    5.53   6
  -2   5  -5   67.46    5.21   1
  -2   5  -5   58.99    5.34   3
  -2   5  -5   68.70    7.02   5
  -2   5  -5   80.36   15.71  10
  -3   5  -5  840.85   58.00  10
   3  -5   5  849.49   39.31   9
   3  -5   5  789.09   32.91   1
  -3   5  -5  857.33   41.56   5
  -3   5  -5  814.43   39.95   2
  -3   5  -5  752.17   34.10   6
   3  -5   5  810.87   55.89  10
  -3   5  -5  810.78   32.95   1
  -4   5  -5    8.03    2.26   1
  -4   5  -5    8.24    3.54   5
  -4   5  -5    6.64    3.28   2
  -4   5  -5    8.42    6.79  10
   4  -5   5   34.77   12.03  10
   4  -5   5    7.00    2.34   1
   5  -5   5  170.06   27.20  10
  -5   5  -5  183.76   13.77   5
   5  -5   5  169.70   10.87   1
  -5   5  -5  169.10   10.60   1
  -5   5  -5  159.97   13.51   2
  -5   5  -5  163.89   26.83  10
  -6   5  -5   38.22    5.18   1
   6  -5   5   50.16    6.06   1
  -6   5  -5   43.31    6.64   5
  -7   5  -5    0.52    2.51   5
   8   4  -5   49.91    7.70   4
  -8  -4   5   30.81    5.14   1
   7   4  -5  406.88   22.93   4
  -7  -4   5  366.01   18.27   1
  -6  -4   5   11.30    2.81   1
  -5  -4   5 1002.08   38.59   1
  -5  -4   5  984.46   61.79  10
   5   4  -5  991.36   44.76   4
  -5  -4   5 1002.25   61.20  10
   5   4  -5  947.16   39.77   1
  -5  -4   5  989.36   49.15   8
  -4  -4   5   36.60    3.44   1
  -4  -4   5   44.88    3.74   1
   4   4  -5   52.38    5.70   4
  -4  -4   5   45.62    5.55   8
   4   4  -5   44.61    3.71   1
  -4  -4   5   62.90   12.51  10
  -4  -4   5   38.45    9.61  10
  -3  -4   5 1297.42   71.41   6
   3   4  -5 1309.19   56.85   4
  -3  -4   5 1366.60   61.43   8
  -3  -4   5 1292.84   48.11   1
  -3  -4   5 1238.01   48.18   1
  -3  -4   5 1285.22   54.49   7
   3   4  -5 1265.84   48.15   1
  -3  -4   5 1293.02   66.81  10
  -2  -4   5  411.50   26.57   1
  -2  -4   5  452.66   38.38  10
   2   4  -5  412.86   28.33   1
  -2  -4   5  431.27   39.65   7
   2   4  -5  469.01   52.92  11
  -2  -4   5  410.09   51.49   1
  -2  -4   5  367.03   54.34   6
   2   4  -5  356.66   28.32  10
  -1  -4   5  765.72   35.61   7
   1   4  -5  822.50   46.20  10
  -1  -4   5  779.97   34.76   4
  -1  -4   5  808.46   30.63   1
   1   4  -5  828.85   36.52   2
   1   4  -5  807.37   34.59   4
  -1  -4   5  839.36   49.44  10
   1   4  -5  807.52   30.79   1
  -1  -4   5  802.18   31.24   1
   0  -4   5 1254.33   51.92   4
   0   4  -5 1230.69   47.28   1
   0  -4   5 1273.05   47.34   1
   0  -4   5 1247.90   47.17   1
   0   4  -5 1167.34   60.50   3
   0   4  -5 1308.66   68.44  10
   0   4  -5 1266.71   51.78   4
   0   4  -5 1257.74   54.81   2
   0  -4   5 1315.26   69.01  10
  -1   4  -5  147.48   20.45  10
   1  -4   5  160.93   20.39  10
   1  -4   5  139.38    7.32   4
   1  -4   5  150.95    8.22   1
  -1   4  -5  140.44   10.00   2
  -1   4  -5  151.39    8.42   1
  -1   4  -5  136.82    9.09   3
   1  -4   5  137.54    7.75   1
   2  -4   5  589.06   27.95   9
  -2   4  -5  608.58   29.73   5
  -2   4  -5  524.04   23.40   6
  -2   4  -5  561.34   23.58   1
  -2   4  -5  570.26   28.32   2
   2  -4   5  580.25   43.62  10
   2  -4   5  541.96   23.14   1
  -2   4  -5  465.92   31.63   3
  -2   4  -5  665.53   47.07  10
   2  -4   5  562.61   23.56   1
  -3   4  -5    5.40    2.58   5
   3  -4   5    5.66    1.98   1
   3  -4   5   12.31    7.88  10
  -3   4  -5    4.88    5.36  10
  -3   4  -5    6.53    1.51   6
  -3   4  -5    3.27    1.69   1
   3  -4   5    1.66    1.98   9
  -3   4  -5    8.56    3.84   2
   4  -4   5  202.91   28.27  10
  -4   4  -5  261.50   31.01  10
   4  -4   5  203.81   20.98   1
  -4   4  -5  202.15   11.43   1
  -4   4  -5  198.93   14.34   2
  -4   4  -5  205.38   24.43   5
  -5   4  -5   43.42    6.00   5
   5  -4   5   47.41   15.48  10
   5  -4   5   37.37    5.02   1
  -5   4  -5   37.10   13.83  10
  -5   4  -5   37.28    4.83   1
  -5   4  -5   41.99    6.78   2
  -6   4  -5   19.62   10.53   2
  -6   4  -5   19.85    4.71   5
  -6   4  -5   20.78    4.14   1
   6  -4   5   16.92    4.27   1
  -7   4  -5   19.97    5.00   5
  -7   4  -5   28.40    6.55   2
   7  -4   5   19.55    4.75   1
  -7   4  -5   19.84    4.38   1
   8   3  -5  126.03    9.50   1
   8   3  -5  128.05   11.38   4
  -8  -3   5  123.85    9.29   1
   7   3  -5  194.66   11.46   1
  -7  -3   5  200.25   11.44   1
   7   3  -5  187.99   13.86   4
  -6  -3   5  471.61   42.16  10
   6   3  -5  510.36   22.00   1
   6   3  -5  487.67   25.89   4
  -6  -3   5  503.93   21.92   1
  -5  -3   5  140.73    8.08   1
  -5  -3   5  163.13   21.65  10
   5   3  -5  132.83    7.98   1
   5   3  -5  135.78   10.16   4
  -5  -3   5  142.28   20.78  10
  -4  -3   5 1009.24   57.79  10
  -4  -3   5  921.87   57.62  10
   4   3  -5 1035.43   44.94   4
  -4  -3   5 1020.39   48.87   8
   4   3  -5 1012.71   38.98   1
  -4  -3   5 1058.51   39.09   1
  -3  -3   5    9.30    2.56   8
   3   3  -5    3.98   88.68   4
  -3  -3   5   15.59    6.89   6
   3   3  -5   10.10    1.96   1
  -3  -3   5    8.48    1.26   7
  -3  -3   5   12.08   48.93   1
  -3  -3   5   10.12    5.19  10
  -3  -3   5   10.17    1.68   1
   2   3  -5 1181.05   60.04  10
  -2  -3   5 1140.74   43.67   1
  -2  -3   5 1164.73   49.53   6
   2   3  -5 1173.10   43.65   1
   2   3  -5 1227.63   72.65  11
   2   3  -5 1208.08   49.44   4
  -2  -3   5 1207.52   61.97  10
  -2  -3   5 1083.57   49.53   7
   2   3  -5 1152.74   50.49   2
   1   3  -5   37.84    9.22  10
   1   3  -5   41.46    4.24   2
  -1  -3   5   33.82    3.09   1
  -1  -3   5   31.60    2.97   1
   1   3  -5   37.62    3.24   1
  -1  -3   5   37.57    9.33  10
  -1  -3   5   30.33    3.37   4
   0  -3   5  927.25   55.84  10
   0   3  -5  932.43   55.76  10
   0   3  -5  908.90   34.79   1
   0  -3   5  875.35   37.79   4
   0   3  -5  875.41   39.93   2
   0  -3   5  890.22   34.61   1
   0  -3   5  857.32   34.47   1
   1  -3   5   49.50    3.75   4
  -1   3  -5   57.64   12.83  10
   1  -3   5   45.45   11.66  10
   1  -3   5   52.68    4.19   1
  -1   3  -5   51.81    5.64   2
   1  -3   5   46.21    4.12   1
  -1   3  -5   51.50    4.41   1
  -1   3  -5   40.54    3.79   3
   2  -3   5   19.55    2.20   4
  -2   3  -5   21.41    4.37   2
   2  -3   5   24.43    8.96  10
  -2   3  -5   22.05    2.19   6
  -2   3  -5   28.31    4.26   5
  -2   3  -5   28.61   10.25  10
  -2   3  -5   21.21    3.16   1
   2  -3   5   25.76    3.39   1
  -3   3  -5    5.00    1.91   1
  -3   3  -5    3.49    1.45   6
  -3   3  -5   -1.14    2.22   2
  -3   3  -5    0.63    2.33   5
   3  -3   5    3.61    1.84   1
   3  -3   5    1.58    1.52   9
   3  -3   5   10.35    6.86  10
  -3   3  -5    0.87    4.26  10
  -4   3  -5   37.26   13.03  10
   4  -3   5   18.80   10.30  10
   4  -3   5   46.31   21.17   1
  -4   3  -5   55.74    5.25   1
  -4   3  -5   40.39   33.50   2
  -4   3  -5   41.16    7.12   5
   5  -3   5   27.05   12.37  10
  -5   3  -5   13.30   15.06   1
  -5   3  -5   11.36    9.49  10
   5  -3   5    9.33   25.17   1
  -5   3  -5    5.70    3.13   5
   6  -3   5   79.95    7.39   1
  -6   3  -5   78.43    9.29   2
  -6   3  -5   70.91    6.91   1
   7  -3   5   26.11    5.11   1
  -7   3  -5   15.74    4.59   2
  -7   3  -5   29.42    5.03   1
   8   2  -5  235.84   13.82   1
   8   2  -5  245.62   17.09   4
  -8  -2   5  236.23   13.76   1
  -7  -2   5   45.73   21.09  10
  -7  -2   5   66.44   21.90   1
   7   2  -5   51.15   13.28   4
   7   2  -5   72.70   24.90   1
   6   2  -5  293.96   14.62   1
  -6  -2   5  328.71   34.06  10
  -6  -2   5  306.73   14.74   1
   6   2  -5  297.61   17.63   4
   5   2  -5  126.15    9.45   4
  -5  -2   5  128.35    7.59   1
  -5  -2   5  131.18   19.66  10
  -5  -2   5  140.29   20.11  10
   5   2  -5  121.93    7.61   1
  -4  -2   5  180.37    9.10   1
  -4  -2   5  191.29   11.41   8
   4   2  -5  183.68    9.28   1
  -4  -2   5  177.63   21.17  10
   4   2  -5  167.73   10.95   4
  -3  -2   5   59.97    4.26   1
  -3  -2   5   64.51    4.29   1
   3   2  -5   56.99    4.28   1
   3   2  -5   60.42    5.28   4
  -3  -2   5   68.01   11.99  10
  -3  -2   5   60.94    5.06   6
  -3  -2   5   59.78    5.04   8
   2   2  -5  396.81   81.94  10
  -2  -2   5  181.16  172.80  10
   2   2  -5  651.30   75.67   1
  -1  -2   5   14.69    6.90  10
  -1  -2   5   15.84    2.24   1
  -1  -2   5   15.99    2.41   4
  -1  -2   5   19.24    2.50   1
   1   2  -5   13.68    6.70  10
   1   2  -5   13.44    2.50   8
   1   2  -5   15.97    2.40   1
   0  -2   5   59.32    4.59   1
   0   2  -5   65.59    5.69   2
   0  -2   5   53.33   11.95  10
   0  -2   5   65.95    4.76   1
   0   2  -5   64.51    4.82   1
   0  -2   5   67.36    5.04   4
   0   2  -5   75.06   14.07  10
   0  -2   5   65.31    5.44   2
   0  -2   5   60.16    3.32   6
   1  -2   5  129.84    7.67   1
   1  -2   5  143.81    7.02   6
  -1   2  -5  133.16   19.73  10
  -1   2  -5  131.37    7.89   1
   1  -2   5  137.54   19.97  10
  -1   2  -5  131.59    9.29   2
   1  -2   5  127.51    7.63   1
  -2   2  -5   52.71   13.45  10
  -2   2  -5   47.53    5.00   5
  -2   2  -5   46.32    5.69   2
   2  -2   5   46.83    4.43   1
  -2   2  -5   44.25    4.46   1
  -2   2  -5   46.24    3.62   6
   2  -2   5   50.48    4.18   6
   2  -2   5   39.37   11.72  10
  -3   2  -5  177.21   12.51   2
  -3   2  -5  188.75   25.81  10
   3  -2   5  182.60   10.27   1
   3  -2   5  190.80   10.91   6
   3  -2   5  197.62   26.84  10
  -3   2  -5  163.01    9.75   6
  -3   2  -5  182.86   10.25   1
  -3   2  -5  182.38   11.37   5
   3  -2   5  164.18    9.78   9
   4  -2   5    4.28    7.05  10
  -4   2  -5    0.75    4.38   5
  -4   2  -5    7.48    2.31   1
   4  -2   5    0.22    6.85   1
  -4   2  -5    5.19   11.28   2
  -4   2  -5    3.89    5.85  10
   4  -2   5    9.74   27.20   6
  -5   2  -5   92.75   26.05   2
   5  -2   5   95.81   41.65   1
  -5   2  -5   84.74    7.60   5
   5  -2   5   67.21   18.53  10
  -5   2  -5  102.56   24.62   1
   5  -2   5   82.62   19.00   4
   6  -2   5   -5.07    3.21   1
  -6   2  -5    5.00    2.51   5
  -6   2  -5    3.01    3.33   2
  -6   2  -5   -2.14    2.85   1
  -7   2  -5   28.75    4.81   1
  -7   2  -5   36.75    7.06   2
   7  -2   5   31.71    5.09   1
   9   1  -5   68.96    9.21   4
   9   1  -5   77.38    7.90   1
  -9  -1   5   89.98    8.14   1
   8   1  -5   34.30    4.97   1
  -7  -1   5  112.35    8.11   1
   7   1  -5  118.08    8.18   1
   7   1  -5  102.25    9.71   4
  -7  -1   5  100.44   20.74  10
  -6  -1   5    1.19    2.26   1
  -6  -1   5    7.87    6.89  10
   6   1  -5   -3.78    2.57   4
   6   1  -5    1.27    2.09   1
  -5  -1   5   57.01    7.87   1
   5   1  -5   56.76    6.27   4
  -5  -1   5   68.48   14.20  10
   5   1  -5   48.56    8.60   1
  -5  -1   5   51.46   12.27  10
  -4  -1   5   18.33    7.69  10
   4   1  -5   11.84    7.78   4
  -3  -1   5    0.70    1.21   8
  -3  -1   5   -0.79   45.55   1
   3   1  -5   -1.55    4.69   1
  -3  -1   5    5.38    4.12  10
   3   1  -5   -0.04    3.62  10
   2   1  -5   56.78   12.35  10
   2   1  -5   79.35   12.36   2
   2   1  -5   65.18    8.22   1
  -1  -1   5   19.34    2.58   2
  -1  -1   5   13.65    2.34   1
   1   1  -5   27.87    8.91  10
   1   1  -5   12.88    2.37   1
  -1  -1   5   16.22    2.08   1
  -1  -1   5   16.05    6.72  10
   1   1  -5   16.65    2.57   2
  -1  -1   5   14.64    2.76   4
   1   1  -5   10.69    1.90   8
   0  -1   5  198.84   10.60   1
   0  -1   5  180.12   22.44  10
   0   1  -5  228.78   12.57   2
   0   1  -5  242.09   11.45   1
   0  -1   5  229.21   10.60   6
   0   1  -5  256.32   27.12  10
   0  -1   5  224.25   12.06   2
   0  -1   5  216.17   10.95   1
  -1   1  -5   12.53    6.98  10
  -1   1  -5    7.08    2.20   1
   1  -1   5    8.96    1.71   6
  -1   1  -5   11.52    3.10   2
   1  -1   5   15.72    8.28  10
   1  -1   5    6.07    2.10   1
   2  -1   5  291.29   14.16   6
  -2   1  -5  264.58   13.55   1
  -2   1  -5  289.21   16.31   2
   2  -1   5  296.64   31.45  10
  -2   1  -5  277.36   13.84   6
  -2   1  -5  267.88   14.96   5
  -2   1  -5  248.02   29.07  10
   2  -1   5  274.33   13.55   1
   3  -1   5    0.95    1.52   1
   3  -1   5   -0.03    9.06   6
   3  -1   5    0.63    0.91   9
  -3   1  -5   -0.11    2.26   2
  -3   1  -5    1.15    5.40  10
   3  -1   5   -0.13    3.91  10
   4  -1   5  200.67   41.53  10
  -4   1  -5  194.56   10.98   1
  -4   1  -5  172.36   26.23  10
   4  -1   5  196.78   23.18   1
  -4   1  -5  175.32   11.00   5
   4  -1   5  182.03   69.05   6
   4  -1   5  169.73    9.77   4
  -4   1  -5  164.14   18.19   2
   5  -1   5    0.54    2.66   6
  -5   1  -5   -1.91    2.63   1
   5  -1   5   -1.87    1.61   4
  -5   1  -5    2.33    2.04   5
   5  -1   5    2.22    2.77   1
  -5   1  -5    4.24    3.41   2
   6  -1   5   65.62    6.51   1
   6  -1   5   68.25    8.15   6
  -6   1  -5   64.65    8.03   2
  -6   1  -5   54.80    6.01   1
   6  -1   5   60.06    6.30   1
  -7   1  -5    1.73    3.10   1
   7  -1   5    2.22    3.10   1
  -9   0   5   32.04    5.18   1
   9   0  -5   28.32    5.23   1
   8   0  -5   17.44    3.83   1
  -7   0   5   36.47   10.17   1
  -7   0   5   27.67    6.03   5
   7   0  -5   29.60   10.87   1
   6   0  -5    2.38    2.20   1
  -6   0   5   -0.27    1.96   1
  -6   0   5   15.49    8.71  10
  -6   0   5   -5.46    3.94   5
   5   0  -5   36.80   21.92   1
  -5   0   5   53.51   19.54  10
  -5   0   5   37.21   21.16  10
  -5   0   5   47.34   24.36   5
  -5   0   5   40.28   21.18   1
  -4   0   5   77.49    7.39   5
  -4   0   5   87.88   14.81  10
  -4   0   5   72.10    5.11   1
   4   0  -5   66.53   19.44   1
  -4   0   5   70.34    5.13   8
  -3   0   5   85.87    5.47   8
  -3   0   5   94.05   63.17  10
   3   0  -5  113.72   16.92  10
  -3   0   5  102.52   36.90   1
   3   0  -5  102.73   71.78   1
   2   0  -5  271.88   51.11   2
  -2   0   5  309.62   38.55   1
  -2   0   5  279.89   25.56  10
   2   0  -5  346.58   50.20  10
  -1   0   5  248.80   11.59   1
   1   0  -5  243.95   12.59   2
  -1   0   5  251.99   24.57  10
   1   0  -5  227.69   24.88  10
  -1   0   5  252.38   12.31   2
   1   0  -5  245.87   11.74   1
   0   0   5  637.26   28.58   2
   0   0   5  644.55   45.76  10
   0   0  -5  655.27   29.30   2
   0   0  -5  618.22   25.99   1
   0   0   5  589.63   25.62   1
   0   0  -5  618.27   45.94  10
   0   0   5  666.53   27.58   6
   1   0   5  235.45   11.69   1
   1   0   5  236.24   11.90   6
  -1   0  -5  239.81   13.48   2
   1   0   5  208.69   25.53  10
  -1   0  -5  213.73   12.28   3
  -1   0  -5  241.79   27.78  10
  -1   0  -5  221.88   11.82   1
   1   0   5  235.65   13.14   2
   2   0   5  192.51   37.57   6
  -2   0  -5  281.78   27.12   1
  -2   0  -5  233.02   32.40  10
  -2   0  -5  323.64   99.92   5
   2   0   5  338.49   66.59  10
   3   0   5   87.44    7.12   6
   3   0   5   82.57   18.07  10
  -3   0  -5   89.35    6.08   5
   3   0   5   95.58    6.94   1
  -3   0  -5   91.35    6.98   1
  -3   0  -5  102.46    9.06   2
  -3   0  -5  122.25   21.59  10
   4   0   5   68.19    6.18   1
   4   0   5   60.00    6.29   6
  -4   0  -5   69.74    6.34   1
   4   0   5   85.54   18.95  10
  -4   0  -5   58.56    5.00   5
  -4   0  -5   46.45   14.75  10
  -4   0  -5   70.45    8.62   2
   5   0   5   12.26    5.41   6
  -5   0  -5   11.27    6.90   1
   5   0   5    8.90   19.29   1
  -5   0  -5   11.06   13.16   2
   5   0   5    4.49    9.22   4
   6   0   5   31.35    5.43   6
   6   0   5   36.80    5.26   1
  -6   0  -5   43.81    5.56   1
   7   0   5   -1.12    3.89   6
   7   0   5   -3.05    3.38   1
  -7   0  -5    3.50    3.41   1
   9  -1  -5    3.81    3.12   1
  -9   1   5    4.56    4.81   5
  -9   1   5    4.40    3.08   1
   8  -1  -5   11.35    3.61   1
  -8   1   5   16.01    4.52   5
  -7   1   5   43.35    6.88   5
   7  -1  -5   49.08    5.30   1
  -7   1   5   44.24    5.00   1
  -6   1   5   21.00    4.80   5
  -6   1   5   20.67    9.57  10
  -6   1   5   24.94    3.26   1
   6  -1  -5   22.40    3.20   1
  -5   1   5  150.19   48.60  10
  -5   1   5  153.72   44.49  10
  -5   1   5  168.30   52.26   5
  -4   1   5   46.39    3.46   8
  -4   1   5   51.42   78.28   5
  -4   1   5   45.01    3.96   1
   4  -1  -5   44.67    5.23   1
  -4   1   5   43.82   11.29  10
  -3   1   5  279.02   25.96  10
  -3   1   5  288.09   15.94   5
   3  -1  -5  292.42   13.15   2
  -3   1   5  273.72   12.41   1
   3  -1  -5  238.62   24.72  10
   3  -1  -5  262.18   12.57   1
  -2   1   5  104.68   15.29  10
   2  -1  -5   65.52    7.96   5
   2  -1  -5   76.01   13.90  10
   2  -1  -5   64.48    4.60   2
   2  -1  -5   64.23   10.27  11
  -2   1   5   86.52    5.18   1
   1  -1  -5  135.08   10.00   5
  -1   1   5  173.86   20.68  10
   1  -1  -5  147.88    8.22   1
  -1   1   5  153.10    8.07   1
  -1   1   5  160.09    8.12   2
   1  -1  -5  146.51    8.48   2
   1  -1  -5  173.59   21.47  10
   0  -1  -5   72.84    5.95   5
   0   1   5   66.28    5.23   2
   0   1   5   77.86   14.81  10
   0  -1  -5   83.45   16.18  10
   0  -1  -5   82.52    6.12   2
   0   1   5   77.98    5.54   1
   0  -1  -5   79.48    5.76   1
  -1  -1  -5   12.71    3.13   2
   1   1   5   15.44    2.75   1
  -1  -1  -5    8.31    2.49   1
  -1  -1  -5   12.41    2.29   3
  -1  -1  -5   15.12    2.25   5
   1   1   5    9.30    6.33  10
   1   1   5   17.12    2.74   6
   1   1   5   15.27    2.76   2
  -1  -1  -5   15.45    9.22  10
   2   1   5  100.48   29.47  10
  -2  -1  -5   15.01   33.56   3
  -2  -1  -5   31.66   56.73   5
  -2  -1  -5   68.99   26.23  10
  -2  -1  -5   79.09   27.36   2
   2   1   5  126.26   23.86   6
  -2  -1  -5   79.95   22.13   1
  -3  -1  -5   -3.63    3.30   2
   3   1   5   -1.43    1.92   6
   3   1   5   -0.99    1.76   1
  -3  -1  -5   -3.50    5.79  10
  -3  -1  -5    5.40    2.19   1
   3   1   5    3.65    7.35  10
   4   1   5   38.19   13.30  10
  -4  -1  -5   45.87    5.11   1
   4   1   5   37.57    5.52   6
   4   1   5   40.40    4.75   1
  -4  -1  -5   41.47    6.42   2
   5   1   5    1.33    3.32   6
   5   1   5   -1.36    2.71   1
   5   1   5    3.00    2.42   4
   6   1   5   65.45    6.73   4
  -6  -1  -5   71.31    7.00   1
   6   1   5   72.21    8.47   6
   6   1   5   67.58    6.84   1
   7   1   5    3.64    3.53   1
  -7  -1  -5   -1.70    3.68   1
   7   1   5    3.84    4.37   6
  -9   2   5    6.39    4.52   5
  -9   2   5    8.76    3.46   1
  -8   2   5   31.53    6.04   5
  -8   2   5   30.11    4.68   1
   8  -2  -5   39.37    5.14   1
  -7   2   5   13.24    2.80   1
   7  -2  -5   10.93    2.75   1
  -6   2   5   93.35   17.88  10
  -6   2   5   54.26    4.97   1
  -6   2   5   55.96   14.25  10
  -6   2   5   47.40    6.52   5
   6  -2  -5   61.11    5.33   1
  -5   2   5    8.91    3.58   5
  -5   2   5   12.20    1.43   7
   5  -2  -5   11.68    2.43   2
  -5   2   5   17.08    8.18  10
  -5   2   5    5.87    6.43  10
  -5   2   5   13.04    2.64   1
   5  -2  -5   15.09    2.96   1
  -4   2   5   76.61   17.06  10
  -4   2   5   59.73   41.05   5
  -4   2   5   56.04    3.28   8
   4  -2  -5   76.09   85.33   1
  -4   2   5   44.51    3.42   7
   3  -2  -5    9.59   25.56   1
  -3   2   5   12.66    2.38   1
  -3   2   5    1.44   38.45  10
   3  -2  -5    7.58    1.28   2
   3  -2  -5   13.96    9.80  10
   2  -2  -5   28.03    9.20  10
  -2   2   5   20.25    2.58   1
   2  -2  -5   19.85    7.42  11
  -2   2   5   15.12    2.80   5
   2  -2  -5   19.48    2.85   1
   2  -2  -5   22.47    2.11   2
  -2   2   5   26.35    8.41  10
   1  -2  -5   24.90    9.15  10
  -1   2   5   18.86    7.33  10
   1  -2  -5   11.50    2.48   1
   1  -2  -5   14.72    3.23   5
   1  -2  -5   13.83    2.16   2
  -1   2   5   19.42    2.63   1
  -1   2   5   11.96    1.66   2
   0  -2  -5    4.07    1.84   5
   0  -2  -5    6.46    1.91   2
   0   2   5   13.78    7.87  10
   0  -2  -5    9.06    6.22  10
   0   2   5    4.95    1.60   2
   0   2   5    1.87    1.45   1
   1   2   5   83.84    6.54   6
   1   2   5   84.64    5.85   1
  -1  -2  -5   77.30   37.98   2
  -1  -2  -5   81.64   14.06   3
  -1  -2  -5   58.97    4.47   5
   1   2   5  103.17   18.37  10
  -1  -2  -5   68.98    5.77   1
   1   2   5   59.24    5.46   2
  -1  -2  -5   44.72   13.03  10
   2   2   5   96.71   22.66  10
  -2  -2  -5   59.57   26.08  10
  -2  -2  -5   69.62   19.63   1
  -2  -2  -5   50.02   26.52   3
  -2  -2  -5   93.17   21.37   2
   3   2   5  214.30   11.84   1
   3   2   5  179.67   26.97  10
  -3  -2  -5  200.30   11.76   1
   3   2   5  186.79   12.57   6
  -3  -2  -5  240.64   31.57  10
   4   2   5   31.32    4.55   1
  -4  -2  -5   32.83    4.79   1
   5   2   5  211.83   12.95   1
  -5  -2  -5  240.71   13.71   1
   5   2   5  231.43   15.43   6
   5   2   5  201.27   13.68   4
   6   2   5   17.58    4.35   1
  -6  -2  -5    8.96    3.74   1
   6   2   5    6.71    3.19   4
   7   2   5  106.82   11.10   6
  -7  -2  -5  116.07    9.85   1
   7   2   5  109.05    9.57   1
  -9   3   5    9.96    2.98   1
   9  -3  -5   13.66    3.46   1
  -8   3   5   -2.32    1.98   1
  -8   3   5    2.83    3.00   5
  -7   3   5   26.89    3.95   1
   7  -3  -5   22.86    3.98   1
  -7   3   5   22.28    4.85   5
  -6   3   5   -7.74    7.16  10
  -6   3   5   -4.52    5.69   5
  -6   3   5   -0.90    1.99   1
   6  -3  -5   -3.66    2.49   1
  -5   3   5    4.42    3.74  11
  -5   3   5   -3.82   10.63  10
  -5   3   5   10.60   22.53  10
  -5   3   5    9.38   34.01   5
  -5   3   5    4.04   18.09   7
   5  -3  -5   13.91   38.64   1
  -5   3   5    2.89   48.20   1
  -4   3   5    6.27   18.69   5
   4  -3  -5   12.51    6.92   1
  -4   3   5   10.61    1.81   7
  -4   3   5   -0.59    4.42  10
   4  -3  -5    8.42    1.15   2
  -3   3   5   32.22    9.29  10
   3  -3  -5   34.77   10.26  10
   3  -3  -5   33.50   19.81   1
  -3   3   5   36.04    4.58   5
  -3   3   5   35.16    3.50   1
  -2   3   5   45.02    4.47   5
   2  -3  -5   41.74    4.00   1
   2  -3  -5   34.80   10.53  10
  -2   3   5   21.79    8.32  10
  -1   3   5  358.05   32.13  10
  -1   3   5  294.67   14.84   2
  -1   3   5  352.72   16.91   5
  -1   3   5  347.85   14.90   1
   1  -3  -5  328.86   39.46  11
   1  -3  -5  346.89   15.27   1
   1  -3  -5  355.76   32.42  10
   1  -3  -5  290.26   17.86   5
   0  -3  -5    1.54    2.12   1
   0   3   5    6.23    6.72  10
   0   3   5    1.31    1.23   2
   0  -3  -5   10.48    8.15  10
   0   3   5    2.95    2.04   1
   1   3   5  639.69   29.13   6
   1   3   5  501.45   39.77   2
  -1  -3  -5  629.94   49.97  10
   1   3   5  578.77   47.29  10
   1   3   5  643.14   25.82   1
  -1  -3  -5  603.24   32.19   3
  -1  -3  -5  634.99   26.15   1
  -2  -3  -5  148.62   80.47  10
  -2  -3  -5  187.75   69.40   1
  -2  -3  -5  129.38   76.18   3
   2   3   5  216.86   79.11  10
   3   3   5  474.50   24.80   6
   3   3   5  493.63   22.07   1
  -3  -3  -5  448.48   45.84  10
   3   3   5  460.42   45.48  10
  -3  -3  -5  466.10   22.00   1
   4   3   5  210.84   14.39   6
  -4  -3  -5  209.18   12.48   1
   4   3   5  181.76   11.74   1
   5   3   5  144.20   11.76   4
  -5  -3  -5  192.17   12.17   1
   5   3   5  164.77   11.34   1
   5   3   5  166.82   13.34   6
   6   3   5  182.32   13.82   4
  -6  -3  -5  205.36   13.59   1
   6   3   5  208.94   15.73   6
   6   3   5  199.25   13.12   1
  -9   4   5   -0.97    2.48   1
  -8   4   5   -2.34    3.76   5
  -8   4   5   -0.36    1.77   1
   8  -4  -5   -1.44    2.14   1
   7  -4  -5    3.98    3.61   1
  -7   4   5    8.49    4.80   1
   6  -4  -5    1.55    2.42   1
  -6   4   5   24.49   10.40  10
  -5   4   5   87.28    8.56   5
  -5   4   5   76.91   14.85  11
  -5   4   5   97.60   17.59  10
  -5   4   5   98.50   18.30  10
  -5   4   5   90.38   39.23   1
   5  -4  -5   84.93   43.70   1
   4  -4  -5   92.74   17.30   1
  -4   4   5   98.57    8.54   5
  -4   4   5   95.86    6.23   1
  -4   4   5  105.06   17.03  10
   3  -4  -5  202.76   10.59   1
  -3   4   5  229.72   13.50   5
  -3   4   5  206.23   10.29   1
  -3   4   5  208.13   24.28  10
   3  -4  -5  201.93   24.07  10
   2  -4  -5  615.06   44.30  10
   2  -4  -5  590.31   24.32   1
  -2   4   5  577.21   42.61  10
  -2   4   5  585.47   28.87   5
  -2   4   5  581.41   23.85   1
   1  -4  -5  184.37   25.14   3
   1  -4  -5  192.22   32.05  11
   1  -4  -5  150.74   10.90   5
  -1   4   5  152.64    9.67   2
   1  -4  -5  196.74    9.99   1
  -1   4   5  195.27   10.53   5
  -1   4   5  182.19   23.28  10
  -1   4   5  200.51    9.62   1
   1  -4  -5  188.82    9.88   1
   1  -4  -5  193.94   23.81  10
   0  -4  -5 1829.07  114.15   5
   0  -4  -5 2164.57   78.41   1
   0  -4  -5 2246.88   78.58   1
   0   4   5 1945.26  104.46   5
   0   4   5 2145.23   88.20   6
   0  -4  -5 2174.51  101.14   3
   0  -4  -5 1934.91  105.02  10
   0   4   5 2250.87  109.01  10
   0   4   5 2139.14   78.02   1
  -1  -4  -5   25.30    4.89   3
   1   4   5   40.90    5.44   6
  -1  -4  -5   29.69    4.20   1
   1   4   5   30.88    3.94   1
  -1  -4  -5   39.48   12.95  10
   2   4   5 1288.42   57.72   6
  -2  -4  -5 1346.86   51.60   1
  -2  -4  -5 1210.04   81.27  10
   2   4   5 1335.16   50.97   1
  -2  -4  -5 1334.05   65.00   3
   2   4   5 1240.70   79.70  10
  -3  -4  -5    6.14    3.29   1
   3   4   5   10.74    4.20   6
   3   4   5   13.06    3.31   1
  -4  -4  -5  677.42   29.70   1
   4   4   5  629.31   29.09   1
   4   4   5  659.73   33.77   6
   5   4   5   46.98    7.37   6
  -5  -4  -5   56.63    6.66   1
   5   4   5   50.13    6.94   4
   5   4   5   45.13    5.99   1
   6   4   5  149.94   13.07   4
  -6  -4  -5  210.47   13.66   1
   6   4   5  182.34   15.15   6
   8  -5  -5   60.92    6.58   1
  -8   5   5   69.06    8.83   5
  -8   5   5   62.69    6.29   1
  -7   5   5   -5.15   14.06   5
  -7   5   5   -2.59   11.46   1
   7  -5  -5    5.13   10.53   1
  -6   5   5  301.14   33.83  10
  -6   5   5  313.88   41.08   5
   6  -5  -5  307.49   15.72   1
  -6   5   5  323.91   15.41   1
  -5   5   5   67.52   14.70  10
  -5   5   5   46.16    4.53   1
  -5   5   5   44.19   12.92  11
  -5   5   5   47.08    6.12   5
   5  -5  -5   53.81    5.13   1
  -4   5   5  791.52   53.90  10
   4  -5  -5  732.38   30.29   1
  -4   5   5  773.17   37.83   5
  -4   5   5  710.27   29.69   1
  -3   5   5  318.98   17.80   5
  -3   5   5  251.49   28.44  10
  -3   5   5  312.33   14.15   1
   3  -5  -5  308.66   14.52   1
  -2   5   5  923.85   34.90   1
   2  -5  -5  888.97   48.83   3
  -2   5   5  894.16   42.33   5
   2  -5  -5  889.65   35.26   1
  -2   5   5  831.60   56.04  10
   2  -5  -5  912.45   57.71  10
   1  -5  -5  752.37   38.86   3
  -1   5   5  711.20   27.57   1
  -1   5   5  730.59   51.41  10
   1  -5  -5  622.60   37.64   5
   1  -5  -5  693.53   27.95   1
   1  -5  -5  621.80   67.86  11
   1  -5  -5  695.21   28.17   1
   1  -5  -5  555.31   43.37   8
  -1   5   5  726.76   32.42   5
   1  -5  -5  653.99   48.98  10
   0  -5  -5  741.33   40.07   3
   0   5   5  736.47   34.91   6
   0  -5  -5  697.23   77.31  11
   0  -5  -5  738.01   53.77  10
   0  -5  -5  765.10   30.14   1
   0  -5  -5  764.65   30.28   1
   0   5   5  669.45   52.37  10
   0   5   5  751.75   29.72   1
   0  -5  -5  656.01   39.13   5
  -1  -5  -5  801.11   34.25   1
   1   5   5  866.38   39.73   6
  -1  -5  -5  756.24   58.44  10
   1   5   5  841.40   34.08   1
  -1  -5  -5  858.72   44.84   3
   1   5   5  925.89   62.42  10
   2   5   5   64.28    5.76   1
   2   5   5   69.50   16.99  10
   2   5   5   61.65    7.37   6
  -2  -5  -5   60.00    6.01   1
   3   5   5  592.94   31.22   6
   3   5   5  610.17   26.86   1
  -3  -5  -5  596.81   27.27   1
   4   5   5    5.60    3.33   6
  -4  -5  -5    9.67    3.39   1
  -5  -5  -5  233.33   14.67   1
   5   5   5  234.32   17.33   6
   5   5   5  220.80   16.33   4
  -8   6   5   56.70    8.60   5
   8  -6  -5   65.87    6.93   1
  -8   6   5   59.04    6.18   1
  -7   6   5  198.33   15.98   5
  -7   6   5  198.54   11.66   1
   7  -6  -5  196.56   12.16   1
   6  -6  -5   56.38    5.78   1
  -6   6   5   53.12    5.25   1
  -6   6   5   65.53    8.12   5
  -6   6   5   66.87   16.20  10
  -5   6   5  621.99   33.15   5
  -5   6   5  606.90   47.60  10
   5  -6  -5  585.95   26.21   1
  -5   6   5  632.78   25.98   1
  -5   6   5  625.84   57.80  11
   4  -6  -5    5.43    1.98   1
  -4   6   5    5.66    3.13   5
   4  -6  -5    2.31    3.62   3
  -4   6   5    8.52    7.03  10
  -3   6   5 1133.36   55.18   5
   3  -6  -5 1157.82   63.62   3
   3  -6  -5 1204.97   45.50   1
  -3   6   5 1199.27   44.87   1
  -3   6   5 1127.03   69.49  10
  -2   6   5  145.59   10.14   5
  -2   6   5  131.81   20.71  10
  -2   6   5  160.30    8.57   1
   2  -6  -5  154.73   21.99  10
   2  -6  -5  165.56   14.85   3
   2  -6  -5  157.10    9.01   1
   1  -6  -5 1040.89   41.89   1
  -1   6   5 1089.15   49.54   5
  -1   6   5 1107.54   41.58   1
   1  -6  -5 1126.58   66.33   3
   1  -6  -5 1027.30   56.42   8
  -1   6   5 1120.59   69.18  10
   1  -6  -5 1018.91   65.41  10
   0  -6  -5  741.75   42.03   3
   0   6   5  736.49   30.44   1
   0   6   5  774.30   36.98   6
   0  -6  -5  790.05   31.24   1
   0   6   5  742.29   55.02  10
   0  -6  -5  741.93   54.11  10
   1   6   5  609.77   50.22  10
   1   6   5  658.02   26.71   1
  -1  -6  -5  583.41   26.62   1
  -1  -6  -5  623.25   35.96   3
   1   6   5  649.18   32.08   6
  -2  -6  -5  403.06   20.11   1
   2   6   5  442.51   24.55   6
  -2  -6  -5  442.63   27.15   3
   3   6   5  177.95   13.74   6
  -3  -6  -5  137.72   10.00   1
  -4  -6  -5  188.36   12.85   1
   4   6   5  217.84   16.14   6
   5   6   5   20.87    5.68   4
  -5  -6  -5   20.81    4.46   1
  -7   7   5  141.40   13.55   5
  -7   7   5  161.03   10.24   1
   7  -7  -5  155.58   10.73   1
  -6   7   5  485.64   21.49   1
   6  -7  -5  494.50   37.74   3
  -6   7   5  417.67   27.22   5
   6  -7  -5  485.26   22.14   1
   5  -7  -5  127.33   16.89   3
   5  -7  -5  143.63    9.10   1
  -5   7   5  134.09    8.48   1
  -5   7   5  139.60   11.83   5
   4  -7  -5  958.55   37.98   1
  -4   7   5  967.67   37.36   1
  -4   7   5  928.34   46.99   5
   4  -7  -5  919.09   55.63   3
  -3   7   5   34.72    3.64   1
  -3   7   5   30.95    4.72   5
   3  -7  -5   39.98    4.14   1
   3  -7  -5   44.76    8.79   3
  -3   7   5   25.38   10.33  10
  -2   7   5  929.95   62.93  10
  -2   7   5  931.02   45.65   5
  -2   7   5  980.04   37.36   1
   2  -7  -5  971.81   53.66   3
   2  -7  -5  965.57   37.94   1
   1  -7  -5   13.74    2.91   1
  -1   7   5   13.58    2.62   5
   1  -7  -5    8.54    9.95   3
   1  -7  -5   22.54    9.74  10
  -1   7   5   12.74    2.48   1
  -1   7   5    8.68    6.60  10
   0   7   5  821.15   59.95  10
   0   7   5  874.04   41.85   6
   0  -7  -5  863.52   47.86   3
   0  -7  -5  813.54   42.18   8
   0  -7  -5  884.62   34.67   1
  -1  -7  -5   83.50   10.14   3
   1   7   5   57.33    7.54   6
  -1  -7  -5   78.42    6.35   1
  -2  -7  -5  125.90    8.84   1
  -2  -7  -5  120.95   12.14   3
   2   7   5  128.06   11.30   6
   3   7   5   76.33    9.39   6
  -3  -7  -5   71.11    6.85   1
  -4  -7  -5   23.60    4.63   1
   4   7   5   12.57    5.37   6
   7  -8  -5   61.79    6.69   1
  -7   8   5   55.43    8.01   5
   7  -8  -5   82.23   15.83   3
  -6   8   5  227.35   17.05   5
   6  -8  -5  230.51   24.89   3
   6  -8  -5  237.22   13.41   1
  -5   8   5  195.76   15.34   5
   5  -8  -5  221.69   21.98   3
   5  -8  -5  217.41   12.11   1
   4  -8  -5  137.69    8.76   1
   4  -8  -5  136.94   16.14   3
  -4   8   5  139.12   11.47   5
  -3   8   5  315.19   19.09   5
   3  -8  -5  330.59   15.44   1
   3  -8  -5  310.56   24.99   3
   2  -8  -5   68.07   15.79   1
  -2   8   5   73.09   14.97   5
   1  -8  -5  267.62   13.15   1
   1  -8  -5  248.35   20.53   3
   0  -8  -5   -4.00    2.34   1
  -1  -8  -5   77.72   10.67   3
   1   8   5   89.03    9.85   6
  -1  -8  -5   88.52    6.81   1
  -2  -8  -5   15.15    3.46   1
   2   8   5   21.74    5.66   6
  -2  -8  -5    9.55    4.17   3
  -3  -8  -5   23.15    4.15   1
   6  -9  -5   15.08    3.62   1
  -6   9   5    6.89    4.24   5
   5  -9  -5  155.55   19.33   3
   5  -9  -5  170.68   10.32   1
  -5   9   5  145.75   12.97   5
  -4   9   5   45.93    6.56   5
   4  -9  -5   47.85    4.99   1
   4  -9  -5   45.26   10.12   3
  -3   9   5   73.44    7.77   5
   3  -9  -5   93.24   13.05   3
   3  -9  -5   82.39    6.28   1
   2  -9  -5   75.94    5.87   1
   2  -9  -5   86.47   12.16   3
   1  -9  -5   17.76    3.07   1
   1  -9  -5   14.68    6.19   3
  -1   9   5   31.61    5.84   6
   0  -9  -5   57.65    4.99   1
   0  -9  -5   35.81    8.19   3
   0   9   5   42.36    7.22   6
   1   9   5    0.25    3.60   6
  -1  -9  -5    0.86    2.03   1
  -2  -9  -5   -0.33    3.55   3
  -4  10   5   32.23    5.61   5
   4 -10  -5   30.30    4.00   1
   3 -10  -5    3.36    2.08   1
   3 -10  -5   -1.64    4.23   3
   1 -10  -5   -0.26    4.35   3
   0 -10  -5   16.68    6.46   3
  -2 -11   6   67.76    9.41   9
   2  11  -6   65.23    8.45   2
   2  11  -6   60.70    6.52   4
   1  11  -6  106.97   10.84   2
   1  11  -6  115.97   13.23   5
   1  11  -6  108.73    8.64   4
  -1 -11   6  110.26   11.96   9
   0  11  -6  138.77   14.08   5
   0 -11   6  143.00   11.50   7
   0  11  -6  134.98   12.09   2
   0 -11   6  119.87   12.79   9
   1 -11   6  224.56   17.40   9
  -1  11  -6  192.77   17.21   5
   1 -11   6  206.65   15.28   7
  -1  11  -6  196.45   15.84   2
  -2  11  -6   78.33    9.94   2
  -2  11  -6   53.79    9.33   5
   2 -11   6   87.89    9.35   7
  -3  11  -6  216.61   18.53   5
   3 -11   6  225.71   16.94   7
  -3  11  -6  253.72   18.66   2
  -4 -10   6    0.21    3.58   9
   3  10  -6  240.68   15.79   4
   3  10  -6  266.60   18.05   2
  -3 -10   6  233.68   18.72   9
  -2 -10   6   14.27    5.16   9
   2  10  -6   13.09    3.08   4
  -1 -10   6  363.47   33.93   7
   1  10  -6  351.56   20.69   4
   1  10  -6  353.01   21.55   2
  -1 -10   6  364.84   23.90   9
   0  10  -6  153.82   12.71   2
   0 -10   6  160.51   14.27   9
   0  10  -6  175.08   15.29   5
   0  10  -6  150.96    9.80   4
   0 -10   6  171.87   12.67   7
   1 -10   6  320.21   19.65   7
   1 -10   6  345.34   22.39   9
  -1  10  -6  322.46   20.80   2
  -1  10  -6  320.38   22.79   5
   2 -10   6  237.67   17.81   9
   2 -10   6  225.39   15.85   7
  -2  10  -6  247.39   19.13   5
  -2  10  -6  214.33   16.93   2
   3 -10   6  149.40   12.85   7
  -3  10  -6  162.90   14.21   2
  -3  10  -6  138.96   13.66   5
   3 -10   6  144.69    8.75   1
   4 -10   6  241.59   17.70   7
   4 -10   6  235.41   13.04   1
  -4  10  -6  261.54   19.18   2
  -4  10  -6  203.09   18.01   5
  -5  10  -6   29.09    6.96   2
   5 -10   6   21.45    4.21   1
   5   9  -6   52.90    6.96   4
   4   9  -6  221.68   16.22   2
   4   9  -6  221.46   15.00   4
  -3  -9   6   20.70    5.17   9
   3   9  -6   21.59    5.19   2
   3   9  -6   31.20    5.17   4
   2   9  -6  447.41   22.68   4
  -2  -9   6  461.65   27.55   9
   2   9  -6  436.10   24.70   2
   2   9  -6  384.30   57.85  11
  -1  -9   6   -1.74    4.00   9
   1   9  -6    6.45    3.64   4
   1   9  -6    2.77    3.38   2
  -1  -9   6    2.35    2.11   7
   1   9  -6   30.62   17.87  11
   0   9  -6  852.72   38.31   4
   0  -9   6  881.97   45.48   9
   0   9  -6  894.91   47.38   5
   0  -9   6  876.80   41.82   7
   0   9  -6  899.17   95.79  11
   0   9  -6  873.70   42.56   2
  -1   9  -6   58.12    8.20   5
   1  -9   6   56.30    3.80   1
   1  -9   6   65.88    8.39   9
   1  -9   6   57.88    6.89   7
  -1   9  -6   59.01    7.37   2
  -2   9  -6  368.41   23.77   5
   2  -9   6  360.95   22.43   9
   2  -9   6  338.28   20.71   7
   2  -9   6  331.10   15.60   1
  -2   9  -6  337.88   21.95   2
  -3   9  -6  118.85   12.46   5
   3  -9   6  137.01    8.70   1
  -3   9  -6  147.32   13.04   2
   3  -9   6  134.84   11.61   7
   4  -9   6   99.05    7.89   1
  -4   9  -6  110.80   12.15   5
   4  -9   6   99.90   10.30   7
  -4   9  -6  103.78   11.62   2
   5  -9   6  146.38   13.27   7
  -5   9  -6  129.86   13.17   2
  -5   9  -6  130.29   13.67   5
   5  -9   6  109.61    8.94   1
  -5  -8   6  100.37    6.41   1
   5   8  -6  108.28   10.09   4
  -5  -8   6  116.72   11.95   8
   4   8  -6  246.83   16.85   2
  -4  -8   6  242.53   11.44   1
   4   8  -6  246.64   15.87   4
  -4  -8   6  307.06   19.76   8
  -3  -8   6  323.38   14.39   1
   3   8  -6  388.23   19.94   4
   3   8  -6  360.16   21.00   2
   2   8  -6  217.79   39.94  11
   2   8  -6  250.49   16.11   2
  -2  -8   6  231.51   16.70   7
   2   8  -6  269.99   14.65   4
  -1  -8   6  688.12   36.93   9
   1   8  -6  684.40   31.08   4
   1   8  -6  672.51   33.92   2
  -1  -8   6  696.63   52.91   7
  -1  -8   6  657.63   25.75   1
   1   8  -6  727.05   77.55  11
   0  -8   6   54.18    6.28   7
   0  -8   6   61.30    3.90   1
   0   8  -6   65.83    5.10   4
   0  -8   6   64.57    7.94   9
   0   8  -6   65.14    6.99   2
   1  -8   6  621.14   32.24   7
  -1   8  -6  643.72   33.34   2
  -1   8  -6  659.63   28.19   4
   1  -8   6  642.49   34.62   9
  -1   8  -6  661.63   36.47   5
   1  -8   6  645.26   25.82   1
   2  -8   6   25.72    5.14   7
  -2   8  -6   28.44    6.03   2
   2  -8   6   16.10    4.31   9
   3  -8   6  284.11   18.91   9
  -3   8  -6  285.73   20.36   5
   3  -8   6  293.85   14.76   1
   3  -8   6  281.30   18.49   7
  -3   8  -6  294.56   19.68   2
   4  -8   6   65.17    8.54   7
  -4   8  -6   62.54    9.08   2
   4  -8   6   81.80    6.85   1
  -4   8  -6   66.98    8.73   5
  -5   8  -6   49.00    8.41   2
   5  -8   6   60.99    8.69   7
  -5   8  -6   73.56    9.83   5
  -6   8  -6   45.89    7.71   5
   6  -8   6   53.33    8.30   7
   6  -8   6   39.00    5.87   1
  -6   8  -6   42.17    8.03   2
   6   7  -6   -0.06    2.59   4
  -6  -7   6    4.63    3.35   8
  -6  -7   6    1.72    1.71   1
   5   7  -6  384.72   21.98   4
  -5  -7   6  395.76   24.92   8
  -5  -7   6  373.61   16.89   1
   4   7  -6   44.20    6.28   2
  -4  -7   6   47.14    3.87   1
   4   7  -6   57.24    6.49   4
  -4  -7   6   34.96    9.16  10
  -4  -7   6   47.37    6.89   8
  -3  -7   6  410.80   16.99   1
   3   7  -6  417.47   30.68   4
   3   7  -6  414.12   22.79   2
   3   7  -6  405.19   19.30   6
  -3  -7   6  427.74   31.00  10
   2   7  -6  231.09   26.79   6
   2   7  -6  237.51   14.79   2
  -2  -7   6  226.84   16.81   7
  -1  -7   6  230.48   10.41   1
  -1  -7   6  216.06   13.55   7
   1   7  -6  264.89   15.52   2
   1   7  -6  245.69   21.75  10
   1   7  -6  243.35   39.86  11
   1   7  -6  253.65   10.76   1
   1   7  -6  231.51   12.87   4
   0   7  -6  401.53   30.50  10
   0   7  -6  339.14   16.37   4
   0  -7   6  328.10   18.49   7
   0  -7   6  319.40   14.28   1
   0   7  -6  352.62   14.70   1
   0   7  -6  321.07   18.95   2
  -1   7  -6   38.08    6.10   5
   1  -7   6   41.36    6.16   9
  -1   7  -6   34.64    3.60   1
   1  -7   6   36.14    8.01   7
  -1   7  -6   33.47   10.29  10
  -1   7  -6   45.02    6.19   2
  -1   7  -6   32.34    3.05   4
   1  -7   6   35.24    3.56   1
   2  -7   6   85.34    8.69   9
   2  -7   6   70.68    7.72   7
  -2   7  -6  109.19   19.77  10
  -2   7  -6   91.66    6.77   1
   2  -7   6   87.72    6.49   1
  -2   7  -6   91.84    9.68   5
  -2   7  -6   94.00    9.51   2
   3  -7   6    4.44    2.48   1
   3  -7   6    8.07    3.25   9
  -3   7  -6    7.86    3.59   2
  -3   7  -6    0.61    3.54   5
  -3   7  -6    4.76    2.42   1
  -3   7  -6    4.00    7.09  10
  -4   7  -6    6.99    2.74   1
   4  -7   6   24.62   25.10   7
   4  -7   6    3.00    2.87   1
  -4   7  -6    5.91   12.80   5
  -5   7  -6   28.44    6.34   5
  -5   7  -6   17.22    3.97   1
  -5   7  -6   22.95    6.32   2
   5  -7   6   24.81    5.62   7
   6  -7   6    3.73    3.71   1
   6  -7   6    7.20    4.96   7
  -6   7  -6    1.95    4.27   5
  -7  -6   6   49.01    7.75   8
   7   6  -6   45.06    6.96   4
  -7  -6   6   39.54    5.17   1
  -6  -6   6  232.20   12.16   1
  -6  -6   6  247.17   17.71   8
   6   6  -6  210.93   15.14   4
   5   6  -6   15.99    4.38   4
  -5  -6   6   22.59    5.07   8
  -5  -6   6   20.02    2.93   1
  -4  -6   6  310.30   19.57   8
  -4  -6   6  308.93   28.70  10
  -4  -6   6  300.28   13.66   1
   4   6  -6  295.05   17.19   4
  -3  -6   6   15.76    6.58  10
  -3  -6   6    3.25   23.99   7
  -3  -6   6    2.82    4.96   1
   3   6  -6    6.42   26.22   4
   3   6  -6    6.10    1.65   1
   2   6  -6  236.21   12.89   4
  -2  -6   6  183.80   13.72   1
  -2  -6   6  177.84   29.94  10
  -2  -6   6  237.27   13.59   7
   2   6  -6  227.79   34.31  11
   2   6  -6  234.63   14.13   2
  -1  -6   6   69.39    6.02   7
  -1  -6   6   59.55    4.23   1
   1   6  -6   66.09    4.50   1
   1   6  -6   95.22   14.10  10
   1   6  -6   70.66    5.48   4
  -1  -6   6   78.43   14.27  10
   1   6  -6   67.56    6.75   2
   0   6  -6    3.33    4.99  10
   0  -6   6   14.18    2.33   1
   0   6  -6   15.12    2.44   1
   0   6  -6    8.70    1.77   4
   0  -6   6   11.51    6.58  10
   0   6  -6    6.65    3.33   2
  -1   6  -6  108.72   18.71  10
  -1   6  -6   92.16    8.60   2
   1  -6   6   81.09    7.58   7
   1  -6   6   83.35    5.44   4
  -1   6  -6   89.37    6.29   1
   1  -6   6   77.23   15.04  10
   1  -6   6   74.25    7.73   9
   1  -6   6   92.94    6.26   1
   2  -6   6   45.76   12.74  10
  -2   6  -6   62.74   15.45  10
   2  -6   6   32.29    5.50   7
  -2   6  -6   31.21    5.86   2
   2  -6   6   30.53    3.98   1
  -2   6  -6   34.39    6.07   5
   2  -6   6   31.74    5.04   9
  -2   6  -6   38.41    4.46   1
  -3   6  -6   20.41    5.35   2
  -3   6  -6   31.34    5.89   5
   3  -6   6   27.71    4.09   1
   3  -6   6   36.10   12.07  10
  -3   6  -6   15.88    3.30   1
  -3   6  -6   31.50   12.14  10
   3  -6   6   24.52    4.24   9
  -4   6  -6   34.55    6.87   2
  -4   6  -6   52.84   16.09  10
   4  -6   6   66.20   17.13  10
   4  -6   6   42.93    5.24   1
  -4   6  -6   57.21    5.71   1
  -4   6  -6   53.89    7.50   5
  -5   6  -6    1.06   15.46   1
   5  -6   6    4.43   15.51   1
  -5   6  -6   36.19   14.27  10
  -5   6  -6    3.93    3.14   5
  -5   6  -6    0.24    3.29   2
   6  -6   6   23.93    4.81   1
  -6   6  -6   27.77    5.68   5
  -6   6  -6   23.24    4.48   1
  -6   6  -6   28.54    6.74   2
  -7   6  -6   16.85    5.04   5
  -7   6  -6   19.64    5.46   2
   7  -6   6    7.51    4.93   7
  -7   6  -6   14.16    4.16   1
  -7  -5   6   29.64    5.72   1
  -7  -5   6   23.80    5.64   8
   6   5  -6  102.80    9.71   4
  -6  -5   6  110.53   10.52   8
  -6  -5   6  105.45    7.33   1
   5   5  -6   77.01    7.85   4
  -5  -5   6   89.15    6.18   1
  -5  -5   6   87.98    8.75   8
   5   5  -6   83.43    6.05   1
  -4  -5   6   75.89   14.50  10
   4   5  -6   52.10    6.01   4
  -4  -5   6   48.11    4.05   1
  -4  -5   6   66.31   12.83  10
  -4  -5   6   48.59    6.24   8
   4   5  -6   47.23    4.06   1
   3   5  -6   75.76    6.62   4
   3   5  -6   77.61    7.06   2
  -3  -5   6   77.71    4.95   1
   3   5  -6   78.71    5.03   1
  -3  -5   6   94.61   15.62  10
  -3  -5   6   71.45    5.83   6
  -3  -5   6   73.20    5.27   7
  -2  -5   6   50.65  108.34   1
  -2  -5   6  117.94   78.32   1
   2   5  -6  123.94  104.16  10
   2   5  -6  159.22  105.62   1
  -2  -5   6   62.06   77.56  10
  -1  -5   6    4.05    5.27  10
   1   5  -6   14.07    6.65  10
  -1  -5   6   11.96    2.04   1
   1   5  -6    7.63    1.89   1
  -1  -5   6    3.39    1.99   7
   0   5  -6   25.29    3.08   1
   0  -5   6   15.35    2.62   1
   0  -5   6   17.35    3.60   7
   0  -5   6   19.20    2.58   4
   0   5  -6    3.48    5.10  10
   0   5  -6   15.28    3.79   2
   0  -5   6   23.96    8.95  10
  -1   5  -6   55.03    4.73   1
   1  -5   6   44.78    4.07   1
   1  -5   6   41.24    3.58   4
  -1   5  -6   51.32   13.19  10
  -1   5  -6   60.01    6.49   2
   1  -5   6   45.61    4.27   1
  -1   5  -6   50.47    5.12   3
   1  -5   6   44.07   11.90  10
  -2   5  -6   33.17    5.26   5
  -2   5  -6   38.11    5.56   2
   2  -5   6   46.75    5.56   9
  -2   5  -6   53.02   14.68  10
  -2   5  -6   32.09    3.80   3
  -2   5  -6   36.95    4.35   1
   2  -5   6   39.96    4.40   1
   2  -5   6   16.83    8.16  10
  -3   5  -6  161.44   12.53   2
  -3   5  -6  146.93   11.91   5
  -3   5  -6  143.56    9.43   1
  -3   5  -6  207.62   28.57  10
   3  -5   6  145.79   23.95  10
   3  -5   6  159.84    9.83   1
   3  -5   6  164.65   11.07   9
  -3   5  -6  132.33    7.79   6
  -4   5  -6   21.35   10.33  10
  -4   5  -6   38.13    4.55   1
   4  -5   6   18.36    9.85  10
  -4   5  -6   39.09   11.02   2
   4  -5   6   39.00    6.43   1
  -4   5  -6   37.81   10.81   5
   5  -5   6   94.77   22.22  10
  -5   5  -6  129.20   12.25   2
  -5   5  -6  118.71   12.55   1
  -5   5  -6  123.92   11.48   5
  -5   5  -6  164.12   27.92  10
   5  -5   6  136.89   19.98   1
  -6   5  -6   14.63    3.95   1
  -6   5  -6   13.05    4.39   5
   6  -5   6   14.56    4.19   1
  -6   5  -6   24.74    5.46   2
   7  -5   6   39.26    6.07   1
  -7   5  -6   47.61    6.13   1
  -7   5  -6   64.02    9.23   2
  -8  -4   6    3.42    2.93   1
  -8  -4   6    4.93    3.96   8
   7   4  -6   46.34    7.13   4
  -7  -4   6   61.20    5.93   1
  -7  -4   6   56.65    7.57   8
   6   4  -6    4.42    2.87   4
   6   4  -6    4.67    2.22   1
  -6  -4   6    5.60    3.30   8
  -6  -4   6    7.80    2.58   1
   5   4  -6   21.13    3.16   1
  -5  -4   6   22.38    3.24   1
  -5  -4   6   23.23    9.37  10
   5   4  -6   15.29    4.11   4
  -4  -4   6   22.20    8.79  10
  -4  -4   6   31.83    9.71  10
  -4  -4   6   30.70    5.27   8
  -4  -4   6   24.73    3.06   1
   4   4  -6   28.37    6.04   1
  -3  -4   6    6.09    1.55   1
   3   4  -6    6.98    1.99   1
  -3  -4   6    5.50   48.30   6
  -3  -4   6    1.43   19.53   1
   3   4  -6    7.01    2.94   2
  -3  -4   6    4.40    4.72   7
   3   4  -6    2.06   45.31   4
  -3  -4   6   -2.93    4.32  10
  -3  -4   6    5.10    5.25   8
  -2  -4   6  135.23    7.27   1
  -2  -4   6  113.63    6.59   6
   2   4  -6  131.21    7.04   1
  -2  -4   6  126.67   18.20  10
  -2  -4   6  127.19    6.88   1
   2   4  -6  111.75   19.53  11
   2   4  -6  109.27   16.05  10
  -2  -4   6  127.93    7.67   7
   2   4  -6  126.08    8.74   2
  -1  -4   6   64.92   13.82  10
   1   4  -6   70.11    5.62   4
   1   4  -6   74.74   13.79  10
   1   4  -6   71.60    6.28   2
  -1  -4   6   72.76    4.94   1
  -1  -4   6   65.25    5.05   1
   1   4  -6   68.12    4.98   1
   0   4  -6  381.14   35.36  10
   0  -4   6  401.01   35.94  10
   0  -4   6  365.59   16.81   1
   0   4  -6  377.96   20.13   2
   0   4  -6  392.96   17.19   1
   0  -4   6  372.92   16.88   1
   0   4  -6  378.49   21.44   3
   0  -4   6  372.38   18.06   4
  -1   4  -6   55.98    5.00   1
  -1   4  -6   54.77    5.10   3
   1  -4   6   59.58    4.95   1
   1  -4   6   63.76    5.05   1
   1  -4   6   58.39   14.11  10
  -1   4  -6   63.25    6.85   2
  -1   4  -6   56.16   14.12  10
   1  -4   6   58.99    4.46   4
  -2   4  -6  159.47   11.61   5
   2  -4   6  129.31    7.36   4
  -2   4  -6  149.73    9.23   1
  -2   4  -6  155.34   11.40   2
   2  -4   6  173.99   24.28  10
  -2   4  -6  154.94   24.18  10
   2  -4   6  160.75    9.21   1
  -2   4  -6  136.20    7.17   6
   3  -4   6   28.87   11.86  10
  -3   4  -6    8.32    2.96   1
  -3   4  -6   12.98    3.87   2
   3  -4   6   12.41    4.56   1
   3  -4   6   14.61    3.21   9
  -3   4  -6   15.25    2.13   6
  -3   4  -6   16.25    3.72   5
  -4   4  -6   48.66   11.35   5
   4  -4   6   40.37   14.50  10
   4  -4   6   52.90    6.07   1
  -4   4  -6   47.28   15.24  10
  -4   4  -6   55.37    5.64   1
  -4   4  -6   49.39   20.03   2
  -5   4  -6   13.15    4.80   2
  -5   4  -6    3.34    2.90   5
   5  -4   6   -2.44    2.95   1
  -5   4  -6    1.31    2.75   1
   5  -4   6   -1.53    6.88  10
  -6   4  -6    1.54    2.94   5
   6  -4   6    1.38    3.25   1
  -6   4  -6   -5.61    4.36   2
  -7   4  -6    5.11    3.24   1
   7  -4   6   -1.29    3.27   1
  -7   4  -6    1.22    3.01   2
   8   3  -6    2.30    2.98   4
   7   3  -6   17.87    5.07   4
  -7  -3   6   19.78    3.83   1
   7   3  -6   17.30    3.62   1
  -7  -3   6   13.94    3.93   8
  -6  -3   6    5.97    3.11   8
  -6  -3   6    2.32    2.24   1
   6   3  -6    4.51    3.43   4
   6   3  -6   -0.78    1.99   1
  -6  -3   6    2.47    6.39  10
  -5  -3   6   13.34   24.05   1
   5   3  -6   17.39   26.34   1
  -5  -3   6   26.66    9.26   8
  -5  -3   6   11.97   24.19  10
   5   3  -6   11.78   25.19   4
  -4  -3   6   23.93    3.10   1
   4   3  -6   21.85   29.03   4
  -4  -3   6    9.48    6.55  10
   4   3  -6   18.31   11.23   1
  -4  -3   6   17.90    3.79   8
  -3  -3   6   44.44    4.42   6
  -3  -3   6   45.54    3.88   1
  -3  -3   6   33.44    9.64  10
   3   3  -6   44.40    4.38   1
  -3  -3   6   39.08    3.26   7
   3   3  -6   41.21    5.85   2
   3   3  -6   51.22   11.60  10
   3   3  -6   44.15    5.01   4
   2   3  -6  144.88   30.56  10
   2   3  -6  138.41   25.63   1
   2   3  -6  207.83   19.80   2
   1   3  -6  135.05   19.27  10
  -1  -3   6  125.23    7.10   1
   1   3  -6  116.63    7.13   1
  -1  -3   6  113.22    6.98   1
   1   3  -6  116.96    8.30   2
  -1  -3   6  120.09   18.14  10
   0   3  -6   81.26    5.80   1
   0  -3   6   68.75   15.12  10
   0  -3   6   64.09    5.12   1
   0  -3   6   54.40    5.14   4
   0  -3   6   61.93    5.17   1
   0   3  -6   58.49   14.16  10
   0   3  -6   67.98    6.34   2
  -1   3  -6  122.80    8.34   3
   1  -3   6  148.69   22.34  10
  -1   3  -6  170.26   24.54  10
   1  -3   6  143.62    8.52   1
   1  -3   6  142.66    8.58   4
  -1   3  -6  146.33    8.82   1
  -1   3  -6  140.63   10.23   2
   2  -3   6  122.35   88.67  10
  -2   3  -6  136.01   92.26  10
  -2   3  -6  268.57  109.30   5
  -2   3  -6  263.53   79.78   2
   2  -3   6  273.32   56.40   1
  -2   3  -6  206.64   69.69   1
  -3   3  -6   52.31    6.12   5
   3  -3   6   41.10    4.94   1
  -3   3  -6   61.26   16.47  10
  -3   3  -6   43.76    6.42   2
   3  -3   6   39.40   13.57  10
  -3   3  -6   61.59    5.71   1
  -3   3  -6   51.25    4.25   6
   3  -3   6   47.32    4.75   9
   4  -3   6   14.86   10.28  10
  -4   3  -6   13.62    8.43   2
  -4   3  -6   15.01    3.73   5
   4  -3   6   17.31    3.27   1
  -4   3  -6   16.21    3.24   1
   5  -3   6   -3.32    5.19   1
  -5   3  -6    3.66    3.48   1
  -5   3  -6    3.12    3.78   2
  -5   3  -6   -1.30    2.60   5
  -6   3  -6   21.29    4.45   1
  -6   3  -6   15.18    5.34   2
   6  -3   6   21.25    4.67   1
  -7   3  -6    4.21    3.39   1
  -7   3  -6    5.53    4.38   2
  -8  -2   6   13.66    3.65   1
   8   2  -6    7.11    3.17   1
   8   2  -6    8.84    4.31   4
  -7  -2   6   28.88    3.94   1
  -7  -2   6   28.49   13.31  10
   7   2  -6   26.66    5.64   4
   7   2  -6   23.33    3.70   1
  -6  -2   6   13.34    3.40   8
  -6  -2   6   20.73    9.23  10
   6   2  -6   12.89    3.62   4
  -6  -2   6   11.29    2.85   1
   6   2  -6   15.05    2.96   1
   5   2  -6  104.18   24.23   4
  -5  -2   6  100.40   21.09   1
  -5  -2   6   97.43   17.65  10
  -5  -2   6   95.86    7.64   8
   5   2  -6  104.04   23.04   1
  -5  -2   6  105.96   17.79  10
   4   2  -6   27.17   27.24   4
  -4  -2   6   12.60    6.48  10
  -4  -2   6   22.07    3.04   1
  -4  -2   6   22.62    5.26   8
   4   2  -6   19.40   18.71   1
   3   2  -6  125.18   18.36  10
   3   2  -6  157.55    8.43   1
  -3  -2   6  155.89    8.19   1
  -3  -2   6  135.52   18.96  10
  -3  -2   6  154.08    9.17   6
   3   2  -6  152.88    9.42   2
   2   2  -6   18.11    2.85   8
   2   2  -6   22.30    2.69   1
   2   2  -6   28.56    8.77  10
  -2  -2   6   17.06    7.68  10
  -2  -2   6   15.94    2.28   1
   1   2  -6   69.61   14.76  10
  -1  -2   6   79.54    5.56   1
   1   2  -6   82.93    5.85   1
   1   2  -6   84.03    6.60   8
   1   2  -6   86.03    6.50   2
  -1  -2   6   86.04   15.28  10
   0   2  -6   -4.50    5.44  10
   0  -2   6    2.94    2.01   4
   0   2  -6    0.88    1.44   1
   0  -2   6    6.56    6.82  10
   0  -2   6    2.82    0.85   6
   0   2  -6    5.23    2.80   2
   1  -2   6   17.46    3.11   1
  -1   2  -6   36.96   12.08  10
   1  -2   6   16.55    8.10  10
  -1   2  -6   12.10    3.06   2
  -1   2  -6   19.44    3.41   1
   1  -2   6   14.95    2.04   6
   2  -2   6   75.72   23.63  10
   2  -2   6  124.38   12.83   1
  -2   2  -6  128.36   18.46   2
  -2   2  -6  107.88   28.70   5
  -2   2  -6   81.66   16.30   1
  -2   2  -6  109.97   21.50  10
  -3   2  -6   -2.13    7.04  10
  -3   2  -6    2.85    2.34   5
   3  -2   6    0.49    1.41   9
  -3   2  -6    9.84    3.12   1
   3  -2   6   -2.78    7.38   1
   3  -2   6    3.22   54.58   6
  -3   2  -6    2.36    2.71   2
   3  -2   6   12.09    9.48  10
   4  -2   6  108.23    8.08   1
   4  -2   6  160.81   27.40  10
   4  -2   6   82.73    5.93   4
  -4   2  -6  108.21    8.15   1
  -4   2  -6   95.57    9.30   2
  -4   2  -6  110.11   22.64  10
  -4   2  -6   99.07    8.10   5
   4  -2   6  110.63    8.69   6
  -5   2  -6    7.54    3.05   1
  -5   2  -6    9.57    2.96   5
   5  -2   6    4.77    2.65   1
  -5   2  -6    5.96    4.38   2
  -6   2  -6   88.30   10.50   2
   6  -2   6  102.63    8.79   1
  -6   2  -6  107.82    8.74   1
   7  -2   6   29.30    5.36   1
  -7   2  -6   22.21    6.19   2
  -7   2  -6   38.35    5.83   1
  -8  -1   6   11.76    3.51   1
   8   1  -6   15.19    3.57   1
   7   1  -6    4.20    2.53   1
  -7  -1   6    2.28    2.56   1
  -6  -1   6   25.00    3.35   1
   6   1  -6   19.70    3.13   1
  -5  -1   6   11.13    7.28  10
  -5  -1   6   17.16    8.42  10
  -5  -1   6    1.24    1.71   8
  -4  -1   6    9.53    4.40   1
  -4  -1   6    8.81   10.63   8
  -4  -1   6   20.85   22.47  10
   4   1  -6   10.71   79.04   1
   3   1  -6    5.23    6.27  10
  -3  -1   6    3.32    6.91  10
   3   1  -6   -1.60   21.00   1
  -3  -1   6   -4.76    3.28   1
   3   1  -6    0.95    1.70   2
  -2  -1   6   31.34    9.46  10
  -2  -1   6    9.75    2.24   1
   2   1  -6   23.61    9.06  10
   2   1  -6   13.21    2.58   1
   2   1  -6   14.63    2.35   8
   1   1  -6   28.59    3.60   2
   1   1  -6   31.60    3.65   1
  -1  -1   6   25.18    3.30   1
  -1  -1   6   25.68    3.26   2
  -1  -1   6   39.46   10.89  10
   1   1  -6   40.15   12.00  10
   0  -1   6  194.90   10.49   1
   0   1  -6  204.42   12.09   2
   0   1  -6  225.22   27.59  10
   0  -1   6  176.52   23.91  10
   0   1  -6  203.81   10.85   1
   0  -1   6  184.89    9.71   6
   1  -1   6  200.81   10.60   6
  -1   1  -6  213.71   13.18   2
  -1   1  -6  199.13   11.38   1
   1  -1   6  206.32   11.14   1
   1  -1   6  204.56   26.91  10
  -1   1  -6  212.07   28.43  10
  -2   1  -6  237.66   30.97  10
   2  -1   6  339.21   17.91   1
  -2   1  -6  267.91   20.96   1
   2  -1   6  201.17   28.45  10
  -3   1  -6  425.62   43.25  10
   3  -1   6  415.56   19.94   1
  -3   1  -6  417.10   20.07   1
   3  -1   6  426.69   20.28   9
   3  -1   6  480.50   22.12   6
  -3   1  -6  398.46   23.28   2
   3  -1   6  383.40   41.49  10
  -3   1  -6  433.98   21.93   5
  -4   1  -6   57.22    5.98   1
   4  -1   6   70.62   18.78  10
   4  -1   6   59.67    6.47   6
  -4   1  -6   55.19    7.60   2
   4  -1   6   58.11    6.01   1
  -4   1  -6   62.04    5.55   5
   5  -1   6  424.88   20.70   1
   5  -1   6  416.49   22.66   6
  -5   1  -6  413.25   20.63   1
  -5   1  -6  365.54   24.01   2
  -6   1  -6    6.08    3.63   1
  -6   1  -6    1.23    3.73   2
   6  -1   6   12.78    4.14   1
   7  -1   6  229.04   14.86   1
  -7   1  -6  204.23   14.22   1
   9   0  -6   -0.71    3.04   1
  -9   0   6    2.71    3.04   1
   8   0  -6   -1.65    2.57   1
  -8   0   6    4.21    3.04   1
   7   0  -6   -1.40    2.28   1
  -7   0   6    3.71    2.10   1
  -6   0   6   11.59    7.67  10
  -5   0   6   28.32    3.31   8
  -5   0   6   55.49   13.45  10
   5   0  -6   34.33   33.53   1
  -5   0   6   29.61   30.41   1
  -4   0   6    4.66    4.51  10
  -4   0   6   -0.57    1.74   1
   4   0  -6    1.42    1.90   1
  -3   0   6  260.13   26.62  10
   3   0  -6  245.08   26.75  10
   3   0  -6  243.50   12.08   1
  -3   0   6  259.45   11.98   1
   3   0  -6  237.41   12.62   2
   2   0  -6   40.80   11.61  10
   2   0  -6   29.54   26.66   8
  -2   0   6   45.63   13.77  10
   2   0  -6   52.75   13.73   2
  -2   0   6   33.97    5.14   1
   1   0  -6  668.53   50.18  10
   1   0  -6  684.40   28.02   1
  -1   0   6  654.53   30.26   2
  -1   0   6  695.31   27.81   1
   1   0  -6  685.50   31.02   2
  -1   0   6  682.17   48.34  10
   0   0  -6  270.96   13.46   1
   0   0   6  266.19   13.18   6
   0   0   6  254.35   13.86   2
   0   0  -6  285.66   14.96   2
   0   0   6  251.89   12.98   1
   0   0   6  289.19   30.97  10
   0   0  -6  267.53   31.30  10
   0   0  -6  228.32   14.50   5
   1   0   6  809.14   34.14   6
   1   0   6  785.22   57.13  10
  -1   0  -6  806.97   36.72   2
  -1   0  -6  792.26   32.36   1
  -1   0  -6  727.52   39.80   3
   1   0   6  781.61   31.81   1
  -1   0  -6  714.03   56.75  10
   2   0   6  565.87   35.76   6
  -2   0  -6  429.00   43.54  10
   2   0   6  478.98   51.26  10
   2   0   6  538.39   27.96   1
  -2   0  -6  388.48   34.26   1
  -2   0  -6  476.16   61.39   5
  -2   0  -6  456.59   37.15   2
   3   0   6  497.33   47.80  10
  -3   0  -6  445.76   21.55   1
  -3   0  -6  447.84   25.44   2
   3   0   6  486.77   21.82   1
  -3   0  -6  437.67   22.42   5
  -3   0  -6  420.22   44.35  10
   3   0   6  501.38   23.52   6
  -4   0  -6  420.28   25.02   2
  -4   0  -6  415.52   20.96   1
   4   0   6  448.77   21.18   1
   4   0   6  439.45   22.87   6
   5   0   6   89.18    7.46   4
  -5   0  -6   91.86   10.17   2
  -5   0  -6  105.22    8.81   1
   5   0   6  102.23    8.56   1
   5   0   6  116.86    9.82   6
   6   0   6  271.62   16.17   1
   6   0   6  280.87   18.22   6
  -6   0  -6  268.55   16.33   1
  -7   0  -6    7.07    4.16   1
   7   0   6   -2.90    3.99   6
  -9   1   6   17.75    4.09   1
  -8   1   6   -1.05    2.65   1
  -8   1   6    0.76    4.03   5
   8  -1  -6   -1.31    2.93   1
  -7   1   6   50.75   11.76   1
  -7   1   6   60.26   10.87   5
   7  -1  -6   46.33   14.20   1
  -6   1   6   50.94   12.33   5
  -6   1   6   68.41   16.58  10
   6  -1  -6   59.88    5.68   1
  -6   1   6   63.86    5.74   1
  -5   1   6  189.59   24.88  10
  -5   1   6  166.52   36.38   1
  -5   1   6  149.72    8.97   8
  -5   1   6  167.59   12.49   5
   5  -1  -6  170.28   44.82   1
   4  -1  -6  398.63   18.67   2
  -4   1   6  425.27   22.86   5
  -4   1   6  374.03   34.23  10
   4  -1  -6  393.36   18.95   1
  -4   1   6  387.37   17.55   1
  -3   1   6  292.06   13.54   1
   3  -1  -6  329.30   31.52  10
   3  -1  -6  294.08   14.21   2
   3  -1  -6  279.20   13.74   1
  -3   1   6  300.60   29.54  10
  -2   1   6 1302.38   71.78  10
  -2   1   6 1297.92   49.00   1
   2  -1  -6 1231.24   73.44  10
   2  -1  -6 1297.35   55.75   2
   2  -1  -6 1283.40   49.34   1
   1  -1  -6  110.92    9.14   5
   1  -1  -6  125.62    7.96   1
   1  -1  -6  113.31   19.93  10
  -1   1   6  109.44    7.07   2
  -1   1   6  130.68    7.71   1
   1  -1  -6  130.87    8.10   2
  -1   1   6  107.45   18.17  10
   0  -1  -6 3843.84  148.77   2
   0   1   6 3538.99  144.29   6
   0  -1  -6 3589.39  163.60  10
   0   1   6 3540.89  160.31  10
   0  -1  -6 3476.33  198.74   5
   0  -1  -6 3535.12  130.72   1
   0   1   6 3619.97  147.48   2
   0   1   6 3409.67  130.17   1
   1   1   6   10.79    2.97   1
  -1  -1  -6   28.12   12.37  10
  -1  -1  -6    6.58    1.99   5
   1   1   6   13.76    8.62  10
  -1  -1  -6   10.73    3.31   2
  -1  -1  -6    9.93    3.10   1
   1   1   6   14.36    3.17   6
  -2  -1  -6 1412.20   88.01   3
  -2  -1  -6 1298.88   89.20   5
   2   1   6 1707.93   95.87  10
  -2  -1  -6 1754.53   97.88  10
   2   1   6 1590.71   60.64   1
  -2  -1  -6 1671.98   70.65   2
  -2  -1  -6 1645.94   61.33   1
   2   1   6 1554.42   66.68   6
  -3  -1  -6  201.47   11.94   1
   3   1   6  163.28   27.60  10
  -3  -1  -6  180.32   13.67   2
   3   1   6  192.55   11.64   1
   3   1   6  181.16   12.10   6
  -3  -1  -6  260.22   34.27  10
   4   1   6  708.08   30.62   1
  -4  -1  -6  627.01   35.48   2
  -4  -1  -6  716.76   30.90   1
   4   1   6  688.94   33.46   6
   5   1   6  291.30   17.57   6
   5   1   6  225.42   14.86   4
  -5  -1  -6  270.35   15.73   1
   5   1   6  265.36   15.35   1
  -6  -1  -6  176.81   12.59   1
   6   1   6  177.46   13.89   6
   6   1   6  154.72   11.75   1
   9  -2  -6    0.54    2.76   1
  -8   2   6  104.15   11.14   5
   8  -2  -6   94.27    8.09   1
  -8   2   6  100.28    8.04   1
   7  -2  -6   28.68   11.31   1
  -7   2   6   31.72    8.80   1
  -7   2   6   25.61   13.66   5
   6  -2  -6  366.89   17.67   1
  -6   2   6  368.83   17.32   1
  -6   2   6  350.08   37.56   5
  -5   2   6  215.42   26.59  10
  -5   2   6  216.01   10.99   1
  -5   2   6  235.60   15.01   5
   5  -2  -6  218.95   11.39   1
  -5   2   6  178.45   10.82   8
  -4   2   6  645.96   29.68   7
  -4   2   6  698.36   34.51   5
  -4   2   6  680.68   48.88  10
  -4   2   6  673.24   27.63   1
   4  -2  -6  657.15   30.65   2
   4  -2  -6  706.20   28.25   1
  -3   2   6  980.83   60.77  10
  -3   2   6  975.50   37.77   1
   3  -2  -6  874.79   59.61  10
  -3   2   6  977.23   46.16   5
   3  -2  -6  943.29   38.10   1
   3  -2  -6 1021.00   41.07   2
  -2   2   6  742.90   49.79  10
   2  -2  -6  638.82   51.45  11
  -2   2   6  680.78   27.49   1
   2  -2  -6  644.62   49.45  10
   2  -2  -6  691.22   27.98   1
   2  -2  -6  652.99   29.65   2
   1  -2  -6 2198.26   85.61   2
  -1   2   6 1779.71  107.67   2
  -1   2   6 2105.42   75.65   1
   1  -2  -6 1875.83  134.40   5
  -1   2   6 2013.23  102.15  10
   1  -2  -6 2059.71   76.08   1
   1  -2  -6 2066.00  106.19  10
   0   2   6  466.20   20.85   1
   0   2   6  440.96   22.09   2
   0  -2  -6  486.53   23.69   2
   0  -2  -6  460.81   24.68   5
   0  -2  -6  488.19   21.34   1
   0  -2  -6  471.98   25.95   3
   0  -2  -6  447.31   42.95  10
   0   2   6  473.00   22.75   6
   0   2   6  501.11   43.71  10
   1   2   6 2140.81   85.04   6
   1   2   6 2000.07   76.27   1
   1   2   6 2088.08  109.33  10
  -1  -2  -6 1978.73   76.62   1
  -1  -2  -6 2092.55   88.07   2
  -1  -2  -6 1974.38   95.77   3
  -1  -2  -6 1896.03  108.35  10
  -2  -2  -6   11.11    2.74   3
  -2  -2  -6   16.91    4.50   2
  -2  -2  -6   18.40    3.56   1
   2   2   6   18.46    9.53  10
  -2  -2  -6   29.77   11.88  10
   2   2   6   16.28    3.08   1
   3   2   6  962.75   43.29   6
  -3  -2  -6  930.78   45.94   2
   3   2   6  946.01   71.09  10
   3   2   6  939.96   38.95   1
  -3  -2  -6  918.08   39.26   1
  -4  -2  -6   11.93    3.32   1
   4   2   6   15.22    3.47   1
   4   2   6    9.92    3.45   6
   5   2   6  235.58   15.97   6
  -5  -2  -6  219.79   14.31   1
   5   2   6  214.74   14.62   4
   5   2   6  252.50   14.79   1
   6   2   6   39.42    6.80   6
   6   2   6   34.67    5.36   1
  -6  -2  -6   40.09    5.96   1
   7  -3  -6  477.53   22.41   1
  -7   3   6  471.70   21.90   1
  -7   3   6  480.81   28.35   5
  -6   3   6    8.35    4.31   5
   6  -3  -6    7.23    2.37   1
  -5   3   6 1176.28   70.91  10
   5  -3  -6  956.21   76.69   2
  -5   3   6 1130.80   43.59   1
   5  -3  -6 1108.40   44.04   1
  -5   3   6 1183.50   54.68   5
   4  -3  -6  122.28    7.95   1
  -4   3   6  117.68    7.50   1
  -4   3   6  111.43   18.88  10
  -4   3   6  120.28    9.64   5
  -3   3   6 1689.54   89.38  10
   3  -3  -6 1726.37   63.76   1
  -3   3   6 1701.20   63.18   1
   3  -3  -6 1549.26   89.19  10
  -3   3   6 1701.04   76.98   5
   2  -3  -6  462.44   41.06  10
   2  -3  -6  460.60   20.63   1
   2  -3  -6  399.86   43.86  11
  -2   3   6  550.78   42.50  10
  -2   3   6  481.39   23.95   5
  -2   3   6  478.94   20.29   1
   1  -3  -6 1004.71   42.70   2
   1  -3  -6  875.65   77.90  11
   1  -3  -6  989.60   64.84  10
   1  -3  -6  828.87   59.24   5
  -1   3   6 1030.30   64.33  10
   1  -3  -6  973.30   38.30   1
  -1   3   6  964.73   37.70   1
   0  -3  -6 1161.72   74.11   5
   0   3   6 1227.10   47.74   1
   0   3   6 1080.78   68.79   2
   0  -3  -6 1261.24   48.40   1
   0  -3  -6 1194.68   77.34  10
   0   3   6 1221.86   76.75  10
   0  -3  -6 1365.82   61.73   3
   0   3   6 1239.05   53.41   6
  -1  -3  -6  173.42   27.46  10
   1   3   6  183.36   12.35   6
   1   3   6  200.27   28.29  10
   1   3   6  217.10   11.58   1
  -1  -3  -6  199.17   11.69   1
  -1  -3  -6  192.09   13.40   3
   2   3   6  631.89   30.88   6
   2   3   6  616.28   53.96  10
  -2  -3  -6  648.41   28.30   1
  -2  -3  -6  595.09   33.36   3
   2   3   6  677.50   27.90   1
   3   3   6   -4.01    3.34   6
  -3  -3  -6    4.20    3.15   1
   3   3   6   -0.94    2.56   1
   4   3   6  272.47   15.45   1
  -4  -3  -6  251.43   15.41   1
   4   3   6  277.53   17.55   6
   5   3   6   18.60    5.36   6
  -5  -3  -6   18.70    4.52   1
   5   3   6   20.64    4.54   1
   6   3   6   54.81    7.29   4
   6   3   6   58.22    8.54   6
  -6  -3  -6   52.75    7.36   1
   6   3   6   61.78    7.36   1
  -8   4   6  197.81   12.10   1
  -8   4   6  203.08   16.48   5
   8  -4  -6  196.51   12.54   1
  -7   4   6  138.10    9.33   1
  -7   4   6  145.01   18.35   5
   7  -4  -6  139.80    9.83   1
  -6   4   6  652.77   27.66   1
   6  -4  -6  643.87   28.14   1
  -6   4   6  636.46   35.02   5
   5  -4  -6   48.51    5.03   1
  -5   4   6   36.49    5.85   5
  -5   4   6   48.11    4.64   1
  -4   4   6 1247.84   56.84   5
  -4   4   6 1186.45   45.79   1
  -4   4   6 1186.25   72.45  10
   4  -4  -6 1111.08   46.06   1
  -3   4   6   31.86   11.07  10
   3  -4  -6   31.93    4.09   1
  -3   4   6   23.63    3.41   1
  -3   4   6   23.15    4.06   5
   2  -4  -6 1267.49   50.16   1
  -2   4   6 1330.10   49.75   1
  -2   4   6 1307.00   59.69   5
   2  -4  -6 1238.98   77.05  10
  -2   4   6 1330.59   76.56  10
  -1   4   6  208.63   10.61   1
   1  -4  -6  191.85   10.88   1
   1  -4  -6  209.29   35.75  11
  -1   4   6  178.78   10.83   5
  -1   4   6  240.87   28.90  10
   1  -4  -6  156.69   11.92   5
   1  -4  -6  236.01   28.88  10
   1  -4  -6  208.78   15.14   3
   0  -4  -6 1301.54   49.62   1
   0   4   6 1244.43   55.38   6
   0  -4  -6 1381.54   82.86  10
   0   4   6 1207.16   77.88  10
   0  -4  -6 1181.15   62.94   3
   0   4   6 1264.90   49.03   1
   1   4   6  232.04   14.61   6
  -1  -4  -6  208.98   12.57   1
  -1  -4  -6  246.81   16.24   3
   1   4   6  239.92   31.78  10
  -1  -4  -6  208.47   29.90  10
   1   4   6  245.28   12.86   1
  -2  -4  -6  177.44   13.06   3
   2   4   6  161.64   12.16   6
  -2  -4  -6  165.81   10.99   1
   2   4   6  182.05   10.93   1
   3   4   6   93.42    7.76   1
  -3  -4  -6   97.81    8.43   1
   3   4   6   82.64    8.67   6
   4   4   6   19.12    5.17   6
  -4  -4  -6   14.51    4.24   1
   4   4   6    7.40    3.33   1
   5   4   6   24.58    5.98   6
  -5  -4  -6   11.08    3.74   1
   5   4   6    8.60    4.31   4
  -8   5   6  203.27   12.31   1
   8  -5  -6  185.82   12.55   1
  -8   5   6  188.84   15.92   5
   7  -5  -6  206.15   12.56   1
  -7   5   6  200.45   15.83   5
  -7   5   6  203.19   11.95   1
  -6   5   6  202.65   11.48   1
  -6   5   6  192.44   14.90   5
   6  -5  -6  194.94   11.82   1
  -5   5   6  428.27   40.22  10
  -5   5   6  420.74   19.25   1
   5  -5  -6  418.84   19.86   1
  -5   5   6  448.51   25.04   5
  -4   5   6   73.58    7.43   5
   4  -5  -6   71.90    5.87   1
  -4   5   6   71.06    5.53   1
  -3   5   6  380.94   37.52  10
  -3   5   6  433.91   18.59   1
  -3   5   6  399.59   22.48   5
   3  -5  -6  425.06   19.16   1
  -2   5   6   82.15   69.60   1
   2  -5  -6  229.51   75.52   1
  -2   5   6   28.80   95.77  10
   2  -5  -6   75.25   96.73  10
  -2   5   6  139.33   68.29   5
  -1   5   6  149.18   23.30  10
   1  -5  -6  141.31   13.00   3
  -1   5   6  169.89    9.12   1
   1  -5  -6  159.48    9.44   1
  -1   5   6  139.59    9.00   5
   1  -5  -6  136.17   22.89  10
   1  -5  -6   98.52   26.82  11
   0  -5  -6   64.42    8.03   3
   0  -5  -6   76.97   18.09  10
   0  -5  -6   60.47    5.75   1
   0   5   6   41.87   13.05  10
   0   5   6   63.84    5.52   1
   0   5   6   55.98    6.62   6
   1   5   6   16.26    3.17   1
  -1  -5  -6   16.19    4.40   3
  -1  -5  -6    9.63    2.91   1
  -2  -5  -6   34.17    5.94   3
   2   5   6   48.72    6.52   6
  -2  -5  -6   38.95    5.28   1
   2   5   6   38.43    4.92   1
   3   5   6    3.08    3.94   6
   3   5   6    9.32    3.13   1
  -3  -5  -6   10.90    3.88   1
  -4  -5  -6   21.64    4.91   1
  -5  -5  -6    8.20    3.80   1
   5   5   6   13.46    5.61   6
   5   5   6    9.26    3.88   4
  -8   6   6   -0.54    4.50   1
   7  -6  -6  163.23   11.15   1
  -7   6   6  165.20   14.19   5
  -7   6   6  172.62   10.86   1
   6  -6  -6   32.74    4.83   1
  -6   6   6   29.65    5.51   5
  -6   6   6   36.38    4.46   1
  -5   6   6  115.91    7.72   1
  -5   6   6  106.62   19.69  10
   5  -6  -6  108.43    8.00   1
  -5   6   6  119.33   10.66   5
   4  -6  -6   85.00   12.23   3
  -4   6   6   64.96    7.21   5
  -4   6   6   67.91    5.43   1
   4  -6  -6   63.68    5.69   1
  -3   6   6   40.22    4.23   1
   3  -6  -6   58.53    9.64   3
  -3   6   6   40.40    5.22   5
   3  -6  -6   38.83    4.67   1
  -2   6   6   34.18   12.13  10
   2  -6  -6   39.44    4.32   1
  -2   6   6   36.22    4.51   5
  -1   6   6    1.70    1.92   1
   1  -6  -6    3.90    4.13   3
   0   6   6    0.71    1.90   1
   0   6   6    6.75    3.95   6
   0  -6  -6    0.05    3.31   3
   0  -6  -6   -2.16    2.54   1
  -1  -6  -6   -2.80    2.64   1
   1   6   6    3.36    2.79   6
   1   6   6    7.07    2.63   1
  -2  -6  -6   14.38    3.81   1
   2   6   6   17.00    4.85   6
  -2  -6  -6   15.03    4.77   3
  -3  -6  -6    2.27    2.82   1
   3   6   6    7.12    3.64   6
  -7   7   6   -0.61    2.71   5
   7  -7  -6    4.32    3.49   1
   6  -7  -6   38.94    5.16   1
  -6   7   6   31.24    6.17   5
   6  -7  -6   46.20   11.00   3
  -6   7   6   32.63    4.31   1
  -5   7   6    4.41    1.89   1
   5  -7  -6    5.66    2.35   1
   5  -7  -6    3.01    6.43   3
   4  -7  -6   13.45    5.70   3
  -4   7   6    1.64    1.77   1
  -4   7   6    2.96    3.01   5
   3  -7  -6   -3.63    9.23   3
   3  -7  -6   -2.33    2.46   1
  -3   7   6    1.52    1.83   1
  -3   7   6    2.32    2.47   5
  -2   7   6   61.01   18.81   5
   2  -7  -6   60.56   11.88   1
   1  -7  -6    4.25    4.26   3
   1  -7  -6   -1.55    2.41   1
   0   7   6   38.25    6.48   6
   0  -7  -6   42.85    4.69   1
   0  -7  -6   30.31    6.74   3
  -1  -7  -6   10.05    3.05   1
  -1  -7  -6    9.35    4.23   3
   1   7   6    5.35    4.05   6
  -2  -7  -6   21.66    5.65   3
  -2  -7  -6   19.93    4.29   1
  -3  -7  -6    5.00    3.41   1
   3   7   6    6.75    4.35   6
  -6   8   6    0.50    3.45   5
   6  -8  -6   -0.77    2.96   1
   6  -8  -6    7.37    7.61   3
   5  -8  -6   15.44    7.02   3
  -5   8   6   11.85    3.97   5
   5  -8  -6    4.82    3.09   1
  -4   8   6    0.95    2.05   5
   4  -8  -6    0.50    1.76   1
   4  -8  -6    6.32    6.25   3
   3  -8  -6   29.29    7.40   3
  -3   8   6   30.99    4.84   5
   3  -8  -6   32.65    4.25   1
   2  -8  -6   23.97    6.66   1
   1  -8  -6   32.25    6.93   3
   1  -8  -6   36.98    4.29   1
  -1   8   6   39.60    6.78   6
   0   8   6   20.95    5.68   6
   0  -8  -6   26.22    6.53   3
   0  -8  -6   20.43    3.68   1
  -1  -8  -6    8.43    5.03   3
   1   8   6   23.10    5.51   6
  -1  -8  -6   15.12    3.44   1
   2   8   6   12.68    4.84   6
  -2  -8  -6    8.78    3.24   1
  -2  -8  -6    6.18    3.67   3
  -5   9   6    4.40    3.40   5
   4  -9  -6   20.74    3.60   1
  -4   9   6   24.20    4.90   5
   4  -9  -6   30.81    9.08   3
   3  -9  -6    1.37    5.40   3
   3  -9  -6   -0.16    2.33   1
   2  -9  -6   17.02    3.25   1
   1  -9  -6    8.18    4.99   3
   1  -9  -6    0.64    1.89   1
   0  -9  -6    7.68    2.63   1
   0   9   6    2.20    4.16   6
   1  11  -7  156.91   16.15   5
   1  11  -7  160.38   13.79   2
   0 -11   7    0.98    3.19   9
   0  11  -7    0.79    3.47   5
   0  11  -7    1.84    4.06   2
  -1  11  -7  106.85   12.86   5
   1 -11   7  120.12   12.63   9
   1 -11   7   97.29   10.03   7
  -1  11  -7  117.79   12.04   2
   2 -11   7   23.76    5.45   7
   2 -11   7   20.03    6.20   9
  -2  11  -7   32.64    7.18   2
   3  10  -7  107.53   17.04   4
   3  10  -7   92.41   10.17   2
  -3 -10   7   92.75   11.68   9
  -2 -10   7   93.33   11.47   9
   2  10  -7   98.35   10.28   2
   2  10  -7   87.96    8.24   4
  -1 -10   7   35.28    7.26   9
  -1 -10   7   26.71    5.02   7
   1  10  -7   31.36    6.27   2
   1  10  -7   36.56    4.36   4
   0 -10   7  166.20   14.72   9
   0 -10   7  163.21   12.65   7
   0  10  -7  172.32   13.89   2
   0  10  -7  166.39   15.97   5
  -1  10  -7    0.14    4.62   5
   1 -10   7    1.02    2.76   9
  -2  10  -7   61.55    9.61   5
  -2  10  -7   46.10    7.98   2
   2 -10   7   54.79    8.15   9
   2 -10   7   51.78    7.49   7
   3 -10   7   11.65    2.83   1
  -3  10  -7    2.77    4.59   5
  -3  10  -7   18.20    5.14   2
  -4  10  -7    1.63    4.62   2
   4 -10   7   11.89    3.28   1
   4   9  -7   66.54    7.43   4
   4   9  -7   56.85    7.74   2
   3   9  -7    3.05    3.99   4
   2   9  -7   70.82    8.14   2
   2   9  -7   89.28    8.09   4
   1   9  -7   21.92   15.95  11
   1   9  -7   12.21    4.05   2
   1   9  -7    6.71    2.04   4
  -1  -9   7    9.02    2.93   7
   0  -9   7   -4.56    3.02   7
   0  -9   7    0.85    0.65   1
   0   9  -7   -1.46    1.12   4
   0  -9   7    2.79    2.99   9
   1  -9   7   10.93    3.95   7
   1  -9   7    1.37    2.73   9
   2  -9   7   16.07    2.94   1
   2  -9   7   25.47    5.71   9
  -2   9  -7   17.92    5.96   5
  -2   9  -7   14.80    5.53   2
   3  -9   7   10.78    4.75   9
  -3   9  -7   -1.54    4.42   2
   3  -9   7   -4.11   10.29   7
  -3   9  -7   -0.25    4.15   5
   3  -9   7    6.31    2.47   1
  -4   9  -7   18.50    6.37   5
  -4   9  -7   24.64    6.81   2
   4  -9   7   22.04    6.08   7
   4  -9   7   34.00    4.71   1
  -5   9  -7    5.79    4.48   2
  -5   9  -7    4.08    3.86   5
   5   8  -7   37.93    6.65   2
   5   8  -7   30.88    5.56   4
  -5  -8   7   29.03    3.29   1
  -5  -8   7   33.23    6.72   8
   4   8  -7    3.70    3.69   2
   4   8  -7   10.44    3.53   4
   3   8  -7   18.37    3.68   4
   3   8  -7   18.74    4.71   2
   2   8  -7   70.42   11.17   2
   2   8  -7   25.71   27.42  11
   1   8  -7    1.81    1.48   4
   1   8  -7   -2.11    7.22  11
  -1  -8   7   -1.32    1.20   1
  -1  -8   7    1.88    2.16   7
   1   8  -7    0.95    2.24   2
   0  -8   7   22.29    2.61   1
   0  -8   7   20.04    5.55   9
   0   8  -7   24.38    5.09   2
   0   8  -7   24.29    2.98   4
   0  -8   7   17.84    4.01   7
   1  -8   7   26.17    3.41   1
  -1   8  -7   34.74    6.29   2
  -1   8  -7   21.12    5.89   5
   1  -8   7   34.09    5.89   9
   1  -8   7   33.39    5.47   7
  -2   8  -7   15.28    4.93   5
  -2   8  -7    7.91    3.84   2
   2  -8   7    9.73    4.26   7
   3  -8   7   39.09    4.91   1
  -3   8  -7   32.74    7.05   5
   3  -8   7   41.46    7.32   7
  -3   8  -7   39.49    6.71   2
  -4   8  -7    1.07    4.11   5
   4  -8   7    4.05    2.97   1
  -4   8  -7    1.28    3.50   2
  -5   8  -7   20.96    5.73   5
  -5   8  -7   21.08    5.66   2
   5  -8   7   24.52    4.81   1
   5  -8   7   25.52    6.90   7
  -6  -7   7    0.67    1.85   1
   6   7  -7   -2.12    4.52   4
  -5  -7   7   11.27    2.43   1
   5   7  -7    9.69    3.45   4
   5   7  -7   15.30    4.69   2
  -5  -7   7   17.37    4.69   8
   4   7  -7   14.24    4.33   2
   3   7  -7    4.46   15.30   4
  -3  -7   7    1.20   18.36   7
  -3  -7   7    8.61    5.35  10
  -2  -7   7   14.72    3.05   7
   2   7  -7   19.14    4.40   2
   2   7  -7   19.25   12.51  11
  -2  -7   7   24.62    2.70   1
   1   7  -7   -0.82    2.07   2
   1   7  -7   -3.25    2.20   4
  -1  -7   7    3.92    1.50   1
   0  -7   7  114.87    9.01   7
   0   7  -7   94.20    6.35   1
   0  -7   7   97.38    6.19   1
   0   7  -7   90.36    8.68   2
   0   7  -7   99.28    7.00   4
   1  -7   7    7.25    2.13   1
   1  -7   7    3.90    2.62   7
  -1   7  -7   23.08    9.64  10
   1  -7   7    6.00    3.14   9
  -2   7  -7  127.22   11.73   2
  -2   7  -7  112.65   11.01   1
  -2   7  -7   99.57   10.74   5
   2  -7   7  136.20   11.18   9
   2  -7   7  106.36   11.59   1
   3  -7   7   -1.75    2.47   1
   3  -7   7   -2.59   17.11   7
  -3   7  -7   -0.48    2.43   1
  -3   7  -7    4.88    3.40   5
   3  -7   7    1.08    2.35   9
  -4   7  -7   39.87    6.97   2
   4  -7   7   48.28    5.84   1
  -4   7  -7   40.55    5.25   1
   4  -7   7   45.36    7.46   7
  -4   7  -7   36.96    6.54   5
   5  -7   7    7.70    4.16   7
  -5   7  -7    1.53    2.92   5
  -5   7  -7    4.72    3.70   2
   5  -7   7   -3.49    3.27   1
  -6   7  -7    5.91    3.60   5
   6  -7   7   10.52    5.70   7
   6  -7   7   11.17    3.44   1
  -7  -6   7   -1.70    2.34   1
  -7  -6   7   -0.65    2.63   8
   6   6  -7    8.57    4.26   4
  -5  -6   7    2.92   20.22   1
   5   6  -7   21.74   22.02   4
   4   6  -7   25.98    4.90   4
   4   6  -7   17.49    3.98   2
  -4  -6   7   23.04    3.04   1
   3   6  -7   14.21    3.54   4
  -3  -6   7   10.39    2.40   7
   3   6  -7   10.79    2.16   1
  -3  -6   7    9.32    2.06   1
   2   6  -7   75.95   20.64  11
   2   6  -7   70.58    7.24   2
   2   6  -7   66.54    4.93   1
  -2  -6   7   64.68    4.76   1
   2   6  -7   72.93   13.87  10
  -2  -6   7   83.06    6.26   7
   1   6  -7   11.13    2.28   1
  -1  -6   7    9.51    2.10   1
   1   6  -7   12.73    3.61   4
   1   6  -7   32.37    9.98  10
  -1  -6   7   12.40    3.05   7
  -1  -6   7    1.90    4.54  10
   0  -6   7   99.27    6.68   1
   0  -6   7   95.92    8.41   7
   0   6  -7  108.96    7.05   1
   0   6  -7   96.04    9.01   2
   0   6  -7  133.72   20.96  10
   0  -6   7   95.38   18.02  10
   1  -6   7   -7.33    6.87  10
  -1   6  -7   -6.04    6.32  10
   1  -6   7    2.16    1.85   1
   1  -6   7    7.11    3.60   7
   2  -6   7   98.95   15.96   1
  -2   6  -7   56.73   15.41   1
   2  -6   7   56.79   52.77  10
  -2   6  -7  139.17   36.67   2
  -2   6  -7  152.42   35.84   5
  -2   6  -7   92.35   21.09  10
   3  -6   7   14.38    3.49   1
  -3   6  -7   10.22    4.98   2
  -3   6  -7   20.78   11.02  10
   3  -6   7    7.75    3.47   9
   3  -6   7   15.56   10.13  10
  -3   6  -7   15.85    3.49   1
   4  -6   7   24.85    4.48   1
  -4   6  -7   17.85    5.68   2
  -4   6  -7   23.01    5.07   5
  -4   6  -7   29.21    4.70   1
  -5   6  -7   12.20    3.75   1
   5  -6   7    6.11    3.39   1
  -5   6  -7   12.05    4.95   5
  -5   6  -7   26.14    6.10   2
  -6   6  -7   35.13    5.66   1
   6  -6   7   41.42    6.21   1
  -6   6  -7   41.61    7.29   5
  -6   6  -7   40.78    7.88   2
   7   5  -7   -3.93    4.09   4
  -7  -5   7   -2.93    2.47   1
  -7  -5   7    3.47    2.81   8
   6   5  -7    1.30    2.61   4
  -6  -5   7   -2.84    1.93   1
  -5  -5   7    2.31    3.96   1
   5   5  -7    1.89    4.75   1
   5   5  -7    5.66    6.23   4
  -4  -5   7    6.12    2.05   1
   4   5  -7    8.82   11.91   2
  -4  -5   7    2.66    2.29   8
   4   5  -7    4.50   10.51   4
   4   5  -7   -0.27    1.63   1
  -3  -5   7    5.62    6.25  10
  -3  -5   7    1.22    1.23   1
  -3  -5   7    5.08    1.66   7
   3   5  -7    2.36    1.36   1
   3   5  -7    2.43    5.74  11
   3   5  -7    1.05    2.37   4
  -2  -5   7   20.57    8.69  10
  -2  -5   7    6.71    1.95   1
   2   5  -7    1.70    2.62   2
   2   5  -7   23.62   10.84  11
   2   5  -7    6.48    5.86  10
  -1  -5   7    9.25    2.25   1
   1   5  -7    8.24    2.22   1
  -1  -5   7    6.43    2.04   1
  -1  -5   7    4.32    2.32   7
   1   5  -7   -0.52    5.19  10
  -1  -5   7   13.62    7.72  10
   1   5  -7    5.66    2.48   2
   0   5  -7   38.52   12.68  10
   0   5  -7   15.96    3.08   1
   0  -5   7    7.23    7.23  10
   0  -5   7    9.37    2.45   1
   0  -5   7   11.52    2.78   1
   1  -5   7    8.68    2.89   1
   1  -5   7   14.05    2.10   4
  -1   5  -7   14.16    2.85   3
  -1   5  -7   14.61    3.31   1
   1  -5   7    9.94    6.98  10
  -1   5  -7   15.80    9.99  10
   2  -5   7   58.63   15.85  10
  -2   5  -7   62.93    7.94   2
  -2   5  -7   60.40    7.75   5
  -2   5  -7   60.21   16.11  10
  -2   5  -7   56.56    5.70   1
   2  -5   7   75.18    7.36   9
   2  -5   7   61.57    5.67   1
  -3   5  -7   18.54    4.99   5
   3  -5   7   14.61   10.82   1
  -3   5  -7   56.65   16.96  10
   3  -5   7   20.89    4.12   9
  -3   5  -7   27.71    4.36   1
  -3   5  -7   18.71    7.30   2
   3  -5   7   24.15   10.83  10
   4  -5   7  101.14    8.23   1
   4  -5   7  101.48   22.64  10
  -4   5  -7   92.06   21.57  10
  -4   5  -7  121.64   10.81   5
  -4   5  -7   96.04   10.39   2
  -4   5  -7  106.64    8.37   1
  -5   5  -7   30.68    5.57   5
  -5   5  -7   24.18    6.45   2
  -5   5  -7   43.31    5.74   1
   5  -5   7   35.67    5.33   1
  -6   5  -7   87.51    9.76   5
  -6   5  -7   85.22   10.31   2
   6  -5   7   92.12    8.69   1
  -6   5  -7   64.63    7.51   1
  -7  -4   7    5.16    3.32   8
  -7  -4   7    2.96    2.60   1
   6   4  -7   12.69    2.67   1
  -6  -4   7    8.02    2.38   1
   6   4  -7    5.43    8.05   4
  -5  -4   7   18.62    7.70   1
   5   4  -7   19.90    5.98   1
   5   4  -7    9.46    9.64   4
  -5  -4   7   19.54    4.05   8
   4   4  -7    7.67   32.50   2
   4   4  -7    8.38   18.31   4
  -4  -4   7    2.82    4.89  10
   4   4  -7    4.65   12.71   1
  -4  -4   7    0.01    5.39   8
  -4  -4   7    9.00    2.40   1
   3   4  -7   85.09   16.08  11
  -3  -4   7   74.49   15.49  10
   3   4  -7   50.93   12.63  10
  -3  -4   7   68.77    5.17   1
   3   4  -7   72.56    6.57   2
   3   4  -7   76.13    5.45   1
  -3  -4   7   64.58    4.85   7
   3   4  -7   70.62    6.75   4
   2   4  -7   53.30    5.72   2
   2   4  -7   46.86    4.37   1
   2   4  -7   55.99   13.44  10
  -2  -4   7   41.50   12.42  10
  -2  -4   7   62.46    4.72   1
  -2  -4   7   50.78    4.75   7
   1   4  -7  216.28   11.28   1
  -1  -4   7  213.25   10.96   1
  -1  -4   7  217.51   27.04  10
   1   4  -7  213.23   13.16   2
   1   4  -7  211.71   26.21  10
   0  -4   7  268.51   13.44   1
   0  -4   7  244.04   30.16  10
   0   4  -7  244.10   15.57   2
   0   4  -7  277.35   13.71   1
   0   4  -7  264.77   31.95  10
  -1   4  -7  460.06   20.49   1
  -1   4  -7  457.91   24.36   2
   1  -4   7  449.41   21.02   4
  -1   4  -7  430.32   42.79  10
   1  -4   7  448.88   42.34  10
  -1   4  -7  384.14   23.16   3
   1  -4   7  431.26   19.94   1
  -2   4  -7  140.82   48.71  10
  -2   4  -7  150.50   34.59   2
  -2   4  -7  139.62   34.80   1
   2  -4   7  198.89   30.24   1
   2  -4   7  100.12   48.57  10
  -2   4  -7  265.58   57.21   5
   3  -4   7  508.22   50.02  10
   3  -4   7  498.80   23.81   1
  -3   4  -7  505.22   23.88   1
  -3   4  -7  501.62   49.61  10
  -3   4  -7  537.91   29.13   5
  -3   4  -7  541.65   28.95   2
   3  -4   7  546.69   26.97   9
  -4   4  -7   12.74    3.62   1
  -4   4  -7    3.47    3.14   5
   4  -4   7    6.35    2.24   9
  -4   4  -7    1.20    9.48  10
   4  -4   7    5.33    9.02  10
  -5   4  -7  382.84   24.46   2
  -5   4  -7  399.50   23.85   5
  -5   4  -7  396.00   20.60   1
   5  -4   7  417.69   20.83   1
  -6   4  -7   24.41    4.88   1
  -6   4  -7    5.98    4.96   2
   8   3  -7   12.57    4.39   4
  -8  -3   7   10.08    3.59   1
   7   3  -7   20.76    5.43   4
  -7  -3   7   32.97    5.30   8
   7   3  -7   27.83    4.03   1
  -7  -3   7   20.72    3.70   1
   6   3  -7   -5.91   22.55   4
   6   3  -7   -0.53    2.16   1
  -6  -3   7    0.97    1.85   8
  -6  -3   7   -1.43    2.22   1
  -5  -3   7  120.93    9.15   1
  -5  -3   7  149.94   22.51  10
   5   3  -7  126.69   13.43   1
  -5  -3   7  130.11    9.77   8
   5   3  -7  113.86    9.98   4
  -4  -3   7    3.00    5.49  10
   4   3  -7    0.45    1.69   1
  -4  -3   7    7.62    2.25   1
   4   3  -7    2.83    3.17   4
  -3  -3   7  297.96   16.11   7
  -3  -3   7  364.26   34.22  10
   3   3  -7  361.55   16.01   1
   3   3  -7  347.96   18.35   2
  -3  -3   7  361.86   17.58   6
   3   3  -7  354.06   34.12  10
  -3  -3   7  345.42   15.65   1
  -2  -3   7   69.49    5.13   1
  -2  -3   7   78.11   15.69  10
   2   3  -7   86.45   16.50  10
  -2  -3   7   62.93    4.60   6
   1   3  -7  616.68   29.40   2
  -1  -3   7  600.49   47.81  10
   1   3  -7  567.76   47.31  10
  -1  -3   7  602.92   25.30   1
   1   3  -7  614.33   25.74   1
   0   3  -7  630.54   31.13   2
   0   3  -7  635.91   27.08   1
   0  -3   7  635.07   26.77   1
   0   3  -7  626.12   51.94  10
   0  -3   7  600.07   49.92  10
  -1   3  -7  537.80   49.08  10
   1  -3   7  578.15   26.79   4
   1  -3   7  589.41   24.81   1
  -1   3  -7  573.10   28.99   2
  -1   3  -7  582.15   25.13   1
   1  -3   7  558.01   48.87  10
  -1   3  -7  490.18   36.05   3
  -2   3  -7  693.87   30.43   1
  -2   3  -7  751.92   36.02   2
  -2   3  -7  677.55   35.95   5
   2  -3   7  768.73   59.38  10
  -2   3  -7  690.34   57.60  10
   2  -3   7  689.72   38.76   4
   2  -3   7  705.65   30.14   1
  -3   3  -7  215.55   12.42   6
   3  -3   7  274.82   35.97  10
  -3   3  -7  267.13   16.22   5
   3  -3   7  245.23   14.20   9
  -3   3  -7  230.18   16.22   2
  -3   3  -7  249.61   13.83   1
  -3   3  -7  299.00   37.00  10
   3  -3   7  250.47   13.84   1
  -4   3  -7  609.77   33.28   2
  -4   3  -7  639.57   28.47   1
   4  -3   7  659.84   28.62   1
  -4   3  -7  572.45   32.02   5
   4  -3   7  629.14   59.54  10
  -5   3  -7   29.44    4.78   5
  -5   3  -7   43.66    5.96   1
   5  -3   7   29.55    5.18   1
  -5   3  -7   47.21    7.64   2
  -6   3  -7  303.61   17.81   1
   6  -3   7  322.99   18.07   1
  -6   3  -7  295.07   21.29   2
   8   2  -7   20.25    4.17   1
  -8  -2   7   11.59    3.82   8
  -8  -2   7    9.00    3.49   1
   7   2  -7   31.95   14.82   1
  -7  -2   7   30.01    7.66   8
  -7  -2   7   31.76   10.95   1
  -6  -2   7  161.31    9.96   1
  -6  -2   7  162.38   11.62   8
   6   2  -7  163.38   10.10   1
  -6  -2   7  151.30   24.82  10
  -5  -2   7   25.64    3.93   8
  -5  -2   7   41.38   12.66  10
  -5  -2   7   30.96    3.93   1
   5   2  -7   33.70    9.91   1
  -4  -2   7  564.81   45.87  10
  -4  -2   7  533.79   38.66   7
   4   2  -7  618.03   28.83   2
  -4  -2   7  622.46   25.34   1
   4   2  -7  644.51   25.80   1
   3   2  -7   12.36    2.96   2
   3   2  -7   15.67    7.76  10
  -3  -2   7    7.60    1.98   1
  -3  -2   7   11.07    2.37   6
   3   2  -7   14.19    2.50   1
  -3  -2   7    8.89    6.88  10
   2   2  -7 1438.96   82.80  10
  -2  -2   7 1418.07   80.57  10
   2   2  -7 1499.88   63.50   2
  -2  -2   7 1472.90   55.69   1
   2   2  -7 1476.52   56.06   1
   1   2  -7   22.90    3.66   1
   1   2  -7   25.42    3.79   2
  -1  -2   7   23.79    9.57  10
   1   2  -7   26.15   11.34  10
  -1  -2   7   23.17    3.46   1
   0  -2   7 3114.98  125.47   6
   0   2  -7 3044.70  148.68  10
   0   2  -7 3070.27  130.35   2
   0  -2   7 3197.55  148.36  10
   0   2  -7 3141.48  114.45   1
   0  -2   7 3013.54  113.86   1
   1  -2   7  210.94   10.66   6
  -1   2  -7  218.08   14.18   2
   1  -2   7  205.88   11.60   1
  -1   2  -7  196.03   28.54  10
   1  -2   7  208.10   28.43  10
  -1   2  -7  200.59   11.81   1
  -2   2  -7 1013.34   50.77   5
  -2   2  -7 1055.65   49.84   2
  -2   2  -7 1076.12   43.61   1
   2  -2   7 1088.13   74.78  10
  -2   2  -7  960.65   72.05  10
   2  -2   7 1069.65   43.15   1
   2  -2   7 1175.77   46.21   6
  -3   2  -7  370.83   21.26   5
   3  -2   7  404.61   19.42   1
   3  -2   7  372.78   19.59   9
   3  -2   7  351.92   41.85  10
  -3   2  -7  376.08   42.97  10
  -3   2  -7  398.66   22.83   2
  -3   2  -7  375.83   19.15   1
   3  -2   7  413.87   20.18   6
  -4   2  -7  292.08   17.85   5
   4  -2   7  323.13   17.00   1
  -4   2  -7  298.91   16.70   1
   4  -2   7  352.95   18.56   6
  -4   2  -7  295.33   19.68   2
   5  -2   7  293.36   16.86   1
  -5   2  -7  272.56   19.95   2
  -5   2  -7  289.68   16.84   1
   5  -2   7  328.54   18.97   6
  -6   2  -7   30.28    6.95   2
   6  -2   7   30.99    5.48   1
  -8  -1   7  132.86    9.68   1
   8   1  -7  135.94    9.97   1
  -7  -1   7   83.96    7.65   8
  -7  -1   7   87.12    7.22   1
   7   1  -7   84.41    7.30   1
  -6  -1   7  349.45   38.24  10
  -6  -1   7  406.04   18.95   1
   6   1  -7  403.57   19.12   1
  -6  -1   7  411.80   21.83   8
   5   1  -7  446.35   19.70   1
  -5  -1   7  425.24   39.69  10
  -5  -1   7  414.59   22.13   8
  -5  -1   7  426.44   19.21   1
  -4  -1   7  646.66   26.72   1
   4   1  -7  643.09   27.05   1
  -4  -1   7  623.47   48.34  10
   4   1  -7  641.74   29.77   2
  -3  -1   7 1250.78   74.48  10
   3   1  -7 1467.75   57.16   2
  -3  -1   7 1314.86   50.10   1
   3   1  -7 1150.97   73.69  10
   3   1  -7 1286.85   50.41   1
   2   1  -7  446.15   20.58   1
   2   1  -7  462.95   42.18  10
  -2  -1   7  461.48   39.59  10
   2   1  -7  501.14   22.91   2
  -2  -1   7  451.64   20.30   1
   1   1  -7 2141.63   82.21   1
  -1  -1   7 2270.96  112.09  10
   1   1  -7 2243.43   93.35   2
   1   1  -7 2162.94  114.37  10
  -1  -1   7 2168.51   81.89   1
   0   1  -7   89.76    7.78   2
   0   1  -7   98.30   19.96  10
   0   1  -7   87.76    6.90   1
   0  -1   7   86.30    6.61   1
   0  -1   7   98.39   19.26  10
   0  -1   7   80.00    5.52   6
   1  -1   7 1936.66   76.07   6
  -1   1  -7 1715.47  103.08  10
  -1   1  -7 1847.43   80.59   2
  -1   1  -7 1800.17   70.66   1
   1  -1   7 1901.24  104.27  10
   1  -1   7 1853.15   70.35   1
  -2   1  -7   69.39   18.39  10
  -2   1  -7   59.93    5.84   5
   2  -1   7   81.54   19.54  10
  -2   1  -7   55.88    6.12   1
   2  -1   7   60.95    6.02   1
  -2   1  -7   53.55    7.02   2
   2  -1   7   66.22    5.61   6
   3  -1   7  782.89   65.04  10
  -3   1  -7  769.51   64.61  10
   3  -1   7  776.11   35.29   6
  -3   1  -7  773.26   37.03   5
  -3   1  -7  774.44   38.61   2
   3  -1   7  769.00   33.11   1
  -3   1  -7  759.93   33.30   1
   3  -1   7  754.31   35.13   9
  -4   1  -7  141.58   10.50   1
   4  -1   7  140.22   10.35   1
   4  -1   7  164.56   11.39   6
  -4   1  -7  145.53   12.79   2
  -5   1  -7  158.71   14.32   2
   5  -1   7  184.60   12.49   1
   5  -1   7  187.48   13.27   6
  -5   1  -7  175.67   12.30   1
   6  -1   7   98.55    9.77   6
   6  -1   7   87.91    8.92   1
  -6   1  -7   96.18    9.43   1
  -6   1  -7   96.60   11.73   2
  -8   0   7    3.10    3.85   1
   7   0  -7  427.35   20.55   1
  -7   0   7  407.48   22.63   8
  -7   0   7  436.79   20.24   1
  -6   0   7   61.06    5.59   1
   6   0  -7   75.58    6.26   1
  -6   0   7   64.01    5.59   8
  -6   0   7   84.25   18.41  10
  -5   0   7  736.51   55.25  10
   5   0  -7  752.05   34.97   2
   5   0  -7  788.86   32.16   1
  -5   0   7  788.97   31.77   1
  -5   0   7  784.42   36.74   8
   4   0  -7  377.88   19.04   2
  -4   0   7  390.93   17.71   1
  -4   0   7  423.92   38.22  10
   4   0  -7  399.68   18.12   1
   4   0  -7  354.30   36.29  10
   3   0  -7  751.85   56.10  10
  -3   0   7  808.00   32.85   1
   3   0  -7  828.66   33.36   1
   3   0  -7  869.47   36.63   2
  -3   0   7  787.42   55.37  10
  -2   0   7  950.74   39.34   1
   2   0  -7 1095.02   44.54   2
   2   0  -7  976.39   39.85   1
   2   0  -7  947.15   66.15  10
  -2   0   7 1018.38   64.06  10
  -1   0   7  342.57   35.34  10
  -1   0   7  359.36   17.02   1
   1   0  -7  357.04   17.34   1
   1   0  -7  377.91   18.91   2
   1   0  -7  339.35   37.49  10
   0   0  -7 1812.04  103.59  10
   0   0   7 1780.24   74.66   6
   0   0  -7 1894.38   69.53   1
   0   0   7 1787.52   68.80   1
   0   0   7 1639.34   98.19  10
   0   0  -7 1885.08   78.38   2
  -1   0  -7   41.21   14.65  10
  -1   0  -7   31.58    4.63   1
  -1   0  -7   32.71    3.71   3
   1   0   7   39.07    4.18   6
   1   0   7   39.16   13.56  10
  -1   0  -7   45.10    5.75   2
   1   0   7   36.53    4.53   1
  -2   0  -7  457.53   23.80   5
   2   0   7  497.83   23.42   6
  -2   0  -7  476.56   22.74   1
  -2   0  -7  480.53   48.12  10
   2   0   7  523.18   49.63  10
  -2   0  -7  463.73   25.62   2
   2   0   7  485.80   22.34   1
   3   0   7    2.02    2.83   6
   3   0   7   25.19   12.08  10
  -3   0  -7    8.57    4.07   2
   3   0   7   12.48    3.41   1
  -3   0  -7    1.31    2.89   1
  -3   0  -7    7.12    1.78   5
   4   0   7   82.79    7.89   6
  -4   0  -7   63.14    8.60   2
   4   0   7   63.58    6.99   1
  -4   0  -7   80.45    7.67   1
  -5   0  -7   23.27    5.94   2
   5   0   7   16.45    3.96   1
   5   0   7   33.43    5.80   6
  -5   0  -7   23.24    4.45   1
  -6   0  -7    6.05    3.96   1
   6   0   7    5.52    3.93   1
   6   0   7    2.60    5.80   6
   8  -1  -7  292.47   16.36   1
  -8   1   7  295.35   16.12   1
   7  -1  -7   49.65    5.86   1
  -7   1   7   45.84    7.50   1
   6  -1  -7  766.11   32.54   1
  -6   1   7  772.72   32.21   1
  -5   1   7   24.85   10.72  10
  -4   1   7 1023.04   67.19  10
   4  -1  -7 1118.27   43.14   1
  -4   1   7 1127.11   42.69   1
   4  -1  -7 1048.00   48.85   2
   4  -1  -7 1059.38   70.00  10
   3  -1  -7   90.34   18.41  10
   3  -1  -7   84.71    5.92   2
  -3   1   7   64.86   14.97  10
  -3   1   7   84.50    6.30   1
   3  -1  -7   85.02    6.61   1
   2  -1  -7  792.01   59.82  10
  -2   1   7  803.73   32.88   1
   2  -1  -7  853.95   33.63   1
  -2   1   7  828.09   56.90  10
   2  -1  -7  766.82   43.11   2
   1  -1  -7  245.95   31.95  10
   1  -1  -7  275.33   14.57   1
  -1   1   7  283.88   32.10  10
  -1   1   7  293.10   14.74   2
   1  -1  -7  304.43   15.81   2
  -1   1   7  285.31   14.26   1
   0   1   7  272.10   33.25  10
   0   1   7  311.10   15.30   1
   0  -1  -7  300.52   15.49   1
   0  -1  -7  322.83   37.38  10
   0  -1  -7  310.50   17.14   2
   0  -1  -7  284.50   17.44   5
   0   1   7  304.80   15.82   6
  -1  -1  -7  268.14   16.52   2
  -1  -1  -7  265.45   15.66   3
   1   1   7  280.57   14.47   1
  -1  -1  -7  259.92   34.76  10
  -1  -1  -7  270.28   14.74   1
   1   1   7  277.54   34.17  10
   1   1   7  274.05   14.98   6
   2   1   7    9.20    2.61   1
  -2  -1  -7    7.92    3.22   2
  -2  -1  -7    3.50    3.26   3
  -2  -1  -7   11.70    3.13   1
  -2  -1  -7    2.08    6.07  10
   2   1   7   15.58   10.67  10
  -2  -1  -7   13.70   11.07   5
   3   1   7   95.60    8.13   6
   3   1   7  101.90    8.22   1
  -3  -1  -7   90.49    8.20   1
  -3  -1  -7   90.10    9.47   2
  -4  -1  -7   14.00    4.21   1
  -4  -1  -7    4.30    4.13   2
   4   1   7   12.57    3.48   6
  -5  -1  -7   12.34    3.75   1
   5   1   7   16.32    4.76   6
   5   1   7    8.65    3.35   1
   6   1   7   14.89    5.00   6
  -6  -1  -7    7.09    4.10   1
   6   1   7    5.88    3.82   1
  -8   2   7  159.68   10.90   1
  -8   2   7  172.20   15.05   5
   8  -2  -7  142.75   10.78   1
  -7   2   7  228.56   16.84   5
   7  -2  -7  195.62   12.41   1
  -7   2   7  227.57   12.58   1
  -6   2   7   96.80    7.34   1
   6  -2  -7   97.85    7.67   1
  -6   2   7   86.72    9.43   5
   5  -2  -7  394.22   19.66   2
   5  -2  -7  427.71   19.87   1
  -5   2   7  450.14   19.62   1
  -5   2   7  428.39   24.58   5
  -4   2   7    7.21    7.19  10
   4  -2  -7    5.18    7.23  10
  -4   2   7   10.47    2.79   1
  -4   2   7   15.07    4.13   5
   4  -2  -7   12.36    3.16   1
   3  -2  -7  381.48   18.37   1
   3  -2  -7  345.35   37.16  10
  -3   2   7  408.22   18.11   1
   3  -2  -7  397.54   18.57   2
  -3   2   7  442.34   39.39  10
   2  -2  -7  182.64  130.57  11
   2  -2  -7  349.08   71.26   1
   2  -2  -7   21.00  107.41   2
  -2   2   7   52.55   41.32  10
   2  -2  -7  136.60  113.84  10
  -2   2   7   62.63   81.35   1
  -1   2   7  135.13    8.52   1
   1  -2  -7  120.55   22.65  10
  -1   2   7   91.82   18.76  10
   1  -2  -7  137.56    9.06   1
   1  -2  -7  122.43    8.75   2
  -1   2   7  125.98    7.61   2
   0   2   7   19.46    3.49   1
   0  -2  -7   -7.56    9.00  10
   0  -2  -7   15.52    3.32   3
   0   2   7   20.18    3.65   6
   0  -2  -7   12.53    3.26   5
   0  -2  -7   18.85    3.81   2
   0  -2  -7   20.74    3.95   1
  -1  -2  -7   30.41   13.33  10
   1   2   7    7.82    7.61  10
  -1  -2  -7    2.22    2.87   2
   1   2   7    5.15    2.72   6
  -2  -2  -7   10.83    3.54   1
   2   2   7    2.51    2.52   1
  -2  -2  -7    0.91    1.66   3
  -3  -2  -7   44.59    7.26   2
  -3  -2  -7   47.10    6.26   1
   3   2   7   40.18    5.86   6
   3   2   7   52.64    5.94   1
   4   2   7    9.07    4.15   6
  -4  -2  -7    9.84    4.01   1
   5   2   7   27.68    5.26   4
   5   2   7   43.79    6.69   6
   5   2   7   40.80    6.18   1
  -5  -2  -7   46.84    6.62   1
   8  -3  -7   21.90    4.50   1
   7  -3  -7  109.67    8.35   1
  -7   3   7  102.43    7.74   1
  -7   3   7   89.90    9.82   5
  -6   3   7   18.92    3.63   1
  -6   3   7   28.87    5.64   5
   6  -3  -7   28.59    4.41   1
   5  -3  -7   32.64    4.59   1
  -5   3   7   36.68    4.33   1
  -5   3   7   31.94    5.39   5
   4  -3  -7    6.67    2.37   1
  -4   3   7    8.11    2.24   1
  -4   3   7    8.14    3.10   5
  -4   3   7   -2.21    6.18  10
  -3   3   7   14.02    8.87  10
   3  -3  -7    9.58    3.01   1
  -3   3   7    5.93    2.26   5
   3  -3  -7   -1.79    6.95  10
  -3   3   7    1.43    2.26   1
   2  -3  -7   16.39    2.27   2
  -2   3   7   15.97    8.36  10
   2  -3  -7    5.79    7.75  11
   2  -3  -7   21.57    3.88   1
   2  -3  -7   37.61   13.52  10
   1  -3  -7   43.88    4.72   2
   1  -3  -7   46.48    6.26   3
   1  -3  -7   42.99   14.29  10
  -1   3   7   44.45    4.77   1
  -1   3   7   42.21   12.91  10
   1  -3  -7   40.00    5.01   1
   0  -3  -7  131.95   10.63   3
   0  -3  -7  123.12    8.66   1
   0  -3  -7  127.94   23.85  10
   0   3   7  102.49    7.68   2
   0   3   7  122.72    9.31   6
   0   3   7  129.18    8.50   1
   0   3   7  169.48   26.33  10
  -1  -3  -7   32.76    4.90   3
   1   3   7   30.73   12.70  10
  -1  -3  -7   30.19    5.07   2
  -1  -3  -7   26.86    4.15   1
   1   3   7   32.60    4.18   1
   1   3   7   21.48    4.29   6
  -2  -3  -7   91.69    8.14   1
  -2  -3  -7   97.46    8.40   3
   2   3   7   95.58    7.83   1
   2   3   7   90.02    8.50   6
   3   3   7    3.23    2.57   6
   3   3   7   -0.33    1.87   1
  -3  -3  -7    1.88    2.52   1
   4   3   7   53.07    6.89   6
  -4  -3  -7   52.76    6.60   1
   4   3   7   56.10    6.36   1
  -5  -3  -7    0.55    3.78   1
   5   3   7    1.58    3.13   4
   5   3   7   -6.91    4.47   6
  -8   4   7   28.00    6.14   5
  -8   4   7   38.16    5.23   1
   8  -4  -7   29.92    5.11   1
  -7   4   7    5.41    4.10   5
   7  -4  -7    3.72    2.38   1
   6  -4  -7   22.53    4.12   1
  -6   4   7   22.45    3.81   1
  -6   4   7   24.81    4.91   5
   5  -4  -7   -0.28    2.37   1
  -5   4   7   -0.95    2.18   1
  -5   4   7    3.01    2.85   5
  -4   4   7    7.79    3.33   5
   4  -4  -7    2.75    2.85   1
   3  -4  -7   12.27    2.90   1
  -3   4   7   24.57   10.61  10
  -3   4   7   18.15    3.36   5
  -2   4   7   44.47   28.44   1
   2  -4  -7   14.75   39.24  11
  -2   4   7   24.44   19.92  10
   1  -4  -7  106.44   26.94  11
  -1   4   7   90.07   19.06  10
   1  -4  -7   73.56    6.70   1
   1  -4  -7   89.18    9.39   3
  -1   4   7   76.09    6.32   1
   0  -4  -7   14.08    4.08   3
   0  -4  -7    9.34    3.39   1
  -1  -4  -7  126.57   10.73   3
   1   4   7  123.56    9.96   6
   1   4   7  128.17    8.91   1
  -1  -4  -7  102.24    8.61   1
  -2  -4  -7   30.39    8.34   1
   2   4   7   25.03   10.34   1
  -2  -4  -7   15.43   12.60   3
   3   4   7   59.52    7.53   6
  -3  -4  -7   58.43    6.97   1
   3   4   7   60.71    6.48   1
   4   4   7    4.75    3.22   6
  -4  -4  -7    4.31    3.93   1
   4   4   7   12.33    3.86   1
   8  -5  -7    4.55    3.45   1
  -8   5   7    3.87    2.83   1
   7  -5  -7    7.01    3.38   1
  -7   5   7   16.88    4.96   5
  -7   5   7   11.64    3.27   1
  -6   5   7   16.36    3.12   1
  -6   5   7   14.45    4.45   5
   6  -5  -7   16.23    3.43   1
  -5   5   7   56.64    7.24   5
   5  -5  -7   70.07    6.54   1
  -5   5   7   73.99    6.14   1
  -4   5   7   18.62    3.40   1
   4  -5  -7   18.65    5.93   1
  -4   5   7   23.78    4.54   5
  -3   5   7  150.35   10.80   5
  -3   5   7  154.06    9.34   1
   3  -5  -7  139.93    9.47   1
  -2   5   7   48.33    7.11   5
   2  -5  -7   61.71    5.98   1
  -2   5   7   47.12    5.71   1
   1  -5  -7  120.74   11.88   3
  -1   5   7  114.64    7.92   1
   1  -5  -7  113.21    8.41   1
   0   5   7   30.85    5.01   6
   0   5   7   32.97    4.09   1
   0  -5  -7   32.92    6.10   3
   0  -5  -7   31.31    4.37   1
   1   5   7   39.29    4.90   1
  -1  -5  -7   38.16    6.25   3
  -1  -5  -7   40.86    5.43   1
   1   5   7   43.49    6.30   6
  -2  -5  -7    9.70    3.75   3
  -2  -5  -7    1.66    2.35   1
   3   5   7    6.84    4.01   6
  -4  -5  -7   -0.33    3.43   1
   4   5   7    4.78    4.18   6
  -7   6   7    0.85    3.18   5
  -7   6   7   -1.91    1.91   1
   7  -6  -7    2.81    2.36   1
  -6   6   7   36.69    6.57   5
  -6   6   7   38.27    4.81   1
   6  -6  -7   43.30    5.55   1
  -5   6   7    1.66    2.08   1
   5  -6  -7    7.37    3.09   1
  -5   6   7   -0.34    2.90   5
  -4   6   7   47.67    6.08   5
  -4   6   7   57.24    5.44   1
   4  -6  -7   46.76   17.82   1
   4  -6  -7   63.49   11.44   3
   3  -6  -7   27.35    4.43   1
  -2   6   7   30.38    3.92   1
  -2   6   7   20.51    3.49   5
   2  -6  -7   28.85    4.41   1
   1  -6  -7   10.22    4.65   3
   1  -6  -7   11.25    2.86   1
  -1   6   7   10.54    2.51   1
   0   6   7    2.95    1.76   1
   0  -6  -7    2.94    2.29   1
   0   6   7    5.58    3.75   6
   0  -6  -7    7.31    4.40   3
   1   6   7    5.08    3.30   6
  -1  -6  -7   -1.16    3.45   3
  -1  -6  -7    0.53    2.86   1
  -2  -6  -7   36.46    9.47   1
   2   6   7   41.72    8.08   6
  -3  -6  -7   16.87    4.43   1
   3   6   7   14.47    5.04   6
   6  -7  -7    9.17    6.61   3
  -6   7   7   -4.72    3.57   5
   5  -7  -7   -7.27    7.40   3
  -5   7   7    3.73    3.47   5
   4  -7  -7    1.93    5.76   3
  -3   7   7    1.32    2.09   5
   3  -7  -7   -2.04    2.06   1
   3  -7  -7    0.60    4.70   3
   2  -7  -7    1.91    1.97   1
   2  -7  -7    2.46    4.70   3
   1  -7  -7   20.86    5.88   3
  -1   7   7   18.90    5.11   6
   1  -7  -7   19.76    3.62   1
   0  -7  -7   33.42    4.77   1
   0  -7  -7   33.52    6.97   3
   0   7   7   38.09    6.53   6
   1   7   7   41.95    6.90   6
  -1  -7  -7   42.63    5.73   1
  -1  -7  -7   44.11    7.90   3
  -2  -7  -7   79.24    7.65   1
   2   7   7   71.92    8.61   6
  -2  -7  -7   55.09    8.27   3
  -5   8   7    8.51    3.74   5
   5  -8  -7    8.56    3.48   1
   5  -8  -7   -3.60    5.97   3
   4  -8  -7   15.14    3.81   1
  -4   8   7    8.74    3.58   5
   4  -8  -7   14.69    6.47   3
   3  -8  -7   19.58    3.90   1
   3  -8  -7    2.17    5.58   3
   2  -8  -7   81.09   11.36   3
   2  -8  -7   80.19    7.10   1
  -1   8   7    2.91    4.14   6
   1  -8  -7    4.08    4.52   3
   0  -8  -7  252.37   14.35   1
   0  -8  -7  247.32   20.19   3
   0   8   7  222.80   16.91   6
  -1  -8  -7    2.75    4.46   3
   3  -9  -7   87.30    7.50   1
   3  -9  -7   98.79   14.30   3
   2  -9  -7   52.24   10.10   3
   2  -9  -7   46.85    5.79   1
  -2 -10   8    5.27    5.34   9
  -1 -10   8    4.79    4.59   9
   0 -10   8   12.10    4.49   9
   0  10  -8   -3.52    4.10   2
   0 -10   8    1.92    2.38   7
   0  10  -8    2.64    4.80   5
  -1  10  -8    7.46    5.58   5
   1 -10   8   15.59    4.95   9
   1 -10   8    5.54    3.73   7
   2 -10   8   40.40    7.01   7
   2 -10   8   37.73    7.44   9
   3 -10   8    7.41    2.89   1
   3 -10   8    4.65    3.24   9
  -3  10  -8    9.02    4.48   2
   4   9  -8   -0.64    2.14   4
   3   9  -8   17.33    5.08   2
   3   9  -8    4.44    3.15   4
   2   9  -8    3.91    9.32  11
  -2  -9   8   10.62    3.32   7
   2   9  -8    4.28    3.00   2
   1   9  -8    5.78    2.75   4
  -1  -9   8   -2.39    4.31   9
  -1  -9   8   -1.56    2.19   7
   1   9  -8   -5.90   11.96  11
   1   9  -8    1.90    2.68   2
   0  -9   8   18.31    4.36   7
   0   9  -8   31.23    6.23   2
   0  -9   8   23.23    5.58   9
   0  -9   8   22.08    2.74   1
   1  -9   8    3.27    1.92   1
   1  -9   8    0.83    2.54   7
  -1   9  -8    3.76    4.59   5
   1  -9   8    6.34    4.22   9
   2  -9   8   94.65   19.05   9
  -2   9  -8   84.80   11.77   5
  -2   9  -8  104.10   17.98   2
   3  -9   8    2.96    4.38   7
   3  -9   8   -1.24    3.71   9
  -3   9  -8    5.99    4.18   5
   3  -9   8    1.52    2.46   1
  -4   9  -8   59.17    8.70   2
   4  -9   8   38.93    5.52   1
  -4   9  -8   38.68    8.04   5
   5   8  -8   -4.50    3.45   4
  -5  -8   8    1.41    1.80   1
   4   8  -8   14.68    4.18   4
  -4  -8   8   23.69    2.96   1
   4   8  -8   25.30    5.72   2
  -3  -8   8   10.88    2.08   1
   3   8  -8    5.08    3.17   4
   3   8  -8    5.89    3.38   2
  -2  -8   8   58.16    4.37   1
   2   8  -8   87.23   25.75  11
   2   8  -8   51.39    7.08   2
  -2  -8   8   49.18    5.61   7
   2   8  -8   63.12    6.36   4
  -1  -8   8   10.67    2.05   1
  -1  -8   8    6.32    2.54   7
   1   8  -8    8.88    3.42   2
   1   8  -8   18.16    4.03   4
   0  -8   8  161.14    8.80   1
   0  -8   8  139.34   11.43   7
   0   8  -8  170.90   13.50   2
   1  -8   8   10.72    2.86   1
   1  -8   8   13.52    4.43   7
  -1   8  -8   15.31    5.77   5
   1  -8   8   16.41    5.37   9
   2  -8   8  107.79   11.31   7
  -2   8  -8   88.59   10.50   2
   2  -8   8   97.39    7.51   1
   2  -8   8   93.61   10.01   9
  -2   8  -8  104.88   11.57   5
  -3   8  -8   24.80    6.75   5
  -3   8  -8   29.20    6.23   2
   3  -8   8   30.02    4.41   1
   3  -8   8   26.53    5.80   9
   3  -8   8   30.84   15.55   7
  -4   8  -8   61.69    9.39   5
   4  -8   8   79.01   10.58   7
  -4   8  -8   71.06    9.94   2
   4  -8   8   68.68    7.00   1
   5  -8   8   47.05    6.45   1
  -5   8  -8   49.32    8.82   5
  -6  -7   8   -3.64    3.72   8
  -5  -7   8    1.62    2.01   1
   5   7  -8    1.94    2.74   2
   5   7  -8   -0.41    3.81   4
   4   7  -8    9.47    3.49   2
   4   7  -8   13.20    3.52   4
   3   7  -8   26.41    4.67   4
  -3  -7   8   25.73    3.13   1
   3   7  -8   20.95    4.93   2
  -2  -7   8   17.54    2.51   1
   2   7  -8   15.94    3.45   4
   2   7  -8   17.70    4.44   2
   2   7  -8   22.80   14.13  11
  -2  -7   8   17.24    3.40   7
   1   7  -8  120.76    8.56   4
  -1  -7   8  118.40    9.40   7
  -1  -7   8  120.28    7.27   1
   1   7  -8  118.45   10.15   2
   0   7  -8   13.57    3.93   2
   0  -7   8   16.46    2.95   1
   0  -7   8   15.11    4.25   7
   1  -7   8  298.36   15.31   1
  -1   7  -8  287.16   19.58   2
   1  -7   8  321.35   20.03   7
   1  -7   8  313.11   20.39   9
  -2   7  -8   44.22    8.35   2
  -2   7  -8   69.23   15.36   5
   2  -7   8   88.59   15.60   9
   2  -7   8   26.81   18.68   1
   3  -7   8  373.74   19.20   1
   3  -7   8  381.59   23.08   9
  -3   7  -8  373.93   24.14   2
  -3   7  -8  384.51   25.16   5
   3  -7   8  388.18   25.97   7
  -4   7  -8   14.65    5.36   5
   4  -7   8    7.77    4.48   7
  -4   7  -8    9.38    5.08   2
  -5   7  -8  210.12   17.90   2
   5  -7   8  239.43   15.01   1
   5  -7   8  250.56   20.45   7
  -5   7  -8  222.14   18.14   5
  -6  -6   8   25.71    3.58   1
   6   6  -8   17.61    4.52   4
   6   6  -8   14.86    5.02   2
  -6  -6   8   20.52    4.71   8
   5   6  -8   94.11    8.91   4
   5   6  -8   94.91    9.39   2
  -5  -6   8   84.87    6.55   1
   4   6  -8   96.28    8.70   4
  -4  -6   8   85.15    6.05   1
   4   6  -8   72.19    8.07   2
   3   6  -8  263.30   37.74  11
  -3  -6   8  285.17   13.50   1
   3   6  -8  278.19   17.37   2
  -3  -6   8  270.42   14.72   7
   3   6  -8  297.80   16.78   4
  -2  -6   8  250.08   14.24   7
   2   6  -8  267.14   14.70   4
   2   6  -8  242.44   15.74   2
   2   6  -8  239.36   36.82  11
   2   6  -8  250.09   12.46   1
  -2  -6   8  231.88   11.97   1
   1   6  -8  409.46   18.97   1
  -1  -6   8  419.04   18.67   1
  -1  -6   8  433.90   22.63   7
   1   6  -8  432.48   23.46   2
   1   6  -8  391.68   38.70  10
   0   6  -8  767.46   31.58   1
   0  -6   8  726.56   31.02   1
   0   6  -8  770.53   37.92   2
   0   6  -8  754.24   58.74  10
   0  -6   8  742.35   37.34   7
  -1   6  -8  335.09   16.55   1
  -1   6  -8  290.43   19.52   2
   1  -6   8  317.29   16.00   1
  -1   6  -8  301.31   37.28  10
  -2   6  -8  551.38   31.61   5
  -2   6  -8  550.09   52.82  10
  -2   6  -8  528.09   29.99   2
   2  -6   8  530.73   24.57   1
   2  -6   8  578.47   30.22   9
  -2   6  -8  530.60   24.99   1
   3  -6   8   76.38    8.00   9
  -3   6  -8   65.82    7.00   1
  -3   6  -8   66.76    8.97   2
  -3   6  -8   59.12    8.40   5
   3  -6   8   85.09    7.47   1
  -4   6  -8  421.39   26.62   5
   4  -6   8  396.61   21.26   1
   4  -6   8  484.46   25.26   9
  -4   6  -8  414.08   26.16   2
  -4   6  -8  435.86   21.95   1
  -5   6  -8    5.27    3.46   1
  -5   6  -8    7.78    3.68   5
   5  -6   8    2.42    3.35   1
  -7  -5   8   24.40    5.30   8
  -7  -5   8   18.29    6.40   1
   6   5  -8  201.90   14.81   4
   6   5  -8  181.02   14.00   2
  -6  -5   8  185.55   11.17   1
  -6  -5   8  207.93   15.01   8
   5   5  -8   16.97    3.89   2
   5   5  -8   16.08    4.79   4
  -5  -5   8    9.79    2.90   1
   4   5  -8  436.38   19.65   1
  -4  -5   8  431.07   19.31   1
   4   5  -8  447.73   23.49   4
   4   5  -8  426.97   23.65   2
  -3  -5   8   -0.12    1.26   1
   3   5  -8   21.94    8.90  10
   3   5  -8    5.20    3.20   4
   3   5  -8    0.88    1.49   1
   3   5  -8    2.84    3.13   2
  -3  -5   8    3.13    1.61   7
   3   5  -8    2.95    5.53  11
   2   5  -8  706.90   33.42   2
  -2  -5   8  644.43   27.48   1
   2   5  -8  669.65   28.02   1
  -2  -5   8  674.20   53.42  10
   2   5  -8  639.81   50.09  10
  -2  -5   8  691.16   31.84   7
   1   5  -8  110.67    7.65   1
   1   5  -8  131.89   21.65  10
  -1  -5   8  113.52    7.44   1
  -1  -5   8  131.35   22.72  10
   1   5  -8  119.06    9.92   2
   0   5  -8 1127.91   53.05   2
   0  -5   8 1100.49   74.18  10
   0   5  -8 1183.41   45.70   1
   0   5  -8 1147.63   77.68  10
   0  -5   8 1117.69   45.11   1
   1  -5   8  342.21   17.25   1
   1  -5   8  383.89   40.81  10
  -1   5  -8  286.64   37.17  10
  -1   5  -8  356.88   21.42   2
  -1   5  -8  344.80   17.58   1
  -2   5  -8  313.85   20.93   5
  -2   5  -8  327.62   40.44  10
  -2   5  -8  339.00   21.11   2
   2  -5   8  325.13   16.63   1
  -2   5  -8  325.29   17.08   1
   2  -5   8  335.74   39.41  10
  -3   5  -8  345.94   22.73   5
  -3   5  -8  338.62   42.50  10
  -3   5  -8  377.88   19.41   1
   3  -5   8  419.10   46.46  10
   3  -5   8  377.10   21.35   9
   3  -5   8  389.13   19.21   1
  -3   5  -8  362.40   23.15   2
  -4   5  -8   71.14    7.28   1
  -4   5  -8   67.89    9.04   2
  -4   5  -8   53.57    7.59   5
   4  -5   8   69.79    6.99   9
   4  -5   8   47.34   18.20  10
   4  -5   8   69.55    7.30   1
   5  -5   8  201.97   13.61   1
  -5   5  -8  178.71   15.58   2
  -5   5  -8  205.81   15.82   5
  -5   5  -8  212.55   13.73   1
   6  -5   8   -1.30    3.72   1
  -6   5  -8   -2.11    3.49   1
  -7  -4   8  104.33    8.26   1
  -7  -4   8  104.79   10.16   8
   7   4  -8  105.73   10.75   4
  -6  -4   8  134.82    8.90   1
   6   4  -8  128.95    8.96   1
   6   4  -8  119.55   10.87   4
  -6  -4   8  128.79   10.67   8
   5   4  -8  428.84   19.42   1
  -5  -4   8  421.80   18.99   1
   5   4  -8  379.57   22.11   2
   5   4  -8  407.99   22.87   4
  -4  -4   8  144.57   23.17  10
   4   4  -8  143.44    8.77   1
  -4  -4   8  139.00    8.49   1
   4   4  -8  128.55   10.28   2
  -3  -4   8  972.94   65.59  10
  -3  -4   8  963.61   37.97   1
   3   4  -8  939.34   66.65  11
   3   4  -8  927.88   64.32  10
   3   4  -8  997.35   44.54   2
   3   4  -8  991.50   38.42   1
  -3  -4   8  891.25   41.93   7
   2   4  -8   53.33    5.96   2
  -2  -4   8   38.47    4.37   1
   2   4  -8   40.11   13.47  10
  -2  -4   8   19.06   10.36  10
   2   4  -8   44.86    4.80   1
  -1  -4   8 1300.67   51.06   1
  -1  -4   8 1295.20   81.57  10
   1   4  -8 1312.96   51.59   1
   1   4  -8 1279.33   81.05  10
   1   4  -8 1374.86   59.70   2
   0   4  -8   24.32   11.96  10
   0   4  -8   29.91    4.53   1
   0  -4   8   33.87    4.45   1
   0   4  -8   30.05    5.75   2
   0  -4   8   31.06   12.70  10
  -1   4  -8  916.32   37.69   1
   1  -4   8  899.47   67.31  10
  -1   4  -8  819.81   42.91   2
  -1   4  -8  908.17   69.63  10
   1  -4   8  939.64   37.42   1
  -2   4  -8  168.51   29.17  10
  -2   4  -8  130.07   11.44   5
  -2   4  -8  148.76   12.44   2
   2  -4   8  139.93    9.64   1
  -2   4  -8  136.84    9.95   1
   2  -4   8  157.25   27.37  10
  -3   4  -8  263.79   37.29  10
  -3   4  -8  289.00   16.02   1
   3  -4   8  276.68   15.55   1
  -3   4  -8  258.68   17.85   5
   3  -4   8  292.59   16.77   9
  -3   4  -8  272.76   18.70   2
   3  -4   8  273.59   38.05  10
   4  -4   8  155.16   11.21   1
  -4   4  -8  165.39   12.83   5
  -4   4  -8  155.72   11.26   1
  -4   4  -8  148.94   13.50   2
  -5   4  -8   25.13    6.30   2
   5  -4   8   23.65    5.05   1
   6  -4   8   67.19    8.06   1
  -6   4  -8   68.18    8.01   1
   7   3  -8  276.83   15.69   1
  -7  -3   8  297.72   18.88   8
  -7  -3   8  311.69   15.89   1
   6   3  -8  115.92    8.50   1
  -6  -3   8  112.39    8.23   1
  -6  -3   8  129.63   10.05   8
  -5  -3   8  480.16   45.12  10
   5   3  -8  439.02   23.80   2
  -5  -3   8  462.92   20.65   1
   5   3  -8  468.38   21.08   1
  -4  -3   8  404.79   40.28  10
   4   3  -8  419.42   22.33   2
   4   3  -8  424.58   19.66   1
  -4  -3   8  445.32   19.47   1
  -3  -3   8  386.67   17.11   1
   3   3  -8  378.01   37.86  10
   3   3  -8  369.98   19.63   2
  -3  -3   8  338.05   35.87  10
   3   3  -8  364.83   17.26   1
   3   3  -8  328.10   29.18  11
  -2  -3   8  791.94   32.96   1
  -2  -3   8  786.18   58.60  10
   2   3  -8  850.08   38.24   2
   2   3  -8  755.79   58.74  10
   2   3  -8  824.06   33.57   1
   1   3  -8  113.67    9.49   2
  -1  -3   8   88.64   19.27  10
  -1  -3   8  121.28    8.15   1
   1   3  -8  117.11   22.58  10
   1   3  -8  110.89    8.19   1
   0  -3   8 1166.65   47.02   1
   0   3  -8 1253.43   82.87  10
   0   3  -8 1181.25   47.46   1
   0   3  -8 1152.23   54.29   2
   0  -3   8 1203.25   79.14  10
   1  -3   8   20.23   11.13  10
  -1   3  -8   -5.13    6.85  10
  -1   3  -8    4.18    3.10   2
  -1   3  -8    5.57    2.44   1
   1  -3   8    7.24    2.53   1
  -2   3  -8  205.72   32.51  10
  -2   3  -8  242.73   14.03   1
  -2   3  -8  232.25   15.76   5
   2  -3   8  221.85   32.91  10
  -2   3  -8  237.63   16.38   2
   2  -3   8  255.78   13.88   1
  -3   3  -8   47.91    7.22   2
   3  -3   8   44.06    5.04   9
   3  -3   8   37.23    5.31   1
   3  -3   8   49.26   17.04  10
  -3   3  -8   42.98    5.98   5
  -3   3  -8   42.96    5.74   1
  -4   3  -8   27.74    6.20   2
  -4   3  -8   34.38    5.49   1
   4  -3   8   30.01    5.22   1
  -4   3  -8   24.93    4.75   5
  -5   3  -8   31.51    6.76   2
   5  -3   8   36.12    5.73   1
  -5   3  -8   34.88    5.71   1
  -6   3  -8    1.47    2.75   1
  -6   3  -8   11.14    5.48   2
  -8  -2   8  219.12   13.51   1
   8   2  -8  223.46   13.88   1
   7   2  -8   -0.68    2.77   1
  -7  -2   8    2.57    2.66   1
  -6  -2   8  397.01   42.44  10
   6   2  -8  389.12   19.00   1
  -6  -2   8  391.66   21.76   8
  -6  -2   8  390.02   18.75   1
   5   2  -8   17.61    3.66   2
   5   2  -8   14.49    3.35   1
  -5  -2   8   12.60    8.78  10
  -5  -2   8   19.69    3.52   1
  -4  -2   8  408.03   19.07   1
   4   2  -8  430.89   19.67   1
  -4  -2   8  455.62   42.22  10
   4   2  -8  443.05   42.25  10
   4   2  -8  400.90   21.48   2
   3   2  -8   98.05    7.44   1
  -3  -2   8  120.43   20.96  10
   3   2  -8  103.59    8.18   2
  -3  -2   8  109.71    7.39   1
   3   2  -8  126.07   22.05  10
  -2  -2   8  202.32   40.78  10
  -2  -2   8  195.90   29.73   1
   2   2  -8  223.75   48.95  10
   1   2  -8  143.10   10.55   2
  -1  -2   8  141.28    7.42   6
  -1  -2   8  137.05    8.85   1
   1   2  -8  119.47   22.86  10
  -1  -2   8  190.36   27.33  10
   1   2  -8  128.38    9.03   1
   0  -2   8    1.92    2.55   1
   0  -2   8    9.02    1.70   6
   0   2  -8   21.83   11.58  10
   0  -2   8    7.39    8.19  10
   0   2  -8    8.40    3.09   1
   0   2  -8    7.25    2.88   2
   1  -2   8   41.35    3.89   6
  -1   2  -8   50.68    5.68   1
   1  -2   8   45.82    5.01   1
   1  -2   8   72.11   18.49  10
  -1   2  -8   39.25   14.63  10
  -1   2  -8   50.11    6.61   2
  -2   2  -8   19.52    4.01   5
   2  -2   8   23.38    3.35   6
   2  -2   8   22.94    4.17   1
   2  -2   8   45.73   14.99  10
  -2   2  -8   23.50    4.45   1
  -2   2  -8   25.94   13.77  10
  -3   2  -8    1.58    2.77   2
  -3   2  -8    0.22    2.29   5
  -3   2  -8    0.38    2.82   1
   3  -2   8    3.00    1.83   9
   3  -2   8    3.01    2.84   1
   4  -2   8   37.98    5.70   1
  -4   2  -8   35.62    5.70   1
  -4   2  -8   27.91    6.27   2
   4  -2   8   30.26    5.10   6
   5  -2   8   27.29    5.30   1
  -5   2  -8   21.13    4.90   1
  -5   2  -8   23.19    6.58   2
  -6   2  -8   13.17    4.69   1
  -6   2  -8    6.25    4.99   2
  -8  -1   8   95.69   12.59   1
   8   1  -8  112.81    9.20   1
  -7  -1   8  162.34   10.53   1
   7   1  -8  162.86   10.92   1
   6   1  -8   38.55    5.05   2
  -6  -1   8   41.65    4.68   1
   6   1  -8   48.55    5.12   1
  -6  -1   8   36.71    4.38   8
  -5  -1   8  250.65   31.78  10
   5   1  -8  251.72   14.34   2
  -5  -1   8  241.71   13.05   1
   5   1  -8  247.19   13.38   1
   4   1  -8    0.14    1.64   1
   4   1  -8   -6.34    6.39  10
   4   1  -8   -1.63    2.14   2
  -4  -1   8    9.01    7.87  10
  -3  -1   8  182.29   10.23   1
   3   1  -8  183.69   11.18   2
  -3  -1   8  168.72   24.57  10
   3   1  -8  163.30   10.22   1
   3   1  -8  174.20   25.99  10
   2   1  -8  113.87  117.66   8
  -2  -1   8   53.43   25.69   1
   2   1  -8  201.23   59.91   2
   2   1  -8  114.86   40.99  10
  -2  -1   8   79.61   59.09  10
   1   1  -8   43.03   15.03  10
   1   1  -8   10.92    3.24   1
  -1  -1   8   11.80    8.98  10
  -1  -1   8   21.60    3.35   1
   1   1  -8   15.80    3.38   2
   0   1  -8   68.24   18.11  10
   0   1  -8   36.32    4.99   1
   0  -1   8   38.96   13.47  10
   0   1  -8   38.74    5.44   2
   0  -1   8   37.98    3.68   6
   0  -1   8   33.26    4.54   1
   1  -1   8   -2.37    5.53  10
   1  -1   8   10.91    2.39   6
  -1   1  -8   28.39   12.43  10
   1  -1   8   16.20    3.22   1
  -1   1  -8   15.11    3.53   2
  -1   1  -8    7.45    2.72   1
  -2   1  -8   -1.10    2.00   5
   2  -1   8   -2.84    2.57   1
   2  -1   8  -10.44    9.71  10
  -2   1  -8    1.49    2.85   1
  -2   1  -8    2.38    3.04   2
  -3   1  -8   43.06    6.65   2
  -3   1  -8   43.15    5.46   1
   3  -1   8   28.78    4.48   1
   3  -1   8   36.23    4.82   6
   4  -1   8    0.59    2.27   1
  -4   1  -8    1.63    2.95   2
   4  -1   8    3.90   13.86   6
   5  -1   8   29.42    5.43   1
  -5   1  -8   19.27    4.94   1
   5  -1   8   32.24    5.65   6
  -5   1  -8   32.86    6.42   2
   6  -1   8    9.51    3.77   1
   8   0  -8    5.08    3.46   1
  -7   0   8   52.99    5.63   1
   7   0  -8   39.83    5.19   1
   6   0  -8   11.19    2.92   2
   6   0  -8   16.55    3.68   1
  -6   0   8   13.32    3.27   1
   5   0  -8   13.93    2.81   1
  -5   0   8   29.34   11.98  10
  -5   0   8   11.53    2.82   1
   5   0  -8   19.93    3.27   2
   4   0  -8   21.58   11.08  10
  -4   0   8   11.75    8.31  10
  -3   0   8    7.33    2.72   1
   3   0  -8    9.07    8.74  10
  -3   0   8    4.39    6.28  10
   3   0  -8    0.62    2.69   1
   3   0  -8    4.76    2.05   2
   2   0  -8   77.18    6.73   2
   2   0  -8   90.78   20.47  10
   2   0  -8   66.12    6.75   8
   2   0  -8   78.02    6.72   1
  -2   0   8   79.04    6.38   1
  -2   0   8   79.53   17.75  10
   1   0  -8    7.09    2.61   2
  -1   0   8    2.54    1.91   1
   1   0  -8   14.76    9.40  10
   1   0  -8    8.37    2.68   1
  -1   0   8  -10.86    8.40  10
   0   0   8  417.95   19.52   1
   0   0  -8  347.72   42.08  10
   0   0   8  377.00   19.06   6
   0   0  -8  417.61   21.78   2
   0   0   8  335.13   38.98  10
   0   0  -8  419.98   19.94   1
  -1   0  -8   10.30    3.51   1
   1   0   8   21.53    3.30   6
   1   0   8   44.09   14.29  10
  -1   0  -8   34.02   14.33  10
  -1   0  -8   20.11    4.40   2
   1   0   8   14.64    3.56   1
  -1   0  -8   15.44    2.66   3
  -2   0  -8  266.80   16.83   2
  -2   0  -8  225.94   13.85   5
   2   0   8  240.23   13.89   1
  -2   0  -8  231.43   14.27   1
   2   0   8  262.05   14.38   6
   3   0   8   16.31    3.68   6
  -3   0  -8   11.86    4.69   2
   3   0   8   20.24    4.29   1
  -4   0  -8  109.05    9.88   1
  -4   0  -8  103.88   11.31   2
   4   0   8  115.80    9.62   1
   4   0   8  115.34    9.83   6
   5   0   8   10.14    4.27   1
   5   0   8    6.56    3.47   6
  -5   0  -8    5.07    4.61   2
  -8   1   8   23.86    4.27   1
  -7   1   8   16.13    3.75   1
   7  -1  -8   10.05    3.46   1
  -6   1   8   -1.41    1.77   1
   6  -1  -8   -0.81    2.20   1
  -5   1   8   52.54    5.27   1
   5  -1  -8   39.28    4.34   2
   5  -1  -8   50.60    5.39   1
  -4   1   8   43.17   13.63  10
   4  -1  -8   29.12    4.50   1
   4  -1  -8   34.08    3.74   2
  -4   1   8   39.41    4.62   1
  -3   1   8   85.40    6.77   1
   3  -1  -8   84.32    6.46   2
   3  -1  -8   85.56    7.18   1
   3  -1  -8   72.73   18.49  10
  -3   1   8   82.02   17.99  10
  -2   1   8  104.95   28.17  10
   2  -1  -8   86.48   19.97  10
  -2   1   8   95.60   11.12   1
   2  -1  -8  110.35   32.49   2
   1  -1  -8   96.85   21.97  10
   1  -1  -8  120.74    8.76   2
  -1   1   8  110.99   21.64  10
  -1   1   8  116.35    8.23   1
   1  -1  -8  106.71    8.46   1
   0  -1  -8   72.33   18.86  10
   0   1   8   68.11    5.98   6
   0   1   8   55.03   16.61  10
   0   1   8   64.82    6.06   1
   0  -1  -8   63.13    6.32   1
   0  -1  -8   77.23    7.26   2
   1   1   8  118.42   22.95  10
   1   1   8   77.43    6.68   6
  -1  -1  -8   71.24    7.15   1
  -1  -1  -8   77.42    7.77   2
   1   1   8   88.40    7.39   1
  -1  -1  -8   72.59    6.53   3
   2   1   8   58.95    8.28   1
  -2  -1  -8   80.29   21.29   2
   2   1   8   61.53   10.87   6
   3   1   8   34.46    5.24   1
   3   1   8   25.87    4.81   6
  -3  -1  -8   40.90    5.96   1
  -3  -1  -8   27.91    5.77   2
  -4  -1  -8    0.70    3.63   2
  -4  -1  -8    7.87    4.24   1
   4   1   8   -2.90    3.33   6
   4   1   8   -0.39    3.09   1
  -5  -1  -8    7.83    4.52   1
   5   1   8    2.72    3.40   6
   5   1   8    4.92    3.70   1
  -8   2   8    5.37    3.02   1
   8  -2  -8   10.45    3.62   1
   7  -2  -8    6.28    3.25   1
  -7   2   8    1.92    2.66   1
   6  -2  -8   11.65    3.53   1
  -5   2   8   11.51    3.11   1
   5  -2  -8   11.99    3.38   1
   4  -2  -8   61.72   18.03   1
  -4   2   8   47.66    5.11   1
  -3   2   8   15.31    2.92   1
  -3   2   8    1.82    5.10  10
   3  -2  -8   11.60    2.23   2
   2  -2  -8  111.86    8.01   2
   2  -2  -8  120.40    8.87   1
  -2   2   8  122.82    8.41   1
  -2   2   8  129.57   22.92  10
  -1   2   8    5.20    6.12  10
   1  -2  -8   12.18    3.05   2
  -1   2   8    9.74    2.17   2
   1  -2  -8   16.21    3.34   1
  -1   2   8   10.56    2.62   1
   0  -2  -8  158.99   10.64   1
   0  -2  -8  167.10   11.59   2
   0  -2  -8  136.30   11.09   3
   0   2   8  150.80   10.19   6
   0   2   8  127.02   24.45  10
   0   2   8  137.07    9.67   1
   1   2   8   12.06    3.58   6
  -1  -2  -8   16.86    3.50   3
  -1  -2  -8   11.26    3.48   1
  -1  -2  -8   13.73    4.13   2
   1   2   8    7.32    2.99   1
   2   2   8   22.00    4.38   6
   2   2   8   11.63    3.16   1
  -2  -2  -8   20.49    4.02   1
   3   2   8   14.97    4.17   6
   3   2   8   19.11    4.43   1
  -3  -2  -8   22.38    4.98   1
   4   2   8    0.51    2.77   1
   5   2   8   26.61    5.45   1
   5   2   8   24.70    5.30   6
   8  -3  -8   37.56    5.81   1
  -8   3   8   46.34    5.80   1
  -7   3   8    3.08    2.91   5
   7  -3  -8    2.05    3.12   1
  -7   3   8    2.80    2.65   1
   6  -3  -8   97.26    8.21   1
  -6   3   8   96.45    7.54   1
  -6   3   8   92.88    9.57   5
  -5   3   8    3.06    3.25   5
   5  -3  -8    3.41    2.26   1
  -5   3   8    3.34    2.07   1
  -4   3   8  136.98    8.96   1
   4  -3  -8  126.91   27.59   1
   3  -3  -8    1.67    2.82   1
  -3   3   8    3.37    2.55   1
  -2   3   8   46.20    5.07   1
   2  -3  -8   21.40   11.49  11
   2  -3  -8   41.83    5.19   1
   1  -3  -8   11.14    3.87   3
  -1   3   8    8.74    2.74   1
   0  -3  -8    4.93    3.10   3
   0   3   8    1.61    2.30   1
   0  -3  -8    0.34    2.12   2
   0   3   8    0.43    2.26   6
   0  -3  -8    8.51    3.25   1
  -1  -3  -8   29.19    5.15   1
  -1  -3  -8   26.35    4.65   3
   1   3   8   36.53    5.11   1
  -1  -3  -8   38.68    6.27   2
   1   3   8   32.29    4.91   6
   2   3   8   90.87   28.84   6
   2   3   8   49.22   31.84   1
  -2  -3  -8   71.45   29.23   1
  -3  -3  -8   66.06    7.28   1
   3   3   8   63.31    7.63   6
   3   3   8   75.99    7.23   1
  -4  -3  -8    0.62    3.35   1
   4   3   8    5.76    3.36   1
   7  -4  -8    3.22    3.16   1
  -7   4   8    7.39    4.10   5
   6  -4  -8   -0.03    1.96   1
  -6   4   8   -3.89    3.65   5
  -6   4   8    3.11    2.19   1
   5  -4  -8   -0.22    2.71   1
  -5   4   8   -1.71    2.49   1
  -5   4   8    4.02    2.88   5
  -4   4   8   -2.04    2.69   5
  -4   4   8    0.12    2.33   1
  -3   4   8   24.28    3.78   1
   3  -4  -8   31.46    4.78   1
   2  -4  -8   21.93    4.01   1
  -1   4   8   79.85    6.62   1
   1  -4  -8   74.74    6.91   1
   1  -4  -8   81.09    9.29   3
   0   4   8   80.25    8.04   6
   0   4   8   92.76    7.69   1
   0  -4  -8  108.89   10.09   3
   0  -4  -8   99.63    8.30   1
   1   4   8   93.51    9.04   6
  -1  -4  -8  102.56    8.83   1
   1   4   8  103.48    8.44   1
  -1  -4  -8  103.45    9.80   3
   2   4   8  138.33   11.19   6
  -2  -4  -8  130.12   10.38   1
   3   4   8   43.65    6.40   6
   3   4   8   53.86    6.61   1
  -3  -4  -8   51.06    6.89   1
   4   4   8  125.39   11.65   6
  -4  -4  -8  126.01   11.06   1
  -7   5   8   -1.93    2.15   1
  -7   5   8    7.11    4.41   5
  -6   5   8   10.76    3.40   1
  -6   5   8   19.13    6.15   5
   6  -5  -8   18.07    4.35   1
  -5   5   8    0.74    1.81   1
   5  -5  -8    0.43    2.16   1
  -5   5   8    5.02    3.40   5
   4  -5  -8  117.89    9.09   1
  -4   5   8   90.40    8.93   5
  -4   5   8  114.69    8.28   1
   3  -5  -8   11.83    5.64   3
  -3   5   8    2.49    2.51   1
  -3   5   8    2.21    2.39   5
   2  -5  -8  245.51   14.64   1
   2  -5  -8  242.32   19.89   3
  -2   5   8  289.21   14.47   1
  -1   5   8    8.48    3.09   6
   1  -5  -8    4.67    3.44   1
   1  -5  -8   11.05    4.71   3
  -1   5   8   16.93    3.64   1
   0   5   8  518.99   24.52   1
   0   5   8  533.34   28.17   6
   0  -5  -8  525.67   31.95   3
   0  -5  -8  564.51   25.79   1
  -1  -5  -8   82.39    9.23   3
   1   5   8   85.93    8.90   6
   1   5   8   89.94    7.88   1
  -1  -5  -8   82.85    8.11   1
   2   5   8  203.47   14.92   6
  -2  -5  -8  200.03   13.58   1
   3   5   8  150.17   12.77   6
  -3  -5  -8  141.87   11.53   1
   6  -6  -8   62.58    7.14   1
  -6   6   8   67.10    6.65   1
  -6   6   8   67.46    8.55   5
  -5   6   8   88.47    7.11   1
  -5   6   8   89.62    9.19   5
   5  -6  -8   73.18    7.19   1
   4  -6  -8   97.27   13.72   3
  -4   6   8   92.43    8.82   5
   4  -6  -8   83.12    8.05   1
  -4   6   8   98.50    7.68   1
   3  -6  -8  300.98   24.03   3
  -3   6   8  303.46   15.62   1
   3  -6  -8  279.42   16.12   1
   2  -6  -8   49.12    6.12   1
  -2   6   8   50.21    5.47   1
   2  -6  -8   48.87    8.75   3
   1  -6  -8  469.59   29.47   3
  -1   6   8  455.47   21.25   1
   1  -6  -8  412.08   21.54   1
  -1   6   8  432.34   24.58   6
   0  -6  -8    2.08    3.47   1
   0  -6  -8   -1.90    3.11   3
   0   6   8    6.27    3.27   6
   1   6   8  366.83   22.26   6
  -1  -6  -8  377.51   24.87   3
  -1  -6  -8  376.90   19.94   1
  -2  -6  -8   26.77    5.31   1
   5  -7  -8  264.21   25.52   3
   5  -7  -8  219.79   13.96   1
  -5   7   8  230.44   16.64   5
   4  -7  -8  166.50   11.07   1
  -4   7   8  133.97   11.35   5
   4  -7  -8  142.50   17.42   3
   3  -7  -8  224.28   13.75   1
   3  -7  -8  229.36   20.87   3
   2  -7  -8  317.77   17.54   1
   2  -7  -8  335.83   25.12   3
   1  -7  -8  104.67   12.24   3
   1  -7  -8   90.19    8.17   1
  -1   7   8   87.13    9.43   6
   0  -7  -8  527.84   25.22   1
   0   7   8  511.78   28.56   6
   0  -7  -8  512.74   32.99   3
  -1  -7  -8   27.44    5.23   1
   4  -8  -8  298.07   16.87   1
   3  -8  -8   36.17    5.37   1
   3  -8  -8   44.63    9.62   3
   2  -8  -8  210.19   13.39   1
   2  -8  -8  203.76   19.68   3
   1  -8  -8  110.83   13.44   3
   1  -8  -8  102.48    8.75   1
  -1 -10   9  125.43   10.94   7
   0 -10   9   -3.49    3.56   7
   1 -10   9  161.75   14.22   7
   3   9  -9   66.55    7.36   4
   2   9  -9  117.40   11.03   2
   2   9  -9  103.14    8.74   4
   1   9  -9   58.63    8.26   2
  -1  -9   9   65.52    7.38   7
  -1  -9   9   57.72    4.77   1
   0   9  -9  397.69   25.61   2
   0  -9   9  430.89   25.06   7
   0  -9   9  468.15   28.96   9
   0  -9   9  420.39   19.01   1
  -1   9  -9   26.00    7.33   5
   1  -9   9   30.25    6.42   7
  -1   9  -9   20.52    6.45   2
   1  -9   9   37.15    7.43   9
   1  -9   9   31.56    4.07   1
  -2   9  -9  272.81   22.48   5
   2  -9   9  339.26   23.28   7
   2  -9   9  346.39   17.00   1
   2  -9   9  326.18   22.38   9
  -2   9  -9  312.75   22.17   2
   3  -9   9    3.83    3.83   9
  -3   9  -9   12.10    6.02   5
   3  -9   9    3.29    3.07   1
   4   8  -9  236.74   17.45   2
  -4  -8   9  251.69   12.54   1
   4   8  -9  247.20   16.27   4
   3   8  -9   41.36    6.38   2
  -3  -8   9   52.71    4.53   1
   3   8  -9   43.30    6.07   4
  -2  -8   9  335.66   15.26   1
   2   8  -9  343.81   18.66   4
  -2  -8   9  309.06   18.29   7
   2   8  -9  321.69   20.65   2
  -1  -8   9  132.78   10.48   7
   1   8  -9  106.73   10.64   2
  -1  -8   9  115.99    7.48   1
   0  -8   9  369.98   17.44   1
   0   8  -9  373.29   23.52   2
   0  -8   9  381.53   22.74   7
   1  -8   9  217.64   16.82   7
  -1   8  -9  173.28   16.63   5
   1  -8   9  217.35   16.91   9
   1  -8   9  215.24   12.01   1
  -1   8  -9  190.70   15.99   2
  -2   8  -9   64.71    9.60   5
   2  -8   9   64.28    9.69   7
   2  -8   9   68.66    6.71   1
  -2   8  -9   64.94    9.22   2
   2  -8   9   72.73    9.10   9
  -3   8  -9  202.48   16.73   2
   3  -8   9  188.00   15.36   9
   3  -8   9  184.71   12.29   1
   3  -8   9  223.81   18.98   7
  -3   8  -9  191.47   16.79   5
   4  -8   9    1.06    2.61   1
  -5  -7   9  177.38   10.39   1
   5   7  -9  177.70   14.34   2
   5   7  -9  191.55   14.30   4
  -4  -7   9   25.52    3.47   1
   4   7  -9   16.74    4.11   4
   4   7  -9   28.60    5.83   2
   3   7  -9  319.90   20.06   2
   3   7  -9  319.91   18.66   4
  -3  -7   9  330.08   15.39   1
  -2  -7   9   42.08    5.19   7
   2   7  -9   34.41    5.74   2
  -1  -7   9  380.48   17.62   1
   1   7  -9  393.42   23.02   2
  -1  -7   9  361.08   21.28   7
   0   7  -9   88.19    9.54   2
   0  -7   9   67.09    6.03   1
   0  -7   9   79.13    8.79   7
   1  -7   9  216.25   12.09   1
  -1   7  -9  165.65   14.79   2
   1  -7   9  201.30   26.79   7
   2  -7   9   90.21    9.79   9
   2  -7   9   93.82    7.81   1
  -2   7  -9   98.51   11.33   5
   2  -7   9   98.68   11.83   7
  -2   7  -9   87.07   10.52   2
  -3   7  -9   33.21    6.72   2
   3  -7   9   42.33    6.55   9
  -3   7  -9   56.42    8.64   5
   3  -7   9   41.77    5.66   1
  -4   7  -9   72.81    9.93   2
   4  -7   9   62.63    7.80   9
   4  -7   9   53.72    6.53   1
  -4   7  -9   67.88    9.49   5
  -6  -6   9  105.52    7.81   1
   6   6  -9   97.48   10.13   2
  -5  -6   9  159.21    9.70   1
   5   6  -9  153.07   12.34   4
   5   6  -9  145.54   12.18   2
   4   6  -9  254.71   16.91   2
   4   6  -9  245.45   16.14   4
  -4  -6   9  263.21   13.19   1
   3   6  -9   99.68    9.17   2
  -3  -6   9   88.80    6.68   1
  -2  -6   9  323.22   16.00   1
   2   6  -9  350.24   20.54   2
  -2  -6   9  348.43   18.91   7
  -1  -6   9    3.27    2.93   7
   1   6  -9    2.99    2.49   1
   1   6  -9   13.03    4.49   2
   0  -6   9  420.09   20.26   1
   0   6  -9  417.39   25.17   2
   0   6  -9  458.10   21.07   1
  -1   6  -9   27.34    4.60   1
   1  -6   9   30.17    4.66   1
  -1   6  -9   30.30    6.40   2
   2  -6   9   68.45    8.01   9
  -2   6  -9   64.12    6.85   1
  -2   6  -9   73.88    9.25   2
   2  -6   9   73.90    7.13   1
  -2   6  -9   65.07    8.79   5
  -3   6  -9   48.87    7.96   2
   3  -6   9   48.07    6.01   1
   3  -6   9   55.09    6.93   9
  -3   6  -9   39.87    6.95   5
  -3   6  -9   44.99    6.06   1
  -4   6  -9    1.73    4.52   2
  -4   6  -9   -3.99    3.38   1
  -4   6  -9    2.70    3.97   5
   4  -6   9    0.46    3.32   1
  -5   6  -9   26.08    5.48   1
   5  -6   9   14.54    4.93   1
  -5   6  -9   12.78    4.66   5
  -6  -5   9  153.20    9.80   1
   6   5  -9  139.38   11.96   4
   6   5  -9  130.47   11.40   2
  -5  -5   9   29.56    4.07   1
   5   5  -9   22.14    4.62   2
  -4  -5   9  135.30    8.56   1
   4   5  -9  138.32    8.80   1
   4   5  -9  109.92   10.16   2
   3   5  -9   82.23    8.26   2
  -3  -5   9   72.52    6.13   1
   3   5  -9   75.43    6.41   1
  -2  -5   9   96.89   23.99   1
   2   5  -9  112.46   36.24   1
   2   5  -9   68.67   48.95  10
   2   5  -9  165.44   11.73   2
  -1  -5   9   43.86    4.69   1
   1   5  -9   44.41    5.01   1
  -1  -5   9   63.53   17.21  10
   1   5  -9   47.79   14.52  10
   1   5  -9   52.20    6.96   2
   0   5  -9   -0.16    1.81   1
   0   5  -9   18.71   10.61  10
   0  -5   9    0.16    7.17  10
   0  -5   9   -0.77    1.96   1
   0   5  -9    3.79    3.86   2
  -1   5  -9    4.03    3.05   1
   1  -5   9   28.33   13.04  10
  -1   5  -9   31.13   14.25  10
   2  -5   9   12.82    3.14   1
  -2   5  -9   10.11    4.76   2
  -2   5  -9    4.94    7.20  10
  -2   5  -9   17.63    5.00   5
   2  -5   9   33.94   14.74  10
  -2   5  -9   12.48    3.20   1
   3  -5   9   19.85    4.08   9
  -3   5  -9   15.62    3.74   1
   3  -5   9   20.43    3.92   1
  -3   5  -9   19.09    5.94   2
  -3   5  -9   20.87    4.85   5
   4  -5   9   15.84    4.13   1
  -4   5  -9   18.33    4.58   1
  -4   5  -9   11.17    5.50   2
  -4   5  -9   19.89    5.20   5
   5  -5   9   27.11    5.62   1
  -5   5  -9   42.62    6.61   1
  -7  -4   9   87.49    9.01   8
   7   4  -9   87.06    9.14   2
  -7  -4   9   87.97    7.65   1
  -6  -4   9   22.07    3.84   1
   6   4  -9   16.62    4.35   2
   5   4  -9   93.55    7.31   1
   5   4  -9   80.53    8.01   2
  -5  -4   9   83.19    6.71   1
   4   4  -9    3.89    3.11   2
  -4  -4   9    5.99    2.14   1
  -3  -4   9   42.20   14.33  10
   3   4  -9   21.74    4.37   2
   3   4  -9   10.38    7.84  10
  -3  -4   9   23.55    3.38   1
  -3  -4   9   18.83    3.19   7
   3   4  -9   20.73    3.41   1
   2   4  -9   49.79   11.49   1
  -2  -4   9   13.27   27.62  10
   2   4  -9   11.80   25.11  10
  -2  -4   9   33.86    7.20   1
   1   4  -9  -11.51    9.71  10
  -1  -4   9   22.46   11.87  10
  -1  -4   9   12.00    3.09   1
   1   4  -9    6.66    3.20   2
   0   4  -9    1.21    6.00  10
   0  -4   9    2.40    2.60   1
   0   4  -9    0.16    2.23   1
   0  -4   9  -13.98    9.89  10
   1  -4   9   85.45   20.62  10
   1  -4   9   39.12    4.89   1
  -1   4  -9   47.47    7.11   2
  -1   4  -9   21.35   11.76  10
  -1   4  -9   40.77    5.15   1
   2  -4   9   26.61    4.54   1
  -2   4  -9    8.40    3.92   5
  -2   4  -9   16.86    4.17   1
   2  -4   9   -5.02    9.57  10
  -2   4  -9   26.43   13.51  10
  -3   4  -9   38.73    5.81   1
  -3   4  -9   32.64    6.88   2
   3  -4   9   50.38    6.11   1
  -3   4  -9   41.74    6.12   5
   3  -4   9   46.67    5.60   9
  -4   4  -9   27.53    5.36   1
   4  -4   9   28.90    5.32   1
  -4   4  -9   23.66    5.65   2
  -5   4  -9   13.87    5.51   2
  -5   4  -9   12.83    4.32   1
   5  -4   9   17.53    4.59   1
   7   3  -9   15.51    4.23   2
  -7  -3   9   15.34    3.82   1
   7   3  -9   17.83    4.06   1
   6   3  -9    9.81    3.21   1
   5   3  -9    7.68    2.83   1
  -4  -3   9    1.98    2.59   1
   4   3  -9   26.91   12.63  10
  -4  -3   9    0.71    4.69  10
  -3  -3   9   39.36   13.87  10
  -3  -3   9    0.38    2.26   1
   3   3  -9   -9.42    8.87  10
   2   3  -9   61.90   17.75  10
   2   3  -9   48.26    5.36   1
   1   3  -9   13.86    9.36  10
  -1  -3   9  -10.71    9.14  10
   1   3  -9    2.85    2.53   2
   1   3  -9    2.23    2.14   1
  -1  -3   9   -3.09    2.05   1
   0   3  -9  135.00   11.13   2
   0  -3   9  120.67    8.99   1
   0   3  -9  117.08    9.19   1
   0   3  -9  135.76   26.86  10
   0  -3   9  129.75   24.69  10
   1  -3   9    9.53    3.47   1
   1  -3   9   19.61   11.80  10
  -1   3  -9   11.33    3.70   1
  -1   3  -9   -1.63    7.96  10
   2  -3   9   92.73   23.04  10
  -2   3  -9   86.82    9.56   2
  -2   3  -9   83.45    7.94   1
  -2   3  -9   90.42    9.00   5
   2  -3   9   91.57    8.08   1
  -3   3  -9    4.97    3.25   5
   3  -3   9    5.35    2.43   9
  -3   3  -9    9.31    3.85   1
  -3   3  -9    5.85    4.75   2
   3  -3   9    4.32    3.33   1
  -4   3  -9   40.65    6.27   1
   4  -3   9   43.31    6.18   1
  -5   3  -9    7.25    3.90   2
   5  -3   9   -1.81    3.70   1
  -5   3  -9   16.73    4.91   1
  -7  -2   9   20.56    4.11   1
   7   2  -9   10.00    3.46   1
   7   2  -9    3.63    2.99   2
   6   2  -9   -0.37    2.72   1
  -6  -2   9   -1.28    2.42   1
   6   2  -9    2.45    2.54   2
   5   2  -9   43.48    5.55   2
   5   2  -9   47.15    5.30   1
  -5  -2   9   55.70   16.98  10
  -5  -2   9   47.85    5.32   1
   4   2  -9    7.79    3.15   1
  -4  -2   9   -0.05    6.39  10
   4   2  -9    2.35    2.43   2
   4   2  -9   -4.53    8.27  10
   3   2  -9  144.91    9.52   1
   3   2  -9  157.28   26.22  10
  -3  -2   9  112.85   21.57  10
   3   2  -9  134.23    9.84   2
  -3  -2   9  125.94    8.67   1
  -2  -2   9   21.06   14.07  10
   2   2  -9   40.64    6.04   1
   1   2  -9  286.85   37.72  10
   1   2  -9  230.60   15.15   2
  -1  -2   9  223.59   12.97   1
   1   2  -9  231.75   13.66   1
  -1  -2   9  203.60   30.23  10
   0  -2   9   11.17    9.87  10
   0   2  -9   29.23   13.93  10
  -1   2  -9  143.80   12.27   2
   1  -2   9  187.51   11.45   1
  -1   2  -9  150.77   10.97   1
   1  -2   9  172.76   29.32  10
   2  -2   9   68.31   14.72   1
  -2   2  -9   86.77   24.49   2
  -2   2  -9   44.57   18.52   1
  -3   2  -9   37.02    6.95   2
  -3   2  -9   35.74    5.72   1
   3  -2   9   50.81    6.16   1
   4  -2   9    7.56    3.06   1
  -4   2  -9    3.38    2.92   1
  -4   2  -9    1.74    3.04   2
  -5   2  -9    7.73    4.37   2
   5  -2   9    4.46    3.91   1
   7   1  -9   17.86    4.24   1
  -7  -1   9    3.33    3.01   1
   6   1  -9    9.08    2.98   2
  -6  -1   9   13.98    3.40   1
   6   1  -9   10.65    3.41   1
   5   1  -9   28.03    4.45   1
  -5  -1   9   31.48    4.46   1
   5   1  -9   31.70    4.51   2
   4   1  -9   15.66   14.39   1
   4   1  -9   17.22    9.81   2
  -4  -1   9   12.96   10.55  10
  -4  -1   9   16.75    3.20   1
   3   1  -9   54.82   17.20  10
   3   1  -9   43.84    5.43   2
  -3  -1   9   43.57   14.39  10
   3   1  -9   47.44    5.79   1
  -3  -1   9   50.15    5.47   1
  -2  -1   9   -0.14    1.65   1
   2   1  -9   -1.71    7.18  10
  -2  -1   9  -18.06   10.29  10
  -1  -1   9   17.63   10.44  10
  -1  -1   9   32.56    3.52   6
   1   1  -9   42.68    5.55   1
  -1  -1   9   35.89    4.83   1
   1   1  -9   18.03   12.03  10
   0  -1   9    2.08    1.52   6
   0  -1   9   18.52   11.45  10
   0   1  -9    0.10    2.64   2
   0   1  -9    4.15    3.26   1
   0   1  -9   18.08   11.99  10
   1  -1   9   12.90    3.87   1
   1  -1   9   13.54    2.77   6
  -2   1  -9   19.62    3.80   5
   2  -1   9   12.67    3.99   1
  -2   1  -9   14.75    4.44   1
   2  -1   9   17.63    3.44   6
  -2   1  -9   20.20    4.68   2
  -3   1  -9   13.12    4.83   2
  -3   1  -9   14.42    4.36   1
   3  -1   9   10.90    3.82   1
   4  -1   9   26.40    5.17   1
  -4   1  -9   23.72    5.21   1
  -4   1  -9   15.92    5.42   2
  -5   1  -9   24.49    5.00   1
   5  -1   9   19.92    4.50   1
  -7   0   9    4.54    2.99   1
   7   0  -9    0.21    2.67   1
   6   0  -9   16.64    3.54   1
  -6   0   9   13.07    3.01   1
  -5   0   9   12.79    2.98   1
   5   0  -9   10.92    3.08   1
  -4   0   9    8.18    3.08   1
   4   0  -9   15.08   15.56   1
   4   0  -9   11.19    3.00   2
  -3   0   9    1.95    6.65  10
  -3   0   9   -4.83    2.96   1
   3   0  -9   10.45    3.53   1
   3   0  -9    2.16    1.76   2
   2   0  -9    3.94    2.92   1
  -2   0   9    5.36    7.55  10
  -2   0   9    2.07    2.31   1
   1   0  -9    9.68    3.66   1
  -1   0   9    6.03    2.91   1
  -1   0   9    6.24    7.83  10
   1   0  -9    7.35    3.22   2
   0   0   9    1.28    1.58   6
   0   0  -9   -1.97    2.46   2
   0   0   9    0.48    2.57   1
   0   0  -9    5.60    3.52   1
  -1   0  -9   61.62    7.35   2
   1   0   9   62.40    5.89   6
  -1   0  -9   59.55    6.49   1
  -1   0  -9   60.31    5.59   3
   1   0   9   62.63    6.37   1
   2   0   9   49.75   41.10   6
   2   0   9   50.30   20.01   1
  -2   0  -9  103.96   33.12   2
   3   0   9  118.72    9.67   1
  -3   0  -9  115.62   10.05   1
  -3   0  -9  117.18   11.81   2
   3   0   9  132.61    9.97   6
   4   0   9    6.54    3.02   1
  -4   0  -9   11.49    4.62   2
  -7   1   9    3.19    3.09   1
   7  -1  -9    5.98    3.52   1
   6  -1  -9    5.33    3.31   1
  -6   1   9    7.18    3.00   1
   5  -1  -9    3.18    3.36   1
  -4   1   9   35.08    4.75   1
   4  -1  -9   30.42    5.02   1
   3  -1  -9   42.90    5.66   1
  -3   1   9   56.37    5.79   1
   3  -1  -9   53.48    5.27   2
   2  -1  -9  133.52    9.38   1
  -2   1   9   98.53    7.95   1
   2  -1  -9  105.09   15.90   2
  -1   1   9  120.83    8.49   6
  -1   1   9  119.89    8.73   1
   1  -1  -9  124.05    9.49   2
   1  -1  -9  120.18    9.27   1
   0  -1  -9  333.49   18.62   1
   0   1   9  353.21   18.71   6
   0   1   9  337.34   18.23   1
   0  -1  -9  412.42   21.48   2
   0  -1  -9  370.44   21.57   3
  -1  -1  -9   90.03    9.28   2
  -1  -1  -9   79.13    8.29   1
   1   1   9  108.68    8.82   1
   1   1   9  108.48    8.21   6
   2   1   9  285.97   17.05   6
  -2  -1  -9  322.29   20.61   2
   2   1   9  318.43   17.17   1
  -2  -1  -9  290.21   17.22   1
  -3  -1  -9   19.48    5.56   2
  -3  -1  -9   23.51    5.23   1
   3   1   9   11.05    3.89   1
   3   1   9   16.21    4.15   6
  -4  -1  -9  248.53   16.13   1
   4   1   9  248.73   16.21   6
   4   1   9  251.79   15.63   1
  -4  -1  -9  230.33   18.10   2
   7  -2  -9    4.83    2.93   1
  -7   2   9    2.25    2.61   1
  -6   2   9   84.44    7.43   1
   6  -2  -9   80.28    7.83   1
  -5   2   9    4.58    3.02   1
   5  -2  -9    3.01    3.30   1
   4  -2  -9  269.88   15.31   1
  -4   2   9  254.88   14.32   1
   3  -2  -9    4.07    3.29   1
  -3   2   9    2.76    2.90   1
   2  -2  -9  454.34   22.99   1
  -2   2   9  493.42   22.62   1
  -1   2   9  108.18    8.49   6
   1  -2  -9  122.98    9.45   2
   1  -2  -9   97.42    8.93   1
  -1   2   9  123.47    8.99   1
   0  -2  -9  804.89   35.71   1
   0   2   9  807.60   35.14   1
   0  -2  -9  761.62   42.37   3
   0  -2  -9  948.11   41.12   2
   0   2   9  756.61   37.10   6
   1   2   9  227.50   14.78   6
  -1  -2  -9  256.64   17.50   2
  -1  -2  -9  268.66   15.76   1
   1   2   9  262.15   15.16   1
   2   2   9  259.14   15.26   1
  -2  -2  -9  252.67   15.63   1
  -2  -2  -9  227.73   17.47   2
   2   2   9  262.15   15.91   6
   3   2   9  235.46   14.93   1
  -3  -2  -9  235.52   15.44   1
   3   2   9  250.74   15.96   6
  -3  -2  -9  217.53   17.72   2
  -4  -2  -9   50.55    6.79   1
   4   2   9   37.93    6.35   6
   4   2   9   43.85    5.97   1
   7  -3  -9   67.71    7.57   1
  -7   3   9   89.45    7.90   1
  -6   3   9   41.41    5.42   1
   6  -3  -9   35.12    5.67   1
  -5   3   9  312.34   16.24   1
   5  -3  -9  289.86   16.65   1
   4  -3  -9   49.24    5.85   1
  -4   3   9   45.84    5.37   1
   3  -3  -9  603.31   28.18   1
  -3   3   9  621.43   27.51   1
   2  -3  -9   15.69    4.38   1
  -1   3   9  743.88   31.27   1
   1  -3  -9  722.38   39.72   3
   1  -3  -9  675.10   31.61   1
  -1   3   9  683.36   33.54   6
   0   3   9   50.49    6.35   6
   0  -3  -9   66.02    7.74   3
   0  -3  -9   67.53    7.28   1
   0   3   9   67.66    6.83   1
   1   3   9  506.12   23.96   1
  -1  -3  -9  457.77   24.05   1
   1   3   9  488.92   25.53   6
  -2  -3  -9  114.06    9.85   1
   2   3   9  118.50   10.35   6
   2   3   9  132.12    9.99   1
  -3  -3  -9  174.75   13.16   1
   3   3   9  195.50   13.13   1
   3   3   9  189.28   13.97   6
  -7   4   9  177.41   15.98   5
  -7   4   9  197.92   12.83   1
   7  -4  -9  207.60   13.76   1
   6  -4  -9   98.14    8.57   1
  -6   4   9   91.07   10.08   5
  -6   4   9  100.05    7.99   1
  -5   4   9  277.71   15.33   1
   5  -4  -9  268.02   15.88   1
   4  -4  -9  346.19   18.81   1
  -4   4   9  356.81   18.06   1
   3  -4  -9  165.59   11.26   1
  -3   4   9  153.09   10.29   1
   2  -4  -9  515.06   26.50   1
   2  -4  -9  610.97   35.89   3
  -2   4   9  592.10   26.33   1
   1  -4  -9   41.53    6.92   3
  -1   4   9   41.10    5.50   6
   1  -4  -9   30.70    5.67   1
  -1   4   9   39.42    5.32   1
   0  -4  -9  721.91   40.40   3
   0   4   9  733.59   32.28   1
   0  -4  -9  767.87   33.51   1
   0   4   9  705.47   35.32   6
   1   4   9    2.15    3.08   6
  -1  -4  -9   -3.93    2.81   1
   2   4   9  205.68   14.73   6
   2   4   9  213.02   13.81   1
  -2  -4  -9  210.85   14.39   1
  -3  -4  -9   28.50    6.04   1
   3   4   9   23.55    5.49   6
  -6   5   9  334.57   17.10   1
  -6   5   9  275.54   19.98   5
   6  -5  -9  295.19   17.41   1
   5  -5  -9   77.88    7.56   1
  -5   5   9   68.12    8.49   5
  -5   5   9   87.50    7.55   1
   4  -5  -9  339.57   18.78   1
  -4   5   9  342.69   17.87   1
   3  -5  -9  219.41   19.34   3
   3  -5  -9  192.89   13.08   1
  -3   5   9  221.30   12.79   1
   2  -5  -9  178.21   12.42   1
   2  -5  -9  187.50   16.49   3
  -2   5   9  166.95   11.27   1
   1  -5  -9  205.56   13.99   1
  -1   5   9  227.62   15.46   6
   1  -5  -9  239.34   18.33   3
  -1   5   9  230.40   13.56   1
   0   5   9   38.16    5.36   1
   0  -5  -9   32.89    6.34   3
   0  -5  -9   35.85    5.81   1
   0   5   9   24.89    5.19   6
  -1  -5  -9  123.44   10.36   1
   1   5   9  117.98   10.74   6
   2   5   9    9.71    4.41   6
  -2  -5  -9   -2.37    2.96   1
   5  -6  -9  191.86   12.88   1
  -5   6   9  196.76   12.20   1
  -5   6   9  182.63   14.36   5
   4  -6  -9    2.99    3.69   1
  -4   6   9   -1.54    2.74   5
  -4   6   9   10.72    3.55   1
   3  -6  -9  119.76   10.24   1
  -3   6   9  151.89   10.31   1
   3  -6  -9  150.36   15.63   3
   2  -6  -9   66.04    7.60   1
  -1   6   9   39.27    6.55   6
   1  -6  -9   34.39    7.30   3
   1  -6  -9   48.14    6.55   1
   0  -6  -9   49.02    8.15   3
   0  -6  -9   65.72    7.32   1
   0   6   9   67.58    8.01   6
  -1  -6  -9   -1.70    3.62   1
   1   6   9    0.87    2.58   6
   4  -7  -9   54.00    6.57   1
   4  -7  -9   49.80   10.49   3
   3  -7  -9    3.61    5.31   3
   3  -7  -9    5.08    3.69   1
   2  -7  -9   23.23    7.11   3
  -1   7   9    3.25    4.22   6
   1  -7  -9    2.57    4.25   3
   1  -7  -9    2.74    2.80   1
  -1  -9  10   -3.28    3.17   7
   0  -9  10  100.72    7.41   1
   0  -9  10  115.38   12.59   9
   0  -9  10   95.18   10.57   7
   1  -9  10    9.48    4.91   7
   1  -9  10   12.05    5.16   9
   1  -9  10   11.13    3.05   1
  -3  -8  10   21.08    3.40   1
   3   8 -10   27.30    6.00   2
  -2  -8  10   24.86    9.24   1
  -1  -8  10   14.50    3.04   1
  -1  -8  10   13.13    3.90   7
   0   8 -10   11.75    4.51   2
   0  -8  10   16.50    5.23   7
   0  -8  10   17.77    3.45   1
  -1   8 -10   -5.60    5.16   2
  -1   8 -10    2.49    5.10   5
   1  -8  10   -1.84    3.95   7
   1  -8  10    1.61    2.16   1
   1  -8  10    2.30    3.96   9
   2  -8  10    9.09    4.31   9
   2  -8  10   17.58    3.68   1
  -2   8 -10   16.28    5.77   5
   2  -8  10   22.18    7.01   7
   4   7 -10   -2.64    3.88   2
  -4  -7  10    2.86    2.22   1
   3   7 -10   10.62    4.38   2
  -3  -7  10    3.64    2.43   1
   2   7 -10   11.06    4.11   2
  -1  -7  10   -5.44    9.81   7
  -1  -7  10    2.41    2.46   1
   1   7 -10    7.91    4.42   2
   0   7 -10   21.15    6.08   2
   0  -7  10   18.67    5.47   7
   1  -7  10   20.58    4.15   1
   1  -7  10   24.23    6.46   7
  -2   7 -10   21.59    6.23   5
   2  -7  10   24.41    4.80   1
   2  -7  10   25.24    5.62   9
  -2   7 -10   27.92    7.07   2
  -3   7 -10   10.03    5.35   5
  -3   7 -10    2.12    3.81   2
   3  -7  10   11.68    4.20   1
   5   6 -10    7.74    3.98   2
  -5  -6  10   -3.66    2.54   1
   4   6 -10    3.18    3.22   2
  -4  -6  10    0.12    2.20   1
   3   6 -10    4.94    3.65   2
  -3  -6  10   -1.57    2.35   1
  -2  -6  10   29.77    4.25   1
   2   6 -10   31.89    6.08   2
  -1  -6  10   -2.02    2.41   1
  -1  -6  10    0.39    2.58   7
   0   6 -10   62.33    8.47   2
   0  -6  10   60.12    6.02   1
  -1   6 -10    2.92    2.38   1
  -1   6 -10   -2.33    4.04   2
   1  -6  10    0.46    1.93   1
  -2   6 -10   64.35    8.68   5
  -2   6 -10   62.78    9.17   2
   2  -6  10   49.64    6.41   1
  -2   6 -10   49.05    6.48   1
   2  -6  10   67.51    7.86   9
   3  -6  10    3.86    3.01   9
  -3   6 -10    5.53    4.85   2
  -3   6 -10    5.92    3.55   1
   3  -6  10   15.55    4.43   1
  -5  -5  10   14.06    3.25   1
   5   5 -10   14.44    4.52   2
  -4  -5  10    0.01    2.34   1
   4   5 -10    1.16    3.14   2
   3   5 -10   39.62    6.01   2
  -3  -5  10   31.41    4.45   1
   3   5 -10   34.90    4.89   1
  -2  -5  10   13.36    3.00   1
   2   5 -10   20.73    5.09   2
   1   5 -10   48.09    6.78   2
   1   5 -10   56.69    6.27   1
  -1  -5  10   48.82    5.55   1
   0   5 -10   22.37   12.46  10
   0   5 -10   11.95    4.71   2
  -1   5 -10   24.73    4.39   1
  -1   5 -10   27.94   13.49  10
  -1   5 -10   16.56    5.47   2
   1  -5  10   27.57    4.39   1
  -2   5 -10   32.76    7.04   2
  -2   5 -10   21.44    4.84   1
   2  -5  10   21.19    4.66   1
   3  -5  10    8.83    3.52   1
  -3   5 -10    6.69    3.36   1
  -3   5 -10    0.83    3.44   5
  -3   5 -10   -5.81    4.74   2
  -4   5 -10   10.53    3.52   1
  -4   5 -10    0.75    4.06   2
   4  -5  10    5.29    3.02   1
   6   4 -10   12.36    3.94   2
  -5  -4  10   11.53    3.27   1
   5   4 -10   -3.29    2.88   1
   5   4 -10    4.44    3.08   2
   4   4 -10   11.84    4.00   1
   4   4 -10   12.98    8.75   2
  -4  -4  10    9.73    2.75   1
  -3  -4  10   11.35    3.27   1
   3   4 -10   53.84   16.67  10
   3   4 -10   16.83    3.84   2
   3   4 -10   14.69    3.76   1
   2   4 -10   12.67    4.23   2
   2   4 -10   17.49   11.78  10
  -2  -4  10    9.54    3.20   1
   2   4 -10   11.57    3.62   1
  -2  -4  10   -5.84    8.24  10
   1   4 -10   11.52    3.64   1
  -1  -4  10   27.85   12.50  10
   0  -4  10    3.99    2.69   1
   0   4 -10    3.42    7.04  10
   0   4 -10    1.55    3.56   2
   0  -4  10   11.33    9.64  10
  -1   4 -10    9.94    3.89   1
   1  -4  10    8.50    3.63   1
   1  -4  10  -16.19   11.20  10
  -2   4 -10   10.21    4.64   5
  -2   4 -10   15.82    5.00   2
  -3   4 -10   27.23    5.52   5
  -3   4 -10   17.63    5.97   2
  -3   4 -10   24.98    5.05   1
   3  -4  10   20.18    4.57   1
  -4   4 -10    3.07    3.38   1
  -4   4 -10    7.36    4.94   2
  -6  -3  10   -0.10    2.55   1
   6   3 -10   -1.27    2.62   1
   5   3 -10    9.76    3.58   2
  -5  -3  10    8.68    2.67   1
   4   3 -10    4.11    2.87   2
  -4  -3  10    1.94    2.46   1
   4   3 -10    3.46    3.09   1
  -4  -3  10    0.51    8.75  10
  -3  -3  10   46.01    5.42   1
   3   3 -10   41.50    5.97   2
   3   3 -10   53.84   17.61  10
   3   3 -10   44.13    5.65   1
   2   3 -10   24.53   12.88  10
   2   3 -10    5.95    2.76   1
  -2  -3  10    5.09    2.50   1
  -2  -3  10   11.67   10.89  10
   2   3 -10    0.15    3.00   2
  -1  -3  10  117.46   25.04  10
   1   3 -10  126.15   26.43  10
   1   3 -10  131.39   11.33   2
   1   3 -10  111.82    9.40   1
  -1  -3  10  122.68    9.21   1
   0  -3  10    7.50   10.00  10
   0  -3  10   13.78    4.10   1
   0   3 -10   16.50    4.95   2
  -1   3 -10  203.61   15.65   2
   1  -3  10  216.39   13.31   1
  -1   3 -10  199.33   13.39   1
  -2   3 -10   53.26    7.65   2
  -2   3 -10   44.25   12.54   1
   2  -3  10   61.06   10.92   1
   3  -3  10  169.62   12.22   1
  -3   3 -10  179.13   12.88   1
  -3   3 -10  162.83   14.48   2
   4  -3  10   39.80    5.89   1
  -4   3 -10   43.04    7.67   2
  -4   3 -10   37.45    6.15   1
   7   2 -10   -0.59    2.24   1
   6   2 -10    8.24    3.18   2
   6   2 -10    0.01    2.54   1
   5   2 -10    5.75    2.61   2
   5   2 -10    2.58    3.00   1
   4   2 -10   27.72    4.84   2
  -4  -2  10   32.04    4.41   1
   4   2 -10   29.87    4.53   1
  -3  -2  10   54.98   16.89  10
   3   2 -10   38.55    5.61   2
  -3  -2  10   28.20    4.54   1
   3   2 -10   39.05    5.55   1
  -2  -2  10  127.23    9.59   1
   2   2 -10  133.56   11.15   2
   2   2 -10  142.16   10.52   1
  -2  -2  10  153.88   27.61  10
   1   2 -10   69.65    7.26   1
  -1  -2  10   54.10    6.24   1
   1   2 -10   70.02    7.88   2
  -1  -2  10   51.85   17.59  10
   0  -2  10  529.60   25.00   1
   0   2 -10  510.34   28.42   2
   0   2 -10  522.11   25.39   1
   1  -2  10   24.71    4.54   1
  -1   2 -10   38.04    5.44   1
  -1   2 -10   30.68    6.14   2
  -2   2 -10  346.14   22.14   2
   2  -2  10  366.00   19.24   1
  -2   2 -10  325.49   19.20   1
  -3   2 -10    0.25    2.42   1
   3  -2  10    4.19    2.69   1
  -3   2 -10    0.66    3.87   2
  -4   2 -10  203.60   16.93   2
   4  -2  10  225.77   14.73   1
  -4   2 -10  228.72   15.23   1
   7   1 -10    7.64    3.48   1
  -6  -1  10  152.99   10.52   1
   6   1 -10  142.40   10.83   1
   5   1 -10   25.73    4.93   1
  -5  -1  10   17.67    4.15   1
   5   1 -10   16.90    3.77   2
   4   1 -10  373.12   19.96   1
   4   1 -10  389.01   21.10   2
  -4  -1  10  390.16   19.49   1
   3   1 -10   83.66    7.82   2
  -3  -1  10   93.55    7.89   1
   3   1 -10   81.66    8.03   1
   2   1 -10  427.29   22.22   1
  -2  -1  10  444.22   21.76   1
   2   1 -10  475.10   24.80   2
  -1  -1  10  247.59   14.27   1
   1   1 -10  213.70   14.23   1
   1   1 -10  270.57   16.56   2
   0   1 -10  540.05   26.26   1
   0  -1  10  537.20   25.71   1
   0   1 -10  546.38   29.05   2
   1  -1  10  423.84   20.98   1
  -1   1 -10  397.95   23.55   2
  -1   1 -10  367.32   20.75   1
  -2   1 -10   85.15    8.68   1
   2  -1  10   98.25    8.81   1
  -2   1 -10   79.66    9.30   2
  -3   1 -10  307.12   18.58   1
   3  -1  10  348.97   18.79   1
  -3   1 -10  293.67   20.76   2
   4  -1  10   -1.09    3.45   1
  -4   1 -10   -2.21    3.83   1
  -4   1 -10    1.44    3.63   2
  -7   0  10  109.91    9.14   1
   7   0 -10   93.96    8.98   1
   6   0 -10   31.54    5.02   1
  -6   0  10   35.40    4.84   1
  -5   0  10  320.30   16.87   1
   5   0 -10  293.21   17.15   1
  -4   0  10    4.00    3.13   1
   4   0 -10    2.96    3.22   1
  -3   0  10  561.00   26.32   1
   3   0 -10  613.46   29.35   2
   3   0 -10  560.66   27.17   1
  -2   0  10   40.28    5.20   1
   2   0 -10   51.94    6.22   1
   2   0 -10   37.32    5.36   2
   1   0 -10  622.15   30.22   1
   1   0 -10  655.39   32.98   2
  -1   0  10  693.27   30.00   1
  -1   0  10  658.59   30.27   6
   0   0  10  274.92   16.06   1
   0   0 -10  276.03   17.76   2
   0   0 -10  293.62   16.90   1
  -1   0 -10  341.35   21.40   2
  -1   0 -10  355.62   19.69   1
   1   0  10  371.02   19.47   1
  -2   0 -10  182.72   14.68   2
   2   0  10  197.04   12.99   1
  -2   0 -10  192.21   13.27   1
  -3   0 -10   64.69    8.59   2
   3   0  10   65.96    7.49   1
  -3   0 -10   66.33    7.71   1
   7  -1 -10  113.75   10.01   1
  -7   1  10  116.84    9.65   1
  -6   1  10  241.08   14.46   1
   6  -1 -10  247.79   15.28   1
   5  -1 -10  140.80   10.82   1
  -5   1  10  149.73   10.40   1
  -4   1  10  509.70   23.86   1
   4  -1 -10  477.36   24.28   1
  -3   1  10   70.87    7.06   1
   3  -1 -10   78.01    7.96   1
   2  -1 -10  578.76   28.00   1
  -2   1  10  598.38   27.32   1
   1  -1 -10   -1.11    2.59   2
  -1   1  10    0.64    3.13   1
   1  -1 -10   11.91    4.49   1
   0   1  10  668.08   31.95   6
   0   1  10  683.94   31.05   1
   0  -1 -10  685.39   34.71   2
   0  -1 -10  694.60   31.82   1
   1   1  10   41.87    5.96   1
   1   1  10   47.42    5.55   6
  -1  -1 -10   28.38    5.69   2
  -1  -1 -10   32.31    5.73   1
  -2  -1 -10  121.33   12.05   2
  -2  -1 -10  126.66   10.89   1
   2   1  10  150.59   11.16   1
  -3  -1 -10   44.65    6.86   1
  -3  -1 -10   51.76    7.67   2
   3   1  10   42.93    6.38   1
   6  -2 -10  262.42   16.11   1
  -6   2  10  260.50   15.27   1
  -5   2  10  121.68    9.32   1
   5  -2 -10  113.95    9.70   1
   4  -2 -10  217.02   14.47   1
  -4   2  10  238.51   14.10   1
   3  -2 -10  240.26   15.21   1
  -3   2  10  250.43   14.53   1
   2  -2 -10  123.59   10.90   1
   1  -2 -10  191.36   13.16   1
  -1   2  10  182.35   12.30   6
  -1   2  10  198.55   12.57   1
   0   2  10    2.04    2.36   1
   0   2  10    4.90    2.84   6
   0  -2 -10   -4.90    3.02   1
   1   2  10   53.56    6.11   6
  -1  -2 -10   48.26    6.30   1
   1   2  10   45.80    5.84   1
  -2  -2 -10   13.83    4.77   1
   2   2  10   17.23    4.22   6
   3   2  10    5.22    3.52   1
  -3  -2 -10   -0.60    3.67   1
  -6   3  10    5.91    3.21   1
   6  -3 -10   -3.03    3.41   1
   5  -3 -10  166.93   12.46   1
  -5   3  10  170.48   11.67   1
   4  -3 -10   44.07    6.45   1
  -4   3  10   45.74    5.90   1
   3  -3 -10   69.57    7.26   1
  -3   3  10   60.24    6.37   1
  -2   3  10   81.74    8.37   1
   2  -3 -10  112.43    9.74   1
  -1   3  10    0.81    2.12   1
   1  -3 -10    0.11    2.44   1
   0   3  10   48.42    5.88   1
   0   3  10   46.59    5.95   6
   0  -3 -10   50.95    6.56   1
   1   3  10    3.95    3.08   6
  -1  -3 -10    1.35    2.63   1
  -2  -3 -10   -4.29    3.69   1
   2   3  10    2.52    3.07   6
  -6   4  10   42.64    5.80   1
   5  -4 -10   -3.98    3.62   1
  -5   4  10    9.38    3.50   1
  -4   4  10   17.79    4.13   1
   4  -4 -10    9.24    4.18   1
  -3   4  10    4.16    2.99   1
   3  -4 -10   -0.60    3.23   1
  -2   4  10   17.27    4.31   1
   2  -4 -10   27.78    5.54   1
   1  -4 -10    0.88    2.46   1
  -1   4  10    1.98    2.16   1
   1  -4 -10    4.65    3.66   3
  -1   4  10    0.79    2.36   6
   0   4  10   48.11    5.73   1
   0  -4 -10   43.13    6.00   1
   0   4  10   36.64    5.55   6
   1   4  10    8.83    3.52   6
  -1  -4 -10   -5.04    3.78   1
   1   4  10   10.51    3.73   1
   5  -5 -10   12.23    4.45   1
  -5   5  10    6.52    3.30   1
   4  -5 -10   -4.91    3.40   1
   3  -5 -10   30.03    7.00   3
   3  -5 -10   33.17    5.80   1
  -3   5  10   20.96    4.29   1
   2  -5 -10   42.52    6.73   1
   2  -5 -10   62.72    9.26   3
  -1   5  10   52.95    6.44   1
   1  -5 -10   47.83    7.71   3
  -1   5  10   59.51    7.43   6
   1  -5 -10   48.19    6.84   1
   0   5  10   -3.81    3.42   6
   2  -6 -10   27.70    5.41   1
  -2   6  10   13.54    4.44   6
   2  -6 -10   15.92    5.85   3
  -1  -8  11    2.79    2.49   1
  -3  -7  11    9.98    3.11   1
   2   7 -11   -3.34    4.33   2
  -2  -7  11   -0.25    2.01   1
  -1  -7  11   14.44    4.40   7
   1   7 -11   17.70    5.65   2
  -1  -7  11    9.71    3.35   1
   0  -7  11   16.88    5.81   7
   0   7 -11   18.69    6.12   2
  -1   7 -11   27.83    7.01   2
   1  -7  11   34.47    5.46   1
   1  -7  11   52.68    9.49   7
   4   6 -11    0.46    3.34   2
  -4  -6  11   -0.31    2.46   1
   3   6 -11   51.63    7.14   2
  -3  -6  11   59.33    6.01   1
  -2  -6  11    3.67    2.94   1
   2   6 -11    2.39    3.13   2
   1   6 -11   95.18   10.63   2
  -1  -6  11   87.70    7.57   1
  -1  -6  11   96.07   10.37   7
   0  -6  11   20.19    4.18   1
   0   6 -11   17.57    5.95   2
   1  -6  11  103.35    9.11   1
  -1   6 -11  100.01   11.36   2
  -2   6 -11   74.91    9.94   5
   2  -6  11   70.33    8.42   9
  -2   6 -11   62.89    9.84   2
   5   5 -11   12.22    4.54   2
  -5  -5  11    7.90    3.31   1
  -4  -5  11   79.64    7.34   1
   4   5 -11   74.59    8.42   2
  -3  -5  11   24.29    4.36   1
   3   5 -11   18.07    5.00   2
   2   5 -11  193.78   14.85   2
  -2  -5  11  173.78   11.49   1
   2   5 -11  191.38   12.55   1
  -1  -5  11    8.48    3.58   1
   1   5 -11   10.98    5.10   2
   0  -5  11  522.07   24.77   1
   0   5 -11  515.55   29.99   2
   0   5 -11  489.61   25.12   1
  -1   5 -11    8.15    4.03   1
   1  -5  11   -2.80    3.49   1
  -2   5 -11  292.03   20.62   2
  -2   5 -11  268.45   16.68   1
  -2   5 -11  225.92   18.51   5
   2  -5  11  291.54   16.77   1
  -5  -4  11   23.37    4.59   1
   5   4 -11   24.55    5.18   2
   4   4 -11  131.17   10.22   1
   4   4 -11  123.06   11.07   2
  -4  -4  11  140.45    9.89   1
   3   4 -11  106.64    8.98   1
  -3  -4  11  107.04    8.43   1
   3   4 -11  114.64   10.64   2
  -2  -4  11  156.18   10.88   1
   2   4 -11  182.20   14.11   2
   2   4 -11  156.65   11.57   1
   1   4 -11  261.25   15.71   1
   1   4 -11  245.81   18.14   2
  -1  -4  11  261.84   15.01   1
   0   4 -11  180.72   14.92   2
   0   4 -11  183.07   12.74   1
   0  -4  11  169.61   12.02   1
  -1   4 -11  266.76   16.65   1
  -1   4 -11  264.78   19.45   2
   1  -4  11  308.15   16.89   1
  -2   4 -11   11.48    5.26   2
  -2   4 -11   18.62    4.29   1
   2  -4  11   14.99    3.91   1
  -2   4 -11   16.99    4.74   5
  -3   4 -11  197.86   14.02   1
   3  -4  11  199.07   13.68   1
  -3   4 -11  172.72   15.82   2
   5   3 -11  330.17   20.58   2
   5   3 -11  363.68   19.41   1
  -5  -3  11  361.06   18.71   1
   4   3 -11   21.62    4.88   1
  -4  -3  11   24.15    4.59   1
   4   3 -11   12.95    3.89   2
   3   3 -11  472.25   24.05   1
   3   3 -11  486.39   27.06   2
  -3  -3  11  491.75   23.51   1
   2   3 -11   73.98    8.56   2
   2   3 -11   77.20    8.13   1
  -2  -3  11   87.41    7.99   1
   1   3 -11  349.27   21.44   2
  -1  -3  11  313.03   17.72   1
   1   3 -11  321.89   18.57   1
   0   3 -11  330.59   19.04   1
   0  -3  11  340.75   18.73   1
   0   3 -11  347.70   22.16   2
  -1   3 -11   87.14    8.91   1
  -1   3 -11  105.53   10.59   2
   1  -3  11   93.32    8.81   1
   2  -3  11  179.67   12.52   1
  -2   3 -11  170.38   12.54   1
  -2   3 -11  169.86   14.78   2
  -3   3 -11   21.63    6.16   2
  -3   3 -11   11.81    4.35   1
   3  -3  11   12.24    4.34   1
  -6  -2  11  143.12   10.59   1
   6   2 -11  138.92   11.02   1
  -5  -2  11   26.32    4.94   1
   4   2 -11  316.15   18.92   2
  -4  -2  11  297.34   16.75   1
   4   2 -11  287.67   17.40   1
  -3  -2  11   -1.16    2.97   1
   3   2 -11   -1.96    3.66   2
   2   2 -11  333.09   19.25   1
  -2  -2  11  352.99   18.69   1
   2   2 -11  343.69   21.18   2
   1   2 -11   18.74    4.42   1
   1   2 -11   25.18    5.37   2
  -1  -2  11   14.66    3.72   1
   0  -2  11  326.91   18.30   1
   0   2 -11  332.22   18.82   1
   0   2 -11  325.34   20.92   2
  -1   2 -11   44.96    7.19   2
   1  -2  11   54.74    6.76   1
  -1   2 -11   54.39    7.12   1
   2  -2  11   30.61    5.05   1
  -2   2 -11   29.05    5.12   1
   3  -2  11   45.28    6.34   1
  -3   2 -11   45.12    6.74   1
  -3   2 -11   37.58    7.09   2
  -6  -1  11  139.07   10.53   1
   6   1 -11  129.01   10.78   1
   5   1 -11  151.20   11.61   1
  -5  -1  11  148.89   10.78   1
   4   1 -11   71.89    7.67   1
  -4  -1  11   80.69    7.57   1
   3   1 -11  183.24   12.99   1
   3   1 -11  179.72   13.30   2
  -3  -1  11  190.04   12.38   1
  -2  -1  11   22.80   11.06   1
   2   1 -11   31.85   20.46   2
  -1  -1  11  105.30    8.67   1
   1   1 -11   98.53    8.97   1
   1   1 -11   89.00    9.16   2
   0   1 -11    5.50    3.74   2
   0   1 -11   12.89    4.34   1
   0  -1  11    0.85    3.16   1
   1  -1  11    7.09    3.57   1
  -1   1 -11    7.01    3.68   2
   2  -1  11   12.69    4.22   1
  -2   1 -11   11.45    4.49   1
  -2   1 -11    3.79    3.89   2
   3  -1  11   11.13    4.07   1
   6   0 -11    4.29    3.56   1
  -6   0  11   13.58    4.06   1
  -5   0  11  100.16    8.83   1
   5   0 -11   83.38    8.86   1
  -4   0  11   20.51    4.22   1
   4   0 -11   27.40    5.25   1
  -3   0  11   18.43    4.27   1
   3   0 -11   12.25    4.20   1
  -2   0  11   13.65    4.19   1
  -1   0  11   -2.32    2.45   1
   0   0  11    8.33    3.04   1
   0   0 -11    2.17    2.92   2
   0   0 -11   -0.72    2.33   1
  -1   0 -11   21.67    4.63   1
  -1   0 -11   24.37    5.42   2
   1   0  11   25.83    4.54   1
   2   0  11   21.99    4.81   1
  -2   0 -11   13.26    4.69   1
  -2   0 -11   19.66    5.23   2
  -6   1  11   12.02    3.43   1
   6  -1 -11   11.38    3.70   1
   5  -1 -11   14.51    4.89   1
  -5   1  11    3.02    3.21   1
  -4   1  11    0.01    2.32   1
   4  -1 -11   -1.66    3.17   1
  -3   1  11   -1.05    3.09   1
   3  -1 -11    2.30    3.75   1
   2  -1 -11   50.88    7.13   1
   1  -1 -11    0.53    3.52   1
  -1   1  11   -0.59    2.78   1
   0   1  11   35.82    5.60   1
   0  -1 -11   41.36    6.30   1
  -1  -1 -11    4.19    3.74   1
   1   1  11    7.19    3.58   1
  -2  -1 -11   32.30    6.19   1
   2   1  11   35.92    5.99   1
   5  -2 -11   10.49    4.36   1
  -5   2  11   -3.15    3.39   1
   4  -2 -11    0.85    2.74   1
  -3   2  11   55.66    6.72   1
   3  -2 -11   60.25    7.68   1
   2  -2 -11   19.64    5.28   1
  -2   2  11   14.48    4.25   1
  -1   2  11   83.74    7.84   1
   1  -2 -11   86.17    8.60   1
   0   2  11   24.16    4.43   1
   0  -2 -11   14.47    4.07   1
  -1  -2 -11   61.33    7.72   1
   1   2  11   54.99    7.08   1
  -5   3  11   15.54    3.79   1
   4  -3 -11   52.68    7.56   1
  -4   3  11   53.04    6.66   1
  -3   3  11    4.18    3.29   1
   3  -3 -11    4.05    3.76   1
   2  -3 -11   52.61    8.29   3
   2  -3 -11   33.71    5.64   1
  -2   3  11   41.20    5.53   1
  -2   3  11   42.75    5.73   6
   1  -3 -11    0.44    3.24   1
  -1   3  11    5.86    2.90   6
  -1   3  11    0.93    2.72   1
   0   3  11   33.33    5.02   1
   0   3  11   22.63    4.21   6
   0  -3 -11   39.66    5.90   1
   4  -4 -11    3.91    3.85   1
  -4   4  11   11.98    3.84   1
   3  -4 -11    7.42    4.92   3
   3  -4 -11   12.24    3.87   1
  -3   4  11    1.88    2.33   1
   2  -4 -11    1.64    3.72   3
  -2   4  11    4.56    3.12   1
  -2   4  11   10.23    3.51   6
   2  -4 -11   -4.39    3.91   1
   1  -4 -11   13.82    4.69   1
  -1  -6  12   76.41    7.76   1
   1   6 -12   87.64   10.85   2
  -1  -6  12   58.09    8.62   7
   3   5 -12    3.38    4.29   2
  -2  -5  12  143.67   10.77   1
   2   5 -12  159.90   14.31   2
  -1  -5  12   23.14    4.89   1
   0   5 -12   71.68    9.84   2
   0  -5  12   80.69    7.81   1
   4   4 -12   18.93    5.28   2
  -4  -4  12   18.82    4.13   1
  -3  -4  12   58.92    6.39   1
   3   4 -12   51.96    7.87   2
   3   4 -12   51.03    6.53   1
   2   4 -12   68.65    9.54   2
   1   4 -12   40.60    6.25   1
  -1  -4  12   21.50    4.74   1
   1   4 -12   25.41    5.66   2
   0  -4  12    4.23    3.54   1
   0   4 -12   11.64    4.29   1
   0   4 -12    0.29    4.04   2
  -1   4 -12    5.43    3.84   1
  -1   4 -12   -6.59    4.86   2
   4   3 -12   12.83    3.86   1
  -3  -3  12    4.29    3.43   1
   3   3 -12   -3.22    3.88   2
  -2  -3  12    3.91    3.57   1
   2   3 -12   10.50    4.75   2
   1   3 -12    0.49    2.76   2
   0   3 -12   -3.05    3.28   1
   0  -3  12    6.11    3.04   1
   0   3 -12   11.51    4.90   2
  -1   3 -12    4.84    4.35   2
  -1   3 -12    4.76    3.10   1
   1  -3  12    8.57    3.32   1
  -4  -2  12    6.00    3.74   1
   4   2 -12   -1.35    3.69   1
  -3  -2  12   12.63    4.32   1
   3   2 -12   17.67    4.99   1
   2   2 -12   37.30    6.12   2
   2   2 -12   45.07    7.00   1
  -2  -2  12   24.84    5.16   1
  -1  -2  12   15.38    4.24   1
   1   2 -12   24.19    5.28   1
   1   2 -12   20.20    5.45   2
   0  -2  12   58.55    7.13   1
   0   2 -12   57.00    7.59   1
   0   2 -12   75.09    8.96   2
  -1   2 -12   24.80    4.82   1
   1  -2  12   13.52    3.72   1
  -1   2 -12   23.89    5.34   2
   4   1 -12    4.47    3.38   1
  -4  -1  12    1.30    2.57   1
   3   1 -12   33.92    6.31   1
  -3  -1  12   35.23    5.75   1
   2   1 -12   13.74    4.21   1
   1   1 -12   39.61    6.51   1
  -1  -1  12   45.65    6.11   1
   0   1 -12   11.44    4.39   1
   0  -1  12   21.95    4.73   1
   0   1 -12   19.20    4.99   2
   1  -1  12   13.47    4.22   1
  -1   1 -12   14.34    4.44   1
  -4   0  12   47.45    6.47   1
  -3   0  12    4.72    3.56   1
   3   0 -12    5.95    4.42   1
   2   0 -12   31.81    5.66   1
  -2   0  12   36.58    5.45   1
  -1   0  12    1.16    2.35   1
   1   0 -12   -3.29    3.01   1
   0   0  12   20.20    4.25   1
   0   0 -12   20.66    4.61   1
   4  -1 -12   15.52    4.73   1
  -3   1  12    6.21    3.62   1
   3  -1 -12    1.72    3.78   1
  -2   1  12    1.18    3.30   1
   2  -1 -12    8.43    4.34   1
   1  -1 -12    6.07    4.08   1
  -1   1  12    8.48    3.66   1
   0  -1 -12   10.69    4.63   1
   0   1  12    1.69    3.14   1
   3  -2 -12    2.77    3.23   1
  -3   2  12    4.59    2.82   1
  -2   2  12   47.72    6.45   1
   2  -2 -12   35.49    6.58   1
   0   0   0    0.00    0.00   0
;
_shelx_hkl_checksum              62941
_publcif_info_exptl_table_max_cols 4
_publcif_info_exptl_table_use_headnotes n
loop_
_space_group_symop_operation_xyz
'x, y, z'
'-x, -y, -z'
loop_
_atom_site_label
_atom_site_type_symbol
_atom_site_fract_x
_atom_site_fract_y
_atom_site_fract_z
_atom_site_U_iso_or_equiv
_atom_site_adp_type
_atom_site_occupancy
_atom_site_site_symmetry_order
_atom_site_calc_flag
_atom_site_refinement_flags_posn
_atom_site_refinement_flags_adp
N1 N 0.2649(14) 0.2498(11) 0.1996(10) 0.0250(19) Uani 1 1 d . .
N2 N 0.2190(14) 0.1647(10) -0.0261(10) 0.0233(19) Uani 1 1 d . .
C1 C 0.2200(17) 0.2818(12) 0.0729(13) 0.025(2) Uani 1 1 d . .
H1 H 0.1931 0.3713 0.0546 0.030 Uiso 1 1 calc R U
C2 C 0.2945(19) 0.1095(13) 0.1852(13) 0.030(3) Uani 1 1 d . .
H2 H 0.3279 0.0598 0.2590 0.036 Uiso 1 1 calc R U
C3 C 0.2661(18) 0.0574(12) 0.0444(13) 0.028(2) Uani 1 1 d . .
H3 H 0.2766 -0.0364 0.0016 0.033 Uiso 1 1 calc R U
C4 C 0.295(2) 0.3558(14) 0.3359(13) 0.033(3) Uani 1 1 d . .
H4A H 0.4326 0.3839 0.3773 0.039 Uiso 1 1 calc R U
H4B H 0.2487 0.4434 0.3166 0.039 Uiso 1 1 calc R U
C5 C 0.197(2) 0.2962(16) 0.4402(15) 0.042(3) Uani 1 1 d . .
H5A H 0.0662 0.2506 0.3937 0.063 Uiso 1 1 calc R U
H5B H 0.1964 0.3744 0.5182 0.063 Uiso 1 1 calc R U
H5C H 0.2628 0.2248 0.4771 0.063 Uiso 1 1 calc R U
C6 C 0.1786(18) 0.1582(14) -0.1735(12) 0.028(2) Uani 1 1 d . .
H6 H 0.1534 0.2420 -0.2070 0.034 Uiso 1 1 calc R U
C7 C 0.174(2) 0.0400(14) -0.2675(15) 0.039(3) Uani 1 1 d . .
H7A H 0.1989 -0.0451 -0.2365 0.046 Uiso 1 1 calc R U
H7B H 0.1464 0.0407 -0.3656 0.046 Uiso 1 1 calc R U
I1 I -0.29460(14) 0.21499(11) -0.43403(9) 0.0403(3) Uani 1 1 d . .
I2 I -0.28019(10) 0.30316(7) -0.13640(8) 0.0258(3) Uani 1 1 d . .
I3 I -0.24477(12) 0.38963(9) 0.17230(9) 0.0329(3) Uani 1 1 d . .
loop_
_atom_site_aniso_label
_atom_site_aniso_U_11
_atom_site_aniso_U_22
_atom_site_aniso_U_33
_atom_site_aniso_U_23
_atom_site_aniso_U_13
_atom_site_aniso_U_12
N1 0.031(5) 0.024(5) 0.021(5) 0.005(4) 0.006(4) 0.006(4)
N2 0.036(5) 0.014(4) 0.018(4) 0.005(3) 0.001(4) 0.003(4)
C1 0.031(6) 0.012(5) 0.032(6) 0.007(4) 0.004(5) 0.002(4)
C2 0.040(7) 0.025(6) 0.027(6) 0.007(5) 0.004(5) 0.011(5)
C3 0.044(7) 0.012(5) 0.030(6) 0.008(4) 0.008(5) 0.010(4)
C4 0.043(7) 0.030(6) 0.024(6) 0.001(5) 0.005(5) 0.009(5)
C5 0.054(9) 0.039(8) 0.029(7) -0.003(6) 0.012(6) 0.002(6)
C6 0.037(6) 0.031(6) 0.018(5) 0.008(5) 0.003(4) 0.008(5)
C7 0.060(9) 0.025(6) 0.029(7) 0.001(5) 0.010(6) 0.006(6)
I1 0.0486(6) 0.0425(6) 0.0280(5) -0.0001(4) 0.0029(4) 0.0169(4)
I2 0.0282(5) 0.0173(4) 0.0324(5) 0.0067(3) 0.0064(3) 0.0046(3)
I3 0.0358(5) 0.0339(5) 0.0302(5) 0.0053(3) 0.0116(3) 0.0061(3)
loop_
_atom_type_symbol
_atom_type_description
_atom_type_scat_dispersion_real
_atom_type_scat_dispersion_imag
_atom_type_scat_source
C C 0.0033 0.0016 'International Tables Vol C Tables 4.2.6.8 and 6.1.1.4'
H H 0.0000 0.0000 'International Tables Vol C Tables 4.2.6.8 and 6.1.1.4'
N N 0.0061 0.0033 'International Tables Vol C Tables 4.2.6.8 and 6.1.1.4'
I I -0.4742 1.8119 'International Tables Vol C Tables 4.2.6.8 and 6.1.1.4'
loop_
_geom_angle_atom_site_label_1
_geom_angle_atom_site_label_2
_geom_angle_atom_site_label_3
_geom_angle
C1 N1 C2 109.6(10)
C1 N1 C4 124.1(10)
C2 N1 C4 126.0(10)
C1 N2 C3 107.5(9)
C1 N2 C6 124.8(10)
C3 N2 C6 127.7(10)
N1 C1 N2 108.4(10)
N1 C1 H1 125.8
N2 C1 H1 125.8
C3 C2 N1 106.3(10)
C3 C2 H2 126.9
N1 C2 H2 126.9
C2 C3 N2 108.2(10)
C2 C3 H3 125.9
N2 C3 H3 125.9
C5 C4 N1 112.4(11)
C5 C4 H4A 109.1
N1 C4 H4A 109.1
C5 C4 H4B 109.1
N1 C4 H4B 109.1
H4A C4 H4B 107.9
C4 C5 H5A 109.5
C4 C5 H5B 109.5
H5A C5 H5B 109.5
C4 C5 H5C 109.5
H5A C5 H5C 109.5
H5B C5 H5C 109.5
C7 C6 N2 123.0(12)
C7 C6 H6 118.5
N2 C6 H6 118.5
C6 C7 H7A 120.0
C6 C7 H7B 120.0
H7A C7 H7B 120.0
I1 I2 I3 176.89(3)
loop_
_geom_bond_atom_site_label_1
_geom_bond_atom_site_label_2
_geom_bond_distance
N1 C1 1.328(15)
N1 C2 1.386(15)
N1 C4 1.499(16)
N2 C1 1.357(15)
N2 C3 1.386(13)
N2 C6 1.415(14)
C1 H1 0.9500
C2 C3 1.357(18)
C2 H2 0.9500
C3 H3 0.9500
C4 C5 1.50(2)
C4 H4A 0.9900
C4 H4B 0.9900
C5 H5A 0.9800
C5 H5B 0.9800
C5 H5C 0.9800
C6 C7 1.331(18)
C6 H6 0.9500
C7 H7A 0.9500
C7 H7B 0.9500
I1 I2 2.8854(16)
I2 I3 2.9625(16)
loop_
_geom_torsion_atom_site_label_1
_geom_torsion_atom_site_label_2
_geom_torsion_atom_site_label_3
_geom_torsion_atom_site_label_4
_geom_torsion
C2 N1 C1 N2 0.0(13)
C4 N1 C1 N2 174.9(11)
C3 N2 C1 N1 -0.2(14)
C6 N2 C1 N1 -179.5(11)
C1 N1 C2 C3 0.1(14)
C4 N1 C2 C3 -174.6(12)
N1 C2 C3 N2 -0.2(14)
C1 N2 C3 C2 0.3(14)
C6 N2 C3 C2 179.6(12)
C1 N1 C4 C5 134.1(13)
C2 N1 C4 C5 -51.9(17)
C1 N2 C6 C7 -178.2(13)
C3 N2 C6 C7 3(2)
loop_
_publcif_info_datablock.id
_publcif_info_datablock.publ_exptl
_publcif_info_datablock.publ_geom
_publcif_info_datablock.structure
{13f71b8d-396f-43df-a3ad-4957baf7f7ab} y y y
loop_
_publcif_info_exptl_table_extra_item
sin_theta_over_lambda_max
loop_
_publcif_info_tables.block_id
_publcif_info_tables.reference_item
{13f71b8d-396f-43df-a3ad-4957baf7f7ab} '_publcif_info_datablock.publ_exptl'
