#------------------------------------------------------------------------------
#$Date: 2019-11-23 00:28:39 +0200 (Sat, 23 Nov 2019) $
#$Revision: 231658 $
#$URL: file:///home/coder/svn-repositories/cod/cif/4/34/62/4346203.cif $
#------------------------------------------------------------------------------
#
# This file is available in the Crystallography Open Database (COD),
# http://www.crystallography.net/
#
# All data on this site have been placed in the public domain by the
# contributors.
#
data_4346203
loop_
_publ_author_name
'Luo, Lan'
'Zeng, Yuhan'
'Li, Le'
'Luo, Zhixiang'
'Smirnova, Tatyana I.'
'Maggard, Paul A.'
_publ_section_title
;
 Manganese-Vanadate Hybrids: Impact of Organic Ligands on Their
 Structures, Thermal Stabilities, Optical Properties, and Photocatalytic
 Activities.
;
_journal_issue                   15
_journal_name_full               'Inorganic chemistry'
_journal_page_first              7388
_journal_page_last               7401
_journal_paper_doi               10.1021/acs.inorgchem.5b00931
_journal_volume                  54
_journal_year                    2015
_chemical_formula_moiety         'C4 H3.61 Mn N2 O6.31 V2'
_chemical_formula_sum            'C4 H3.61 Mn N2 O6.31 V2'
_chemical_formula_weight         337.41
_chemical_name_systematic        Mn2(bipym)V4O12
_space_group_crystal_system      monoclinic
_space_group_IT_number           12
_space_group_name_Hall           '-C 2y'
_space_group_name_H-M_alt        'C 1 2/m 1'
_atom_sites_solution_hydrogens   difmap
_audit_creation_date             2014-09-30
_audit_creation_method
;
Olex2 1.2
(compiled 2014.09.19 svn.r3010 for OlexSys, GUI svn.r4874)
;
_cell_angle_alpha                90
_cell_angle_beta                 95.581(3)
_cell_angle_gamma                90
_cell_formula_units_Z            4
_cell_length_a                   8.3490(4)
_cell_length_b                   18.9527(10)
_cell_length_c                   5.9129(3)
_cell_measurement_temperature    110(2)
_cell_volume                     931.20(8)
_computing_molecular_graphics    'Olex2 (Dolomanov et al., 2009)'
_computing_publication_material  'Olex2 (Dolomanov et al., 2009)'
_computing_structure_refinement  'ShelXL (Sheldrick, 2008)'
_diffrn_ambient_temperature      110.15
_diffrn_measured_fraction_theta_full 1.000
_diffrn_measured_fraction_theta_max 0.995
_diffrn_radiation_type           MoK\a
_diffrn_radiation_wavelength     0.71073
_diffrn_reflns_av_R_equivalents  0.0458
_diffrn_reflns_av_unetI/netI     0.0415
_diffrn_reflns_Laue_measured_fraction_full 1.000
_diffrn_reflns_Laue_measured_fraction_max 0.995
_diffrn_reflns_limit_h_max       9
_diffrn_reflns_limit_h_min       -10
_diffrn_reflns_limit_k_max       23
_diffrn_reflns_limit_k_min       -24
_diffrn_reflns_limit_l_max       7
_diffrn_reflns_limit_l_min       -6
_diffrn_reflns_number            6176
_diffrn_reflns_point_group_measured_fraction_full 1.000
_diffrn_reflns_point_group_measured_fraction_max 0.995
_diffrn_reflns_theta_full        25.242
_diffrn_reflns_theta_max         27.605
_diffrn_reflns_theta_min         2.149
_exptl_absorpt_coefficient_mu    3.313
_exptl_absorpt_correction_T_max  0.9367
_exptl_absorpt_correction_T_min  0.8259
_exptl_absorpt_correction_type   multi-scan
_exptl_absorpt_process_details   'SADABS V2008/1 (Bruker AXS Inc.)'
_exptl_crystal_colour            'clear brownish brown'
_exptl_crystal_colour_lustre     clear
_exptl_crystal_colour_modifier   brownish
_exptl_crystal_colour_primary    brown
_exptl_crystal_density_diffrn    2.407
_exptl_crystal_description       block
_exptl_crystal_F_000             652.2
_exptl_crystal_preparation       hydrothermal
_exptl_crystal_recrystallization_method hydrothermal
_exptl_crystal_size_max          0.06
_exptl_crystal_size_mid          0.04
_exptl_crystal_size_min          0.02
_refine_diff_density_max         0.670
_refine_diff_density_min         -0.491
_refine_diff_density_rms         0.126
_refine_ls_extinction_method     none
_refine_ls_goodness_of_fit_ref   1.086
_refine_ls_hydrogen_treatment    mixed
_refine_ls_matrix_type           full
_refine_ls_number_parameters     88
_refine_ls_number_reflns         1117
_refine_ls_number_restraints     0
_refine_ls_restrained_S_all      1.086
_refine_ls_R_factor_all          0.0513
_refine_ls_R_factor_gt           0.0332
_refine_ls_shift/su_max          0.001
_refine_ls_shift/su_mean         0.000
_refine_ls_structure_factor_coef Fsqd
_refine_ls_weighting_details
'w=1/[\s^2^(Fo^2^)+(0.0292P)^2^+3.4163P] where P=(Fo^2^+2Fc^2^)/3'
_refine_ls_weighting_scheme      calc
_refine_ls_wR_factor_gt          0.0685
_refine_ls_wR_factor_ref         0.0737
_reflns_Friedel_coverage         0.000
_reflns_number_gt                905
_reflns_number_total             1117
_reflns_threshold_expression     'I > 2\s(I)'
_cod_data_source_file            ic5b00931_si_002.cif
_cod_data_source_block           rds115_0m_a
_cod_original_sg_symbol_H-M      'C 2/m'
_cod_database_code               4346203
_shelxl_version_number           2014/6
_shelx_space_group_comment
;
The symmetry employed for this shelxl refinement is uniquely defined
by the following loop, which should always be used as a source of
symmetry information in preference to the above space-group names.
They are only intended as comments.
;
_shelx_estimated_absorpt_t_max   0.937
_shelx_estimated_absorpt_t_min   0.826
_olex2_refinement_description
;
1. Fixed Uiso
 At 1.2 times of:
  All C(H,H) groups
 At 1.5 times of:
  All O(H,H) groups
2. Others
 Sof(O5)=Sof(H5A)=Sof(H5B)=FVAR(1)
3.a Free rotating group:
 O5(H5A,H5B)
;
_shelx_res_file
;
TITL rds115_0m in C2/m
CELL 0.71073 8.349 18.9527 5.9129 90 95.581 90
ZERR 4 0.0004 0.001 0.0003 0 0.003 0
LATT 7
SYMM -X,+Y,-Z

SFAC C H Mn N O V
UNIT 16 14.44448 4 8 25.22224 8
EQIV $1 1-X,+Y,2-Z

L.S. 20
PLAN  21
SIZE 0.02 0.04 0.06
TEMP -163
FREE O5 O5_$1
BOND C3 H3 0.96
REM Solution 1 R1 0.073 Rweak 0.008, Alpha = 0.0681 in C2/m
BOND
LIST 6
rem SHEL 999 0.8
fmap 2
acta
REM <HKL>E:/Yuhan/Mn-V-bipymidine/COPY3%20-%20Copy/rds115_0m_a.hkl</HKL>

WGHT    0.029200    3.416300
FVAR       0.27110   0.15268
MN1   3    0.000000    0.658568    1.000000    10.50000    0.00822    0.00817 =
         0.01129    0.00000   -0.00081    0.00000
V1    6   -0.099538    0.817161    1.232587    11.00000    0.01009    0.01188 =
         0.00831   -0.00087    0.00063    0.00079
O1    5   -0.104591    0.729988    1.210805    11.00000    0.01621    0.01526 =
         0.01378    0.00034    0.00245   -0.00144
O2    5    0.000000    0.852092    1.000000    10.50000    0.01534    0.01433 =
         0.01403    0.00000    0.00499    0.00000
O3    5   -0.284516    0.848414    1.216151    11.00000    0.01304    0.01748 =
         0.01279   -0.00188   -0.00191    0.00189
O4    5    0.000000    0.844744    1.500000    10.50000    0.01110    0.01528 =
         0.01200    0.00000   -0.00030    0.00000
N1    4    0.093982    0.562519    0.826512    11.00000    0.00740    0.01058 =
         0.00964    0.00006    0.00106   -0.00046
C1    1    0.189668    0.562154    0.658030    11.00000    0.01283    0.01708 =
         0.00833    0.00386    0.00200   -0.00382
C3    1    0.052179    0.500000    0.905694    10.50000    0.00435    0.01169 =
         0.00731    0.00000   -0.00317    0.00000
AFIX   6
O5    5    0.579651    0.500000    0.900901    21.00000    0.02922    0.00978 =
         0.02502    0.00000    0.01164    0.00000
H5A   2    0.530884    0.464471    0.957500    21.00000   -1.50000
H5B   2    0.573230    0.536706    0.987976    21.00000   -1.50000
AFIX   0
C0AA  1    0.240763    0.500000    0.567203    10.50000    0.01541    0.02338 =
         0.01175    0.00000    0.00686    0.00000
H0AA  2    0.305894    0.500000    0.458997    10.50000   -1.20000
H1    2    0.213250    0.605343    0.597766    11.00000   -1.20000
HKLF 4

REM  rds115_0m in C2/m
REM R1 =  0.0332 for     905 Fo > 4sig(Fo)  and  0.0513 for all    1117 data
REM     88 parameters refined using      0 restraints

END

WGHT      0.0291      3.4266

REM Highest difference peak  0.670,  deepest hole -0.491,  1-sigma level  0.126
Q1    1   0.0000  0.5000  1.0000  10.25000  0.05    0.67
Q2    1  -0.1017  0.8750  1.2206  11.00000  0.05    0.58
Q3    1   0.3010  0.5000  0.6211  10.50000  0.05    0.48
Q4    1  -0.0648  0.8225  1.0183  11.00000  0.05    0.46
Q5    1   0.0751  0.4702  0.8692  11.00000  0.05    0.45
Q6    1  -0.0138  0.6326  1.0401  11.00000  0.05    0.41
Q7    1  -0.3060  0.8521  1.2733  11.00000  0.05    0.40
Q8    1  -0.1971  0.7561  1.5253  11.00000  0.05    0.39
Q9    1  -0.2537  0.8205  1.1642  11.00000  0.05    0.38
Q10   1  -0.0558  0.7224  1.1410  11.00000  0.05    0.38
Q11   1  -0.0940  0.7109  1.2837  11.00000  0.05    0.37
Q12   1   0.5000  0.5190  0.5000  10.50000  0.05    0.36
Q13   1   0.6025  0.5000  0.7986  10.50000  0.05    0.36
Q14   1  -0.0177  0.8304  1.5562  11.00000  0.05    0.36
Q15   1  -0.0888  0.8380  1.4264  11.00000  0.05    0.36
Q16   1   0.1338  0.5692  0.9068  11.00000  0.05    0.36
Q17   1  -0.0707  0.7320  1.4344  11.00000  0.05    0.35
Q18   1  -0.1725  0.7317  1.1457  11.00000  0.05    0.35
Q19   1  -0.2031  0.8602  1.2418  11.00000  0.05    0.35
Q20   1  -0.0320  0.7568  1.3083  11.00000  0.05    0.34
Q21   1   0.0751  0.5822  0.9115  11.00000  0.05    0.34
;
_shelx_res_checksum              66431
_shelx_hkl_file
;
  -2   0   0 1500.85   31.60
   2   0   0 1534.95   31.70
   2   0   0 1492.85   31.50
  -2   0   0 1545.15   31.70
  -2   0   0 1497.75   34.90
  -4   0   0    3.50    5.40
  -4   0   0   -0.10    7.90
  -4   0   0   -6.10    5.40
   4   0   0    8.50    5.20
   4   0   0   -3.10    5.10
   6   0   0  144.09   10.60
  -6   0   0  144.09   10.80
  -6   0   0  149.29   14.40
  -6   0   0  154.78   11.10
  -8   0   0  290.37   22.30
  -8   0   0  307.27   16.70
 -10   0   0 1068.99   34.50
 -10   0   0 1081.49   46.30
  -1  -1   0  135.39    7.70
   1  -1   0  118.79    4.50
   1  -1   0  115.49    5.30
  -1  -1   0  118.09    4.90
  -1  -1   0  118.29    4.80
   1  -1   0  119.39    4.60
   1   1   0  116.49    6.70
   1   1   0  125.29    4.90
  -1   1   0  129.09    4.90
   1   1   0  123.99    4.80
  -1   1   0  125.19    5.60
  -1   1   0  121.79    4.70
  -3  -1   0   18.30    5.20
  -3  -1   0   13.80    6.40
   3  -1   0   22.60    5.20
  -3  -1   0   23.00    5.40
  -3   1   0   20.60    5.20
  -3   1   0   21.60    4.90
   3   1   0   19.00    4.90
   3   1   0   13.80    4.90
  -3   1   0   18.70    6.40
  -5  -1   0  350.26   19.60
  -5  -1   0  350.96   13.50
   5  -1   0  371.86   13.40
  -5  -1   0  352.76   13.40
   5  -1   0  357.36   13.30
   5   1   0  363.96   13.70
  -5   1   0  350.06   13.50
  -5   1   0  386.26   13.70
   5   1   0  338.07   13.20
  -5   1   0  364.16   18.40
  -7  -1   0    1.30    7.00
  -7  -1   0    5.80    8.20
  -7  -1   0   -7.20   11.40
   7  -1   0    0.50    6.70
  -7   1   0    5.00    7.50
  -7   1   0   12.40    7.80
  -7   1   0    5.90   12.20
   7   1   0   -0.20    7.20
  -9  -1   0    2.10   10.10
  -9  -1   0   -6.70   14.80
  -9   1   0   -7.20   13.10
  -9   1   0    1.30    9.80
   0  -2   0 1168.48   23.80
   0  -2   0 1172.78   23.90
   0  -2   0 1104.29   23.80
   0   2   0 1159.78   23.80
   0   2   0 1117.49   23.80
   0   2   0 1145.79   23.80
  -2  -2   0  599.94   15.40
   2  -2   0  612.34   15.40
   2  -2   0  605.04   15.30
  -2  -2   0  593.54   18.70
  -2  -2   0  623.34   15.60
   2   2   0  608.44   15.70
  -2   2   0  586.44   17.10
   2   2   0  598.24   15.50
  -2   2   0  598.54   15.20
  -2   2   0  609.54   15.30
  -4  -2   0  135.19    9.10
  -4  -2   0  136.89    9.10
  -4  -2   0  133.89   11.50
   4  -2   0  130.49    8.60
   4  -2   0  144.09    8.90
  -4   2   0  131.19    8.60
   4   2   0  151.18    9.10
  -4   2   0  154.68    9.00
  -4   2   0  159.38   11.10
   4   2   0  117.49    8.90
  -6  -2   0   20.40   11.10
   6  -2   0   35.90    7.50
  -6  -2   0   37.10    8.10
  -6  -2   0   25.30    7.30
   6   2   0   36.60    7.10
  -6   2   0   22.00    7.10
  -6   2   0   32.00    8.00
  -6   2   0   10.30   10.00
  -8  -2   0  214.38   15.10
  -8  -2   0  168.08   19.50
  -8   2   0  189.88   14.50
  -8   2   0  196.78   18.70
 -10  -2   0  268.37   19.60
 -10  -2   0  273.17   25.70
 -10   2   0  294.57   25.20
 -10   2   0  272.07   19.40
   1  -3   0  622.94   15.60
   1  -3   0  603.74   15.60
  -1  -3   0  632.94   16.00
  -1  -3   0  637.44   16.00
  -1  -3   0  653.93   18.50
   1   3   0  635.74   15.90
  -1   3   0  621.14   15.60
   1   3   0  649.14   16.00
  -1   3   0  631.94   15.70
  -3  -3   0  129.89   10.90
  -3  -3   0  117.29    8.50
   3  -3   0  139.69    8.20
  -3  -3   0  131.69    8.50
   3  -3   0  126.49    8.30
   3   3   0  141.19    8.90
  -3   3   0  134.89    8.70
  -3   3   0  131.99    8.40
   3   3   0  131.49    8.80
  -3   3   0  133.49    8.60
  -5  -3   0 1494.65   35.60
   5  -3   0 1464.25   35.00
  -5  -3   0 1420.56   40.60
  -5  -3   0 1516.95   35.80
   5   3   0 1576.64   36.10
  -5   3   0 1496.25   38.80
   5   3   0 1430.36   35.10
  -5   3   0 1490.55   35.30
  -5   3   0 1483.95   35.00
   7  -3   0  140.59   11.50
  -7  -3   0  128.89   11.80
  -7  -3   0  141.59   17.30
  -7  -3   0  132.19   11.50
  -7   3   0  149.99   11.90
   7   3   0  157.58   12.10
  -7   3   0  121.89   14.90
  -7   3   0  132.49   11.60
  -9  -3   0  -17.10   14.20
  -9  -3   0    9.30   10.20
  -9   3   0    9.30   14.20
  -9   3   0   -0.40    9.90
   0  -4   0  413.16   13.50
   0  -4   0  404.36   12.30
   0  -4   0  395.66   13.30
   0   4   0  406.56   13.30
   0   4   0  424.76   12.50
   0   4   0  385.76   13.50
  -2  -4   0  178.08    8.70
  -2  -4   0  146.89    8.70
   2  -4   0  186.38    8.90
  -2  -4   0  163.38   13.20
   2  -4   0  180.98    9.10
   2   4   0  176.78    9.00
  -2   4   0  182.68    9.00
  -2   4   0  176.08    8.00
   2   4   0  187.68    9.50
  -2   4   0  180.38    9.80
  -2   4   0  164.08    9.00
  -4  -4   0  676.73   19.70
   4  -4   0  648.64   19.10
   4  -4   0  701.83   19.40
  -4  -4   0  642.14   23.70
  -4  -4   0  682.33   19.70
  -4   4   0  665.63   19.40
  -4   4   0  686.13   20.60
  -4   4   0  668.83   19.20
   4   4   0  660.93   19.80
   4   4   0  663.23   19.50
  -6  -4   0  257.67   13.90
  -6  -4   0  286.47   21.50
   6  -4   0  293.07   13.90
  -6  -4   0  266.47   14.00
   6   4   0  289.97   13.90
  -6   4   0  290.37   14.40
  -6   4   0  293.87   14.00
  -6   4   0  291.47   18.40
  -8  -4   0   83.09   11.90
  -8  -4   0   69.99   15.20
  -8   4   0   87.09   12.20
  -8   4   0  101.79   15.20
 -10  -4   0  103.09   20.20
 -10  -4   0  115.59   14.80
 -10   4   0   72.69   18.10
 -10   4   0   75.19   20.70
 -10   4   0  102.49   14.50
  -1  -5   0  331.87   13.20
  -1  -5   0  324.47   13.70
  -1  -5   0  319.87   12.70
   1  -5   0  335.17   12.20
   1  -5   0  327.87   11.70
  -1  -5   0  305.47   12.20
  -1   5   0  335.87   12.30
  -1   5   0  324.27   12.10
   1   5   0  318.07   12.60
   1   5   0  330.27   12.50
  -3  -5   0  241.48   11.80
   3  -5   0  237.88   10.80
  -3  -5   0  246.18   11.80
   3  -5   0  234.48   11.20
  -3  -5   0  241.08   17.20
  -3   5   0  248.48   12.80
   3   5   0  250.47   12.20
   3   5   0  263.07   12.00
  -3   5   0  257.17   11.20
  -3   5   0  226.98   10.70
  -3   5   0  238.78   10.90
   5  -5   0  600.44   19.00
   5  -5   0  571.24   16.50
  -5  -5   0  556.14   25.20
  -5  -5   0  622.14   19.80
  -5  -5   0  563.04   19.30
   5  -5   0  587.64   19.00
  -5   5   0  566.44   19.00
   5   5   0  626.94   20.00
  -5   5   0  608.54   21.00
  -5   5   0  572.14   18.70
   5   5   0  606.44   19.40
   7  -5   0   69.69    9.90
  -7  -5   0   78.79   11.10
  -7  -5   0   44.60   14.50
   7  -5   0   87.49    8.30
  -7   5   0   64.29   10.50
  -7   5   0   61.69   11.70
   7   5   0   80.79   10.40
  -9  -5   0   65.59   12.80
  -9  -5   0   52.49   15.80
  -9   5   0   62.39   17.50
  -9   5   0   66.59   15.60
  -9   5   0   59.09   12.30
   0  -6   0 4036.00   78.99
   0  -6   0 4124.29   83.19
   0  -6   0 4061.89   83.49
   0  -6   0 4053.69   82.99
   0   6   0 4084.09   83.59
   0   6   0 4033.90   83.19
  -2  -6   0  865.61   25.10
  -2  -6   0  828.32   22.40
   2  -6   0  821.82   22.10
   2  -6   0  852.41   22.10
  -2  -6   0  776.82   22.00
   2  -6   0  853.61   20.40
  -2   6   0  864.01   22.40
   2   6   0  833.62   22.50
  -2   6   0  864.21   22.10
   2   6   0  819.22   22.60
  -2   6   0  841.52   21.40
  -4  -6   0  426.36   15.50
  -4  -6   0  429.56   20.00
   4  -6   0  447.36   15.70
   4  -6   0  407.56   13.60
  -4  -6   0  427.06   15.80
   4  -6   0  415.86   15.40
  -4   6   0  415.46   14.80
   4   6   0  432.06   16.20
   4   6   0  406.16   15.80
  -4   6   0  396.66   15.50
  -4   6   0  427.26   17.20
  -4   6   0  424.96   15.50
   6  -6   0    5.80    5.50
  -6  -6   0    7.40    7.70
   6  -6   0    3.90    7.00
  -6  -6   0    4.90   10.70
  -6  -6   0   13.30    7.80
  -6   6   0  -10.50    6.90
  -6   6   0    8.80    8.20
  -6   6   0    5.90    7.90
  -6   6   0   -4.20   10.10
   6   6   0    6.30    7.80
  -8  -6   0  270.77   16.50
  -8  -6   0  260.87   23.10
  -8   6   0  282.17   17.40
  -8   6   0  269.37   20.70
  -8   6   0  239.18   21.50
 -10  -6   0  220.38   25.00
 -10   6   0  284.07   20.50
 -10   6   0  250.37   26.20
  -1  -7   0   17.70    7.10
  -1  -7   0   10.00    6.40
   1  -7   0   13.30    6.40
   1  -7   0   11.70    6.70
  -1  -7   0   16.40    6.90
   1  -7   0   15.20    5.90
  -1  -7   0   16.60    6.40
   1  -7   0   19.30    2.90
  -1   7   0   17.90    3.60
   1   7   0    9.90    7.00
   1   7   0   15.00    6.80
  -1   7   0   17.10    6.80
  -1   7   0   19.50    7.20
  -3  -7   0   71.29    9.60
  -3  -7   0   79.89    8.90
   3  -7   0   79.19    8.50
  -3  -7   0   95.29    8.80
   3  -7   0   69.39    6.80
   3  -7   0   91.89    8.50
   3   7   0   88.59    9.10
  -3   7   0   78.09    6.10
  -3   7   0   79.29    8.40
  -3   7   0  100.39    9.40
  -3   7   0   72.39    8.40
   3   7   0   85.29    9.10
   5  -7   0  168.28   12.10
  -5  -7   0  154.98   14.70
  -5  -7   0  181.58   12.30
  -5  -7   0  197.68   12.20
   5  -7   0  171.68   10.60
  -5   7   0  162.48   13.60
  -5   7   0  174.78   12.10
  -5   7   0  190.58   12.00
  -5   7   0  173.38   11.60
   5   7   0  179.48   12.70
  -7  -7   0    1.60    8.70
   7  -7   0   13.70    6.40
   7  -7   0   -0.40    8.80
  -7  -7   0   15.60   13.50
  -7   7   0  -10.70    8.80
  -7   7   0    5.30   11.90
  -7   7   0   12.30    9.30
   7   7   0    6.60    8.70
  -9  -7   0   18.40   16.20
  -9  -7   0   29.90   11.60
  -9   7   0   35.10   16.10
  -9   7   0   22.30   11.90
   0  -8   0  907.81   25.70
   0  -8   0  895.21   25.10
   0  -8   0  960.00   23.30
   0  -8   0  921.81   25.90
   0   8   0  946.51   25.90
   0   8   0  910.51   26.00
   2  -8   0   85.39    9.40
  -2  -8   0   83.89    8.70
  -2  -8   0   97.69    9.70
  -2  -8   0  108.79   10.40
   2  -8   0   99.09    8.40
   2  -8   0  107.99    9.60
  -2   8   0   97.99    8.70
  -2   8   0   85.59    9.50
   2   8   0   92.99    9.90
  -2   8   0   70.09    9.00
   2   8   0  106.79    9.90
  -4  -8   0  619.24   21.50
   4  -8   0  678.83   21.50
   4  -8   0  679.93   18.80
  -4  -8   0  669.63   21.80
  -4  -8   0  647.24   26.20
   4  -8   0  663.93   21.00
  -4   8   0  649.43   21.00
  -4   8   0  647.34   16.70
   4   8   0  663.63   22.00
  -4   8   0  694.73   22.60
  -4   8   0  692.83   21.50
   4   8   0  652.43   21.90
  -6  -8   0  196.58   14.20
  -6  -8   0  184.28   13.60
   6  -8   0  197.98   11.90
  -6  -8   0  159.18   17.90
   6  -8   0  178.08   13.60
  -6   8   0  197.58   13.00
  -6   8   0  196.98   13.70
  -6   8   0  167.18   15.80
  -6   8   0  183.48   14.30
   6   8   0  165.08   13.40
  -8  -8   0    8.00   14.60
  -8  -8   0   16.90    9.70
  -8   8   0  -11.20   10.50
  -8   8   0    7.50   13.80
 -10  -8   0  285.97   28.90
 -10   8   0  249.18   25.50
   1  -9   0   21.80    8.20
  -1  -9   0   37.60    8.40
  -1  -9   0   15.60    7.90
  -1  -9   0   37.70    7.60
   1  -9   0   20.90    3.90
   1  -9   0   33.20    8.10
  -1  -9   0   24.30    7.90
   1  -9   0   25.70    7.50
   1   9   0   17.10    8.00
  -1   9   0   24.10    8.30
   1   9   0   27.70    8.70
  -1   9   0   14.00    8.20
  -3  -9   0   55.99   10.20
   3  -9   0   71.19    9.00
  -3  -9   0   70.09    9.20
  -3  -9   0   74.59    9.50
   3  -9   0   72.89    9.00
   3  -9   0   72.79    7.70
   3   9   0   65.19    9.60
   3   9   0   51.09    9.10
  -3   9   0   59.49    8.60
  -3   9   0   40.80    8.70
  -3   9   0   50.99    8.70
  -5  -9   0  825.72   26.40
   5  -9   0  829.32   22.60
  -5  -9   0  775.12   32.30
  -5  -9   0  812.12   26.80
   5  -9   0  809.12   25.90
  -5   9   0  880.61   26.30
  -5   9   0  833.82   26.20
   5   9   0  843.72   26.90
  -5   9   0  882.91   21.30
  -5   9   0  788.52   26.60
  -7  -9   0   40.30   10.80
  -7  -9   0   40.10   15.00
  -7   9   0   59.39   14.10
   7   9   0   42.20   10.80
  -7   9   0   45.90   11.50
  -9  -9   0   -0.20   15.30
  -9   9   0    5.90   15.10
  -9   9   0  -13.00   11.50
   0 -10   0  603.74   21.20
   0 -10   0  582.34   21.20
   0 -10   0  586.04   17.70
   0 -10   0  587.54   20.30
   0  10   0  578.14   21.10
   0  10   0  570.94   21.00
  -2 -10   0  144.79   12.10
   2 -10   0  117.99   10.80
   2 -10   0  119.39   10.00
   2 -10   0  123.59   11.40
  -2 -10   0  108.59   11.00
  -2 -10   0  123.19   11.10
   2  10   0  130.39   11.50
   2  10   0  111.79   11.20
  -2  10   0  110.09   11.30
  -2  10   0  136.69   11.90
  -4 -10   0  675.13   27.60
  -4 -10   0  668.13   23.20
   4 -10   0  659.33   20.00
  -4 -10   0  653.63   22.60
   4 -10   0  625.94   22.40
  -4  10   0  654.73   21.90
  -4  10   0  652.13   22.50
   4  10   0  617.64   22.70
  -4  10   0  646.04   23.10
  -6 -10   0  404.36   26.90
  -6 -10   0  439.16   19.90
   6 -10   0  452.65   17.00
   6 -10   0  486.05   20.80
  -6 -10   0  457.15   20.40
  -6  10   0  470.25   20.40
   6  10   0  478.35   20.60
  -6  10   0  457.15   22.90
  -6  10   0  432.86   20.40
  -8 -10   0   57.29   12.60
  -8 -10   0   57.69   16.90
  -8  10   0   63.09   12.90
  -8  10   0   23.30   14.70
  -1 -11   0  750.92   25.10
  -1 -11   0  803.32   23.80
   1 -11   0  742.93   24.90
   1 -11   0  801.92   25.40
   1 -11   0  766.02   18.90
   1 -11   0  760.92   24.00
  -1 -11   0  813.22   26.10
  -1 -11   0  771.22   25.30
   1  11   0  764.92   25.40
  -1  11   0  717.73   25.00
  -1  11   0  793.92   25.40
   1  11   0  816.22   26.00
   3 -11   0  300.67   15.60
  -3 -11   0  307.67   17.00
   3 -11   0  293.67   16.00
  -3 -11   0  320.27   16.20
  -3 -11   0  359.46   19.50
  -3  11   0  334.27   15.30
  -3  11   0  347.97   16.90
   3  11   0  314.57   16.70
  -3  11   0  307.77   16.20
   5 -11   0  713.93   22.40
  -5 -11   0  710.13   25.30
   5 -11   0  734.33   25.20
  -5 -11   0  755.82   31.40
  -5 -11   0  736.43   26.10
  -5  11   0  781.82   26.00
  -5  11   0  707.13   25.90
   5  11   0  697.43   25.70
  -5  11   0  712.13   25.60
  -7 -11   0   78.09   13.10
  -7 -11   0   84.79   17.00
  -7  11   0   79.39   13.50
  -7  11   0   87.49   15.70
  -9 -11   0  195.68   22.90
  -9  11   0  219.68   23.50
   0 -12   0 1229.68   34.80
   0 -12   0 1222.28   33.70
   0 -12   0 1266.77   31.20
   0 -12   0 1298.47   35.60
   0  12   0 1256.27   35.30
   0  12   0 1282.17   35.20
   2 -12   0  271.67   16.10
  -2 -12   0  246.98   16.10
  -2 -12   0  245.88   17.10
   2 -12   0  258.37   15.40
  -2 -12   0  271.67   15.10
  -2  12   0  265.97   15.90
  -2  12   0  251.97   16.50
   2  12   0  239.88   14.60
  -4 -12   0   87.69   11.90
   4 -12   0   96.79   12.60
   4 -12   0   97.29   10.50
  -4 -12   0   92.99   13.60
  -4 -12   0  102.69   12.80
  -4  12   0  102.29   12.90
   4  12   0   83.69   12.50
  -4  12   0  108.19   12.50
  -4  12   0   92.99   12.20
  -6 -12   0   15.70   13.20
   6 -12   0    8.10   10.00
   6 -12   0    9.80    8.00
  -6 -12   0   15.50   10.00
  -6  12   0   27.20   12.60
  -6  12   0   10.60   11.50
   6  12   0    0.70    9.80
  -8 -12   0   51.59   17.20
  -8 -12   0   49.60   13.10
  -8  12   0   80.99   16.80
  -8  12   0   63.79   14.40
  -1 -13   0 1131.99   30.50
   1 -13   0 1040.10   30.70
   1 -13   0 1049.59   31.90
   1 -13   0 1078.49   25.40
  -1 -13   0 1055.19   32.60
  -1 -13   0 1031.40   31.20
  -1 -13   0 1081.59   33.20
  -1  13   0 1101.09   33.10
   1  13   0 1083.69   32.80
  -1  13   0 1059.59   32.80
  -3 -13   0   30.00   10.80
  -3 -13   0   21.30    9.80
   3 -13   0    6.80    9.50
  -3 -13   0    9.40    9.10
   3 -13   0   17.20    8.40
   3  13   0    9.40   10.10
  -3  13   0   -5.30    9.10
  -3  13   0   26.00   10.40
  -5 -13   0   74.99   12.50
   5 -13   0   71.69   10.30
   5 -13   0   54.99   12.50
  -5 -13   0   79.29   13.40
  -5 -13   0   55.49   14.20
   5  13   0   58.59   12.40
  -5  13   0   33.50   12.00
  -5  13   0   65.59   11.80
  -5  13   0   49.60   12.70
  -7 -13   0   35.70   15.50
  -7 -13   0   11.90   11.40
  -7  13   0   18.60   12.30
  -7  13   0    6.50   12.60
  -9 -13   0  205.48   25.90
  -9  13   0  271.97   24.60
   0 -14   0   -4.30    9.20
   0 -14   0   -9.50    8.20
   0 -14   0   -0.90    6.20
   0  14   0   -3.70    9.80
  -2 -14   0    7.10    9.90
   2 -14   0   10.20    9.80
  -2 -14   0   13.40    8.80
   2 -14   0    3.50    8.70
  -2  14   0   -0.70    9.60
   2  14   0   17.70   10.60
  -2  14   0    6.10   10.40
  -4 -14   0  417.86   21.20
   4 -14   0  420.16   19.50
  -4 -14   0  414.46   23.90
   4 -14   0  431.36   22.30
   4  14   0  428.96   22.20
  -4  14   0  463.15   22.10
  -4  14   0  422.36   21.70
   6 -14   0  178.68   14.10
  -6 -14   0  134.29   15.90
  -6 -14   0  174.38   19.80
  -6  14   0  173.98   18.30
  -6  14   0  140.49   16.70
   6  14   0  150.58   17.50
  -8 -14   0   -4.20   16.10
  -8  14   0   -9.90   13.80
  -1 -15   0   62.29   12.40
   1 -15   0   43.10    6.00
   1 -15   0   29.70   10.50
  -1 -15   0   44.60    9.80
  -1 -15   0   35.80   11.10
   1 -15   0   39.70   11.70
   1  15   0   18.90   11.40
  -1  15   0   26.10   11.50
   3 -15   0   75.79   11.70
  -3 -15   0   71.19   12.80
   3 -15   0   62.29   13.70
  -3 -15   0   66.39   11.90
   3  15   0   61.29   13.20
  -3  15   0   73.79   13.30
   5 -15   0    3.10   11.80
  -5 -15   0   24.50   11.90
   5 -15   0   28.90   10.10
  -5 -15   0    8.60   13.00
   5  15   0   11.70   11.70
  -5  15   0   38.10   13.80
  -5  15   0   33.10   13.50
  -7 -15   0   32.00   16.10
  -7  15   0   76.99   16.40
  -7  15   0   76.59   16.40
   0 -16   0   70.19   13.20
   0 -16   0   60.29    8.50
   0 -16   0   70.49   12.80
   0  16   0   64.89   12.40
  -2 -16   0   32.40   10.50
   2 -16   0   61.59   13.10
   2 -16   0   41.40   11.20
  -2 -16   0   15.50   11.50
   2  16   0   41.80   12.90
  -2  16   0   53.39   13.30
  -4 -16   0  842.92   31.50
  -4 -16   0  792.72   31.90
   4 -16   0  821.92   28.10
   4 -16   0  854.71   32.50
  -6 -16   0  583.04   31.00
  -6 -16   0  608.44   28.30
  -6  16   0  598.84   28.80
  -6  16   0  528.05   26.50
  -8 -16   0   47.90   19.20
  -8  16   0   69.99   18.70
   1 -17   0   18.80   12.20
  -1 -17   0   31.00    9.30
  -1 -17   0   19.60   12.30
   1 -17   0   21.80   11.30
  -1 -17   0   26.80   12.20
  -1  17   0   17.90   11.00
   1  17   0   18.70   12.60
   3 -17   0   -6.30    9.80
   3 -17   0   -9.20   11.20
  -3 -17   0    9.00   11.60
  -3 -17   0   11.70   11.60
   3  17   0  -13.30   12.20
  -3  17   0   -5.80   11.40
   5 -17   0   29.50   14.30
  -5 -17   0   42.00   14.20
   5 -17   0   47.10   12.00
  -5 -17   0   35.20   14.30
  -5  17   0   52.79   15.60
   5  17   0   33.00   14.20
  -7 -17   0    3.20   15.90
  -7  17   0   17.10   16.40
   0 -18   0  134.09   10.90
   0 -18   0  153.48   17.50
   0 -18   0  124.39   15.30
   0  18   0  133.59   17.40
  -2 -18   0   30.60   10.80
   2 -18   0   25.50   12.80
  -2 -18   0   40.50   13.20
   2 -18   0   18.60   11.50
  -2  18   0   40.30   13.50
   2  18   0   22.00   13.50
  -4 -18   0   25.50   13.20
   4 -18   0   49.20   12.30
   4 -18   0   43.70   14.40
  -4 -18   0   34.90   13.10
   4  18   0   50.99   15.10
  -4  18   0   43.70   14.10
  -6 -18   0   17.60   15.20
   1 -19   0  512.35   25.70
  -1 -19   0  544.35   27.20
   1 -19   0  526.65   26.90
  -1 -19   0  543.15   22.70
  -1  19   0  516.55   26.80
   3 -19   0    8.90   11.60
  -3 -19   0    5.90   12.50
   3 -19   0  -10.70   13.10
  -3 -19   0  -12.70   11.70
   3  19   0   -0.40   13.80
  -3  19   0    2.70   12.60
   5 -19   0    2.90   11.70
  -5 -19   0   16.80   14.60
   5  19   0   13.50   14.10
   0 -20   0    8.90   12.90
   0 -20   0   -7.60   11.50
   0  20   0   -8.00   12.70
   2 -20   0   -5.80   11.50
   2 -20   0  -21.00   12.50
  -2 -20   0   14.90   10.80
  -2 -20   0    2.70   13.00
  -2  20   0    7.40   13.50
   2  20   0   -4.30   14.30
   4 -20   0  303.47   21.40
  -4 -20   0  276.07   22.40
   4 -20   0  360.66   24.80
  -6 -20   0  118.09   20.30
   1 -21   0   93.39   17.30
   1 -21   0  100.09   16.40
  -1 -21   0  116.59   18.40
   1  21   0  130.59   18.70
  -1  21   0  146.49   19.20
   3 -21   0  -10.60   11.70
  -3 -21   0   31.10   13.50
   3 -21   0  -31.30   13.00
   3  21   0    8.60   15.40
   5 -21   0    8.20   12.90
  -5 -21   0   22.30   15.90
   0 -22   0   42.70   15.60
   0  22   0   47.90   16.50
   2 -22   0   43.30   15.90
   2 -22   0   -0.80   12.90
   2  22   0   -5.00   15.50
   4 -22   0  388.26   24.20
  -4 -22   0  438.36   26.20
   4  22   0  377.26   28.30
   1 -23   0   70.19   16.80
   1 -23   0   55.19   17.30
   3 -23   0  -19.30   12.60
   2 -24   0  -21.00   13.30
 -10   0   1  195.38   22.90
 -10   0   1  204.88   24.70
  -8   0   1 1024.70   37.00
  -8   0   1  997.30   27.10
  -6   0   1  800.62   20.90
   6   0  -1  825.92   21.10
  -6   0   1  776.02   29.10
   6   0  -1  795.82   20.30
  -4   0   1  603.74   14.60
  -4   0   1  634.24   19.30
   4   0  -1  608.04   14.70
  -4   0   1  612.14   14.70
  -4   0   1  595.84   21.10
   4   0  -1  602.84   14.60
  -2   0   1  722.93   18.40
  -2   0   1  695.03   19.50
  -2   0   1  703.83   17.60
   0   0   1 1364.96   28.20
   0   0   1 1373.76   28.10
   0   0  -1 1327.77   28.00
   0   0  -1 1324.77   28.00
  -2   0  -1 9856.81  200.58
   2   0   1 9987.50  206.68
  -2   0  -1 9867.71  199.58
   2   0   1 9999.00  193.48
  -4   0  -1 1754.72   43.60
   4   0   1 1756.42   40.00
   4   0   1 1609.84   39.40
  -4   0  -1 1607.24   39.40
  -4   0  -1 1733.63   39.90
  -6   0  -1  191.28   17.00
  -6   0  -1  198.68   13.10
  -6   0  -1  172.48   13.40
   6   0   1  163.98   12.40
  -8   0  -1   65.19   16.20
  -8   0  -1  115.49   14.00
 -10   0  -1   33.80   18.70
  -9  -1   1   11.40   14.40
  -9  -1   1   23.00    8.90
  -9   1   1   24.80    8.90
  -9   1   1   11.20   14.90
  -9   1   1    4.10   13.60
  -7  -1   1   -0.20    6.50
  -7  -1   1   -5.60   10.40
   7  -1  -1    8.60    5.70
  -7   1   1    5.00    6.30
   7   1  -1   -0.50    5.50
  -7   1   1    8.70   10.00
  -5  -1   1   38.10    9.00
   5  -1  -1   35.20    4.90
  -5  -1   1   35.00    5.30
   5  -1  -1   34.70    5.00
  -5   1   1   22.80    5.30
   5   1  -1   31.00    4.90
  -5   1   1   23.10    3.70
  -5   1   1   18.10    8.20
   5   1  -1   28.90    5.30
   3  -1  -1  320.57    8.20
  -3  -1   1  322.77   14.10
  -3  -1   1  319.87    8.70
   3  -1  -1  326.37    8.20
  -3  -1   1  365.56   13.50
  -3  -1   1  317.77    8.80
  -3   1   1  334.27   13.80
  -3   1   1  333.77   13.80
  -3   1   1  326.67    8.30
  -3   1   1  329.97    8.40
  -3   1   1  329.97   13.90
   3   1  -1  334.87    8.90
   3   1  -1  310.57    8.60
  -1  -1   1  333.37    8.60
   1  -1  -1  336.47    8.30
   1  -1  -1  343.47    8.30
  -1  -1   1  328.77   12.70
  -1  -1   1  337.37   10.60
   1  -1  -1  342.97   11.30
   1   1  -1  329.57    8.60
  -1   1   1  332.37   11.30
  -1   1   1  323.27    8.30
   1   1  -1  328.27    8.50
   1  -1   1  241.78    9.80
  -1  -1  -1  225.78    9.20
  -1  -1  -1  227.48   10.00
   1  -1   1  245.98   10.00
   1   1   1  239.88    9.20
  -1   1  -1  244.78   10.20
   1   1   1  237.28   10.20
  -1   1  -1  226.48   10.00
   3  -1   1  139.99    9.60
   3  -1   1  143.89    9.50
  -3  -1  -1  145.69   10.10
  -3  -1  -1  135.49   10.10
  -3   1  -1  152.38    9.80
   3   1   1  153.88   10.30
   3   1   1  148.59   10.00
  -3   1  -1  161.18    9.90
   5  -1   1   18.70    7.10
   5  -1   1   25.80    7.30
  -5  -1  -1   17.50    7.80
  -5  -1  -1   21.60   10.50
  -5  -1  -1   29.30    7.50
   5   1   1   16.40    7.20
  -5   1  -1   43.10    7.90
  -5   1  -1   29.00    7.60
  -5   1  -1   45.60   10.60
   5   1   1   31.90    8.00
   7  -1   1  177.58   14.30
  -7  -1  -1  197.28   15.40
  -7  -1  -1  193.48   15.00
  -7  -1  -1  204.28   19.80
  -7   1  -1  177.58   18.80
   7   1   1  189.68   14.80
  -7   1  -1  188.28   15.20
  -7   1  -1  198.68   15.00
  -9  -1  -1   34.80   17.00
  -9  -1  -1   36.00   12.70
  -9   1  -1    8.50   17.00
  -9   1  -1   48.20   12.80
 -10  -2   1   13.40   16.80
 -10   2   1    4.70   16.30
 -10   2   1   -9.40   15.20
  -8  -2   1  329.57   15.10
  -8  -2   1  339.77   25.30
  -8   2   1  290.97   20.20
  -8   2   1  305.67   14.60
  -8   2   1  276.67   20.50
  -6  -2   1  526.25   15.70
   6  -2  -1  506.05   15.20
  -6  -2   1  488.45   24.00
  -6  -2   1  503.35   15.10
   6  -2  -1  491.15   15.10
   6   2  -1  518.15   16.00
  -6   2   1  512.15   15.70
   6   2  -1  547.55   15.80
  -6   2   1  509.45   22.30
   4  -2  -1   84.99    5.80
  -4  -2   1   80.39    9.50
  -4  -2   1   99.89    9.20
  -4  -2   1   91.39    6.50
  -4   2   1   97.89   10.30
   4   2  -1   83.49    6.30
  -4   2   1   89.99    5.50
  -4   2   1   70.89    9.10
  -4   2   1   88.69    8.50
  -4   2   1   80.39    6.00
   4   2  -1   88.69    6.20
   2  -2  -1  679.43   15.10
  -2  -2   1  696.13   16.50
   2  -2  -1  688.03   15.00
  -2  -2   1  682.33   15.50
  -2  -2   1  687.93   19.70
   2   2  -1  690.43   15.60
  -2   2   1  691.63   18.30
  -2   2   1  697.33   15.20
  -2   2   1  700.33   18.60
   2   2  -1  653.63   15.80
  -2   2   1  700.13   18.10
  -2   2   1  674.33   14.80
   0  -2  -1  264.47    9.50
   0  -2  -1  268.27    9.70
   0  -2   1  278.87    9.40
   0  -2   1  266.07    9.50
   0   2  -1  276.97    9.40
   0   2   1  276.27    9.80
   0   2   1  256.27    9.60
   0   2   1  269.37   10.20
   0   2  -1  258.77    9.50
  -2  -2  -1  309.27   11.60
   2  -2   1  309.07   11.90
  -2  -2  -1  319.17   12.20
   2  -2   1  305.17   12.10
   2   2   1  302.17   12.20
  -2   2  -1  301.37   12.20
  -2   2  -1  304.37   12.10
   2   2   1  330.87   11.80
   4  -2   1  625.04   19.50
  -4  -2  -1  641.84   20.00
  -4  -2  -1  635.64   19.90
  -4  -2  -1  645.54   24.50
   4   2   1  640.54   19.70
   4   2   1  649.74   20.20
  -4   2  -1  583.94   19.30
  -4   2  -1  594.14   19.40
  -6  -2  -1  130.19   16.10
  -6  -2  -1  147.49   12.50
   6  -2   1  140.29   12.10
  -6  -2  -1  114.19   12.00
  -6   2  -1   96.79   14.90
  -6   2  -1  143.09   12.60
   6   2   1  129.69   12.30
  -6   2  -1  148.19   12.70
  -8  -2  -1   11.00   10.60
  -8  -2  -1    8.70   14.90
  -8   2  -1   26.40   11.00
  -8   2  -1   17.00   14.40
 -10  -2  -1   26.20   18.80
 -10   2  -1   45.60   19.60
  -9  -3   1    6.80   14.40
  -9  -3   1   -5.40    8.80
  -9   3   1   -7.20   13.70
  -9   3   1   27.80   14.00
  -9   3   1   10.70    8.90
  -7  -3   1   42.40   12.90
   7  -3  -1   27.20    6.60
  -7  -3   1   38.60    7.40
  -7  -3   1   40.60    6.90
  -7   3   1   33.00   11.00
  -7   3   1   34.70   12.50
  -7   3   1   37.80    7.50
   7   3  -1   31.20    6.80
  -5  -3   1  735.33   19.20
  -5  -3   1  754.72   27.20
   5  -3  -1  735.83   18.80
  -5  -3   1  753.52   19.60
  -5   3   1  735.93   23.60
   5   3  -1  749.92   19.40
  -5   3   1  768.32   23.70
  -5   3   1  756.72   19.00
   5   3  -1  746.83   19.80
  -3  -3   1 1411.76   30.60
  -3  -3   1 1461.65   31.00
  -3  -3   1 1385.66   35.60
   3  -3  -1 1379.36   29.80
  -3  -3   1 1422.86   29.90
  -3  -3   1 1369.46   30.20
   3  -3  -1 1422.86   29.80
  -3   3   1 1464.95   33.20
  -3   3   1 1380.56   33.10
   3   3  -1 1416.56   30.40
  -3   3   1 1384.66   32.70
   3   3  -1 1434.76   30.80
  -3   3   1 1410.46   30.00
  -1  -3   1 3664.13   75.69
  -1  -3   1 3542.85   71.59
   1  -3  -1 3599.94   71.19
   1  -3  -1 3589.54   71.39
  -1  -3   1 3570.74   71.59
  -1  -3   1 3589.84   66.69
   1   3  -1 3667.93   71.89
  -1   3   1 3544.95   71.29
  -1   3   1 3620.54   67.89
   1   3  -1 3618.74   71.59
  -1   3   1 3628.64   71.29
  -1  -3  -1  485.55   14.80
   1  -3   1  446.86   14.10
   1  -3   1  490.55   14.10
   1  -3   1  495.25   14.60
  -1  -3  -1  474.05   14.10
  -1   3  -1  474.85   14.70
   1   3   1  489.55   14.30
   1   3   1  487.65   12.10
  -1   3  -1  502.95   15.00
   1   3   1  464.05   14.30
  -3  -3  -1   14.10    6.80
  -3  -3  -1    8.90    6.40
   3  -3   1    6.00    6.10
   3  -3   1   11.80    6.40
  -3   3  -1   11.20    6.40
   3   3   1    3.70    6.30
   3   3   1    6.90    6.40
  -3   3  -1    7.20    6.60
   5  -3   1  230.68   12.70
  -5  -3  -1  209.58   12.60
  -5  -3  -1  235.48   14.10
  -5  -3  -1  231.38   17.20
  -5   3  -1  217.58   12.60
  -5   3  -1  216.18   15.50
  -5   3  -1  230.38   12.80
   5   3   1  223.98   12.80
  -7  -3  -1  878.11   35.80
   7  -3   1  817.12   27.40
  -7  -3  -1  836.82   27.90
  -7  -3  -1  890.51   28.80
   7   3   1  840.32   28.30
  -7   3  -1  824.92   28.00
  -7   3  -1  844.92   28.20
  -7   3  -1  843.12   34.20
  -9  -3  -1  418.36   32.10
  -9  -3  -1  448.96   23.10
  -9   3  -1  424.66   28.50
  -9   3  -1  463.65   22.90
 -10  -4   1   59.79   19.50
 -10  -4   1   81.49   12.50
 -10   4   1   55.59   16.10
 -10   4   1   63.99   18.90
  -8  -4   1   13.50   12.10
  -8  -4   1   49.70    9.70
  -8   4   1   30.70    8.80
  -8   4   1   35.20   13.80
  -8   4   1   19.00   11.90
  -6  -4   1  171.58   10.50
   6  -4  -1  158.08    9.10
  -6  -4   1  125.29   14.60
   6  -4  -1  174.78   10.10
  -6  -4   1  180.78   10.40
  -6   4   1  173.08   12.90
  -6   4   1  183.08    9.00
   6   4  -1  160.08   10.10
  -6   4   1  169.38   10.00
  -6   4   1  202.08   15.80
   6   4  -1  192.08   11.40
  -4  -4   1  226.18    9.70
   4  -4  -1  221.48    9.50
  -4  -4   1  211.68   16.00
  -4  -4   1  219.08   10.00
  -4  -4   1  234.48   11.80
   4  -4  -1  241.08    9.60
  -4   4   1  236.78   13.90
   4   4  -1  228.78    9.80
  -4   4   1  228.08    9.60
   4   4  -1  253.67   11.00
  -4   4   1  201.58    8.60
  -4   4   1  234.08   12.10
   2  -4  -1  327.47   11.30
  -2  -4   1  350.06   12.10
  -2  -4   1  340.47   14.70
  -2  -4   1  337.17   13.80
   2  -4  -1  349.57   11.00
  -2  -4   1  346.27   11.50
   2  -4  -1  347.07   11.10
  -2  -4   1  352.46   10.70
  -2   4   1  355.66   13.90
   2   4  -1  360.66   12.20
  -2   4   1  355.66   11.60
  -2   4   1  357.56   11.00
   2   4  -1  346.77   11.50
  -2   4   1  337.07   13.40
   0  -4   1  195.18   10.40
   0  -4   1  216.98    9.80
   0  -4  -1  223.28    9.70
   0  -4   1  190.08    8.90
   0  -4   1  210.98    9.90
   0  -4  -1  207.48    9.60
   0   4  -1  185.08    9.20
   0   4   1  206.98    9.60
   0   4   1  205.88    9.10
   0   4  -1  210.68    9.90
   0   4   1  198.98    9.20
  -2  -4  -1   60.99    7.50
   2  -4   1   61.39    7.50
  -2  -4  -1   50.29    7.20
   2  -4   1   56.09    6.20
   2  -4   1   51.59    7.00
   2   4   1   41.70    7.10
   2   4   1   63.59    7.50
  -2   4  -1   66.59    7.80
  -2   4  -1   55.39    6.90
   4  -4   1  341.17   14.30
  -4  -4  -1  290.47   14.00
  -4  -4  -1  317.77   20.40
   4  -4   1  337.57   14.10
  -4  -4  -1  316.37   14.60
   4   4   1  282.27   14.00
  -4   4  -1  328.37   14.50
   4   4   1  290.17   14.70
  -4   4  -1  322.97   14.20
  -6  -4  -1   32.80    8.90
   6  -4   1   37.90    8.80
  -6  -4  -1   46.30   13.90
   6   4   1   31.70    8.90
  -6   4  -1   26.40   11.80
  -6   4  -1   38.40    9.40
  -6   4  -1   12.30    8.60
  -8  -4  -1  153.38   19.90
  -8  -4  -1  133.39   14.80
  -8   4  -1  136.19   14.90
  -8   4  -1  149.88   18.30
 -10  -4  -1   -1.00   19.20
 -10   4  -1    2.90   17.50
  -9  -5   1  117.89   12.50
  -9  -5   1   90.19   18.30
  -9   5   1  103.29   11.90
  -9   5   1   83.59   17.70
  -9   5   1   88.49   14.90
  -7  -5   1  109.59   15.80
  -7  -5   1  108.99   10.10
   7  -5  -1  112.29    9.60
  -7   5   1   92.09   11.70
   7   5  -1   98.59    9.70
  -7   5   1  118.39   10.60
  -7   5   1   94.49   14.80
   5  -5  -1   66.59    7.00
  -5  -5   1   61.79    7.40
  -5  -5   1   70.79    7.70
   5  -5  -1   70.59    7.10
  -5  -5   1   79.29   11.90
   5   5  -1   61.89    7.70
  -5   5   1   57.19    7.20
  -5   5   1   70.09    8.10
  -5   5   1   69.49    6.70
   5   5  -1   71.99    7.50
  -5   5   1   69.19   10.70
  -3  -5   1  906.81   23.60
   3  -5  -1  898.61   21.60
  -3  -5   1  844.92   27.30
  -3  -5   1  883.01   19.90
  -3  -5   1  878.01   22.90
  -3  -5   1  886.61   22.30
   3  -5  -1  856.41   21.80
  -3   5   1  866.41   21.40
   3   5  -1  926.21   23.30
   3   5  -1  893.31   22.50
  -3   5   1  854.61   24.70
  -3   5   1  872.51   24.30
  -3   5   1  883.91   21.60
  -3   5   1  886.71   22.20
  -1  -5   1  679.13   19.80
  -1  -5   1  687.93   18.60
   1  -5  -1  675.23   18.20
  -1  -5   1  659.03   19.50
   1  -5  -1  670.73   18.70
  -1  -5   1  653.83   18.30
   1   5  -1  633.94   18.20
  -1   5   1  657.33   18.10
  -1   5   1  678.73   18.20
   1   5  -1  688.43   18.80
  -1   5   1  670.23   17.60
  -1  -5  -1  120.99    9.40
  -1  -5  -1  115.89    8.40
   1  -5   1  105.89    8.30
   1  -5   1  136.19    9.40
   1  -5   1  122.99    8.60
   1   5   1  122.69    9.50
  -1   5  -1  134.09    8.90
   1   5   1  116.99    8.80
  -1   5  -1  129.59    8.90
   1   5   1  131.99    7.20
  -3  -5  -1  258.67   18.10
   3  -5   1  236.48   12.50
  -3  -5  -1  224.08   12.20
  -3  -5  -1  243.48   12.90
   3  -5   1  249.28   12.30
   3  -5   1  252.27   12.50
   3   5   1  257.37   13.30
   3   5   1  237.68   12.60
  -3   5  -1  259.97   13.10
  -3   5  -1  218.48   12.10
  -5  -5  -1   88.59   10.70
  -5  -5  -1  102.49   14.10
  -5  -5  -1  108.19   11.40
   5  -5   1  104.89   10.60
   5   5   1  101.79   10.90
  -5   5  -1   99.89   10.80
  -5   5  -1   86.29   12.00
  -5   5  -1   92.49   10.60
  -7  -5  -1  333.57   18.80
  -7  -5  -1  340.87   18.50
   7  -5   1  307.57   17.70
  -7  -5  -1  324.37   23.80
  -7   5  -1  313.97   23.30
   7   5   1  325.67   18.20
  -7   5  -1  359.26   19.00
  -9  -5  -1   89.79   19.90
  -9  -5  -1  109.19   15.50
  -9   5  -1   89.39   15.20
  -9   5  -1   86.39   18.10
 -10  -6   1   99.49   21.00
 -10  -6   1   83.39   13.30
 -10   6   1  108.99   20.70
  -8  -6   1  128.69   18.00
  -8  -6   1  157.78   12.80
  -8   6   1  166.08   12.80
  -8   6   1  144.09   18.00
  -8   6   1  121.79   13.60
   6  -6  -1  588.94   18.50
  -6  -6   1  569.34   26.20
  -6  -6   1  631.74   19.80
  -6  -6   1  600.34   19.60
  -6   6   1  629.24   20.90
  -6   6   1  559.54   23.70
  -6   6   1  592.34   19.10
  -6   6   1  616.54   18.40
   6   6  -1  581.64   19.20
   4  -6  -1    5.40    5.30
  -4  -6   1    8.80    6.00
  -4  -6   1    2.20    7.70
   4  -6  -1    7.20    5.40
  -4  -6   1    9.80    6.10
  -4  -6   1    0.40    5.60
   4   6  -1    9.30    6.10
   4   6  -1   13.00    6.40
  -4   6   1   20.50    8.30
  -4   6   1   13.00    6.30
  -4   6   1    6.60    5.30
  -4   6   1    9.30    4.60
  -2  -6   1  143.39   10.50
  -2  -6   1  133.89   10.20
  -2  -6   1  163.88   10.80
   2  -6  -1  134.19    9.60
   2  -6  -1  143.49    9.80
  -2  -6   1  134.59   10.60
  -2  -6   1  141.79    7.60
   2  -6  -1  153.58    7.20
   2   6  -1  145.59   10.20
  -2   6   1  137.69   10.20
  -2   6   1  138.69    9.80
   2   6  -1  145.49   10.70
  -2   6   1  151.68   10.70
  -2   6   1  136.19    9.40
   0  -6   1  561.74   17.40
   0  -6   1  572.94   16.50
   0  -6  -1  538.65   16.90
   0  -6   1  552.04   17.20
   0  -6  -1  565.74   17.00
   0  -6   1  545.65   17.10
   0   6   1  517.85   17.00
   0   6   1  551.24   14.60
   0   6  -1  547.75   17.20
   0   6  -1  585.34   17.50
   0   6   1  541.25   16.80
   2  -6   1  818.72   23.20
   2  -6   1  801.32   21.60
  -2  -6  -1  853.51   23.60
  -2  -6  -1  812.62   23.00
   2  -6   1  793.12   22.80
  -2  -6  -1  814.52   25.60
   2   6   1  777.52   22.90
  -2   6  -1  778.32   23.10
   2   6   1  806.72   17.20
   2   6   1  847.12   23.50
  -2   6  -1  807.72   22.90
  -4  -6  -1 1155.38   30.80
   4  -6   1 1074.99   29.90
  -4  -6  -1 1046.50   29.70
   4  -6   1 1049.40   27.00
  -4  -6  -1 1120.29   34.90
   4  -6   1 1077.59   29.90
  -4   6  -1 1086.49   30.30
  -4   6  -1 1103.29   30.50
   4   6   1 1127.29   30.50
   4   6   1 1056.29   29.80
  -6  -6  -1    3.10   12.80
   6  -6   1   -4.80    8.40
  -6  -6  -1   15.40    9.00
  -6  -6  -1   16.10    9.00
   6  -6   1    7.80    6.70
  -6   6  -1    9.10    9.60
  -6   6  -1   23.40   11.30
  -6   6  -1   14.90    8.80
   6   6   1   -5.50    8.50
   8  -6   1   11.40    8.30
  -8  -6  -1    3.90   10.70
  -8  -6  -1   -9.70   14.80
  -8   6  -1   -0.30   12.90
  -8   6  -1    6.10   11.20
 -10  -6  -1   41.80   20.50
  -9  -7   1   -9.90    9.40
  -9  -7   1   -8.60   14.60
  -9   7   1   17.60   15.60
  -9   7   1   -3.40    9.60
  -7  -7   1   50.19    9.40
  -7  -7   1   30.90   13.30
  -7   7   1   50.49    9.80
  -7   7   1   61.19    9.70
  -7   7   1   44.70   13.40
   5  -7  -1  292.37   13.20
  -5  -7   1  331.17   14.30
  -5  -7   1  285.57   20.40
  -5  -7   1  313.47   13.50
   5  -7  -1  317.97   13.40
  -5   7   1  289.97   17.20
  -5   7   1  316.67   12.90
  -5   7   1  308.97   13.00
   5   7  -1  290.77   13.60
  -5   7   1  304.07   13.70
  -3  -7   1  155.18   11.50
   3  -7  -1  124.89    8.30
  -3  -7   1  141.89   10.20
   3  -7  -1  125.09    9.20
  -3  -7   1  123.99   11.90
  -3  -7   1  125.09    9.70
   3  -7  -1  129.89    9.60
  -3  -7   1  145.69    7.50
   3   7  -1  135.59   10.40
  -3   7   1  131.39   11.50
   3   7  -1  122.39    9.90
  -3   7   1  127.19    9.70
  -3   7   1  148.09    9.70
  -1  -7   1 1182.08   29.10
  -1  -7   1 1166.78   29.90
   1  -7  -1 1166.68   29.20
  -1  -7   1 1144.79   29.40
  -1  -7   1 1165.28   29.60
   1  -7  -1 1150.28   29.30
   1   7  -1 1139.79   29.50
  -1   7   1 1182.38   27.50
  -1   7   1 1168.28   29.10
  -1   7   1 1155.28   29.30
   1   7  -1 1144.39   29.30
   1  -7   1   45.70    7.70
   1  -7   1   49.20    7.10
  -1  -7  -1   42.20    7.80
   1  -7   1   40.10    7.80
  -1  -7  -1   31.30    7.30
   1   7   1   33.80    7.80
   1   7   1   50.59    8.10
  -1   7  -1   41.30    7.80
   1   7   1   51.69    5.50
  -1   7  -1   38.20    8.00
   3  -7   1  175.58   11.60
  -3  -7  -1  158.08   12.20
  -3  -7  -1  143.69   13.00
   3  -7   1  148.79   11.40
   3  -7   1  161.38   11.70
  -3  -7  -1  158.08   11.40
   3   7   1  145.79   11.60
   3   7   1  162.18    6.60
   3   7   1  161.78   12.40
  -3   7  -1  156.08   11.70
  -3   7  -1  174.08   12.10
   5  -7   1  284.97   14.40
  -5  -7  -1  306.97   16.70
  -5  -7  -1  268.57   20.40
   5  -7   1  262.97   14.90
  -5  -7  -1  264.07   15.20
  -5   7  -1  297.87   17.70
  -5   7  -1  276.97   15.30
  -5   7  -1  275.27   15.40
   5   7   1  273.47   15.30
   7  -7   1   81.09   10.20
  -7  -7  -1   67.69   11.80
   7  -7   1   54.39   11.80
  -7  -7  -1   74.49   17.10
  -7   7  -1   74.79   13.80
   7   7   1   79.99   12.30
  -7   7  -1   76.89   12.90
  -9  -7  -1   73.49   15.10
  -9  -7  -1   67.59   20.10
  -9   7  -1   69.19   14.70
 -10  -8   1    1.20   17.70
 -10  -8   1   24.10   11.50
 -10   8   1    4.50   17.40
  -8  -8   1  541.35   21.10
  -8  -8   1  526.35   31.20
  -8   8   1  478.05   20.70
  -8   8   1  490.25   26.30
   6  -8  -1   25.50    7.90
  -6  -8   1   22.40   12.10
  -6  -8   1   29.20    8.20
  -6  -8   1   21.60    8.10
  -6   8   1   25.70   11.70
  -6   8   1   26.90    9.00
  -6   8   1   27.30    7.90
   6   8  -1   31.30    8.40
  -6   8   1   29.10    6.70
  -4  -8   1  157.08    8.40
   4  -8  -1  151.28   10.70
  -4  -8   1  138.89   10.70
  -4  -8   1  151.08   11.60
   4  -8  -1  162.48   10.60
  -4  -8   1  119.09   12.70
  -4   8   1  148.39   11.40
  -4   8   1  136.79    9.90
   4   8  -1  129.09   10.60
   4   8  -1  150.98   11.50
  -4   8   1  163.78   13.00
  -2  -8   1 1181.28   30.60
   2  -8  -1 1095.99   29.20
   2  -8  -1 1105.79   26.50
  -2  -8   1 1111.89   31.40
  -2  -8   1 1147.89   23.40
  -2  -8   1 1117.89   29.60
  -2  -8   1 1111.39   29.40
   2  -8  -1 1145.19   29.10
  -2   8   1 1131.29   29.50
   2   8  -1 1088.79   29.40
  -2   8   1 1129.29   29.20
   2   8  -1 1131.59   29.90
   0  -8   1    7.60    6.50
   0  -8   1   10.00    7.20
   0  -8   1   13.70    6.60
   0  -8  -1    7.10    6.90
   0  -8  -1    1.70    7.10
   0  -8   1    6.50    5.50
   0   8   1    0.30    7.00
   0   8   1    8.70    7.20
   0   8  -1    1.00    6.50
   0   8  -1    0.60    7.40
   0   8   1  -12.20    6.10
   2  -8   1  969.40   27.40
   2  -8   1  949.11   27.20
  -2  -8  -1  989.50   27.20
  -2  -8  -1  975.60   27.30
   2  -8   1  979.20   25.70
  -2  -8  -1 1029.50   29.80
  -2   8  -1  990.20   23.60
  -2   8  -1 1022.70   27.80
   2   8   1  971.10   27.50
  -2   8  -1  939.01   27.50
   2   8   1  983.70   19.90
   2   8   1  984.40   27.20
  -4  -8  -1   93.39   13.50
   4  -8   1   97.19   10.70
  -4  -8  -1  105.79   10.70
  -4  -8  -1   89.39   11.00
   4  -8   1  105.19    9.40
  -4   8  -1   72.09   10.00
  -4   8  -1   97.19   10.90
   4   8   1   90.99   10.40
  -4   8  -1   77.99   10.40
   4   8   1   85.69    5.10
  -6  -8  -1  134.69   17.10
  -6  -8  -1  181.98   15.20
  -6  -8  -1  210.78   16.40
   6  -8   1  194.88   14.90
   6  -8   1  189.78   12.80
   6   8   1  171.18   14.90
  -6   8  -1  200.28   15.20
  -6   8  -1  191.48   14.40
  -6   8  -1  187.98   15.20
   8  -8   1  198.28   14.10
  -8  -8  -1  171.58   16.60
  -8  -8  -1  187.38   22.30
  -8   8  -1  173.88   17.10
  -8   8  -1  162.88   19.70
  -8   8  -1  164.18   17.20
 -10  -8  -1    3.60   19.10
 -10   8  -1   -9.80   16.60
  -9  -9   1   47.40   11.40
  -9  -9   1   45.00   17.60
  -9   9   1   47.70   12.60
  -9   9   1   18.10   17.10
  -7  -9   1    5.90    8.40
  -7  -9   1  -12.90   10.60
  -7   9   1    4.80    9.30
  -7   9   1   13.80   12.80
  -5  -9   1  256.47   14.60
  -5  -9   1  259.77   15.00
   5  -9  -1  230.28   13.40
  -5  -9   1  226.08   18.20
   5  -9  -1  240.18   11.40
  -5   9   1  236.18   13.90
  -5   9   1  240.08   12.90
  -5   9   1  257.27   10.30
   5   9  -1  256.67   14.90
  -5   9   1  280.57   17.10
  -3  -9   1  959.40   28.20
   3  -9  -1  943.21   26.40
  -3  -9   1  947.01   29.30
  -3  -9   1  954.70   27.50
  -3  -9   1  919.41   26.50
  -3  -9   1  943.01   19.60
   3  -9  -1  946.21   26.70
   3  -9  -1  926.41   23.70
  -3   9   1  922.81   26.40
  -3   9   1  953.40   26.60
  -3   9   1  968.40   27.10
   3   9  -1  926.71   26.70
   3   9  -1  941.91   27.30
  -1  -9   1  995.40   26.90
  -1  -9   1  955.60   27.40
   1  -9  -1  993.90   27.60
  -1  -9   1  978.00   27.40
  -1  -9   1  963.40   27.60
   1  -9  -1  946.01   25.30
   1  -9  -1  990.40   23.40
   1  -9  -1  956.80   27.20
  -1   9   1  944.01   27.10
  -1   9   1  947.31   24.60
  -1   9   1  952.10   27.10
   1   9  -1 1008.00   28.00
   1   9  -1  995.00   28.00
   1  -9   1    4.20    7.10
   1  -9   1    0.70    7.20
   1  -9   1    0.40    6.40
  -1  -9  -1    3.20    6.50
  -1  -9  -1   -6.30    6.90
  -1  -9  -1    8.40    7.20
  -1   9  -1    7.20    7.70
   1   9   1   -0.70    5.20
  -1   9  -1    2.10    7.10
   1   9   1    0.10    7.30
   1   9   1    5.30    7.70
  -3  -9  -1    2.60    7.30
  -3  -9  -1   15.30    7.80
   3  -9   1    6.30    6.50
   3  -9   1    9.00    7.10
   3  -9   1   14.50    7.90
  -3  -9  -1    7.20    9.60
  -3   9  -1   15.80    8.00
   3   9   1    9.20    7.50
   3   9   1   -0.90    7.60
  -3   9  -1    9.80    8.00
  -3   9  -1   -0.60    6.50
   5  -9   1  109.69   12.70
  -5  -9  -1  106.19   12.10
  -5  -9  -1   79.69   13.80
   5  -9   1   78.19    9.60
  -5  -9  -1   81.49   11.30
  -5   9  -1   80.89   12.30
  -5   9  -1   77.99   11.60
   5   9   1   78.39   11.90
  -5   9  -1   89.49   10.00
  -5   9  -1   80.09   12.10
   7  -9   1  509.35   19.80
  -7  -9  -1  470.85   22.90
   7  -9   1  497.35   23.30
  -7  -9  -1  528.75   31.10
  -7   9  -1  489.05   23.60
   7   9   1  511.55   23.50
  -7   9  -1  545.55   23.80
  -7   9  -1  477.85   23.80
  -9  -9  -1  160.28   24.00
  -9   9  -1  158.88   21.20
  -8 -10   1   16.70   13.60
  -8 -10   1    1.20    9.70
  -8  10   1   32.40   15.30
  -8  10   1   -2.00   10.10
  -6 -10   1   65.59   10.70
  -6 -10   1   73.59   13.80
   6 -10  -1   79.89   11.00
  -6  10   1   85.29   11.40
  -6  10   1   79.89   13.80
   6  10  -1   66.09   11.00
   4 -10  -1  280.87   15.30
  -4 -10   1  299.37   14.70
  -4 -10   1  311.47   19.60
   4 -10  -1  292.87   13.10
  -4 -10   1  275.07   15.40
  -4  10   1  275.67   15.30
   4  10  -1  305.57   15.40
  -4  10   1  259.87   16.20
  -4  10   1  273.47   14.70
   2 -10  -1  349.87   15.00
  -2 -10   1  376.36   16.30
   2 -10  -1  329.77   15.80
  -2 -10   1  371.06   17.70
  -2 -10   1  371.76   17.00
  -2 -10   1  391.36   17.80
   2 -10  -1  359.36   16.10
  -2  10   1  334.47   16.30
   2  10  -1  348.57   16.50
   2  10  -1  378.96   17.10
  -2  10   1  368.06   16.20
   0 -10  -1  279.07   15.20
   0 -10   1  261.87   15.10
   0 -10   1  275.67   12.70
   0 -10  -1  272.97   13.90
   0 -10   1  261.37   14.70
   0 -10  -1  262.97   14.80
   0 -10   1  291.57   15.40
   0  10  -1  270.47   15.20
   0  10  -1  253.77   15.20
   0  10   1  268.87   14.80
   0  10   1  280.47   15.30
   2 -10   1   -2.30    7.30
  -2 -10  -1    6.10    8.40
   2 -10   1   11.60    8.10
   2 -10   1    1.20    6.40
  -2 -10  -1    5.70    7.70
  -2 -10  -1    8.20    7.00
  -2  10  -1    1.60    8.10
   2  10   1    3.10    8.10
  -2  10  -1    3.90    8.00
   2  10   1   -3.80    6.50
  -2  10  -1    6.00    6.10
   4 -10   1  122.79   10.90
   4 -10   1  147.59   13.00
  -4 -10  -1  123.29   13.90
  -4 -10  -1  144.89   13.90
  -4 -10  -1  129.09   12.50
  -4  10  -1  122.39   13.00
  -4  10  -1  146.19   12.60
   4  10   1  121.99   13.00
  -4  10  -1  115.69   12.80
   6 -10   1   71.09   10.00
   6 -10   1   56.09   12.40
  -6 -10  -1   53.59   11.70
  -6 -10  -1   72.49   12.60
  -6 -10  -1   49.80   15.20
   6  10   1   56.39   12.20
  -6  10  -1   47.50   11.90
  -6  10  -1   50.39   10.00
  -6  10  -1   57.49   12.20
  -6  10  -1   50.79   12.30
  -8 -10  -1  318.67   21.20
  -8 -10  -1  301.87   26.40
  -8  10  -1  332.07   21.90
  -8  10  -1  306.07   21.90
  -9 -11   1  227.78   18.00
  -9 -11   1  251.17   26.00
  -9  11   1  188.88   22.20
  -9  11   1  195.68   18.00
  -7 -11   1  360.86   18.90
  -7 -11   1  366.76   26.90
  -7  11   1  372.66   22.40
  -7  11   1  339.77   19.50
  -5 -11   1   13.70   10.30
  -5 -11   1   -6.30    8.30
  -5 -11   1    4.90    8.90
   5 -11  -1   19.10    9.20
   5 -11  -1    3.00    6.40
  -5  11   1    4.40   10.90
  -5  11   1   12.50    8.40
   5  11  -1   14.50    9.60
  -5  11   1   -1.50    9.10
  -3 -11   1 1359.16   36.80
  -3 -11   1 1308.47   36.40
   3 -11  -1 1401.76   36.70
   3 -11  -1 1318.57   32.30
  -3 -11   1 1425.36   37.50
  -3 -11   1 1400.76   39.00
   3  11  -1 1308.27   36.50
  -3  11   1 1342.17   36.50
  -3  11   1 1392.36   36.20
   1 -11  -1  244.28   15.20
  -1 -11   1  249.58   15.70
  -1 -11   1  276.17   15.40
   1 -11  -1  246.88   15.10
   1 -11  -1  281.47   11.60
  -1 -11   1  268.97   13.70
  -1 -11   1  304.07   15.90
   1 -11  -1  257.67   15.10
   1  11  -1  277.27   15.80
  -1  11   1  237.68   14.80
   1  11  -1  276.17   15.90
  -1  11   1  271.47   15.60
   1 -11   1  429.06   18.40
   1 -11   1  398.96   17.90
  -1 -11  -1  399.96   17.60
  -1 -11  -1  388.56   18.60
   1 -11   1  401.96   18.40
  -1 -11  -1  403.06   18.30
  -1  11  -1  395.86   18.30
   1  11   1  427.56   19.10
   1  11   1  418.06   18.70
  -1  11  -1  431.96   19.20
  -3 -11  -1  837.92   27.70
   3 -11   1  859.01   25.70
  -3 -11  -1  892.51   28.50
  -3 -11  -1  861.81   30.30
   3 -11   1  887.01   28.10
  -3  11  -1  859.31   28.30
  -3  11  -1  861.51   28.00
   3  11   1  860.91   28.40
  -3  11  -1  854.31   23.70
  -5 -11  -1   67.79   11.40
   5 -11   1   74.09   12.20
  -5 -11  -1   50.19   14.30
   5 -11   1   40.30    9.30
   5  11   1   51.09   12.20
  -5  11  -1   50.99    8.00
  -5  11  -1   54.69   11.70
  -5  11  -1   54.09   11.70
  -5  11  -1   62.29   12.30
  -7 -11  -1  449.36   28.00
   7 -11   1  401.66   18.90
  -7 -11  -1  434.06   22.40
  -7  11  -1  381.86   23.20
  -7  11  -1  454.25   23.00
   7  11   1  354.06   21.60
  -9 -11  -1   35.70   19.80
  -9  11  -1   83.19   18.30
  -8 -12   1   46.70   17.10
  -8 -12   1   74.89   13.70
  -8  12   1   41.40   16.80
  -8  12   1   67.09   14.10
  -6 -12   1   93.39   15.80
  -6 -12   1  123.09   13.70
  -6  12   1  120.49   13.90
   6  12  -1  117.99   13.80
  -6  12   1  142.39   17.20
   4 -12  -1   -6.50    6.90
  -4 -12   1    7.80    8.80
   4 -12  -1   -1.70    8.30
  -4 -12   1  -13.10    9.80
  -4 -12   1   -8.90    8.80
  -4  12   1    7.90    9.40
  -4  12   1   -0.80    7.70
   4  12  -1    3.60    9.90
  -2 -12   1   31.40    8.90
  -2 -12   1   20.60    9.40
   2 -12  -1   39.00    8.20
  -2 -12   1   39.40    9.50
  -2 -12   1   32.00    9.60
   2 -12  -1   38.80    9.70
   2  12  -1   37.70   10.00
  -2  12   1   39.10    9.60
  -2  12   1   46.30    9.60
   0 -12   1  194.28   14.80
   0 -12  -1  176.88   14.20
   0 -12   1  198.18   14.30
   0 -12  -1  195.18   13.70
   0 -12   1  189.48   11.50
   0 -12   1  177.88   14.50
   0  12   1  183.78   14.40
   0  12  -1  156.48   14.40
   0  12   1  164.78   13.80
   0  12  -1  177.68   14.20
  -2 -12  -1  499.45   21.20
  -2 -12  -1  471.05   21.70
   2 -12   1  527.65   20.80
   2 -12   1  527.75   20.90
   2  12   1  520.05   21.10
  -2  12  -1  553.14   22.50
  -2  12  -1  512.85   20.80
   4 -12   1  236.28   15.30
   4 -12   1  223.78   16.60
  -4 -12  -1  201.18   17.90
  -4 -12  -1  204.58   16.30
  -4  12  -1  214.58   14.20
  -4  12  -1  190.18   16.10
   4  12   1  226.48   17.10
  -4  12  -1  243.78   17.00
   6 -12   1   13.30    9.00
   6 -12   1   12.10   10.90
  -6 -12  -1    7.60   10.20
  -6 -12  -1    1.90   13.60
   6  12   1    0.60   10.90
  -6  12  -1   16.20   11.60
  -6  12  -1   24.30   12.20
  -8 -12  -1   20.10   18.30
  -8  12  -1   21.00   15.10
  -9 -13   1  156.78   23.30
  -9  13   1  167.68   22.20
  -7 -13   1  412.66   28.80
  -7 -13   1  468.05   22.60
  -7  13   1  486.35   22.90
  -7  13   1  412.06   26.20
  -5 -13   1   87.99   12.90
  -5 -13   1   90.89   12.40
   5 -13  -1  106.29   10.50
   5 -13  -1  102.89   13.40
  -5 -13   1  115.79   14.90
   5  13  -1   98.79   13.10
  -5  13   1   91.89   15.20
  -5  13   1   93.29   13.60
  -3 -13   1  174.08   15.20
  -3 -13   1  174.38   14.70
  -3 -13   1  159.28   14.70
  -3 -13   1  193.28   16.20
   3 -13  -1  167.88   14.50
   3 -13  -1  187.48   12.80
  -3  13   1  162.78   14.40
  -3  13   1  154.68   14.70
   3  13  -1  166.18   14.90
   1 -13  -1   60.89    6.70
  -1 -13   1   46.20    8.60
  -1 -13   1   61.99   10.80
   1 -13  -1   54.19   10.90
  -1 -13   1   70.19   11.30
  -1 -13   1   60.29   10.90
  -1  13   1   52.39   10.70
  -1  13   1   54.59   10.90
   1  13  -1   65.39   11.60
  -1 -13  -1  892.61   29.00
   1 -13   1  809.72   27.70
   1 -13   1  878.61   29.00
  -1 -13  -1  849.32   27.50
   1  13   1  851.91   28.60
  -1  13  -1  832.82   29.00
   3 -13   1 1365.36   36.90
  -3 -13  -1 1349.66   39.70
  -3 -13  -1 1391.56   41.30
   3 -13   1 1388.76   39.80
  -3  13  -1 1383.46   40.30
   3  13   1 1416.96   40.40
  -3  13  -1 1347.67   33.80
  -5 -13  -1   29.50   14.10
   5 -13   1   47.90   10.50
   5 -13   1   61.89   13.70
  -5 -13  -1   64.29   12.20
  -5  13  -1   48.30   11.80
  -5  13  -1   40.80   13.40
   5  13   1   40.50   12.70
  -7 -13  -1   45.20   12.80
  -7 -13  -1   41.10   16.00
   7 -13   1   34.80   10.50
  -7  13  -1   48.80   14.90
  -7  13  -1   41.20   13.90
  -8 -14   1  104.79   20.30
  -8  14   1  120.59   20.60
  -8  14   1  125.19   16.30
  -6 -14   1   19.30   11.30
  -6 -14   1   22.10   13.80
  -6  14   1   18.60   13.80
  -6  14   1   26.70   12.70
   4 -14  -1  123.39   11.30
   4 -14  -1  124.99   13.70
  -4 -14   1  117.49   14.70
  -4 -14   1  112.59   13.80
  -4 -14   1   89.39   13.40
  -4  14   1  109.79   13.70
   4  14  -1  102.99   14.50
  -4  14   1   89.29   12.40
   2 -14  -1  412.96   19.60
  -2 -14   1  483.15   22.30
   2 -14  -1  428.96   20.70
  -2 -14   1  459.65   23.10
  -2 -14   1  446.46   20.90
  -2 -14   1  482.95   21.50
  -2  14   1  430.76   21.30
  -2  14   1  451.65   21.50
   2  14  -1  476.85   21.80
   0 -14   1   15.10   10.10
   0 -14  -1    3.20    7.60
   0 -14  -1   15.40   10.20
   0 -14   1   13.10    9.30
   0 -14   1   14.00    7.00
   0  14   1    6.00    9.90
   0  14  -1    0.30   10.20
  -2 -14  -1   72.39   12.70
   2 -14   1   83.99   12.10
  -2 -14  -1   70.29   11.90
   2 -14   1   91.39   13.50
  -2  14  -1   73.09   13.50
   2  14   1   59.19   12.70
   4 -14   1   12.90    9.60
  -4 -14  -1   25.00   12.50
  -4 -14  -1    0.30   10.30
   4 -14   1   31.20   12.60
   4  14   1    3.60   11.00
  -4  14  -1   26.50   10.60
  -4  14  -1    5.60   12.30
   6 -14   1   94.09   12.80
  -6 -14  -1   82.29   13.90
   6 -14   1  105.19   15.40
  -6 -14  -1   97.29   18.10
  -6  14  -1   59.19   13.60
   6  14   1   53.99   14.40
  -6  14  -1   93.99   15.70
  -8 -14  -1  157.08   22.40
  -8  14  -1  131.49   19.10
  -7 -15   1   74.19   17.90
  -7 -15   1   85.19   14.70
  -7  15   1  117.19   16.60
  -7  15   1   81.49   18.00
   5 -15  -1  183.18   17.00
  -5 -15   1  129.29   15.50
  -5 -15   1  146.59   17.50
  -5  15   1  144.89   16.30
   5  15  -1  125.39   16.60
   3 -15  -1   55.29   12.40
  -3 -15   1   39.90   11.50
  -3 -15   1   24.20   11.70
  -3 -15   1   21.90   11.80
   3 -15  -1   48.30   10.00
  -3  15   1   52.09   12.10
   3  15  -1   51.89   12.30
  -3  15   1   45.30   11.70
  -1 -15   1  161.38   12.80
   1 -15  -1  182.98   10.60
  -1 -15   1  188.58   16.60
   1 -15  -1  165.48   15.60
  -1 -15   1  183.08   16.10
   1  15  -1  179.08   16.70
  -1  15   1  157.88   15.70
   1 -15   1   47.30   12.20
   1 -15   1   33.40   11.10
  -1 -15  -1   44.80   10.10
  -1 -15  -1   53.89   12.30
  -1  15  -1   48.50   13.00
   1  15   1   52.69   12.80
  -3 -15  -1   78.69   13.60
   3 -15   1   64.89   12.60
   3 -15   1   81.09   12.70
  -3 -15  -1   57.59   13.00
  -3  15  -1   62.79   13.70
   3  15   1   56.49   13.70
   5 -15   1   69.19   12.40
  -5 -15  -1   92.89   14.70
   5 -15   1   77.89   14.70
  -5 -15  -1   62.19   16.00
   5  15   1   47.90   14.30
  -5  15  -1   67.89   12.60
  -5  15  -1  103.69   15.80
  -7 -15  -1   23.40   17.70
  -7  15  -1   55.09   15.00
  -8 -16   1   91.39   20.70
  -8  16   1   60.49   19.70
  -6 -16   1   41.00   15.70
  -6 -16   1   67.79   13.70
  -6  16   1   75.29   15.20
  -4 -16   1  375.86   22.70
   4 -16  -1  436.76   23.40
   4 -16  -1  424.56   19.60
  -4 -16   1  390.16   23.60
   4  16  -1  396.06   24.00
  -4  16   1  415.86   22.90
   2 -16  -1  820.12   29.80
   2 -16  -1  776.02   27.00
  -2 -16   1  741.13   29.20
  -2 -16   1  777.72   27.80
  -2 -16   1  735.73   29.40
   2  16  -1  736.63   29.60
   0 -16  -1   75.89   13.00
   0 -16  -1   89.49    9.90
   0 -16   1  100.69   13.70
   0 -16   1   89.39    9.90
   0 -16   1  104.79   14.20
   0  16  -1   82.79   14.50
   0  16   1   91.49   13.90
  -2 -16  -1  322.77   21.20
   2 -16   1  309.67   20.70
   2 -16   1  297.17   20.70
  -2 -16  -1  303.17   20.60
  -2  16  -1  336.07   21.60
   2  16   1  309.17   21.20
  -4 -16  -1   46.90   15.10
   4 -16   1   42.30   13.60
   4 -16   1   43.40   11.90
  -4 -16  -1   28.60   12.80
  -4  16  -1   45.90   14.20
   4  16   1   51.39   14.00
  -6 -16  -1  174.48   18.50
  -6 -16  -1  161.08   21.20
   6 -16   1  206.58   17.50
   6  16   1  195.48   19.80
  -6  16  -1  194.08   17.80
  -6  16  -1  169.98   20.10
  -8  16  -1  383.26   25.40
  -7 -17   1   79.89   18.90
  -5 -17   1   30.80   14.00
  -5 -17   1   36.70   13.80
  -5  17   1   37.90   14.00
  -3 -17   1  100.29   15.90
   3 -17  -1  138.29   13.80
  -3 -17   1  115.69   15.30
   3 -17  -1  128.09   15.80
  -3 -17   1  131.89   14.60
  -3  17   1  122.39   15.60
   3  17  -1  119.49   15.90
  -1 -17   1   -9.80   10.80
   1 -17  -1   27.40   12.30
  -1 -17   1   11.80   11.60
  -1 -17   1   15.50    8.90
   1  17  -1    0.50   12.10
  -1  17   1   18.70   12.00
  -1 -17  -1  -16.60    9.30
   1 -17   1   -3.10   10.50
  -1 -17  -1  -22.90   10.60
   1 -17   1    6.30   10.50
   1  17   1   -9.60   11.70
  -1  17  -1    7.90   12.40
   3 -17   1  139.29   15.80
  -3 -17  -1  138.89   16.90
  -3 -17  -1  143.29   17.10
   3 -17   1  179.28   18.80
  -3  17  -1  137.09   17.70
   3  17   1  118.49   17.00
   5 -17   1   18.90   13.50
   5 -17   1   11.40   11.50
  -5 -17  -1    9.30   14.60
  -5 -17  -1   12.10   12.80
   5  17   1    9.10   13.70
  -5  17  -1    2.50   13.70
  -7 -17  -1   47.10   19.10
  -7  17  -1   51.39   15.60
  -6 -18   1   18.50   15.40
  -4 -18   1   -9.30   12.30
  -4 -18   1   29.50   13.50
   4 -18  -1   11.20   10.40
   4 -18  -1   13.60   13.20
  -4  18   1   47.00   14.30
   4  18  -1   24.30   14.80
  -2 -18   1   41.10   13.70
  -2 -18   1   31.70   12.80
  -2 -18   1   41.20   11.30
   2 -18  -1   52.89   14.00
  -2  18   1   45.30   13.60
   2  18  -1   42.60   14.40
   0 -18  -1   39.80    8.80
   0 -18   1   30.10    9.00
   0 -18  -1   27.90   13.10
   0 -18   1   26.40   12.70
   0 -18   1   26.30   13.30
   0  18  -1   15.40   13.10
   0  18   1   42.10   13.70
   2 -18   1   94.59   16.00
  -2 -18  -1  103.59   14.30
   2 -18   1   94.29   15.10
  -2 -18  -1  102.39   16.20
   2  18   1  113.19   17.10
  -2  18  -1  120.09   17.20
  -4 -18  -1   14.20   13.10
   4 -18   1    4.50   13.00
  -4 -18  -1  -10.10   12.80
   4 -18   1  -15.30   10.50
  -4  18  -1    5.90   14.70
   4  18   1    7.50   13.40
  -6 -18  -1    6.20   16.10
   6 -18   1   27.90   12.90
  -5 -19   1   29.80   15.00
  -3 -19   1    8.10   12.80
  -3 -19   1   23.10   12.70
   3 -19  -1   17.70   13.00
   3  19  -1  -13.40   12.40
  -3  19   1   -3.70   13.40
   1 -19  -1   36.20   13.60
  -1 -19   1   19.30    9.60
  -1 -19   1    8.80   12.50
  -1 -19   1   13.30   12.60
  -1  19   1   17.80   13.10
   1  19  -1   22.60   13.70
  -1 -19  -1  529.65   22.80
   1 -19   1  476.55   25.60
  -1 -19  -1  530.05   27.40
   1 -19   1  497.15   26.70
   1  19   1  408.06   25.90
  -3 -19  -1  670.83   31.20
  -3 -19  -1  708.13   30.80
   3 -19   1  631.84   28.70
   3 -19   1  713.23   32.20
   3  19   1  671.73   31.90
  -5 -19  -1   31.40   17.10
   5 -19   1   67.69   14.80
   5  19   1   39.70   15.80
  -6 -20   1   17.50   16.70
  -4 -20   1   56.39   15.50
   4  20  -1   58.39   16.70
   2 -20  -1  289.67   22.20
  -2 -20   1  287.37   19.20
  -2 -20   1  320.87   24.30
  -2 -20   1  264.37   22.30
  -2  20   1  256.27   22.00
   0 -20   1   10.50   13.50
   0 -20  -1   19.70   14.00
   0 -20   1   15.60   13.40
   0  20   1    1.70   13.50
   0  20  -1    9.20   14.10
  -2 -20  -1   71.69   16.10
   2 -20   1   24.60   13.90
   2 -20   1   10.70   14.20
  -2 -20  -1   11.40   11.50
  -2  20  -1   32.10   15.70
   2  20   1   22.30   15.00
   4 -20   1   -7.70   14.20
  -4 -20  -1    9.40   14.40
   4 -20   1    3.10   12.90
   4  20   1  -13.60   14.70
   6 -20   1   79.19   15.90
  -6 -20  -1   75.09   20.30
  -5 -21   1    1.00   14.10
  -3 -21   1  -13.00   11.70
   3  21  -1  -17.60   15.10
  -1 -21   1    1.10   13.30
   1 -21  -1   18.50   14.40
  -1 -21   1    3.60   13.50
  -1  21   1    2.30   13.50
   1  21  -1    1.20   14.20
   1 -21   1  126.39   19.10
   1 -21   1  141.39   18.70
  -1 -21  -1  132.49   19.40
   1  21   1  153.48   20.10
  -1  21  -1  113.09   18.70
  -3 -21  -1  116.39   16.90
   3 -21   1  125.89   17.90
   3 -21   1  144.79   20.30
   3  21   1  123.79   19.60
  -5 -21  -1   -6.60   16.10
   5 -21   1    5.70   14.00
   5  21   1   12.20   16.20
  -4 -22   1  261.67   22.10
   2 -22  -1  391.46   25.90
  -2 -22   1  287.07   24.90
   0 -22  -1   26.10   15.60
   0 -22   1   39.50   15.50
   0 -22   1   10.00   14.30
   0  22  -1   10.00   15.30
   2 -22   1   58.99   17.70
   2 -22   1   75.29   16.60
   2  22   1   70.69   18.80
  -4 -22  -1    2.90   15.10
   4 -22   1   -1.60   13.90
   3  23  -1    6.80   17.00
  -1 -23   1   14.10   15.90
   1 -23  -1   11.00   15.30
   1  23  -1   31.30   17.00
   1 -23   1   52.19   16.50
   3 -23   1   96.39   18.20
   0 -24   1  -24.00   14.20
   2 -24   1  121.29   19.90
 -10   0   2   73.49   19.60
 -10   0   2   67.59   18.30
  -8   0   2  214.18   20.20
  -8   0   2  228.38   18.80
  -6   0   2 2869.21   62.39
  -6   0   2 2860.11   68.59
  -6   0   2 2867.61   65.29
  -4   0   2 1053.69   27.30
  -4   0   2 1070.19   30.10
  -4   0   2 1045.10   28.30
  -2   0   2  123.39    5.60
   2   0  -2  123.49    5.40
   2   0  -2  122.99    5.40
  -2   0   2  141.09    9.30
  -2   0   2  127.39    5.50
  -2   0   2  148.19   11.40
  -2   0   2  145.99    9.70
   0   0   2  879.01   21.60
   0   0  -2  859.71   21.10
   0   0  -2  840.52   21.40
   0   0   2  846.82   21.30
  -2   0  -2 1753.02   40.60
   2   0   2 1803.02   41.20
   2   0   2 1728.63   40.70
  -2   0  -2 1785.92   41.00
   4   0   2 5356.56  112.49
  -4   0  -2 5356.26  112.59
  -4   0  -2 5368.86  112.49
   4   0   2 5499.75  112.79
  -6   0  -2  924.61   30.60
   6   0   2  980.30   31.00
  -6   0  -2  993.00   30.90
  -6   0  -2  968.20   35.70
   8   0   2   28.20   12.30
  -8   0  -2   11.70   16.50
  -8   0  -2   11.70   12.30
 -10   0  -2   88.19   23.30
  -9  -1   2   30.60   16.30
  -9  -1   2   19.50   13.70
  -9   1   2    6.00   14.20
  -9   1   2   18.90   14.00
  -7  -1   2   15.50   11.60
  -7  -1   2   37.60   11.80
  -7   1   2   25.10   11.60
  -7   1   2   20.90   10.60
  -5  -1   2   62.19    9.90
  -5  -1   2   45.60    8.70
  -5  -1   2   69.99    9.90
  -5   1   2   86.09   10.90
  -5   1   2   52.29   10.00
  -5   1   2   64.39    9.20
  -3  -1   2   35.90    7.80
  -3  -1   2   27.60    7.10
  -3  -1   2   38.90    7.40
  -3   1   2   37.10    7.40
  -3   1   2   42.10    8.10
  -3   1   2   41.90    7.80
   1  -1  -2  329.07   10.50
  -1  -1   2  354.16   11.00
  -1  -1   2  349.57   12.00
   1  -1  -2  350.66   10.80
  -1  -1   2  320.57   12.70
  -1  -1   2  341.37   10.50
  -1   1   2  330.97   10.60
  -1   1   2  336.27   10.70
   1   1  -2  337.87   10.80
  -1   1   2  336.77   13.10
   1   1  -2  334.77   10.80
  -1  -1  -2    1.10    5.70
   1  -1   2    4.60    5.60
   1  -1   2    5.50    5.80
  -1  -1  -2    8.40    5.00
  -1   1  -2    3.90    6.10
   1   1   2   -7.40    4.90
  -1   1  -2    4.00    5.40
   1   1   2    9.60    5.50
   3  -1   2  306.47   14.50
  -3  -1  -2  349.96   15.40
  -3  -1  -2  351.96   14.80
   3  -1   2  353.46   15.80
   3   1   2  339.67   15.70
  -3   1  -2  323.67   14.90
   3   1   2  334.57   14.30
  -3   1  -2  336.67   15.10
  -5  -1  -2   25.90    9.10
   5  -1   2   19.20    8.70
  -5  -1  -2   15.80    8.70
  -5   1  -2   28.80    8.90
   5   1   2   27.90    9.00
  -5   1  -2   47.60    9.80
  -7  -1  -2    5.70   11.20
  -7  -1  -2   24.20   11.30
  -7  -1  -2   14.50   15.00
   7  -1   2   20.90   10.30
   7   1   2   25.90   11.10
  -7   1  -2    6.50   14.60
  -7   1  -2   27.30   10.50
  -7   1  -2    5.90   10.30
  -9  -1  -2   35.60   18.70
  -9   1  -2   42.40   19.80
 -10  -2   2    4.80   18.60
 -10  -2   2   27.00   16.50
 -10   2   2   23.90   15.40
 -10   2   2   33.10   17.90
  -8  -2   2    8.20   13.10
  -8  -2   2   -4.10   11.50
  -8   2   2   12.20   11.70
  -8   2   2    1.30   12.90
  -6  -2   2  677.53   27.40
  -6  -2   2  698.43   25.20
  -6  -2   2  684.33   24.40
  -6   2   2  711.13   26.00
  -6   2   2  716.23   26.00
  -6   2   2  715.33   26.10
  -4  -2   2 1005.60   23.40
  -4  -2   2  981.60   25.80
  -4  -2   2  993.30   29.80
  -4  -2   2 1011.20   26.70
  -4   2   2 1024.50   27.90
  -4   2   2 1000.70   27.80
  -4   2   2  943.71   26.90
  -2  -2   2   16.20    4.30
  -2  -2   2   11.50    5.90
  -2  -2   2    4.90    6.10
   2  -2  -2   -0.40    3.70
  -2  -2   2   11.90    4.90
  -2  -2   2   13.30    6.70
   2  -2  -2    7.60    3.40
   2   2  -2    4.00    3.90
   2   2  -2    8.50    4.00
  -2   2   2   12.00    3.80
  -2   2   2    9.60    6.60
  -2   2   2    6.30    3.10
   0  -2   2  638.54   17.60
   0  -2  -2  606.34   17.40
   0  -2  -2  626.04   17.50
   0  -2   2  630.24   17.90
   0   2  -2  654.63   18.00
   0   2   2  641.54   17.50
   0   2   2  646.24   17.80
   0   2   2  639.04   17.60
   0   2  -2  664.03   17.60
   2  -2   2  107.69    9.50
  -2  -2  -2  109.69    9.80
  -2  -2  -2  122.39    9.90
   2  -2   2  109.89    9.70
   2   2   2  137.89   10.70
   2   2   2  116.99    9.80
  -2   2  -2  132.09   10.20
  -2   2  -2   97.39    9.50
   4  -2   2  320.37   16.00
  -4  -2  -2  368.76   16.80
   4  -2   2  356.06   17.00
  -4  -2  -2  356.76   16.30
  -4   2  -2  374.86   16.80
  -4   2  -2  323.77   15.90
   4   2   2  400.66   17.50
   4   2   2  350.36   16.20
  -6  -2  -2  384.56   25.80
   6  -2   2  360.16   18.80
  -6  -2  -2  362.86   19.40
  -6  -2  -2  396.06   19.10
  -6   2  -2  382.66   24.40
   6   2   2  383.16   19.30
  -6   2  -2  392.76   20.40
  -6   2  -2  338.87   18.50
  -8  -2  -2   15.20   11.70
  -8  -2  -2  -21.90   15.20
  -8   2  -2  -14.30   15.30
  -8   2  -2   -8.90   10.70
   8   2   2   20.20   11.60
 -10  -2  -2   35.80   20.60
 -10   2  -2   31.90   19.50
  -9  -3   2  121.99   18.30
  -9  -3   2  129.59   19.70
  -9   3   2  146.89   17.30
  -9   3   2  150.58   20.20
  -7  -3   2   -0.50   11.40
  -7  -3   2    5.10   11.00
  -7  -3   2    6.00    4.90
  -7  -3   2   10.80    5.30
  -7   3   2    8.20   11.70
  -7   3   2    5.30   10.00
   7   3  -2    3.40    5.20
  -5  -3   2  328.97   19.40
  -5  -3   2  339.97    9.70
  -5  -3   2  331.87   16.00
  -5  -3   2  320.17    9.80
  -5  -3   2  344.77   17.30
   5   3  -2  340.17   10.20
  -5   3   2  328.47   16.90
   5   3  -2  314.07    9.50
  -5   3   2  292.67   17.50
  -5   3   2  302.57   17.70
   3  -3  -2  144.39    6.20
   3  -3  -2  148.29    5.60
  -3  -3   2  151.08   10.90
  -3  -3   2  144.19    6.50
  -3  -3   2  149.39   11.60
  -3  -3   2  138.29    7.20
  -3  -3   2  167.78   10.00
  -3  -3   2  149.69   10.00
   3   3  -2  139.89    7.30
  -3   3   2  138.39    5.90
  -3   3   2  151.68   11.00
  -3   3   2  153.18   11.00
   3   3  -2  147.49    7.30
  -3   3   2  147.09    5.90
  -3   3   2  146.69   11.40
  -1  -3   2 1416.16   30.40
  -1  -3   2 1371.26   31.00
   1  -3  -2 1347.17   30.50
  -1  -3   2 1398.76   30.50
   1  -3  -2 1409.16   30.80
  -1  -3   2 1361.16   30.80
   1   3  -2 1344.47   30.80
  -1   3   2 1397.46   30.90
  -1   3   2 1393.96   30.60
  -1   3   2 1367.26   30.50
   1   3  -2 1397.06   31.00
   1  -3   2  641.14   19.20
  -1  -3  -2  638.94   19.30
   1  -3   2  663.23   19.70
  -1  -3  -2  684.23   19.90
  -1   3  -2  661.83   19.60
   1   3   2  665.53   19.80
   1   3   2  650.73   19.30
   1   3   2  664.03   17.70
  -1   3  -2  708.93   19.90
   3  -3   2   18.10    6.80
  -3  -3  -2   19.30    7.40
   3  -3   2   14.60    7.00
  -3  -3  -2   18.00    7.50
   3   3   2    6.50    7.20
   3   3   2   11.30    7.30
  -3   3  -2   12.70    6.60
  -3   3  -2   24.00    7.10
   5  -3   2  433.66   19.10
  -5  -3  -2  411.36   18.70
  -5  -3  -2  446.16   19.70
  -5   3  -2  394.36   18.40
   5   3   2  469.35   19.20
  -5   3  -2  423.16   19.30
   7  -3   2   66.69   12.30
  -7  -3  -2   53.19   16.30
  -7  -3  -2   77.09   13.20
  -7   3  -2   50.89   12.00
   7   3   2   52.79   12.60
  -7   3  -2   49.40   16.30
  -9  -3  -2  220.08   25.20
  -9   3  -2  259.97   25.20
 -10  -4   2   44.60   19.50
 -10  -4   2   37.90   17.50
 -10   4   2   49.80   18.30
 -10   4   2   59.89   15.70
  -8  -4   2   94.99   16.40
  -8  -4   2   95.59    8.10
  -8   4   2  118.19   17.60
  -8   4   2   74.49   13.10
  -6  -4   2  270.47   20.60
  -6  -4   2  284.97   10.70
   6  -4  -2  286.57    8.30
  -6  -4   2  270.47   10.20
  -6  -4   2  241.78   16.20
   6   4  -2  276.77   11.40
  -6   4   2  310.17   20.50
  -6   4   2  281.67   17.20
   6   4  -2  274.37   10.20
  -6   4   2  287.47   17.00
  -4  -4   2  143.69   10.80
  -4  -4   2  163.38   10.60
  -4  -4   2  147.29    7.00
  -4  -4   2  141.59    7.30
  -4  -4   2  138.19   12.40
   4  -4  -2  135.89    6.20
   4  -4  -2  130.09    6.20
  -4  -4   2  149.39   10.40
  -4   4   2  140.29   11.50
   4   4  -2  150.88    8.00
  -4   4   2  143.19    6.40
   4   4  -2  138.49    7.50
  -4   4   2  132.09    5.90
  -4   4   2  150.88   12.60
  -4   4   2  151.28   11.90
  -2  -4   2 1531.65   38.70
  -2  -4   2 1533.15   33.80
  -2  -4   2 1512.95   33.50
   2  -4  -2 1556.94   33.30
  -2  -4   2 1539.05   34.10
  -2  -4   2 1558.44   33.30
   2  -4  -2 1459.45   32.80
   2   4  -2 1530.25   33.90
  -2   4   2 1521.35   32.90
   2   4  -2 1547.15   33.60
  -2   4   2 1521.15   33.10
  -2   4   2 1497.35   34.40
   0  -4  -2  227.78   11.00
   0  -4  -2  215.78   10.30
   0  -4   2  226.78   11.10
   0  -4   2  216.98   11.10
   0  -4   2  214.08   12.20
   0   4  -2  221.98   11.00
   0   4   2  212.28   11.10
   0   4   2  236.38   10.90
   0   4  -2  204.68   11.00
   0   4   2  239.08   10.80
  -2  -4  -2  453.95   17.30
   2  -4   2  481.35   17.30
   2  -4   2  470.65   16.90
  -2  -4  -2  474.75   17.70
   2   4   2  478.05   17.80
   2   4   2  445.16   17.20
  -2   4  -2  476.95   17.50
  -2   4  -2  481.75   16.90
  -4  -4  -2   35.90    8.80
   4  -4   2   30.70    8.50
  -4  -4  -2   40.60    9.30
  -4   4  -2   57.69    9.60
   4   4   2   58.09    9.60
  -4   4  -2   50.39    9.40
   6  -4   2  148.19   14.30
  -6  -4  -2  152.08   14.60
  -6  -4  -2  180.08   15.50
  -6  -4  -2  127.79   18.20
   6   4   2  137.29   14.10
  -6   4  -2  153.98   14.70
  -6   4  -2  166.38   15.30
  -8  -4  -2  131.79   16.20
  -8  -4  -2  105.79   20.50
  -8   4  -2  110.39   15.50
  -8   4  -2  137.09   20.20
 -10  -4  -2    7.30   19.40
 -10   4  -2   61.69   20.90
  -9  -5   2  111.89   18.70
  -9   5   2   82.99   14.30
  -9   5   2  107.19   19.00
   7  -5  -2  106.89    6.90
  -7  -5   2  106.99   15.50
  -7   5   2  108.69    7.70
  -7   5   2   97.69   11.90
  -7   5   2  114.29   15.10
   5  -5  -2  178.38    8.00
  -5  -5   2  194.98   12.50
  -5  -5   2  172.88   14.00
  -5  -5   2  175.08    9.00
   5  -5  -2  182.58    8.20
  -5   5   2  196.38    8.60
  -5   5   2  190.08   15.20
   5   5  -2  208.68   10.30
   5   5  -2  174.38    9.00
  -5   5   2  173.78   14.30
  -5   5   2  180.28    7.80
  -5   5   2  195.98   14.10
   3  -5  -2    4.60    4.30
  -3  -5   2   14.70    5.20
  -3  -5   2    5.60    5.30
  -3  -5   2   -0.20    5.80
  -3  -5   2    9.80    7.00
  -3  -5   2    8.80    6.70
   3  -5  -2   10.00    5.00
  -3  -5   2    2.00    5.70
  -3   5   2    0.90    1.60
  -3   5   2    0.40    7.80
   3   5  -2    3.60    5.40
  -3   5   2    2.50    7.80
  -3   5   2    3.60    4.80
   3   5  -2    0.90    5.20
  -1  -5   2  775.92   20.90
   1  -5  -2  820.92   21.00
   1  -5  -2  788.32   20.70
  -1  -5   2  788.02   21.70
  -1  -5   2  758.12   20.70
  -1  -5   2  778.22   23.70
   1   5  -2  778.32   21.00
  -1   5   2  795.62   21.20
  -1   5   2  774.92   20.60
   1   5  -2  771.72   20.90
  -1   5   2  762.12   20.50
   1  -5   2  523.15   17.20
  -1  -5  -2  518.15   17.00
   1  -5   2  506.55   17.10
   1  -5   2  494.65   17.50
  -1  -5  -2  506.75   17.40
  -1   5  -2  499.75   17.20
   1   5   2  512.65   17.20
   1   5   2  515.85   15.40
   1   5   2  500.35   17.30
  -1   5  -2  499.25   17.00
  -3  -5  -2   21.40    7.30
  -3  -5  -2   34.70    8.00
   3  -5   2   27.90    8.10
   3  -5   2   25.80    7.80
   3   5   2   16.20    7.10
  -3   5  -2   28.10    8.30
   3   5   2   33.00    7.70
  -3   5  -2   24.10    8.30
  -5  -5  -2  201.18   14.80
  -5  -5  -2  239.98   19.00
   5  -5   2  219.78   14.80
  -5  -5  -2  208.68   15.90
  -5   5  -2  208.18   15.30
   5   5   2  219.58   15.20
  -5   5  -2  185.88   14.90
  -7  -5  -2    8.20   10.50
   7  -5   2   23.20   10.80
  -7  -5  -2   -3.40   13.50
  -7   5  -2  -12.70   14.00
  -7   5  -2   21.30   11.00
   7   5   2    5.30   11.00
  -9  -5  -2  136.39   22.80
  -9   5  -2  135.79   21.40
 -10  -6   2   -6.30   16.00
 -10  -6   2    0.30   17.60
 -10   6   2   -1.80   16.70
  -8  -6   2   68.49    8.80
  -8  -6   2   43.60   15.10
  -8   6   2   85.39   16.40
  -8   6   2   59.59    7.80
  -8   6   2   52.59   11.80
  -6  -6   2  626.24   21.40
  -6  -6   2  618.64   18.60
   6  -6  -2  652.83   17.20
   6  -6  -2  627.54   17.70
  -6  -6   2  655.83   28.90
  -6   6   2  672.93   22.90
  -6   6   2  644.64   17.90
  -6   6   2  639.74   17.00
  -6   6   2  622.24   25.20
  -4  -6   2  785.92   21.70
   4  -6  -2  799.62   20.70
  -4  -6   2  845.42   22.00
  -4  -6   2  826.82   24.70
   4  -6  -2  840.92   20.70
  -4  -6   2  847.02   21.80
  -4  -6   2  838.82   27.80
  -4   6   2  830.12   26.20
  -4   6   2  830.32   21.00
   4   6  -2  858.61   22.60
  -4   6   2  809.22   26.00
   4   6  -2  852.01   22.20
   2  -6  -2  613.14   18.10
  -2  -6   2  574.14   17.50
  -2  -6   2  592.14   21.60
   2  -6  -2  564.54   16.70
  -2  -6   2  584.64   17.90
  -2  -6   2  578.64   16.70
  -2  -6   2  579.54   19.70
  -2   6   2  575.04   17.30
   2   6  -2  581.14   17.70
   2   6  -2  570.34   18.10
  -2   6   2  565.64   19.10
  -2   6   2  570.64   16.80
   0  -6   2  111.09    9.40
   0  -6  -2   88.39    8.40
   0  -6   2   81.39    8.30
   0  -6  -2   90.79    9.10
   0  -6   2   86.49    9.00
   0   6   2   80.69    8.70
   0   6  -2   94.29    9.00
   0   6   2  101.39    8.80
   0   6   2   89.99    8.80
   0   6  -2   74.69    9.00
   2  -6   2  718.53   22.70
  -2  -6  -2  705.63   22.40
   2  -6   2  704.43   22.50
  -2  -6  -2  683.63   21.90
   2  -6   2  698.03   21.50
  -2   6  -2  725.13   22.80
   2   6   2  708.23   22.20
   2   6   2  654.23   21.90
  -2   6  -2  680.93   22.50
   2   6   2  701.03   18.10
  -4  -6  -2  956.40   29.50
  -4  -6  -2  938.61   28.80
   4  -6   2  913.21   26.30
   4  -6   2  960.30   28.80
  -4   6  -2  939.21   29.10
   4   6   2  942.01   29.00
  -4   6  -2  905.31   28.60
  -6  -6  -2  671.43   26.30
  -6  -6  -2  729.03   32.00
   6  -6   2  696.53   26.70
   6   6   2  683.13   26.60
  -6   6  -2  695.03   26.90
  -6   6  -2  707.53   27.00
  -8  -6  -2   73.19   19.70
  -8  -6  -2  140.09   17.20
   8  -6   2  139.69   13.90
  -8   6  -2  113.89   16.50
  -8   6  -2  103.19   18.80
  -9  -7   2   16.90   15.50
  -9   7   2    2.70   15.40
  -7  -7   2   11.50   12.20
  -7  -7   2    9.40    7.20
  -7   7   2   -2.10    8.60
  -7   7   2   -4.60    7.10
  -7   7   2   -6.00   12.10
  -5  -7   2    1.00    9.30
  -5  -7   2    4.30    6.20
  -5  -7   2    2.90    6.40
  -5  -7   2   19.10    7.60
   5  -7  -2    3.10    5.40
   5  -7  -2    6.20    6.00
  -5   7   2   12.50    6.50
   5   7  -2   14.00    7.30
   5   7  -2    5.50    6.30
  -5   7   2    0.80    1.50
  -5   7   2   23.10   11.60
  -5   7   2   -2.40   10.00
  -3  -7   2  113.99   11.10
  -3  -7   2  119.39    9.00
   3  -7  -2  127.79    9.30
  -3  -7   2   91.49   11.00
  -3  -7   2  104.89    8.80
   3  -7  -2  100.19    8.70
  -3  -7   2   92.89    8.90
   3   7  -2  108.39    9.30
  -3   7   2  113.29    8.80
   3   7  -2  105.09    9.00
  -3   7   2  107.89    8.50
  -3   7   2  104.89   11.10
  -1  -7   2  220.78   13.60
  -1  -7   2  229.88   12.10
   1  -7  -2  214.78   12.00
   1  -7  -2  220.38   12.50
  -1  -7   2  225.58   12.00
  -1  -7   2  221.18   13.30
  -1   7   2  263.27   13.40
  -1   7   2  217.68   11.80
  -1   7   2  228.18   12.20
   1   7  -2  220.98   12.10
   1   7  -2  229.88   12.40
   1  -7   2   18.50    6.40
   1  -7   2   13.30    7.40
  -1  -7  -2   10.80    6.40
   1  -7   2   26.00    6.80
  -1  -7  -2   13.00    7.40
   1   7   2   21.10    6.40
   1   7   2    6.80    7.30
   1   7   2   15.30    6.70
  -1   7  -2    8.70    6.50
  -1   7  -2    7.50    7.80
   3  -7   2   13.80    7.70
   3  -7   2   26.50    7.50
   3  -7   2   13.80    8.30
  -3  -7  -2   -0.60    7.50
  -3  -7  -2    6.60    7.80
   3   7   2   16.70    6.00
   3   7   2   24.30    8.50
  -3   7  -2   12.70    8.50
  -3   7  -2   25.80    8.90
   3   7   2   21.30    8.30
   5  -7   2   25.50    9.60
   5  -7   2   -8.10    6.80
  -5  -7  -2    9.30    9.00
  -5  -7  -2    1.20   12.10
   5   7   2   -3.30    9.00
  -5   7  -2   -1.40    9.20
  -5   7  -2   -8.30    9.00
  -7  -7  -2  167.68   21.50
  -7  -7  -2  149.88   15.70
   7  -7   2  176.68   17.30
   7  -7   2  197.38   15.10
   7   7   2  201.68   17.40
  -7   7  -2  178.58   17.60
  -7   7  -2  173.18   18.20
  -9  -7  -2  -13.60   17.70
   9  -7   2   15.40   11.00
 -10  -8   2  196.38   24.40
 -10   8   2  158.08   23.10
  -8  -8   2   18.50    8.50
  -8  -8   2   30.10   14.70
  -8   8   2    9.80    8.10
  -8   8   2  -18.90   13.30
  -6  -8   2  534.05   19.00
   6  -8  -2  522.05   17.80
  -6  -8   2  491.15   18.40
  -6  -8   2  533.45   18.20
  -6  -8   2  511.45   27.00
  -6   8   2  536.25   17.80
   6   8  -2  506.35   18.30
  -6   8   2  514.65   24.30
  -6   8   2  534.25   19.30
   4  -8  -2  148.39   10.40
   4  -8  -2  176.68   11.20
  -4  -8   2  170.98   10.60
  -4  -8   2  142.59   14.00
  -4  -8   2  163.28   10.90
  -4  -8   2  171.98   13.30
  -4  -8   2  173.58   11.60
  -4   8   2  132.59   13.70
   4   8  -2  155.48   11.50
  -4   8   2  161.48   11.00
  -4   8   2  150.68   10.00
   4   8  -2  148.29   11.50
  -4   8   2  174.68   14.80
   2  -8  -2  148.39   10.80
  -2  -8   2  152.68   11.90
  -2  -8   2  134.39   11.40
  -2  -8   2  140.29    9.20
  -2  -8   2  144.69   11.00
  -2  -8   2  150.58   11.00
   2  -8  -2  149.59   11.50
   2   8  -2  150.08   11.10
  -2   8   2  161.88   11.10
   2   8  -2  156.78   11.30
  -2   8   2  145.19   10.60
  -2   8   2  137.89   11.30
   0  -8   2 1096.69   29.40
   0  -8   2 1120.19   29.60
   0  -8   2 1076.39   28.60
   0  -8  -2 1084.19   29.20
   0  -8  -2 1072.79   29.10
   0   8   2 1079.59   26.00
   0   8   2 1106.09   29.30
   0   8  -2 1074.59   29.60
   0   8  -2 1112.49   29.50
   0   8   2 1024.30   28.80
   2  -8   2    4.00    6.20
   2  -8   2   20.10    7.90
   2  -8   2    7.90    7.70
  -2  -8  -2   16.50    7.70
  -2  -8  -2   24.80    7.70
  -2   8  -2   11.70    8.30
  -2   8  -2   18.10    8.40
   2   8   2   18.80    7.40
   2   8   2    6.90    6.00
   2   8   2   15.90    8.00
  -4  -8  -2  521.25   26.50
   4  -8   2  478.05   20.90
  -4  -8  -2  539.35   22.60
  -4  -8  -2  516.15   21.30
   4  -8   2  480.25   20.00
   4   8   2  534.25   21.40
   4   8   2  514.95   15.20
  -4   8  -2  490.55   21.20
  -4   8  -2  514.65   21.10
  -6  -8  -2  115.09   14.30
   6  -8   2   95.49   14.30
  -6  -8  -2  106.09   18.30
   6  -8   2  124.69   12.70
  -6   8  -2  119.69   15.50
   6   8   2   89.39   13.40
  -8  -8  -2   48.90   18.90
   8  -8   2   73.79   12.40
  -8  -8  -2   77.89   15.50
  -8   8  -2   52.89   15.10
  -8   8  -2   48.80   16.30
  -9  -9   2   90.59   19.20
  -9   9   2  110.09   20.50
  -7  -9   2   91.89   10.60
  -7  -9   2   87.99   15.80
  -7   9   2   74.99   15.90
  -7   9   2   92.59   10.90
  -5  -9   2  159.58   11.50
  -5  -9   2  155.38   11.70
  -5  -9   2  163.18   14.30
   5  -9  -2  184.08   11.60
  -5  -9   2  152.38   12.10
  -5  -9   2  153.98   15.60
  -5   9   2  134.29   15.00
  -5   9   2  160.08   10.60
  -5   9   2  137.49   11.40
   5   9  -2  152.28   11.80
   3  -9  -2   80.09    9.00
  -3  -9   2   76.79   10.80
  -3  -9   2   58.29    9.70
   3  -9  -2   74.69    8.90
  -3  -9   2   82.89    7.80
  -3  -9   2   82.79    9.40
  -3  -9   2   74.09    9.60
   3   9  -2   59.09    9.10
  -3   9   2   66.99   11.20
   3   9  -2   52.99    8.90
  -3   9   2   57.29    8.20
  -3   9   2   70.49    9.00
  -1  -9   2  806.52   25.00
  -1  -9   2  849.72   24.80
   1  -9  -2  842.52   24.80
  -1  -9   2  798.82   24.30
  -1  -9   2  798.72   25.00
   1  -9  -2  831.62   24.20
  -1   9   2  789.32   22.20
  -1   9   2  791.42   24.10
   1   9  -2  800.92   24.60
  -1   9   2  824.42   24.40
   1   9  -2  823.72   24.90
  -1  -9  -2  305.37   15.60
   1  -9   2  281.17   15.00
   1  -9   2  333.17   16.00
  -1  -9  -2  271.97   15.00
   1  -9   2  324.17   15.70
   1   9   2  281.67   14.90
  -1   9  -2  288.77   15.70
  -1   9  -2  288.57   15.70
   1   9   2  287.87   15.70
   1   9   2  295.77   12.30
  -3  -9  -2   34.80    9.00
   3  -9   2   27.10    7.90
   3  -9   2   22.60    9.10
  -3  -9  -2   33.90   11.20
  -3  -9  -2   28.50    8.40
  -3   9  -2   29.30    9.50
  -3   9  -2   26.30    9.90
   3   9   2   22.50    9.10
   3   9   2   37.70    6.30
   5  -9   2   91.59   12.80
  -5  -9  -2   90.59   12.60
   5  -9   2   75.89   11.00
  -5  -9  -2   99.69   16.40
   5   9   2   85.39   12.70
  -5   9  -2   82.19   12.80
   5   9   2   85.79    8.00
   7  -9   2   28.60   12.00
   7  -9   2   13.50    9.60
  -7  -9  -2   31.90   12.10
  -7  -9  -2   23.60   16.80
   7   9   2   15.40   12.40
  -7   9  -2  -18.90   13.00
  -7   9  -2   36.30   12.50
  -9  -9  -2  130.89   24.20
   9  -9   2  170.08   16.70
  -8 -10   2  188.08   14.70
  -8 -10   2  177.18   21.40
  -8  10   2  203.38   21.80
  -8  10   2  150.58   13.20
  -6 -10   2  221.58   14.60
  -6 -10   2  205.18   19.10
  -6  10   2  192.28   18.50
  -6  10   2  246.38   14.50
  -4 -10   2   30.10    9.90
  -4 -10   2   20.00   10.20
   4 -10  -2   31.30    8.10
  -4 -10   2   18.10    6.30
  -4 -10   2    6.80    8.00
  -4 -10   2   31.50    8.70
  -4  10   2   16.10   11.60
   4  10  -2   14.20    8.40
  -4  10   2    9.70    7.70
  -4  10   2   21.50    7.70
  -2 -10   2 1115.19   31.00
   2 -10  -2 1093.99   30.20
  -2 -10   2 1114.29   32.90
  -2 -10   2 1092.99   31.20
  -2 -10   2 1088.39   32.40
  -2  10   2 1119.29   29.80
   2  10  -2 1115.49   31.80
  -2  10   2 1178.58   30.70
  -2  10   2 1087.29   30.40
   0 -10   2  309.87   16.40
   0 -10  -2  316.27   15.70
   0 -10   2  305.77   16.30
   0 -10  -2  336.67   16.00
   0 -10   2  312.67   15.00
   0  10   2  337.87   16.60
   0  10  -2  321.57   15.60
   0  10   2  310.57   13.90
   0  10  -2  323.17   16.60
   0  10   2  315.47   15.70
   2 -10   2  641.64   23.40
   2 -10   2  694.03   24.40
  -2 -10  -2  693.53   24.10
  -2  10  -2  675.63   17.80
   2  10   2  712.43   18.20
   2  10   2  739.73   24.60
   2  10   2  689.93   24.40
  -2  10  -2  679.03   24.70
  -2  10  -2  714.83   24.90
  -4 -10  -2   60.69   14.40
   4 -10   2   75.59   12.20
  -4 -10  -2   56.39   11.60
   4 -10   2   69.39   10.10
   4  10   2   76.19   12.30
   4  10   2   71.99    7.20
  -4  10  -2   67.99   10.60
  -4  10  -2   72.09   11.70
  -6 -10  -2   40.00   11.20
   6 -10   2   48.90   12.50
  -6 -10  -2   22.80   15.50
   6 -10   2   26.90    9.90
  -6  10  -2   17.30   11.90
  -6  10  -2   19.70   12.60
   6  10   2   15.40   11.50
   8 -10   2  202.98   17.10
  -8 -10  -2  150.48   23.50
  -8  10  -2  200.48   20.20
  -9 -11   2  163.68   22.40
  -9 -11   2  156.48   15.50
  -9  11   2  157.58   23.80
  -7 -11   2  253.97   16.10
  -7 -11   2  208.48   20.90
  -7  11   2  197.08   20.40
  -7  11   2  228.88   15.90
  -5 -11   2  400.96   22.70
  -5 -11   2  425.16   18.60
  -5 -11   2  406.16   22.60
  -5 -11   2  412.26   19.40
   5 -11  -2  412.16   18.20
  -5  11   2  439.26   18.40
   5  11  -2  389.26   18.70
   3 -11  -2    1.00    7.70
  -3 -11   2   12.20    9.40
  -3 -11   2    8.00    9.20
  -3 -11   2   13.40    8.00
  -3 -11   2   13.10    8.80
  -3 -11   2    0.00    6.20
   3  11  -2    8.80    9.10
  -3  11   2   -1.40   10.20
  -3  11   2  -11.10    7.70
  -3  11   2   -9.40    7.40
  -1 -11   2 1161.68   33.30
   1 -11  -2 1205.68   33.10
  -1 -11   2 1225.98   33.90
  -1 -11   2 1178.68   33.10
  -1 -11   2 1216.98   34.10
  -1  11   2 1204.38   33.40
  -1  11   2 1153.48   33.20
   1  11  -2 1204.78   34.30
  -1  11   2 1188.78   30.20
   1 -11   2  630.84   23.60
  -1 -11  -2  617.34   23.30
   1 -11   2  683.13   24.20
   1 -11   2  647.94   23.10
  -1  11  -2  675.83   24.20
   1  11   2  627.94   18.30
   1  11   2  608.34   23.30
   1  11   2  685.13   24.30
   3 -11   2  231.38   15.50
  -3 -11  -2  270.87   17.10
   3 -11   2  262.17   17.00
  -3 -11  -2  211.88   18.00
  -3  11  -2  245.08   16.10
   3  11   2  211.38   16.70
  -3  11  -2  279.67   13.20
   3  11   2  266.87   10.10
  -5 -11  -2  355.56   20.50
  -5 -11  -2  345.97   26.90
   5 -11   2  333.77   18.50
   5 -11   2  311.97   20.10
   5  11   2  338.27   20.50
  -5  11  -2  359.36   20.80
  -5  11  -2  331.97   17.70
  -7 -11  -2  -10.20   14.20
  -7 -11  -2   -1.30   10.90
   7 -11   2   12.10    9.90
   7 -11   2    0.30   12.20
  -7  11  -2  -10.00   12.00
  -7  11  -2   -4.80   12.70
   7  11   2   15.70   12.20
  -9 -11  -2  210.48   27.00
  -9  11  -2  216.18   23.20
  -8 -12   2   41.00   16.30
  -8 -12   2   65.09   12.60
  -8  12   2   49.70   17.60
  -8  12   2   56.99   12.40
  -6 -12   2  139.09   17.80
  -6 -12   2  178.08   15.20
  -6  12   2  206.18   19.90
  -6  12   2  192.18   15.00
  -4 -12   2  151.88   14.00
  -4 -12   2  165.08   16.10
  -4 -12   2  188.58   10.20
  -4 -12   2  164.48   15.40
  -4 -12   2  189.88   15.10
   4 -12  -2  182.58   14.20
  -4  12   2  171.78   14.10
   4  12  -2  180.48   15.10
  -4  12   2  194.28   14.90
  -2 -12   2   69.89   10.90
  -2 -12   2   85.19   12.20
  -2 -12   2  103.69   12.40
   2 -12  -2   90.19   11.40
  -2 -12   2   82.99   11.50
  -2  12   2   92.39   12.30
   2  12  -2   95.89   12.40
  -2  12   2   92.59   11.40
  -2  12   2   76.89   11.10
   0 -12   2   27.20    9.30
   0 -12   2   32.50    9.60
   0 -12  -2   28.10    9.80
   0 -12   2   40.90   10.00
   0  12  -2   37.50   10.90
   0  12   2   37.70   10.30
   0  12   2   54.39    8.80
   0  12   2   45.90   10.20
   2 -12   2  241.88   17.00
  -2 -12  -2  232.38   17.40
   2 -12   2  289.07   17.20
  -2 -12  -2  255.47   17.30
  -2  12  -2  241.58   17.20
   2  12   2  265.77   11.40
   2  12   2  281.37   17.60
  -4 -12  -2  447.66   22.20
  -4 -12  -2  447.06   27.20
   4 -12   2  470.95   22.60
   4 -12   2  456.05   21.20
  -4  12  -2  431.26   18.20
   4  12   2  441.86   22.40
  -4  12  -2  421.86   22.70
  -6 -12  -2  141.69   20.80
   6 -12   2  163.28   17.70
  -6 -12  -2  138.49   16.70
   6 -12   2  201.48   16.20
  -6  12  -2  196.38   16.80
   6  12   2  160.68   17.80
  -6  12  -2  190.68   18.90
  -8 -12  -2   23.70   17.60
   8 -12   2   30.30   12.30
  -8  12  -2   67.79   16.70
  -9 -13   2   31.30   18.50
  -9  13   2   47.70   19.30
  -7 -13   2  238.88   22.30
  -7 -13   2  186.88   16.40
  -7  13   2  246.58   17.50
  -7  13   2  213.98   22.30
  -5 -13   2  390.76   20.00
  -5 -13   2  383.66   24.40
  -5 -13   2  414.26   24.50
  -5  13   2  401.46   19.60
  -3 -13   2   53.89   11.00
   3 -13  -2   41.00   10.90
  -3 -13   2   38.60   11.70
  -3 -13   2   33.50   10.30
  -3 -13   2   52.19   11.90
  -3 -13   2   48.30    7.60
  -3  13   2   61.49   11.60
  -3  13   2   41.40   10.80
   3  13  -2   49.90   11.40
  -1 -13   2  121.79   13.60
   1 -13  -2  138.49   14.10
  -1 -13   2  149.49   12.70
   1 -13  -2  146.09   10.70
  -1 -13   2  134.69   14.10
  -1 -13   2  138.69   14.40
  -1  13   2  155.88   13.40
   1  13  -2  121.79   14.20
  -1  13   2  147.79   14.00
  -1  13   2  158.98   14.70
  -1 -13  -2   86.79   12.30
   1 -13   2  119.89   13.40
   1 -13   2  129.59   14.30
  -1 -13  -2   95.99   12.80
   1  13   2  117.39   13.80
  -1  13  -2  124.59   14.60
   1  13   2  120.99   10.30
  -3 -13  -2  689.03   26.50
   3 -13   2  681.63   27.50
  -3 -13  -2  698.23   30.00
   3 -13   2  697.13   25.60
  -3  13  -2  725.33   28.40
   3  13   2  733.93   27.50
  -3  13  -2  669.53   20.70
   5 -13   2  336.77   19.70
   5 -13   2  370.16   22.00
  -5 -13  -2  334.27   21.30
  -5 -13  -2  330.07   25.30
  -5  13  -2  363.16   18.20
  -5  13  -2  395.46   23.00
   5  13   2  372.86   22.60
   7 -13   2   79.29   14.10
  -7 -13  -2   48.50   19.00
  -7  13  -2   53.09   15.50
   7  13   2   69.79   15.70
  -8 -14   2   37.00   17.50
  -8  14   2   32.60   19.60
  -8  14   2   47.20   12.90
  -6 -14   2   50.79   12.00
  -6 -14   2   61.09   14.20
  -6  14   2   33.40   12.00
  -4 -14   2  140.89   14.80
  -4 -14   2  151.38   16.80
  -4 -14   2  154.08   16.20
   4 -14  -2  138.19   14.70
  -4  14   2  143.79   14.80
   4  14  -2  150.28   15.80
  -2 -14   2  261.07   17.80
   2 -14  -2  264.27   13.20
  -2 -14   2  259.67   18.10
   2 -14  -2  271.87   17.70
  -2 -14   2  272.27   19.50
  -2 -14   2  283.67   17.80
  -2  14   2  265.57   18.60
   2  14  -2  210.38   17.40
  -2  14   2  277.27   17.30
   0 -14   2  427.26   21.60
   0 -14   2  439.56   22.40
   0 -14  -2  444.86   21.80
   0 -14  -2  433.96   20.90
   0  14   2  435.26   21.50
   0  14  -2  438.76   22.60
   0  14   2  419.06   17.80
   2 -14   2  141.69   14.70
   2 -14   2  174.28   16.60
  -2 -14  -2  147.29   15.10
  -2 -14  -2  128.59   15.20
   2  14   2  133.99   10.00
   2  14   2  142.79   16.00
  -2  14  -2  133.69   16.30
   4 -14   2   22.70   12.10
  -4 -14  -2   -1.70   13.60
  -4 -14  -2   16.40   11.40
   4 -14   2   26.30   10.80
  -4  14  -2   10.40    9.40
   4  14   2   13.30   12.20
  -4  14  -2   24.80   13.00
  -6 -14  -2   27.00   17.20
   6 -14   2   33.40   11.60
   6 -14   2   57.89   14.90
  -6 -14  -2   63.19   14.30
  -6  14  -2   54.19   13.20
  -6  14  -2   57.79   15.40
   6  14   2   47.30   15.20
   8 -14   2   89.59   15.10
  -8 -14  -2   95.49   22.80
  -8  14  -2   79.89   17.70
  -7 -15   2   31.70   12.30
  -7 -15   2   25.90   15.10
  -7  15   2   11.00   12.20
  -5 -15   2   75.19   13.60
  -5 -15   2   73.29   15.30
  -5  15   2   97.39   13.90
  -3 -15   2  102.09   14.10
  -3 -15   2  101.79   14.40
   3 -15  -2  116.59   14.40
  -3 -15   2  129.59   16.20
  -3 -15   2   95.89   13.60
   3  15  -2  122.49   14.80
  -3  15   2  117.09   14.50
  -3  15   2  114.49   14.50
   1 -15  -2    9.50    8.50
  -1 -15   2   28.40   12.00
   1 -15  -2   19.50   11.30
  -1 -15   2   25.80   10.00
  -1 -15   2   14.30   11.30
  -1  15   2   24.60   11.60
   1  15  -2   10.60   12.00
  -1 -15  -2   82.99   14.00
  -1 -15  -2   87.59   13.40
   1 -15   2  116.79   14.30
   1 -15   2   85.59   13.70
  -1  15  -2  107.79   14.90
   1  15   2   57.59   13.30
  -3 -15  -2    0.40    9.90
   3 -15   2   20.90   11.10
   3 -15   2   18.60   12.30
  -3 -15  -2    9.00   12.70
  -3  15  -2   22.30   13.60
   3  15   2   10.30   12.00
  -5 -15  -2   20.00   12.40
   5 -15   2   17.90   11.40
   5 -15   2   16.30   13.10
  -5 -15  -2    2.80   16.10
  -5  15  -2   36.50   14.10
   5  15   2   31.30   14.00
   7 -15   2   32.60   12.60
  -7 -15  -2    0.30   18.00
  -7  15  -2   49.10   15.30
  -8 -16   2   73.19   19.70
  -6 -16   2  -12.50   11.00
  -6 -16   2   -7.80   13.20
  -6  16   2  -10.30   12.00
  -4 -16   2   26.90   12.10
  -4 -16   2   14.40   12.50
  -4 -16   2   27.30   12.50
  -4  16   2   12.80   11.10
   4  16  -2   16.80   12.70
  -2 -16   2  759.12   28.60
   2 -16  -2  821.32   30.10
  -2 -16   2  811.02   30.20
  -2 -16   2  759.82   31.40
  -2  16   2  730.63   29.20
   0 -16   2  802.42   31.60
   0 -16  -2  823.52   31.10
   0 -16  -2  863.31   28.90
   0 -16   2  825.62   31.70
   0  16   2  800.32   31.10
  -2 -16  -2  282.97   20.70
   2 -16   2  299.17   21.00
   2 -16   2  300.37   21.40
  -2 -16  -2  260.17   19.70
   2  16   2  242.18   20.30
  -2  16  -2  257.97   21.30
   4 -16   2   88.99   14.30
  -4 -16  -2   70.19   16.50
  -4 -16  -2   79.99   15.60
   4 -16   2   70.59   15.10
  -4  16  -2   67.09   16.00
   4  16   2   94.39   16.70
  -6 -16  -2   -6.70   16.30
   6 -16   2   22.60   14.90
   6 -16   2   14.40   12.10
   6  16   2  -15.60   13.00
  -7 -17   2   62.09   17.80
  -5 -17   2   92.79   16.40
  -5 -17   2   67.39   14.60
  -5  17   2   70.79   14.60
  -3 -17   2   13.20   11.90
   3 -17  -2   62.39   13.80
  -3 -17   2   33.90   13.00
  -3 -17   2   24.70   13.20
  -3  17   2   18.00   12.60
   3  17  -2   12.00   12.30
  -1 -17   2   71.49   11.90
  -1 -17   2   85.99   14.80
  -1 -17   2   81.19   15.00
   1 -17  -2   70.89   14.50
  -1  17   2   68.69   14.40
   1  17  -2   63.69   15.30
  -1 -17  -2   62.79   12.60
  -1 -17  -2   74.09   15.10
   1 -17   2   47.10   13.50
   1 -17   2   54.39   14.30
  -1  17  -2   44.10   14.50
   1  17   2   51.39   14.50
   3 -17   2  -12.10   12.00
  -3 -17  -2   -8.50   12.70
  -3 -17  -2   -9.80   12.30
   3 -17   2    9.40   12.50
   3  17   2   -1.20   12.90
  -3  17  -2  -23.30   13.10
  -5 -17  -2   31.20   17.60
  -5 -17  -2    4.70   13.40
   5 -17   2   28.00   15.10
   5 -17   2   33.10   13.10
   5  17   2   26.70   14.60
   7 -17   2   30.60   14.10
  -7 -17  -2   45.20   20.80
  -6 -18   2  -11.60   13.90
  -4 -18   2   -3.10   12.10
  -4 -18   2    7.10   14.00
  -4 -18   2   11.20   12.50
  -4  18   2  -20.00   12.00
  -2 -18   2    8.10   12.70
  -2 -18   2    3.90   10.90
   2 -18  -2   25.70   12.80
  -2 -18   2    7.70   12.50
   2  18  -2  -11.10   12.10
  -2  18   2   15.20   12.50
   0 -18  -2   62.19   11.50
   0 -18   2   46.70   14.20
   0 -18   2   58.79   14.70
   0 -18  -2   58.09   14.80
   0  18  -2   70.29   15.90
   0  18   2   72.69   15.60
  -2 -18  -2   51.89   14.10
   2 -18   2   63.19   15.70
   2 -18   2   64.39   15.00
  -2 -18  -2   54.09   15.10
  -2  18  -2   75.89   17.10
   2  18   2   23.50   12.90
  -4 -18  -2   93.69   17.60
   4 -18   2   64.69   17.50
  -4 -18  -2  102.09   17.40
   4 -18   2   70.99   14.90
  -4  18  -2   76.09   17.20
   4  18   2   90.69   17.90
   6 -18   2   -2.10   13.50
  -6 -18  -2    1.90   17.80
   6  18   2  -21.80   14.10
  -5 -19   2  260.17   23.20
  -3 -19   2   38.60   15.00
  -3 -19   2   58.99   14.60
  -3 -19   2   57.09   14.30
  -3  19   2   59.99   15.20
   3  19  -2   47.70   15.20
  -1 -19   2   -4.60   12.50
  -1 -19   2   16.40   14.00
   1 -19  -2    6.10   13.20
  -1 -19   2   15.00   10.90
   1  19  -2   28.80   14.80
  -1  19   2   36.10   14.20
  -1 -19  -2   56.59   15.50
   1 -19   2   39.80   14.80
  -1 -19  -2   42.80   12.90
   1 -19   2   26.60   14.70
   1  19   2   34.40   14.90
  -1  19  -2   28.40   15.60
  -3 -19  -2  331.47   26.10
   3 -19   2  338.87   24.00
  -3 -19  -2  328.97   25.10
   3 -19   2  341.07   25.10
  -3  19  -2  286.97   25.70
   3  19   2  263.77   24.10
  -5 -19  -2  295.77   26.60
   5 -19   2  254.57   24.80
   5 -19   2  315.77   23.90
   5  19   2  278.47   25.50
  -4 -20   2   27.40   16.20
  -4 -20   2   15.30   14.00
  -2 -20   2  171.98   19.90
  -2 -20   2  183.08   17.70
   2 -20  -2  245.78   21.60
  -2 -20   2  192.18   21.30
  -2  20   2  205.28   21.40
   2  20  -2  186.48   20.50
   0 -20   2  304.47   23.80
   0 -20  -2  287.97   23.80
   0 -20   2  267.47   23.20
   0  20   2  267.27   23.50
   0  20  -2  262.87   24.00
  -2 -20  -2   67.09   16.00
   2 -20   2  104.19   17.60
  -2 -20  -2   66.89   16.90
   2 -20   2   88.49   18.10
   2  20   2   89.79   17.90
  -2  20  -2   91.09   18.90
   4 -20   2   46.00   17.30
   4 -20   2   -3.30   13.30
  -4 -20  -2   15.40   16.70
   4  20   2    6.70   15.50
  -5 -21   2   95.99   18.80
  -3 -21   2   12.60   12.40
  -3 -21   2   27.10   16.10
  -1 -21   2   -3.70   14.10
   1 -21  -2    0.80   14.50
   1  21  -2    9.70   15.00
   1 -21   2    1.50   15.40
   1 -21   2    7.20   14.30
  -1 -21  -2    8.50   14.50
  -1  21  -2   18.90   16.20
   3 -21   2   71.19   18.60
  -3 -21  -2   33.80   16.30
   3 -21   2   33.20   16.00
  -4 -22   2    4.60   14.00
  -2 -22   2  367.26   28.30
   0 -22  -2  462.15   29.10
   0 -22   2  437.66   29.80
   2 -22   2  100.99   19.60
  -3 -23   2    3.50   16.70
  -1 -23   2   15.80   16.30
   1  23  -2    2.70   16.20
   1 -23   2   32.50   16.60
 -10   0   3   15.50   18.10
 -10   0   3    0.50   15.20
  -8   0   3  135.19   16.90
  -8   0   3  145.89   18.80
  -8   0   3  130.59   18.30
  -6   0   3   45.80   11.70
  -6   0   3   33.90   10.90
  -6   0   3   57.69   12.00
  -4   0   3 2463.75   58.59
  -4   0   3 2404.36   54.59
  -4   0   3 2347.36   52.59
  -2   0   3 1458.05   32.20
  -2   0   3 1465.35   35.10
   2   0  -3 1467.05   32.20
  -2   0   3 1457.35   32.20
   2   0  -3 1484.75   32.20
  -2   0   3 1449.26   32.10
   0   0   3   95.69    8.70
   0   0  -3   71.29    8.00
   0   0   3   76.29    8.10
   0   0   3   91.89    9.80
   0   0  -3   84.99    8.40
  -2   0  -3  240.38   14.10
   2   0   3  265.87   14.00
  -2   0  -3  260.57   14.30
   2   0   3  229.88   14.90
  -4   0  -3   44.00   10.20
   4   0   3   38.30    9.90
  -6   0  -3 1999.70   53.99
   6   0   3 2056.89   54.59
  -8   0  -3  306.57   27.40
   8   0   3  358.86   23.10
  -8   0  -3  357.46   23.20
  -9  -1   3   19.50   16.40
  -9  -1   3    8.70   14.10
  -9   1   3   25.30   14.10
  -9   1   3   19.70   16.10
  -7  -1   3  169.78   17.60
  -7  -1   3  145.79   16.10
  -7  -1   3  187.88   17.90
  -7   1   3  164.38   16.20
  -7   1   3  187.88   18.10
  -7   1   3  172.88   17.80
  -5  -1   3   45.00   10.10
  -5  -1   3   26.90    9.80
  -5  -1   3   39.80   10.10
  -5  -1   3   39.40    5.70
  -5   1   3   37.60    9.90
  -5   1   3   30.70   10.10
  -5   1   3   36.70   10.20
  -3  -1   3    3.60    7.60
  -3  -1   3    6.20    5.00
   3  -1  -3    6.50    3.30
  -3  -1   3   13.80    7.50
   3  -1  -3    4.10    3.60
  -3  -1   3    0.20    4.00
  -3  -1   3   -0.40    3.40
  -3   1   3    7.10    3.60
  -3   1   3    4.70    4.10
   3   1  -3    1.00    3.60
  -3   1   3   13.10    7.90
  -3   1   3    3.90    3.20
   3   1  -3    0.80    3.50
  -1  -1   3   69.29    7.10
   1  -1  -3   62.39    7.00
   1  -1  -3   60.79    7.00
  -1  -1   3   74.59    9.20
  -1  -1   3   73.09    7.30
  -1  -1   3   63.89    7.20
  -1   1   3   78.79    7.20
   1   1  -3   81.29    7.70
   1   1  -3   69.29    7.10
  -1   1   3   60.39    9.00
  -1   1   3   72.59    7.30
  -1  -1  -3  473.05   17.30
   1  -1   3  464.45   17.40
  -1  -1  -3  504.45   17.80
   1  -1   3  482.95   18.10
  -1   1  -3  489.95   17.50
   1   1   3  468.05   17.20
   1   1   3  481.35   17.90
  -1   1  -3  493.05   17.60
  -3  -1  -3  112.19   11.50
   3  -1   3  135.99   12.40
  -3  -1  -3   99.29   11.30
   3  -1   3  112.09   11.60
   3   1   3  111.79   11.70
   3   1   3  119.79   11.60
  -3   1  -3  129.59   12.20
  -3   1  -3   82.09   11.10
   5  -1   3  204.18   16.60
  -5  -1  -3  208.88   16.90
   5   1   3  200.88   16.40
  -5   1  -3  182.78   15.90
  -7  -1  -3   -3.40   15.50
   7  -1   3   -2.10   11.10
  -7  -1  -3   10.40   11.70
  -7   1  -3   -7.70   16.00
  -7   1  -3   16.80   12.10
   7   1   3  -11.10   11.00
  -9  -1  -3  -15.90   19.20
  -9   1  -3  -18.70   19.90
 -10  -2   3  -15.00   17.70
 -10  -2   3   -2.00   15.10
 -10   2   3   -8.00   17.50
 -10   2   3    6.90   15.50
  -8  -2   3   76.39   14.70
  -8  -2   3   91.99   16.60
  -8  -2   3   58.59   15.00
  -8   2   3   65.19   14.10
  -8   2   3   59.99   15.80
  -6  -2   3   -7.90   10.00
  -6  -2   3   20.80   10.80
  -6  -2   3   -0.70    9.80
  -6   2   3   14.40   11.10
  -6   2   3   11.90    9.60
  -6   2   3   -5.80   10.70
  -4  -2   3  675.83   21.60
  -4  -2   3  669.43   25.20
  -4  -2   3  634.44   21.30
  -4   2   3  641.54   22.80
  -4   2   3  638.54   22.40
   2  -2  -3 1286.97   29.20
  -2  -2   3 1339.57   29.80
   2  -2  -3 1351.06   29.70
  -2  -2   3 1304.97   31.70
  -2  -2   3 1303.87   30.20
  -2  -2   3 1279.27   29.50
  -2   2   3 1308.47   29.30
  -2   2   3 1262.97   29.10
  -2   2   3 1270.17   32.10
   2   2  -3 1309.07   29.60
   2   2  -3 1325.77   29.80
   0  -2  -3   20.30    6.50
   0  -2   3   18.40    6.40
   0  -2   3   22.10    6.90
   0  -2  -3   35.00    7.00
   0   2  -3   29.80    7.20
   0   2   3   18.00    6.50
   0   2  -3   17.90    6.50
   0   2   3    7.80    5.90
   0   2   3   15.50    7.60
  -2  -2  -3  256.57   14.50
   2  -2   3  271.07   14.40
  -2  -2  -3  261.47   14.60
  -2   2  -3  271.57   14.40
   2   2   3  256.77   14.00
  -2   2  -3  232.68   14.10
   2   2   3  270.87   15.30
  -4  -2  -3   15.10    9.30
   4  -2   3   15.10    9.20
   4   2   3   27.90    9.50
  -4   2  -3   -5.20    8.90
   6  -2   3  172.68   16.70
  -6  -2  -3  189.98   17.70
  -6   2  -3  181.58   17.30
   6   2   3  198.88   17.60
  -8  -2  -3  184.48   19.80
  -8  -2  -3  147.19   22.30
   8  -2   3  208.28   20.40
  -8   2  -3  114.69   22.60
  -8   2  -3  173.08   19.60
   8   2   3  226.58   21.00
  -9  -3   3  394.56   29.20
  -9  -3   3  407.26   28.90
  -9   3   3  443.66   27.80
  -9   3   3  404.56   27.10
  -7  -3   3  655.63   27.30
  -7  -3   3  637.94   26.10
  -7  -3   3  717.43   30.70
  -7   3   3  674.33   28.90
  -7   3   3  659.63   27.70
  -7   3   3  646.44   28.20
  -5  -3   3    1.40    8.20
  -5  -3   3   -5.40    9.00
  -5  -3   3    3.80    6.30
  -5  -3   3    9.60    9.40
  -5   3   3   18.40   10.30
  -5   3   3    2.60   10.00
  -5   3   3  -10.20    8.20
   3  -3  -3    2.00    4.20
  -3  -3   3    1.30    4.60
  -3  -3   3   -0.60    2.20
   3  -3  -3    3.60    3.80
  -3  -3   3    5.70    7.90
  -3  -3   3    1.70    6.00
  -3  -3   3    4.30    7.40
  -3  -3   3    4.00    7.20
  -3   3   3   -3.60    3.60
  -3   3   3  -15.70    7.50
   3   3  -3   -1.40    4.20
   3   3  -3    2.20    4.70
  -3   3   3    7.30    4.20
   1  -3  -3   23.50    6.00
   1  -3  -3   27.50    6.80
  -1  -3   3   26.90    7.70
  -1  -3   3   30.00    6.50
  -1  -3   3   17.80    6.30
  -1  -3   3   19.00    6.30
   1   3  -3   33.40    6.70
  -1   3   3   26.00    6.20
   1   3  -3   31.10    6.80
  -1   3   3   15.70    5.90
  -1   3   3   30.30    8.60
   1  -3   3 1878.41   43.10
  -1  -3  -3 1748.03   42.70
  -1  -3  -3 1838.72   42.80
   1  -3   3 1712.03   42.30
  -1   3  -3 1752.72   42.40
   1   3   3 1846.22   42.90
  -1   3  -3 1784.82   42.70
   1   3   3 1680.13   42.20
   1   3   3 1809.92   39.90
  -3  -3  -3 1213.58   34.30
   3  -3   3 1195.78   34.20
   3  -3   3 1195.28   33.70
  -3  -3  -3 1257.77   34.70
   3   3   3 1196.88   34.00
   3   3   3 1289.27   35.30
  -3   3  -3 1266.37   34.50
  -3   3  -3 1164.88   33.60
   5  -3   3   -2.50    9.60
  -5  -3  -3    0.60    9.90
   5   3   3    4.50    9.60
  -5   3  -3   -7.00    9.90
  -7  -3  -3   33.40   13.10
   7  -3   3   28.10   12.60
  -7  -3  -3   25.60   16.60
  -7   3  -3   11.50   11.80
   7   3   3    5.20   11.70
  -9  -3  -3  -12.20   19.20
  -9   3  -3  -25.40   17.90
 -10  -4   3  -13.30   15.90
 -10  -4   3    8.00   18.30
 -10   4   3    2.40   18.40
 -10   4   3    4.80   14.80
  -8  -4   3   74.79   16.20
  -8  -4   3   55.49   14.90
  -8  -4   3   93.59   15.90
  -8   4   3   91.09   16.70
  -8   4   3   89.09   14.70
  -6  -4   3   37.20   11.90
  -6  -4   3   52.99   12.30
  -6  -4   3   39.60   11.30
  -6   4   3   45.70   13.00
  -6   4   3   64.89   13.80
  -6   4   3   42.50   10.70
  -4  -4   3  152.08   11.20
  -4  -4   3  123.49    7.10
  -4  -4   3  117.69    7.60
  -4  -4   3  133.39   11.80
  -4  -4   3  134.29   11.40
  -4  -4   3  118.29   12.90
  -4   4   3  138.09   13.80
  -4   4   3  105.79   12.50
   4   4  -3  134.89    7.50
   4   4  -3  132.89    7.80
  -2  -4   3  208.88   10.30
   2  -4  -3  201.28   10.70
   2  -4  -3  198.28    9.50
  -2  -4   3  217.18   12.90
  -2  -4   3  218.58   12.80
  -2  -4   3  202.28   10.40
   2   4  -3  217.48   10.70
  -2   4   3  201.88   13.80
  -2   4   3  188.98    9.60
  -2   4   3  197.48    9.60
   2   4  -3  198.68   10.30
   0  -4   3  183.48   11.30
   0  -4   3  187.68   12.50
   0  -4  -3  190.38   12.00
   0  -4  -3  188.68   11.50
   0  -4   3  169.48   11.30
   0   4  -3  190.68   11.60
   0   4   3  193.18   12.40
   0   4   3  221.98   12.00
   0   4  -3  201.28   11.80
   0   4   3  195.38   11.60
  -2  -4  -3  258.77   14.90
   2  -4   3  247.78   14.40
  -2  -4  -3  216.58   14.00
   2  -4   3  245.58   14.00
   2   4   3  235.08   15.00
   2   4   3  247.08   13.50
   2   4   3  269.57   14.50
  -2   4  -3  232.58   14.30
  -2   4  -3  247.28   14.70
   4  -4   3   -3.70    8.60
   4   4   3    5.80    8.80
  -4   4  -3   11.80    9.60
  -6  -4  -3   24.80   11.80
   6  -4   3   41.90   11.80
  -6   4  -3   32.80   12.30
   6   4   3   33.90   12.00
  -8  -4  -3    8.20   18.00
   8   4   3    1.30   13.10
  -8   4  -3    7.00   18.10
  -9  -5   3  123.89   19.80
  -9  -5   3  123.99   19.70
  -9   5   3  116.99   19.80
  -9   5   3  116.39   16.30
  -7  -5   3  177.68   18.30
  -7  -5   3  226.28   17.20
  -7  -5   3  241.98   18.90
  -7   5   3  215.38   20.60
  -7   5   3  201.28   16.20
  -7   5   3  223.18   20.00
  -5  -5   3   55.99    9.30
  -5  -5   3   64.79   10.40
  -5  -5   3   41.80   11.80
  -5  -5   3   58.69    5.80
  -5  -5   3   50.59   10.40
  -5  -5   3   53.79    5.70
   5   5  -3   48.60    5.70
   5   5  -3   52.69    5.80
  -5   5   3   40.30   12.00
  -5   5   3   39.00   11.50
  -3  -5   3  168.18   12.10
   3  -5  -3  144.79    9.50
  -3  -5   3  154.38    9.60
  -3  -5   3  147.39    8.70
  -3  -5   3  126.79   12.00
   3  -5  -3  139.49    7.70
  -3  -5   3  163.68   11.40
  -3  -5   3  153.18   11.00
   3   5  -3  138.39    9.00
  -3   5   3  140.49    8.30
   3   5  -3  149.49    9.80
  -3   5   3  153.08   12.80
   1  -5  -3   10.50    6.40
  -1  -5   3   22.20    6.60
  -1  -5   3   10.60    6.70
  -1  -5   3    9.70    6.60
   1  -5  -3   16.30    6.20
  -1   5   3   11.50    6.20
  -1   5   3   26.60    8.20
   1   5  -3   19.70    7.10
  -1   5   3   12.70    6.20
   1   5  -3   14.70    6.60
   1  -5   3  604.24   20.70
  -1  -5  -3  564.34   20.10
   1  -5   3  591.44   20.60
   1  -5   3  598.34   20.40
  -1  -5  -3  566.74   20.20
  -1   5  -3  575.84   20.40
  -1   5  -3  588.34   20.60
   1   5   3  578.54   20.00
   1   5   3  600.74   20.90
   1   5   3  575.44   18.50
   3  -5   3  410.06   18.50
  -3  -5  -3  417.26   19.00
   3   5   3  426.26   19.10
  -3   5  -3  396.46   18.80
  -5  -5  -3    3.80    9.80
   5  -5   3   -7.50    9.40
   5   5   3    7.50   10.00
  -5   5  -3    4.40   10.50
   7  -5   3  117.59   15.80
  -7  -5  -3   90.59   15.20
  -7  -5  -3   56.19   19.10
   7   5   3  103.39   15.90
  -7   5  -3   90.09   15.20
  -9  -5  -3  -14.20   18.90
  -9   5  -3  -27.10   18.80
 -10  -6   3    4.40   17.10
 -10  -6   3    7.40   17.90
 -10   6   3   -0.80   17.60
  -8  -6   3    0.10   13.70
  -8  -6   3   -0.10   13.30
  -8  -6   3  -14.40   13.10
  -8   6   3    3.60   14.80
  -8   6   3   -3.80   11.50
  -6  -6   3   -6.40    4.90
  -6  -6   3    3.00   10.80
  -6  -6   3   -0.50    4.90
  -6  -6   3  -15.60    9.90
  -6  -6   3   14.70    9.90
  -6   6   3   -1.20   12.50
  -6   6   3    7.70   12.10
   6   6  -3    2.20    5.10
   4  -6  -3  368.26   11.90
  -4  -6   3  390.36   22.00
  -4  -6   3  415.26   16.60
  -4  -6   3  404.16   19.10
  -4  -6   3  380.66   12.90
   4  -6  -3  398.26   13.10
  -4  -6   3  388.46   14.40
  -4  -6   3  385.76   16.90
   4   6  -3  408.66   14.00
  -4   6   3  362.26   12.20
  -4   6   3  396.06   19.70
  -4   6   3  391.16   12.40
  -2  -6   3 1030.80   28.20
   2  -6  -3 1120.19   27.20
  -2  -6   3 1053.39   27.00
  -2  -6   3 1055.59   27.30
  -2  -6   3 1010.50   31.60
   2  -6  -3 1022.10   26.20
  -2  -6   3 1055.89   27.10
   2   6  -3 1044.00   27.10
  -2   6   3 1028.20   28.40
  -2   6   3 1030.10   26.40
   2   6  -3 1050.99   27.30
  -2   6   3 1012.10   26.40
   0  -6  -3   45.70    8.00
   0  -6   3   36.70    7.90
   0  -6  -3   32.60    7.60
   0  -6   3   52.19    8.30
   0  -6   3   45.10    8.00
   0   6  -3   37.80    8.40
   0   6   3   46.00    8.90
   0   6  -3   59.19    8.50
   0   6   3   52.59    8.50
   0   6   3   42.60    7.80
   2  -6   3   81.09   10.10
   2  -6   3   81.39   10.50
  -2  -6  -3   93.69   10.30
   2  -6   3   69.29    9.30
   2   6   3   83.09   10.50
   2   6   3   98.19    9.60
  -2   6  -3   76.59   10.70
   2   6   3   93.29   11.20
  -4  -6  -3   14.60    9.40
   4  -6   3    2.40    9.10
   4  -6   3   -4.10    7.70
   4   6   3   -4.30    9.10
  -4   6  -3   -2.20    9.50
  -6  -6  -3  423.26   22.70
   6  -6   3  456.65   24.00
  -6  -6  -3  423.66   30.20
   6   6   3  435.76   23.00
  -6   6  -3  481.05   23.50
   8  -6   3  281.67   20.20
  -8  -6  -3  219.88   26.50
  -8   6  -3  248.78   25.30
  -9  -7   3   35.30   16.50
  -9  -7   3   34.90   17.40
  -9   7   3   42.30   18.20
  -7  -7   3  100.39   14.90
  -7  -7   3   97.19    8.10
  -7  -7   3   52.99   14.50
  -7  -7   3   87.09   13.40
  -7   7   3   90.89   16.40
  -7   7   3   55.29   17.00
   5  -7  -3   51.29    6.20
  -5  -7   3   30.30    7.10
  -5  -7   3   40.20   10.40
  -5  -7   3   53.79   10.00
  -5  -7   3   49.10    9.70
  -5  -7   3   47.10   12.20
   5  -7  -3   55.59    5.80
  -5   7   3   41.40    5.70
  -5   7   3   50.29   12.80
  -5   7   3   44.10    6.30
   5   7  -3   40.50    7.40
  -3  -7   3  384.46   15.60
   3  -7  -3  361.16   15.10
  -3  -7   3  358.66   14.40
   3  -7  -3  356.46   13.20
  -3  -7   3  400.46   14.00
  -3  -7   3  364.06   15.90
  -3  -7   3  334.67   18.60
  -3  -7   3  385.86   20.50
  -3   7   3  372.76   14.10
  -3   7   3  352.76   18.20
   3   7  -3  380.66   15.10
  -3   7   3  368.96   13.80
   3   7  -3  358.16   15.30
  -1  -7   3   75.89    8.90
  -1  -7   3   67.49    9.00
  -1  -7   3   75.99    9.60
   1  -7  -3   97.89    9.20
   1  -7  -3   58.99    8.30
  -1   7   3   67.69    8.70
   1   7  -3   72.19    9.20
   1   7  -3   71.09    9.30
  -1   7   3   81.89   10.50
  -1   7   3   72.79    8.70
   1  -7   3  503.65   19.60
  -1  -7  -3  508.05   19.50
   1  -7   3  507.35   19.70
   1  -7   3  511.95   19.40
  -1   7  -3  518.95   20.10
   1   7   3  530.25   20.30
   1   7   3  500.95   19.30
   1   7   3  494.45   17.30
   3  -7   3   90.49   11.30
  -3  -7  -3   97.49   12.30
   3  -7   3   99.89   11.20
   3   7   3   85.79   11.80
  -3   7  -3   90.09   11.70
   3   7   3   77.59    9.60
   5  -7   3   24.90    9.70
   5  -7   3   10.40   10.50
  -5  -7  -3   24.20   10.80
  -5   7  -3  -14.90   10.60
   5   7   3   19.00    9.80
   7  -7   3   50.89   14.00
   7  -7   3   75.09   13.20
  -7  -7  -3   77.49   15.40
  -7  -7  -3  108.89   20.80
  -7   7  -3   83.69   15.50
   7   7   3   87.19   15.20
   9  -7   3   62.19   14.20
  -9  -7  -3   36.20   21.90
  -8  -8   3  255.17   22.50
  -8  -8   3  280.87   22.40
  -8   8   3  278.77   23.90
  -6  -8   3    3.50   10.30
  -6  -8   3    6.70    9.50
  -6  -8   3    9.20   10.90
  -6  -8   3    7.20    6.70
  -6   8   3   -1.60   12.90
  -6   8   3   14.90   13.40
  -6   8   3    1.50    5.70
   4  -8  -3  537.95   17.80
  -4  -8   3  505.15   17.60
  -4  -8   3  501.65   17.60
  -4  -8   3  560.04   22.60
  -4  -8   3  507.15   18.30
  -4  -8   3  508.15   18.60
  -4  -8   3  505.35   25.30
   4  -8  -3  529.95   16.40
  -4   8   3  514.85   22.60
  -4   8   3  510.95   16.60
   4   8  -3  490.85   18.30
   2  -8  -3  251.07   14.30
   2  -8  -3  220.68   12.00
  -2  -8   3  238.78   12.60
  -2  -8   3  246.48   13.60
  -2  -8   3  266.67   14.00
  -2  -8   3  218.98   15.40
  -2  -8   3  225.98   16.90
  -2   8   3  227.18   14.80
   2   8  -3  235.98   13.90
  -2   8   3  238.08   12.40
  -2   8   3  259.27   13.00
   0  -8   3   17.90    7.70
   0  -8   3    6.20    7.30
   0  -8  -3    4.30    7.20
   0  -8   3    7.90    7.80
   0   8   3   23.30    7.70
   0   8  -3   14.50    8.50
   0   8   3   18.80    8.30
   0   8   3   10.50    7.70
   2  -8   3  903.81   28.30
  -2  -8  -3  833.42   27.70
   2  -8   3  844.82   27.10
   2   8   3  831.02   27.80
   2   8   3  871.41   23.20
  -2   8  -3  874.61   28.30
   2   8   3  831.92   27.60
   4  -8   3   19.10    9.30
  -4  -8  -3   19.50   10.70
   4  -8   3   18.90   10.80
   4   8   3   18.60    8.40
  -4   8  -3   13.00   11.00
   4   8   3   15.60   10.40
  -6  -8  -3  165.78   20.20
   6  -8   3  205.18   19.00
   6  -8   3  220.88   17.50
  -6  -8  -3  207.78   18.70
   6   8   3  211.08   19.10
  -6   8  -3  215.18   19.50
   8  -8   3   81.59   15.00
  -8  -8  -3  106.29   23.10
  -8   8  -3   48.60   19.20
  -9  -9   3  244.38   24.00
  -9  -9   3  179.18   23.10
  -9   9   3  186.58   23.80
  -7  -9   3  385.46   15.90
  -7  -9   3  338.77   23.00
  -7  -9   3  385.86   27.00
  -7   9   3  385.76   25.50
  -7   9   3  404.76   13.20
  -5  -9   3  150.48   12.50
  -5  -9   3  136.19   16.10
  -5  -9   3  116.09   11.10
  -5  -9   3  155.38   15.20
  -5  -9   3  149.29   12.30
  -5   9   3  115.39   15.10
  -5   9   3  154.58   10.70
  -3  -9   3   48.00    9.60
  -3  -9   3   29.20   11.10
  -3  -9   3   19.00    6.20
  -3  -9   3   22.40    9.50
  -3  -9   3   19.90    8.30
  -3  -9   3   19.70    7.50
   3  -9  -3   36.20    7.90
  -3   9   3   23.90   10.70
   3   9  -3    4.80    8.60
  -3   9   3   19.70    7.60
  -3   9   3   37.10    8.40
  -1  -9   3   32.80    8.50
   1  -9  -3   31.10    8.30
  -1  -9   3   39.00    8.60
  -1  -9   3   22.40    8.40
   1   9  -3   32.60    8.90
  -1   9   3   28.70    8.50
  -1   9   3   26.40    8.70
  -1   9   3   42.00    9.00
   1  -9   3  914.01   27.90
   1  -9   3  900.41   28.80
   1  -9   3  924.01   29.20
  -1  -9  -3  894.11   28.30
  -1   9  -3  922.81   29.20
   1   9   3  849.12   27.90
   1   9   3  922.21   24.70
   1   9   3  922.11   29.20
  -3  -9  -3  479.25   22.10
   3  -9   3  504.95   21.50
   3  -9   3  489.95   22.00
  -3   9  -3  472.55   22.20
   3   9   3  485.15   16.90
   3   9   3  497.25   22.00
   5  -9   3   38.70   12.30
  -5  -9  -3   -1.20   14.80
  -5  -9  -3   44.30   12.70
   5  -9   3   64.29   12.10
   5   9   3   32.80   12.60
  -5   9  -3   30.60   12.80
   5   9   3   32.60    9.00
   7  -9   3    4.00   10.80
  -7  -9  -3   -2.60   17.30
   7  -9   3    1.30   12.10
  -7  -9  -3  -13.00   10.70
   7   9   3    1.70   12.70
  -7   9  -3   -1.90   13.40
  -8 -10   3  223.08   14.20
  -8 -10   3  194.18   21.10
  -8 -10   3  176.98   19.80
  -8  10   3  176.68   22.40
  -6 -10   3  176.18   13.60
  -6 -10   3  195.08   15.80
  -6 -10   3  175.18   13.40
  -6 -10   3  189.48   16.60
  -6 -10   3  174.98   17.90
  -6  10   3  159.68   19.40
  -6  10   3  180.68   12.30
  -4 -10   3   94.59   13.60
  -4 -10   3   98.79   11.60
  -4 -10   3  105.89   13.50
  -4 -10   3  121.89   10.00
  -4 -10   3  104.89   11.10
  -4 -10   3  106.89   10.90
   4 -10  -3  118.09   10.50
  -4  10   3  105.59   15.20
  -4  10   3   94.69   10.00
   4  10  -3   87.59   11.20
  -4  10   3  117.99   10.90
  -2 -10   3   24.90    8.60
  -2 -10   3   13.60    8.60
  -2 -10   3   21.50    9.40
  -2 -10   3   13.00    7.70
   2 -10  -3   20.80    8.10
  -2 -10   3   13.60    9.70
  -2  10   3    8.80    9.30
   2  10  -3   22.60    9.20
  -2  10   3    7.70    8.10
  -2  10   3   12.80    8.10
   0 -10   3  130.59   12.30
   0 -10   3  128.79   12.80
   0 -10   3  137.99   12.80
   0 -10  -3  102.69   11.80
   0  10   3   95.49   11.60
   0  10   3  148.29   13.10
   0  10   3  128.99   11.50
   0  10  -3  119.79   12.80
  -2 -10  -3  390.66   19.80
   2 -10   3  416.66   20.40
   2 -10   3  426.16   20.50
  -2  10  -3  399.06   20.50
   2  10   3  412.76   15.90
   2  10   3  345.07   19.20
  -4 -10  -3   76.59   13.50
   4 -10   3   62.59   11.60
   4 -10   3   82.49   13.40
   4  10   3   86.59   14.20
   4  10   3   69.79    9.30
  -4  10  -3   97.39   14.60
  -6 -10  -3   50.59   13.20
   6 -10   3   44.60   13.50
   6 -10   3   38.80   11.50
  -6 -10  -3   48.00   18.60
   6  10   3   43.00   13.80
  -6  10  -3   34.60   13.90
  -8 -10  -3  -30.00   19.00
   8 -10   3  -12.10   11.60
  -9 -11   3  158.58   20.70
  -9 -11   3  124.59   21.70
  -9  11   3  119.99   22.50
  -7 -11   3  185.58   20.80
  -7 -11   3  195.78   17.60
  -7 -11   3  189.48   14.40
  -7  11   3  216.88   13.40
  -5 -11   3  108.69   12.50
  -5 -11   3  135.69   11.70
  -5 -11   3  140.99   15.50
  -5 -11   3  131.19   16.50
  -5 -11   3  129.69   12.10
  -5  11   3  131.69   17.20
  -5  11   3  134.49   12.40
  -3 -11   3  716.13   24.90
  -3 -11   3  685.93   27.70
   3 -11  -3  722.53   23.70
  -3 -11   3  729.03   25.40
  -3 -11   3  695.13   22.50
  -3 -11   3  711.33   28.20
  -3  11   3  730.13   23.90
  -3  11   3  705.33   25.80
  -3  11   3  761.92   24.60
  -1 -11   3    4.80    9.30
   1 -11  -3   14.10    9.00
  -1 -11   3   26.40    9.90
  -1 -11   3   15.60    9.30
  -1  11   3   20.50    9.20
  -1  11   3    3.50    8.70
  -1  11   3   12.40    9.80
   1  11  -3   26.70   10.60
  -1 -11  -3  658.03   25.00
   1 -11   3  666.23   25.30
   1 -11   3  604.64   24.20
  -1  11  -3  669.73   25.70
   1  11   3  658.63   21.20
   1  11   3  650.73   25.00
   1  11   3  739.73   26.40
   3 -11   3  404.36   21.90
  -3 -11  -3  408.36   20.70
   3 -11   3  403.06   21.20
   3  11   3  390.16   15.40
  -3  11  -3  419.46   15.30
   3  11   3  423.16   21.50
  -3  11  -3  347.47   21.50
  -5 -11  -3   44.90   12.90
   5 -11   3   69.49   14.20
   5 -11   3   53.39   11.70
  -5 -11  -3   52.89   18.20
   5  11   3   64.39   14.00
  -5  11  -3   39.90   14.00
   7 -11   3  291.77   23.50
   7 -11   3  310.97   20.60
  -7 -11  -3  272.87   26.90
   7  11   3  331.17   25.00
  -8 -12   3   15.00   15.60
  -8 -12   3  -10.50    9.60
  -8 -12   3    4.20   13.80
  -6 -12   3    8.10    9.90
  -6 -12   3    2.50   13.10
  -6 -12   3   34.80   13.10
  -6  12   3   14.00    9.90
  -4 -12   3  130.79   13.70
   4 -12  -3  129.59   12.30
  -4 -12   3  138.19   16.70
  -4 -12   3  148.29   16.20
  -4 -12   3  140.39   12.10
  -4  12   3  162.68   14.00
  -4  12   3  148.99   17.00
   4  12  -3  141.79   13.80
  -2 -12   3  190.18   16.60
  -2 -12   3  155.98   14.50
  -2 -12   3  195.18   15.60
   2 -12  -3  201.18   15.30
  -2 -12   3  159.98   15.30
   2  12  -3  209.18   16.10
  -2  12   3  163.98   14.00
  -2  12   3  195.28   14.80
  -2  12   3  179.28   15.60
   0 -12   3   14.60    9.50
   0 -12   3   12.80    9.60
   0 -12  -3   -0.20    9.20
   0 -12   3   24.60   10.20
   0  12   3   15.80   10.20
   0  12   3   14.50    9.30
   0  12  -3   20.40   11.00
   0  12   3    0.20    9.90
   2 -12   3   23.50   10.20
  -2 -12  -3   27.80   11.00
   2 -12   3   15.60   10.80
   2  12   3   24.00   10.80
   2  12   3   30.90    9.00
  -2  12  -3   27.40   12.40
   4 -12   3   32.00   12.90
  -4 -12  -3   29.80   15.40
   4 -12   3   21.30   10.70
  -4 -12  -3   36.60   12.30
  -4  12  -3   36.80   12.20
   4  12   3   40.70   12.90
  -6 -12  -3  171.08   23.50
   6 -12   3  192.18   17.70
   6 -12   3  218.58   20.60
  -6 -12  -3  179.18   19.50
  -6  12  -3  183.98   20.40
  -6  12  -3  218.78   17.80
   6  12   3  181.18   19.90
   8 -12   3   70.99   14.90
  -8 -12  -3   75.39   23.90
  -8  12  -3   50.79   16.80
  -7 -13   3    0.30   14.40
  -7 -13   3   -0.40   10.50
  -7  13   3   -7.80    9.90
  -5 -13   3  112.89   16.20
  -5 -13   3  116.99   13.90
  -5 -13   3  147.79   17.90
  -5  13   3  122.79   13.30
  -3 -13   3 1103.99   29.30
   3 -13  -3 1088.49   32.70
  -3 -13   3 1139.19   33.90
  -3 -13   3 1125.79   36.60
  -3 -13   3 1030.00   36.70
  -3  13   3 1064.59   33.10
  -3  13   3 1054.99   33.50
   1 -13  -3   83.99   12.80
  -1 -13   3   79.89   12.60
  -1 -13   3   96.29   13.80
  -1 -13   3   95.89   13.00
  -1  13   3   84.89   12.50
   1  13  -3   60.29   13.00
  -1  13   3   60.89   11.90
  -1  13   3   68.09   12.80
   1 -13   3    0.40   10.30
   1 -13   3   -4.00    9.60
  -1 -13  -3   -3.40   10.10
   1  13   3   -1.00   10.20
  -1  13  -3    0.30   11.30
   1  13   3   21.50    9.30
  -3 -13  -3   35.60   12.40
   3 -13   3    9.40   10.70
   3 -13   3   39.80   12.60
  -3 -13  -3   12.30   14.00
  -3  13  -3   23.00   13.00
   3  13   3   29.20   12.20
  -5 -13  -3  395.26   24.40
   5 -13   3  353.76   21.60
   5 -13   3  359.26   23.80
  -5 -13  -3  296.87   26.10
   5  13   3  355.16   23.30
  -5  13  -3  377.26   24.60
  -7 -13  -3  503.85   34.60
   7 -13   3  429.16   24.60
  -7  13  -3  460.45   24.20
   7  13   3  501.15   28.90
  -8 -14   3  142.09   22.60
  -6 -14   3   41.30   15.50
  -6 -14   3   18.00   11.10
  -6  14   3   71.29   13.00
  -4 -14   3   89.79   15.50
  -4 -14   3  107.29   14.30
  -4 -14   3  118.39   16.70
  -4  14   3   98.69   17.60
  -4  14   3  108.09   13.70
  -2 -14   3  170.98   16.50
  -2 -14   3  170.28   16.10
   2 -14  -3  225.08   16.30
  -2 -14   3  169.28   16.10
  -2 -14   3  152.58   17.30
  -2  14   3  182.68   16.10
  -2  14   3  179.38   15.80
   2  14  -3  190.48   17.40
  -2  14   3  182.48   16.80
   0 -14  -3   16.30   11.00
   0 -14   3   27.00   11.60
   0 -14   3   31.30   11.70
   0  14   3   36.80   11.00
   0  14  -3   25.00   12.50
   0  14   3   16.10   11.10
   2 -14   3  454.65   24.10
  -2 -14  -3  448.66   28.00
   2 -14   3  432.66   23.30
  -2 -14  -3  449.76   23.80
   2  14   3  467.45   17.30
  -2  14  -3  464.45   24.70
   2  14   3  463.95   24.20
  -4 -14  -3   47.70   16.70
  -4 -14  -3   70.99   15.20
   4 -14   3   49.90   13.00
   4 -14   3   78.09   15.30
   4  14   3   28.30   13.40
  -4  14  -3   48.60   14.90
   6 -14   3   16.40   12.70
   6 -14   3    3.70   13.40
  -6 -14  -3    3.30   18.20
   6  14   3   -3.60   13.30
  -7 -15   3   29.80   16.40
  -7 -15   3    5.90   11.70
  -7  15   3   32.40   12.50
  -5 -15   3   32.50   14.60
  -5 -15   3   35.60   14.50
  -5 -15   3   19.30   11.70
  -5  15   3   13.80   11.80
  -3 -15   3  144.89   17.50
  -3 -15   3  144.19   16.20
  -3 -15   3  187.28   13.70
  -3 -15   3  171.58   17.70
   3 -15  -3  170.78   16.00
  -3  15   3  172.48   18.00
   3  15  -3  146.29   16.70
  -3  15   3  152.88   16.10
   1 -15  -3  130.59   15.50
  -1 -15   3  125.89   16.40
  -1 -15   3  123.39   15.20
   1  15  -3  111.69   16.00
  -1  15   3  143.29   15.90
  -1  15   3  117.19   14.40
   1 -15   3   30.50   12.90
   1 -15   3   55.19   13.40
  -1 -15  -3   27.50   13.40
  -1 -15  -3   23.50   12.20
   1  15   3   42.00   10.80
  -1  15  -3   54.39   14.70
   1  15   3   63.99   13.50
  -3 -15  -3   85.59   17.20
   3 -15   3   81.09   15.90
  -3 -15  -3  104.89   15.90
   3 -15   3   97.29   15.00
   3  15   3  101.69   15.30
  -3  15  -3  108.99   17.40
  -5 -15  -3    0.30   17.20
   5 -15   3   -4.60   13.50
   5 -15   3   -3.00   11.20
  -5 -15  -3   16.60   13.70
  -5  15  -3    8.10   14.90
   5  15   3   28.70   14.30
  -7 -15  -3   29.70   21.40
   7 -15   3   30.40   14.00
  -6 -16   3   47.10   13.30
  -6 -16   3   34.70   16.30
  -6  16   3   65.39   14.30
  -4 -16   3   -3.20   13.30
  -4 -16   3    3.60   12.80
  -4 -16   3    3.70   11.80
  -4  16   3   24.80   12.60
  -2 -16   3  -13.30   10.90
  -2 -16   3  -17.60   11.80
  -2 -16   3    4.80   12.10
   2 -16  -3  -10.10   10.40
  -2  16   3   -6.40   13.00
   2  16  -3   -7.80   12.70
  -2  16   3   -1.30   10.80
   0 -16   3  157.68   18.20
   0 -16   3  174.88   18.40
   0 -16  -3  187.88   18.20
   0 -16  -3  168.38   16.60
   0  16  -3  143.19   18.60
   0  16   3  204.68   15.80
   0  16   3  201.48   18.60
   2 -16   3  762.02   31.10
  -2 -16  -3  753.72   32.50
  -2 -16  -3  799.72   32.50
   2 -16   3  793.02   32.60
  -2  16  -3  715.13   32.60
   2  16   3  774.72   32.80
   4 -16   3   35.80   14.40
  -4 -16  -3   43.40   18.00
  -4 -16  -3   69.39   16.00
   4 -16   3   41.00   13.40
  -4  16  -3   52.59   15.90
   4  16   3   43.90   15.60
   6 -16   3   35.40   16.30
   6 -16   3   25.10   13.70
  -6 -16  -3   24.50   19.70
   6  16   3   41.20   16.60
  -7 -17   3   18.20   16.90
  -5 -17   3   -4.20   14.10
  -5 -17   3   -2.40   12.50
  -5 -17   3    0.90   14.30
  -5  17   3    7.70   13.20
  -3 -17   3  236.88   21.80
  -3 -17   3  232.88   20.30
  -3 -17   3  229.58   19.50
  -3  17   3  218.48   19.30
  -1 -17   3   41.50   14.40
   1 -17  -3   49.20   14.50
  -1 -17   3   44.20   14.50
   1  17  -3   36.30   15.60
  -1  17   3   62.69   14.60
  -1 -17  -3   -1.70   13.90
   1 -17   3    5.70   12.80
   1 -17   3   -4.60   12.50
  -1 -17  -3   15.90   13.70
   1  17   3   20.20   13.40
  -1  17  -3   -9.80   13.30
  -3 -17  -3   -7.80   15.00
   3 -17   3   18.00   14.60
  -3 -17  -3   19.80   14.30
   3 -17   3   31.10   13.70
  -3  17  -3    4.60   15.50
   3  17   3   11.80   14.30
   5 -17   3   -2.00   14.60
  -5 -17  -3    3.00   18.00
   5 -17   3   10.80   13.30
   5  17   3   16.40   15.40
  -6 -18   3   15.40   17.50
  -4 -18   3   23.40   14.00
  -4 -18   3   10.90   14.90
  -4  18   3   21.00   13.80
  -2 -18   3    3.10   13.80
  -2 -18   3    6.70   12.90
  -2 -18   3    3.10   12.10
  -2  18   3    0.10   12.90
   2  18  -3  -33.60   13.10
   0 -18   3    9.60   13.80
   0 -18   3   17.50   14.10
   0 -18  -3   13.80   13.40
   0  18   3   -2.00   12.80
   0  18  -3   -8.00   14.00
   2 -18   3   47.90   15.70
  -2 -18  -3   18.20   15.60
  -2 -18  -3   35.70   15.10
   2 -18   3   36.60   15.10
  -2  18  -3   39.00   16.80
   2  18   3   40.40   15.40
   4 -18   3   49.80   15.50
  -4 -18  -3   67.99   19.00
   4 -18   3   83.59   18.10
   4  18   3   92.49   18.70
  -5 -19   3   94.29   18.20
  -5 -19   3  119.99   20.50
  -3 -19   3  591.04   29.40
  -3 -19   3  604.24   32.80
  -1 -19   3   94.89   17.90
   1 -19  -3  128.69   18.00
  -1 -19   3  114.29   17.90
  -1  19   3  101.39   16.90
   1  19  -3   92.89   18.50
  -1 -19  -3  -16.50   13.10
   1 -19   3    8.80   14.30
  -1 -19  -3  -14.20   13.10
   1 -19   3   -1.10   14.50
  -1  19  -3   20.10   16.30
   1  19   3  -15.70   12.90
  -3 -19  -3    9.80   15.30
   3 -19   3    7.80   14.80
  -3 -19  -3    5.60   15.90
   3 -19   3   19.30   16.10
   5 -19   3  146.59   20.40
  -5 -19  -3  175.08   25.00
  -4 -20   3   26.50   16.90
  -4 -20   3   25.50   15.30
  -2 -20   3   19.60   16.20
   0 -20  -3   56.19   16.40
   0 -20   3   48.50   16.90
   0  20  -3   42.00   17.40
   2 -20   3  336.57   26.60
  -2 -20  -3  277.17   23.40
  -2 -20  -3  338.47   26.10
  -2  20  -3  277.67   26.90
   4 -20   3   28.30   16.20
  -4 -20  -3  -22.80   17.00
  -3 -21   3   76.89   17.10
  -3 -21   3   90.29   20.20
  -1 -21   3   66.29   18.20
   1  21  -3   64.89   19.20
  -1 -21  -3   30.70   16.60
   1 -21   3    8.90   16.40
  -1  21  -3   -2.40   17.40
   3 -21   3  -24.80   14.40
  -3 -21  -3   -9.10   16.70
  -2 -22   3   24.90   17.50
   0 -22   3  111.49   20.90
   0  22  -3  117.19   21.70
   2 -22   3  332.47   28.50
  -8   0   4   58.39   16.90
  -8   0   4   89.19   16.60
  -8   0   4   91.79   18.30
  -6   0   4  214.08   18.30
  -6   0   4  189.48   17.20
  -6   0   4  222.58   18.40
  -4   0   4  276.97   13.10
  -4   0   4  254.97   17.40
   2   0  -4 1738.73   39.60
  -2   0   4 1748.82   39.60
  -2   0   4 1739.13   39.30
   2   0  -4 1726.33   39.50
  -2   0   4 1772.22   42.20
  -2   0   4 1693.43   39.60
   0   0  -4 2066.39   48.70
   0   0   4 2036.70   48.70
   0   0   4 2133.89   49.10
   0   0   4 2028.70   47.50
   2   0   4  100.59   12.10
  -2   0  -4   78.29   12.00
   2   0   4   89.29   11.50
  -4   0  -4  162.48   16.40
   4   0   4  139.69   15.60
  -6   0  -4  165.38   18.40
   6   0   4  136.69   17.60
  -8   0  -4  668.73   38.00
   8   0   4  636.34   32.40
  -9  -1   4   24.00   16.20
  -9  -1   4    8.10   17.60
  -9  -1   4    4.90   17.20
  -9   1   4  -18.00   17.60
  -9   1   4    6.50   15.00
  -9   1   4   15.10   17.60
  -7  -1   4  -13.80   12.10
  -7  -1   4   18.20   13.20
  -7  -1   4   22.30   14.40
  -7   1   4  -14.60   11.40
  -7   1   4   24.60   14.60
  -7   1   4  -13.50   12.30
  -5  -1   4  149.19   16.10
  -5  -1   4  186.88   15.90
  -5   1   4  150.78   15.90
  -3  -1   4   73.19    8.20
   3  -1  -4   77.99    6.70
  -3  -1   4   55.59   10.80
  -3  -1   4   82.29    7.40
   3  -1  -4   69.39    6.80
   3   1  -4   84.99    7.10
   3   1  -4   59.69    6.50
  -3   1   4   65.59    5.70
  -3   1   4   79.99    7.10
  -3   1   4   80.79    7.90
  -3   1   4   68.39   11.70
  -1  -1   4   86.09   11.40
   1  -1  -4  124.29   10.00
  -1  -1   4  102.19    9.80
  -1  -1   4  106.49    9.70
   1  -1  -4   97.99   10.00
  -1  -1   4  126.59   10.40
  -1   1   4  118.69   12.40
   1   1  -4  123.39   10.00
   1   1  -4  110.59   10.00
  -1   1   4   90.69    9.50
  -1   1   4  106.29    9.60
  -1  -1  -4    8.90    8.40
   1  -1   4    7.10    7.80
   1  -1   4   19.10    8.50
   1   1   4   15.40    8.40
   1   1   4   18.70    9.40
   1   1   4   13.30    7.90
  -1   1  -4   15.70    8.30
   3  -1   4   30.00   10.60
  -3  -1  -4   42.60   11.50
   3   1   4   27.80   10.50
  -3   1  -4   23.50   10.80
   5  -1   4  103.49   15.40
  -5  -1  -4  117.69   16.10
  -5   1  -4  122.49   16.30
   5   1   4   94.49   14.90
   7  -1   4   65.99   15.50
  -7  -1  -4   62.09   16.80
   7   1   4  100.29   17.30
  -7   1  -4   91.89   16.80
  -8  -2   4  -13.00   13.60
  -8  -2   4    7.30   15.10
  -8  -2   4    7.30   13.80
  -8   2   4    0.70   15.00
  -8   2   4  -14.30   15.90
  -8   2   4    1.00   13.30
  -6  -2   4   97.99   14.90
  -6  -2   4  126.59   16.20
  -6  -2   4   99.79   14.90
  -6   2   4  138.39   17.10
  -6   2   4  109.69   15.40
  -4  -2   4    9.20    6.80
  -4  -2   4    2.10    4.60
  -4  -2   4   -1.00    3.70
  -4  -2   4   -3.00    9.70
   4   2  -4    2.20    4.60
  -4   2   4    3.10   10.10
  -4   2   4    3.30    5.00
   4   2  -4    5.90    4.20
   2  -2  -4  514.35   16.80
  -2  -2   4  524.65   16.80
  -2  -2   4  505.85   16.90
  -2  -2   4  527.25   20.60
  -2  -2   4  507.65   18.70
   2  -2  -4  548.05   17.40
  -2   2   4  491.85   20.50
   2   2  -4  525.85   17.10
   2   2  -4  496.45   16.90
  -2   2   4  526.35   16.80
  -2   2   4  521.65   16.60
   0  -2   4 1267.77   33.60
   0  -2  -4 1255.87   32.90
   0  -2   4 1227.18   33.20
   0  -2   4 1189.08   32.80
   0   2   4 1213.78   33.00
   0   2  -4 1203.48   32.90
   0   2   4 1337.17   33.80
   0   2   4 1261.97   33.20
  -2  -2  -4    6.00    8.80
   2  -2   4    7.10    9.10
   2  -2   4    7.50    8.60
   2   2   4  -11.70    8.60
  -2   2  -4    0.30    9.00
   2   2   4   19.90    8.90
   4  -2   4  110.69   14.40
  -4  -2  -4  111.79   15.10
   4   2   4  110.19   14.60
  -4   2  -4   98.29   14.50
   6  -2   4    4.80   12.20
  -6  -2  -4   16.50   13.10
   6   2   4   12.00   12.50
  -6   2  -4    9.30   12.60
  -8  -2  -4    9.60   20.30
   8  -2   4   58.59   16.50
   8   2   4   71.29   17.60
  -8   2  -4   33.10   22.40
  -9  -3   4    5.90   15.80
  -9  -3   4   -4.80   16.40
  -9  -3   4    1.30   15.20
  -9   3   4    6.70   17.60
  -9   3   4   -3.80   14.60
  -7  -3   4  259.97   20.00
  -7  -3   4  255.27   20.70
  -7  -3   4  257.47   21.10
  -7   3   4  240.88   21.70
  -7   3   4  288.47   22.30
  -5  -3   4  542.45   20.40
  -5  -3   4  532.85   23.40
  -5  -3   4  561.84   27.40
  -5  -3   4  567.64   24.00
  -5   3   4  575.64   25.00
  -3  -3   4   39.80    7.00
  -3  -3   4   38.50   10.90
   3  -3  -4   37.90    6.60
  -3  -3   4   42.90    8.20
   3  -3  -4   45.40    6.40
  -3   3   4   51.59   10.80
   3   3  -4   45.20    6.70
  -3   3   4   35.60    6.40
  -3   3   4   44.40    6.80
   3   3  -4   37.00    6.40
  -1  -3   4  314.77   14.60
  -1  -3   4  342.57   17.20
   1  -3  -4  318.87   15.00
  -1  -3   4  330.77   16.70
  -1  -3   4  311.07   14.30
   1   3  -4  307.27   14.40
  -1   3   4  335.77   14.30
  -1   3   4  307.97   14.30
  -1   3   4  324.07   17.10
  -1  -3  -4   33.00    9.20
   1  -3   4   20.50    8.80
   1   3   4   27.00    9.50
   1   3   4   12.20    8.30
   1   3   4   28.50    8.80
  -1   3  -4   32.20    9.70
  -3  -3  -4  214.98   16.70
   3  -3   4  198.58   16.20
  -3   3  -4  223.48   16.90
   3   3   4  227.08   16.40
  -5  -3  -4  809.02   31.30
   5  -3   4  810.62   30.90
   5   3   4  780.52   31.00
  -5   3  -4  722.03   30.30
  -7  -3  -4   -3.70   13.60
   7  -3   4  -15.90   12.70
  -7   3  -4   31.80   14.70
   7   3   4    8.40   13.40
  -8  -4   4   89.69   17.70
  -8  -4   4   97.69   17.80
  -8  -4   4   94.39   17.30
  -8   4   4  119.29   19.40
  -8   4   4   63.29   17.70
  -6  -4   4   67.49   13.40
  -6  -4   4   70.99   14.30
  -6  -4   4   52.69   13.80
  -6   4   4   31.20   14.30
   4  -4  -4  328.07   10.60
  -4  -4   4  326.57   17.60
  -4  -4   4  312.07   12.60
   4  -4  -4  337.57   11.80
  -4  -4   4  326.37   18.10
  -4  -4   4  327.57   11.50
  -4   4   4  325.17   10.70
   4   4  -4  333.67   11.80
  -4   4   4  308.77   19.10
   2  -4  -4   91.49    8.70
  -2  -4   4   75.09    9.30
  -2  -4   4  101.99    9.40
  -2  -4   4   74.89   11.40
   2  -4  -4   88.19    9.10
  -2  -4   4  101.09    9.10
  -2   4   4   83.19    8.40
  -2   4   4   77.49    8.50
  -2   4   4   84.79   11.80
   2   4  -4   88.69    9.20
   0  -4   4  375.46   17.30
   0  -4   4  387.46   17.00
   0  -4   4  385.06   18.50
   0   4   4  414.66   17.00
   0   4  -4  378.06   17.10
   0   4   4  367.66   16.70
   0   4   4  361.86   17.60
   2  -4   4  249.18   15.90
  -2  -4  -4  236.28   15.80
   2  -4   4  281.37   16.90
   2   4   4  242.28   17.10
   2   4   4  226.08   15.10
   2   4   4  229.88   15.80
  -2   4  -4  209.78   16.00
  -4  -4  -4  108.29   13.80
   4  -4   4   98.59   14.30
  -4   4  -4   93.79   14.40
   4   4   4  103.09   14.10
  -6  -4  -4   53.89   15.10
   6  -4   4   48.40   14.00
   6   4   4   82.39   15.50
  -6   4  -4   43.20   14.50
  -8  -4  -4   -7.60   20.00
   8   4   4   -4.30   14.80
  -8   4  -4  -44.40   20.20
  -9  -5   4  -13.40   15.60
  -9  -5   4   -8.10   16.10
  -9  -5   4    3.00   15.70
  -9   5   4   -0.60   17.10
  -7  -5   4  101.79   15.80
  -7  -5   4   84.09   16.50
  -7  -5   4   90.09   15.10
  -7   5   4   72.29   16.80
  -7   5   4  130.59   19.50
  -5  -5   4  260.77   18.20
  -5  -5   4  272.77   10.00
  -5  -5   4  261.37   10.30
  -5  -5   4  295.87   18.00
  -5  -5   4  280.67   21.00
  -5  -5   4  312.87   18.50
   5   5  -4  285.27   10.50
  -5   5   4  253.97   19.10
  -3  -5   4    3.00   10.00
  -3  -5   4    8.10    7.90
  -3  -5   4   25.30    7.40
  -3  -5   4   12.60    6.50
   3  -5  -4    7.30    6.40
   3   5  -4    6.80    6.80
  -3   5   4   22.80    6.90
  -3   5   4   18.00    5.40
  -3   5   4   10.70   10.40
  -1  -5   4  159.78   13.60
  -1  -5   4  164.38   12.70
  -1  -5   4  155.98   12.50
  -1  -5   4  147.19   11.70
   1  -5  -4  170.58   11.70
  -1   5   4  163.98   13.80
  -1   5   4  152.68   11.60
   1   5  -4  159.28   12.10
  -1   5   4  152.18   11.70
   1  -5   4   74.29   10.30
   1  -5   4   80.19   11.40
   1  -5   4   76.29   10.90
  -1  -5  -4   78.49   10.90
  -1   5  -4   59.69   10.80
   1   5   4   74.69   11.20
   1   5   4   76.89   11.10
   1   5   4   51.09    9.90
   3  -5   4  194.28   16.30
  -3  -5  -4  214.68   17.20
   3   5   4  226.98   15.80
   3   5   4  234.88   16.90
  -3   5  -4  234.28   17.50
  -5  -5  -4  270.47   21.50
   5  -5   4  268.77   19.80
  -5   5  -4  260.67   20.10
   5   5   4  274.67   20.40
   7  -5   4   -4.40   12.60
  -7  -5  -4  -13.30   18.30
   7   5   4    0.30   13.40
  -8  -6   4  140.29   18.80
  -8  -6   4   99.89   18.20
  -8  -6   4  100.99   17.10
  -8   6   4   82.19   19.50
  -8   6   4  107.69   20.20
  -6  -6   4  -11.50    8.70
  -6  -6   4    8.10   12.80
  -6  -6   4   -1.30   11.10
  -6  -6   4   24.70   11.70
  -6   6   4    6.50   13.00
  -4  -6   4   37.60   11.30
   4  -6  -4   25.90    5.40
   4  -6  -4   24.90    7.20
  -4  -6   4   28.90    9.60
  -4  -6   4   28.80   11.40
  -4  -6   4   32.50    7.90
  -4   6   4   36.30    6.50
  -4   6   4   13.30   11.60
   4   6  -4   27.20    7.90
  -4   6   4   20.80    6.00
  -2  -6   4  337.07   17.30
  -2  -6   4  324.57   14.90
  -2  -6   4  296.47   14.50
  -2  -6   4  321.57   17.70
   2  -6  -4  283.07   13.50
  -2   6   4  297.07   14.20
  -2   6   4  304.67   14.20
  -2   6   4  332.57   18.10
   2   6  -4  318.87   15.00
   0  -6  -4 1405.86   38.10
   0  -6   4 1464.15   38.70
   0  -6   4 1467.55   38.00
   0  -6   4 1432.06   38.60
   0   6  -4 1464.05   39.10
   0   6   4 1441.16   38.10
   0   6   4 1433.66   38.30
   0   6   4 1444.36   37.10
   2  -6   4  232.68   16.70
  -2  -6  -4  250.07   16.90
   2  -6   4  228.98   16.50
  -2   6  -4  254.37   17.30
   2   6   4  250.97   16.00
   2   6   4  262.87   16.70
   4  -6   4   18.50   11.60
   4  -6   4   32.20   10.80
   4   6   4    5.40   10.30
  -4   6  -4   23.10   12.40
   4   6   4   45.90   12.10
   6  -6   4   36.10   12.10
   6  -6   4   33.00   13.90
  -6  -6  -4   54.19   14.80
   6   6   4   34.80   13.70
  -6   6  -4   15.30   13.70
  -8  -6  -4  160.18   26.60
   8  -6   4  144.19   17.60
  -8   6  -4   89.99   23.70
  -9  -7   4   65.79   18.60
  -9  -7   4   60.19   18.70
  -9   7   4   50.79   20.70
  -7  -7   4   -2.20   13.10
  -7  -7   4   12.60   13.10
  -7  -7   4   -3.40   12.00
  -7   7   4    1.30   14.70
  -5  -7   4   17.20    9.90
  -5  -7   4   22.80   11.20
   5  -7  -4    6.30    5.10
  -5  -7   4   12.50    7.10
  -5  -7   4    2.40   11.70
  -5  -7   4    6.50   10.00
  -5   7   4   20.40    5.40
  -5   7   4   31.10   13.20
  -3  -7   4   48.10   11.40
   3  -7  -4   26.90    6.80
  -3  -7   4   37.80    9.90
  -3  -7   4   35.50    8.70
  -3  -7   4   49.00    8.30
   3   7  -4   28.40    8.90
  -3   7   4   45.90   11.90
  -3   7   4   40.30    8.20
  -3   7   4   44.60    7.80
  -1  -7   4   24.20    8.60
  -1  -7   4   18.00    9.00
   1  -7  -4   25.10    8.30
  -1  -7   4   19.00   10.10
  -1  -7   4   25.00    9.20
  -1   7   4   33.00   10.50
   1   7  -4   28.20    9.50
  -1   7   4    5.70    7.60
  -1   7   4   14.50    8.30
  -1  -7  -4  151.48   14.10
   1  -7   4  141.79   13.50
   1  -7   4  152.38   14.00
   1  -7   4  164.18   14.40
  -1   7  -4  140.19   14.20
   1   7   4  137.69   12.90
   1   7   4  152.18   13.60
   1   7   4  157.78   14.50
   3  -7   4   21.30   10.00
  -3  -7  -4   38.00   11.60
   3  -7   4   25.50   11.20
  -3   7  -4   37.60   12.50
   3   7   4   17.30   10.20
   3   7   4   27.80   11.10
  -5  -7  -4   59.29   14.10
   5  -7   4   51.49   13.80
   5  -7   4   74.49   13.00
   5   7   4   51.89   11.70
   5   7   4   50.49   13.50
  -5   7  -4   57.29   15.00
  -7  -7  -4   -5.60   18.40
   7  -7   4   -5.60   13.10
   7  -7   4   18.10   12.20
   7   7   4    2.60   14.40
  -8  -8   4    4.80   15.30
  -8  -8   4   20.90   15.00
  -8   8   4   -5.30   18.00
  -6  -8   4  251.77   17.90
  -6  -8   4  253.97   22.20
  -6  -8   4  312.27   20.30
  -6  -8   4  280.37   12.70
  -6  -8   4  273.87   18.20
  -6   8   4  306.77   23.00
  -4  -8   4    7.60   10.80
  -4  -8   4    8.30    8.50
  -4  -8   4   -1.30    9.90
  -4  -8   4   17.10   11.50
  -4   8   4    6.80    7.10
  -4   8   4   10.80   11.80
   2  -8  -4  316.87   15.00
  -2  -8   4  341.67   16.50
  -2  -8   4  332.17   16.60
  -2  -8   4  327.47   17.50
  -2  -8   4  339.17   19.40
   2   8  -4  291.17   16.20
  -2   8   4  351.76   15.80
  -2   8   4  296.37   18.40
  -2   8   4  341.87   15.40
   0  -8  -4  235.08   15.90
   0  -8   4  299.77   16.70
   0  -8   4  245.68   18.20
   0  -8   4  247.38   15.70
   0   8   4  264.47   16.20
   0   8  -4  272.77   16.50
   0   8   4  263.47   15.50
   0   8   4  272.97   16.80
   2  -8   4   -2.30    9.80
  -2  -8  -4   -4.10    9.50
   2  -8   4   -4.20    8.50
   2   8   4   -6.80    8.90
  -2   8  -4    1.20   10.90
   2   8   4   -4.10    9.20
   4  -8   4  419.96   23.20
   4  -8   4  411.36   21.80
  -4  -8  -4  440.06   23.70
   4   8   4  407.76   18.20
  -4   8  -4  438.06   23.60
   4   8   4  387.36   22.60
   6  -8   4   80.39   16.20
  -6  -8  -4   33.10   14.40
   6  -8   4   49.80   13.50
   6   8   4   61.69   14.90
  -6   8  -4   49.90   15.70
   6   8   4   64.09   12.80
  -8  -8  -4  125.19   25.40
   8  -8   4  110.69   17.20
  -8   8  -4   36.60   21.90
  -7  -9   4  114.69   18.70
  -7  -9   4  164.08   16.20
  -7  -9   4  143.59   16.50
  -7   9   4  127.49   20.30
  -5  -9   4  398.36   23.70
  -5  -9   4  374.46   26.10
  -5  -9   4  398.46   17.20
  -5  -9   4  363.46   19.90
  -5   9   4  384.66   23.90
  -5   9   4  400.76   14.40
   3  -9  -4  163.98   12.00
  -3  -9   4  161.08   14.60
  -3  -9   4  171.98   12.90
  -3  -9   4  160.78   15.30
  -3  -9   4  160.18   13.70
  -3   9   4  175.18   16.60
   3   9  -4  163.48   14.20
  -3   9   4  196.18   12.60
  -1  -9   4  263.87   18.50
  -1  -9   4  230.28   16.00
  -1  -9   4  223.68   15.00
   1  -9  -4  234.78   14.90
  -1   9   4  209.48   16.30
  -1   9   4  186.18   14.60
  -1   9   4  218.58   15.30
   1   9  -4  220.68   15.20
   1  -9   4   11.20    9.40
   1  -9   4   16.10   10.00
  -1  -9  -4   21.20   10.10
   1   9   4   29.20   10.10
  -1   9  -4   35.10   11.60
   1   9   4   36.90   11.00
   1   9   4   25.20   10.20
   3  -9   4  170.58   16.90
   3  -9   4  142.19   15.20
  -3  -9  -4  150.98   16.50
   3   9   4  135.59   15.60
  -3   9  -4  164.78   17.50
   3   9   4  168.28   13.60
  -5  -9  -4  360.16   23.40
   5  -9   4  319.67   22.00
   5  -9   4  323.57   22.40
   5   9   4  306.97   22.10
   5   9   4  292.17   16.80
  -5   9  -4  326.37   23.30
  -7  -9  -4    0.80   20.40
   7  -9   4   43.50   14.20
   7  -9   4   26.40   15.20
   7   9   4   18.70   14.70
  -8 -10   4   88.39   18.00
  -6 -10   4  150.88   16.50
  -6 -10   4  127.99   11.60
  -6 -10   4  117.69   18.40
  -6 -10   4  142.39   14.30
  -6  10   4  112.39   19.10
  -6  10   4  144.89    9.90
  -4 -10   4  739.53   32.40
  -4 -10   4  735.23   25.70
  -4 -10   4  745.93   30.20
  -4 -10   4  729.13   25.50
  -4  10   4  759.02   23.20
  -4  10   4  695.93   28.50
  -2 -10   4   95.39   11.50
  -2 -10   4   92.89   13.00
  -2 -10   4   91.29   12.90
  -2 -10   4   75.39   11.50
   2 -10  -4   85.19   10.80
  -2  10   4   85.29   13.20
   2  10  -4   79.49   12.80
  -2  10   4   89.59   11.50
  -2  10   4   91.89   11.50
   0 -10   4  107.79   13.10
   0 -10   4   94.99   12.90
   0 -10  -4   84.19   12.10
   0 -10   4  113.99   14.00
   0  10  -4  100.79   14.00
   0  10   4  117.99   13.40
   0  10   4   97.49   13.00
   0  10   4   94.09   12.40
   2 -10   4  133.49   14.40
  -2 -10  -4  141.79   15.90
   2 -10   4  166.28   16.50
   2  10   4  152.58   15.70
  -2  10  -4  168.18   17.10
   2  10   4  163.88   14.40
  -4 -10  -4  233.98   20.50
   4 -10   4  205.68   17.90
   4 -10   4  247.28   20.30
  -4  10  -4  192.08   19.50
   4  10   4  242.98   15.00
   4  10   4  246.18   20.40
   6 -10   4  271.87   20.80
  -6 -10  -4  268.27   23.00
   6 -10   4  245.48   22.30
  -6 -10  -4  242.38   26.90
   6  10   4  229.18   22.10
  -7 -11   4  156.98   21.10
  -7  11   4  177.68   23.70
  -5 -11   4  366.66   18.40
  -5 -11   4  347.47   24.90
  -5 -11   4  335.07   23.90
  -5 -11   4  379.16   19.60
  -5  11   4  349.37   24.50
  -5  11   4  382.86   16.50
  -3 -11   4   65.19   13.60
  -3 -11   4   84.49   13.20
  -3 -11   4   74.39   12.60
  -3  11   4   75.99   11.20
   3  11  -4   90.89   13.00
  -3  11   4   67.19   13.80
   1 -11  -4  362.26   19.10
  -1 -11   4  421.46   20.90
  -1 -11   4  356.16   19.40
  -1 -11   4  338.97   21.50
  -1  11   4  408.96   19.70
  -1  11   4  389.46   19.10
  -1  11   4  398.56   20.20
   1  11  -4  384.56   20.00
  -1 -11  -4  104.19   14.20
   1 -11   4  126.29   15.20
   1 -11   4  113.29   14.60
  -1  11  -4  131.59   16.10
   1  11   4   78.29   13.30
   1  11   4  129.09   13.30
   3 -11   4  471.75   24.50
  -3 -11  -4  469.35   24.40
   3 -11   4  446.16   23.30
   3  11   4  449.46   18.90
  -3  11  -4  454.05   24.90
   3  11   4  419.96   23.40
   5 -11   4  259.17   21.90
  -5 -11  -4  264.67   22.50
   5 -11   4  222.78   19.70
  -5 -11  -4  194.78   24.80
   5  11   4  237.08   21.70
  -5  11  -4  240.98   21.90
   7 -11   4  -18.10   13.80
   7 -11   4   -7.90   12.50
  -7 -11  -4  -15.20   18.10
  -8 -12   4   38.10   18.10
  -6 -12   4    3.70   10.20
  -6 -12   4   -2.90   12.90
  -6 -12   4   -9.90   14.40
  -6  12   4   18.40   16.60
  -6  12   4   15.30    8.90
  -4 -12   4   26.20   13.20
  -4 -12   4   43.30   11.30
  -4 -12   4   18.40   12.10
  -4 -12   4   13.60   13.50
  -4  12   4   44.50   14.70
  -4  12   4   46.40   10.80
  -2 -12   4  123.79   14.60
   2 -12  -4  157.68   14.40
  -2 -12   4  121.69   14.50
  -2 -12   4  117.19   15.50
   2  12  -4  142.89   15.60
  -2  12   4  142.09   14.20
  -2  12   4  150.88   16.00
   0 -12   4  278.27   19.50
   0 -12   4  240.38   18.80
   0 -12  -4  257.17   18.60
   0  12  -4  234.48   19.10
   0  12   4  264.07   16.80
   0  12   4  248.68   18.10
   2 -12   4   79.79   14.80
  -2 -12  -4   91.49   14.70
   2 -12   4   57.39   13.00
   2  12   4   80.59   13.60
   2  12   4   99.89   12.70
  -2  12  -4   63.99   14.90
   4 -12   4   35.00   14.00
   4 -12   4   18.90   11.60
  -4 -12  -4   17.10   12.80
  -4  12  -4   -0.20   13.30
   4  12   4   11.10   12.70
   6 -12   4   56.09   16.40
   6 -12   4   43.10   14.20
  -6 -12  -4   42.80   21.60
   6  12   4   47.60   15.90
  -7 -13   4   69.39   12.40
  -7 -13   4   68.69   18.60
  -5 -13   4   34.70   15.30
  -5 -13   4   45.60   14.70
  -5 -13   4   42.70   11.60
  -5  13   4   38.30   16.30
  -5  13   4   54.09   11.40
  -3 -13   4  102.29   13.80
  -3 -13   4   83.89   13.80
  -3 -13   4  107.79   16.50
  -3  13   4   77.39   14.90
  -3  13   4   79.79   13.30
  -1 -13   4  431.46   24.50
   1 -13  -4  402.46   20.90
  -1 -13   4  388.96   21.50
  -1  13   4  448.16   22.10
   1  13  -4  417.86   22.70
  -1  13   4  437.06   21.40
   1 -13   4  157.88   16.80
   1 -13   4  170.48   17.20
  -1 -13  -4  170.78   17.50
  -1  13  -4  193.48   18.40
   1  13   4  195.78   15.00
   1  13   4  153.68   16.60
   3 -13   4   78.59   14.70
   3 -13   4   73.09   15.70
  -3 -13  -4   77.99   15.50
  -3  13  -4   54.39   15.60
   3  13   4  104.79   15.90
   5 -13   4   24.00   13.40
  -5 -13  -4   -8.20   18.30
  -5 -13  -4    4.70   14.10
   5 -13   4   -2.80   13.80
   5  13   4   47.30   15.20
  -5  13  -4   27.30   15.90
  -6 -14   4  174.28   20.20
  -6 -14   4  159.88   16.30
  -6 -14   4  175.68   22.50
  -6  14   4  200.78   15.60
  -4 -14   4  211.78   21.20
  -4 -14   4  243.48   21.90
  -4 -14   4  246.28   17.60
  -4 -14   4  190.98   17.50
  -4  14   4  255.27   22.40
  -4  14   4  235.88   17.30
  -2 -14   4   75.89   13.50
  -2 -14   4   78.79   14.40
  -2 -14   4   79.79   15.80
  -2  14   4   55.49   13.50
   2  14  -4   67.69   15.00
  -2  14   4   92.19   15.30
   0 -14   4  124.29   16.20
   0 -14   4  145.89   16.40
   0 -14  -4  142.69   16.80
   0  14  -4  118.79   16.90
   0  14   4  144.39   15.00
   0  14   4  145.59   16.70
   2 -14   4   18.40   12.50
   2 -14   4   33.90   12.70
  -2 -14  -4   22.80   13.20
  -2  14  -4   14.80   13.80
   2  14   4   31.20   11.00
   2  14   4   13.70   12.10
   4 -14   4  190.38   20.00
  -4 -14  -4  243.08   22.90
  -4 -14  -4  206.48   24.00
   4 -14   4  260.17   23.10
  -4  14  -4  242.28   23.30
   4  14   4  248.48   22.80
  -6 -14  -4  127.69   25.10
   6 -14   4  137.69   18.50
  -7 -15   4   47.00   18.60
  -5 -15   4  -12.30   14.70
  -5 -15   4   31.50   12.90
  -5 -15   4   24.50   15.70
  -5  15   4  -15.50   16.40
  -5  15   4    1.90   11.70
  -3 -15   4   44.60   12.80
  -3 -15   4   34.30   15.20
  -3 -15   4   10.80   11.70
  -3  15   4   19.30   12.00
  -3  15   4   34.80   15.50
   1 -15  -4   87.69   14.50
  -1 -15   4  105.99   17.20
  -1 -15   4   89.39   15.10
  -1  15   4   88.79   14.70
  -1  15   4  112.39   15.20
   1  15  -4  115.49   16.80
   1 -15   4   96.09   16.00
  -1 -15  -4   88.69   15.70
   1 -15   4   43.70   14.30
   1  15   4  100.49   13.40
  -1  15  -4   82.29   16.40
   1  15   4   88.59   15.30
   3 -15   4    4.60   13.70
   3 -15   4   14.50   13.10
  -3 -15  -4  -25.30   15.70
  -3 -15  -4   15.30   13.90
   3  15   4   22.40   13.60
  -3  15  -4    5.00   14.70
  -5 -15  -4   10.70   20.10
   5 -15   4   29.10   14.90
  -6 -16   4  471.75   32.10
  -6  16   4  435.56   22.70
  -4 -16   4  236.08   22.70
  -4 -16   4  252.57   22.40
  -4  16   4  290.97   24.30
  -4  16   4  300.27   19.80
  -2 -16   4   -1.50   13.50
  -2 -16   4   -7.50   12.90
  -2 -16   4  -14.30   11.50
  -2  16   4   -8.10   10.90
  -2  16   4   -7.70   13.70
   0 -16   4   21.40   13.30
   0 -16   4   12.80   13.80
   0 -16  -4   39.40   13.30
   0  16   4   20.90   12.10
   0  16   4   -2.70   12.90
   0  16  -4   13.00   14.20
  -2 -16  -4  138.09   19.20
  -2 -16  -4   98.99   19.80
   2 -16   4  154.78   18.90
   2 -16   4  107.49   17.80
  -2  16  -4  140.89   19.90
   2  16   4  120.49   18.30
  -4 -16  -4  519.45   30.80
   4 -16   4  527.05   29.10
  -4 -16  -4  516.75   37.00
  -5 -17   4   51.99   18.60
  -5 -17   4   81.79   18.70
  -3 -17   4    2.50   14.70
  -3  17   4   -2.70   12.60
  -3  17   4    8.90   15.50
  -1 -17   4   54.89   15.30
  -1 -17   4  121.49   19.20
  -1  17   4  127.39   17.70
  -1  17   4  101.89   16.10
   1  17  -4   61.59   16.70
  -1 -17  -4   82.79   18.30
   1 -17   4  101.19   18.60
  -1 -17  -4  149.69   19.00
   1 -17   4  129.49   18.90
   1  17   4  128.49   17.90
  -1  17  -4  151.18   20.40
  -3 -17  -4   12.00   15.40
  -3 -17  -4   20.30   19.80
   3 -17   4   56.89   16.30
  -3  17  -4   56.19   18.10
  -4 -18   4   60.69   17.10
  -4 -18   4   52.09   18.30
  -2 -18   4   33.60   16.80
  -2 -18   4    0.70   13.10
  -2  18   4   34.70   16.10
   0 -18   4    2.50   14.40
   0  18  -4  -12.70   15.40
   0  18   4    2.70   13.90
  -2 -18  -4  -13.30   17.00
  -2 -18  -4    8.50   15.30
   2 -18   4   14.80   15.20
  -2  18  -4    7.80   16.70
  -4 -18  -4    8.40   20.00
   4 -18   4   21.50   15.60
  -3 -19   4   23.10   17.10
  -1 -19   4  255.67   25.10
  -1  19   4  295.37   22.60
  -1 -19  -4  180.08   22.10
   1 -19   4  150.28   21.80
  -1  19  -4  141.69   22.40
  -3 -19  -4  -26.70   18.80
   3 -19   4   10.80   16.20
  -2 -20   4   42.70   18.10
   0 -20   4   29.70   17.20
   2 -20   4   29.80   17.90
  -2 -20  -4   37.30   19.90
  -1 -21   4   54.19   19.60
  -8   0   5  525.15   31.40
  -6   0   5   46.80   14.80
  -4   0   5  167.58    9.60
  -4   0   5  190.78   17.80
  -4   0   5  203.58   12.70
   2   0  -5    7.00    7.90
  -2   0   5   18.30   11.60
  -2   0   5    9.40    7.20
  -2   0   5    5.60    7.90
  -2   0   5   13.90    8.30
   0   0   5 1113.89   33.00
   0   0   5 1115.99   33.80
   0   0   5 1121.29   33.60
   0   0  -5 1085.59   32.70
  -2   0  -5  577.04   24.60
   2   0   5  508.95   23.80
   4   0   5  189.48   19.20
  -4   0  -5  157.08   18.40
  -6   0  -5  201.48   22.30
   6   0   5  172.58   20.90
  -7  -1   5   -8.80   14.60
  -7   1   5    0.40   15.30
  -5  -1   5   68.99   14.40
  -5   1   5   50.09   14.00
  -3  -1   5  178.48   16.60
  -3  -1   5  181.28   12.80
  -3  -1   5  167.98   11.90
  -3   1   5  147.99   16.00
  -3   1   5  177.38   12.10
  -3   1   5  167.88   11.40
  -1  -1   5  173.68   13.80
   1  -1  -5  205.48   14.20
  -1  -1   5  189.28   13.90
  -1  -1   5  160.68   13.70
  -1  -1   5  180.48   16.60
  -1   1   5  164.08   13.70
   1   1  -5  191.78   13.80
  -1   1   5  169.78   13.20
  -1   1   5  174.88   16.20
   1  -1   5    7.30   11.70
   1  -1   5   22.70   10.20
   1  -1   5   37.70   10.80
  -1  -1  -5   25.40   11.30
  -1   1  -5   25.70   10.80
   1   1   5   13.60   10.50
   1   1   5    0.60   11.20
   1   1   5   14.80   10.20
  -3  -1  -5   16.20   12.50
   3  -1   5   10.70   11.40
  -3   1  -5  -17.80   11.30
   3   1   5    0.30   11.00
  -5  -1  -5   52.49   15.80
   5  -1   5   91.19   16.30
  -5   1  -5  104.49   17.70
   5   1   5   90.09   16.40
  -8  -2   5  141.99   20.70
  -8  -2   5  168.48   22.90
  -8   2   5  138.29   21.00
  -6  -2   5   17.40   13.20
  -6   2   5   21.60   14.50
  -4  -2   5  105.89    8.80
  -4  -2   5  135.99   15.60
  -4  -2   5  130.29   11.90
  -4   2   5  122.99   16.10
  -4   2   5  105.09    8.20
  -2  -2   5   58.49   10.40
  -2  -2   5   43.50   12.70
  -2  -2   5   58.89    8.80
  -2  -2   5   58.89    9.90
   2  -2  -5   49.90    9.10
  -2   2   5   67.09   10.10
  -2   2   5   70.19    9.00
   2   2  -5   80.99   10.20
  -2   2   5   49.30   12.80
   0  -2  -5  317.87   17.50
   0  -2   5  348.27   20.50
   0  -2   5  302.57   17.00
   0  -2   5  301.57   18.00
   0  -2   5  345.17   19.00
   0   2   5  338.27   19.90
   0   2   5  335.17   17.30
   0   2  -5  333.57   17.50
   0   2   5  305.77   17.90
  -2  -2  -5  523.95   24.10
   2  -2   5  542.05   23.60
   2   2   5  458.95   22.80
  -2   2  -5  510.75   23.80
   2   2   5  512.65   23.10
   4  -2   5   24.60   12.70
  -4  -2  -5   25.80   13.70
  -4   2  -5   -5.30   12.70
   4   2   5   11.90   12.20
   6  -2   5   74.89   17.00
  -6  -2  -5   71.39   17.50
   6   2   5   79.49   17.30
  -6   2  -5   63.89   17.40
  -7  -3   5   28.90   14.60
  -7   3   5   31.10   15.90
  -5  -3   5  520.65   24.40
  -5   3   5  524.85   26.80
  -3  -3   5  584.14   23.10
  -3  -3   5  548.95   19.30
  -3  -3   5  523.15   25.10
  -3   3   5  585.14   19.40
  -3   3   5  612.54   20.20
  -3   3   5  542.55   24.70
  -1  -3   5  278.97   18.90
  -1  -3   5  317.17   16.50
  -1  -3   5  287.87   16.30
   1  -3  -5  280.57   16.10
  -1  -3   5  281.57   18.90
  -1   3   5  320.87   15.90
   1   3  -5  309.97   16.50
  -1   3   5  284.87   15.90
  -1   3   5  268.17   19.20
   1  -3   5   36.50   10.70
   1  -3   5   36.70   10.50
   1  -3   5   37.80   11.10
  -1  -3  -5   34.60   11.10
   1   3   5   24.30   11.90
   1   3   5   50.69   11.40
   1   3   5   41.10   10.80
  -1   3  -5   40.80   11.50
  -3  -3  -5   -7.50   11.60
   3  -3   5   11.90   11.20
   3   3   5    7.90   12.70
   3   3   5  -12.40   10.40
  -3   3  -5  -21.40   11.00
  -5  -3  -5  302.37   23.40
   5  -3   5  314.37   23.10
   5   3   5  322.37   23.20
  -5   3  -5  316.37   23.30
  -8  -4   5   -8.60   14.70
  -8  -4   5    2.20   16.10
  -8  -4   5   12.60   17.70
  -8   4   5   35.70   17.90
  -6  -4   5   76.39   15.30
  -6   4   5   57.39   15.70
  -4  -4   5   90.09   14.70
  -4  -4   5   73.49   11.50
  -4  -4   5   65.89    8.80
  -4   4   5   76.19    7.90
  -4   4   5   63.49   14.10
  -2  -4   5   61.09   10.80
   2  -4  -5   43.60    9.60
  -2  -4   5   59.69   13.00
  -2  -4   5   68.69   10.20
   2   4  -5   43.60    9.40
  -2   4   5   53.49   10.00
  -2   4   5   58.49   12.90
   0  -4   5  108.19   13.30
   0  -4  -5   91.19   12.50
   0  -4   5  121.19   13.60
   0  -4   5  104.19   15.10
   0  -4   5  107.49   13.20
   0   4  -5  107.49   13.40
   0   4   5  103.89   12.50
   0   4   5  127.79   13.30
   0   4   5  122.49   14.30
  -2  -4  -5   41.90   12.50
   2  -4   5   47.40   12.10
   2  -4   5   24.50   10.60
   2   4   5   25.80   11.80
   2   4   5   44.40   12.00
  -2   4  -5   46.70   13.10
  -4  -4  -5  142.19   17.80
   4  -4   5  144.29   17.30
   4   4   5  151.88   17.40
  -4   4  -5  120.19   17.80
   4   4   5   99.79   16.10
   6  -4   5    0.40   13.70
   6   4   5   22.40   14.50
  -7  -5   5   30.80   15.40
  -7  -5   5    9.00   14.40
  -7   5   5   30.10   16.30
  -5  -5   5   65.89    7.40
  -5  -5   5   99.79   13.00
  -5  -5   5   65.59   14.70
  -5   5   5   68.99   15.20
  -3  -5   5  307.27   21.10
  -3  -5   5  295.47   19.70
  -3  -5   5  308.17   15.60
  -3   5   5  291.37   20.80
  -3   5   5  293.97   14.60
  -1  -5   5    2.30    9.30
  -1  -5   5    5.60    9.30
  -1  -5   5   14.90    8.50
  -1  -5   5    9.10   11.90
   1  -5  -5   10.20    9.00
  -1   5   5    6.20    8.10
  -1   5   5   14.80    9.20
  -1   5   5   14.80   11.00
   1   5  -5   -7.10    9.20
  -1  -5  -5   92.39   13.50
   1  -5   5   87.19   13.10
   1  -5   5   88.49   13.60
   1   5   5  102.99   13.40
   1   5   5   73.89   12.30
   1   5   5   82.59   13.70
  -1   5  -5   82.19   14.00
   3  -5   5   53.99   13.20
  -3  -5  -5   75.49   14.60
   3  -5   5   66.09   12.90
   3   5   5   78.49   13.90
  -3   5  -5   91.29   15.50
   3   5   5  103.99   14.70
  -5  -5  -5  106.09   17.30
   5  -5   5  109.19   17.20
  -5   5  -5  108.99   18.30
   5   5   5  110.49   16.30
   5   5   5   95.99   17.10
  -8  -6   5  294.17   24.30
  -8  -6   5  365.36   28.70
  -8  -6   5  306.57   25.00
  -8   6   5  299.57   28.00
  -6  -6   5  106.09   15.70
  -6   6   5  131.09   18.70
  -4  -6   5   -7.90   11.40
  -4  -6   5   -4.70    8.00
  -4  -6   5   11.10   10.60
  -4   6   5   -4.80    7.10
  -4   6   5   -4.30   11.60
  -2  -6   5  103.49   13.30
   2  -6  -5  118.09   11.80
  -2  -6   5  101.59   14.70
  -2  -6   5   80.49   11.80
  -2   6   5  113.99   15.70
  -2   6   5  103.99   11.60
   2   6  -5   93.39   12.00
   0  -6   5  245.98   16.80
   0  -6  -5  273.47   17.60
   0  -6   5  264.57   18.90
   0  -6   5  272.77   18.00
   0   6   5  255.67   17.80
   0   6   5  248.18   16.70
   0   6  -5  284.57   17.80
   0   6   5  254.37   18.80
   2  -6   5  397.46   22.10
  -2  -6  -5  461.35   22.80
   2  -6   5  380.66   22.30
   2   6   5  410.66   21.20
  -2   6  -5  436.46   23.10
   2   6   5  399.06   20.40
   4  -6   5  236.88   21.00
  -4  -6  -5  222.38   20.80
   4  -6   5  215.38   18.70
   4   6   5  241.28   18.70
  -4   6  -5  215.88   20.60
   4   6   5  201.48   19.90
   6  -6   5    0.50   14.00
   6  -6   5   12.30   12.70
   6   6   5   15.40   15.00
   6   6   5    3.80   13.30
  -7  -7   5   34.40   14.70
  -7  -7   5   28.30   14.70
  -7   7   5   58.59   18.20
  -5  -7   5  154.08   15.90
  -5  -7   5  114.89   16.50
  -5  -7   5  185.18   12.70
  -5   7   5  146.89   18.30
  -3  -7   5   -2.70   12.20
  -3  -7   5   -6.10   10.00
  -3  -7   5   15.80    9.30
  -3   7   5   13.40   12.50
  -3   7   5    2.90    8.30
   1  -7  -5   -2.90    8.30
  -1  -7   5   14.00   12.20
  -1  -7   5    6.50    9.90
  -1  -7   5   -1.10    9.10
   1   7  -5   -1.50   10.00
  -1   7   5  -13.30   11.70
  -1   7   5   12.50    8.80
   1  -7   5  103.09   14.20
   1  -7   5   73.19   13.00
  -1  -7  -5  117.89   14.30
   1   7   5   91.99   13.30
   1   7   5   98.09   14.80
  -1   7  -5   96.09   14.50
  -3  -7  -5   97.79   15.50
   3  -7   5   90.89   14.20
   3  -7   5   71.79   14.40
   3   7   5  107.19   15.10
   3   7   5   91.39   14.50
  -3   7  -5   66.49   15.20
  -5  -7  -5  174.38   20.60
   5  -7   5  166.28   18.40
   5  -7   5  163.58   19.70
   5   7   5  175.18   20.00
  -5   7  -5  180.98   21.10
   5   7   5  149.69   16.80
  -8  -8   5   72.29   19.60
  -8  -8   5   90.99   17.30
  -8   8   5   68.09   20.80
  -6  -8   5    7.50   14.30
  -6  -8   5   -7.30   11.20
  -6  -8   5  -11.80   12.50
  -6   8   5   24.50   15.30
  -4  -8   5  282.57   20.00
  -4  -8   5  287.77   19.70
  -4  -8   5  286.17   17.00
  -4   8   5  291.67   22.30
  -4   8   5  303.27   14.70
  -2  -8   5   10.00   10.70
  -2  -8   5   10.20   10.50
  -2  -8   5    3.50   12.40
  -2   8   5  -28.00   10.90
  -2   8   5    2.70    9.20
   0  -8   5  104.59   14.20
   0  -8   5  109.59   14.30
   0  -8   5  112.99   13.90
   0  -8  -5   89.19   13.10
   0   8   5   99.89   14.40
   0   8   5  114.49   14.00
   0   8  -5   98.69   14.50
  -2  -8  -5  315.07   20.40
   2  -8   5  292.27   20.50
   2  -8   5  263.37   19.60
   2   8   5  251.77   18.50
   2   8   5  283.77   19.30
  -2   8  -5  263.37   21.40
  -4  -8  -5   21.80   13.70
   4  -8   5   -9.30   11.70
   4  -8   5    8.60   12.90
   4   8   5   16.90   12.00
  -4   8  -5    8.00   13.40
   4   8   5    6.50   12.20
   6  -8   5  216.08   21.70
  -7  -9   5   26.00   14.10
  -7  -9   5   44.40   17.40
  -7   9   5  -10.60   16.30
  -5  -9   5  247.28   20.10
  -5  -9   5  280.97   16.40
  -5  -9   5  259.77   20.30
  -5   9   5  299.87   13.20
  -5   9   5  320.47   24.20
  -3  -9   5  439.86   23.60
  -3  -9   5  454.35   25.50
  -3  -9   5  445.56   20.90
  -3   9   5  459.55   24.00
  -3   9   5  441.36   19.40
  -1  -9   5  284.27   20.00
  -1  -9   5  329.57   19.30
   1  -9  -5  308.77   18.20
  -1  -9   5  320.37   22.10
  -1   9   5  286.67   17.70
  -1   9   5  278.27   19.10
   1   9  -5  286.87   19.20
  -1  -9  -5   55.59   13.30
   1  -9   5   56.59   12.50
   1  -9   5   61.09   13.10
   1   9   5   53.59   12.70
   1   9   5   83.79   13.90
  -1   9  -5   58.39   13.70
   3  -9   5   -4.60   11.70
  -3  -9  -5    6.50   12.20
   3  -9   5    1.60   11.30
  -3   9  -5   16.90   14.00
   3   9   5    3.10   11.50
   3   9   5   -3.90   11.20
   5  -9   5  163.98   20.20
  -5  -9  -5  182.28   21.10
   5  -9   5  154.98   18.80
  -5   9  -5  183.28   22.10
   5   9   5  158.48   17.00
   5   9   5  178.08   20.00
  -6 -10   5   51.39   14.90
  -6 -10   5   25.50   14.10
  -6 -10   5   41.10   15.10
  -6  10   5   45.70   17.30
  -4 -10   5  127.19   14.30
  -4 -10   5  157.88   18.00
  -4 -10   5  128.49   17.20
  -4  10   5  156.38   18.20
  -4  10   5  147.39   12.60
  -2 -10   5  332.97   19.50
  -2 -10   5  334.27   22.30
  -2 -10   5  327.17   21.50
  -2  10   5  329.67   21.80
  -2  10   5  330.17   18.20
   0 -10   5  132.99   16.20
   0 -10   5   89.99   15.00
   0 -10  -5  146.19   15.50
   0  10  -5  103.09   15.60
   0  10   5  114.19   15.70
   0  10   5  133.69   14.80
   2 -10   5    1.00   10.90
  -2 -10  -5   18.30   12.20
   2 -10   5   17.60   12.10
   2  10   5   10.90   11.40
  -2  10  -5   12.80   13.40
   2  10   5   -0.80   10.70
   4 -10   5   47.10   14.40
   4 -10   5   61.09   15.40
  -4 -10  -5   79.89   16.20
   4  10   5   37.40   14.40
  -4  10  -5   79.89   17.20
   4  10   5   73.29   14.10
   6 -10   5   30.50   15.00
  -7 -11   5   15.70   17.70
  -7  11   5   20.00   18.50
  -5 -11   5   99.69   12.90
  -5 -11   5   72.49   15.90
  -5 -11   5   98.09   16.70
  -5  11   5   86.29   10.90
  -5  11   5   86.49   17.80
  -3 -11   5  393.76   22.80
  -3 -11   5  395.96   21.70
  -3 -11   5  422.46   26.70
  -3  11   5  422.06   19.70
  -3  11   5  382.66   23.60
  -1 -11   5    1.90   13.60
  -1 -11   5   21.80   12.40
  -1 -11   5   47.00   12.20
  -1  11   5   24.10   10.70
   1  11  -5   35.20   12.40
  -1  11   5   32.70   12.80
  -1 -11  -5  301.27   21.10
   1 -11   5  323.07   21.30
   1 -11   5  314.37   22.60
  -1  11  -5  325.87   21.80
   1  11   5  276.87   19.00
   1  11   5  256.47   19.40
   3 -11   5  107.99   16.00
  -3 -11  -5  111.89   17.00
   3 -11   5  107.69   17.10
   3  11   5  111.29   16.80
  -3  11  -5  137.39   19.10
   3  11   5  141.09   15.80
   5 -11   5  116.49   18.30
  -6 -12   5    8.50   15.00
  -6 -12   5   37.00   18.10
  -6 -12   5   37.20   11.50
  -6  12   5   40.30   19.00
  -4 -12   5  -28.50   12.80
  -4 -12   5   10.10   14.10
  -4 -12   5   -1.00   11.20
  -4  12   5   -0.90   14.00
  -4  12   5   13.10   10.30
  -2 -12   5   -7.10   12.50
  -2 -12   5    2.90   12.80
  -2 -12   5    4.30   10.70
  -2  12   5  -11.90    9.70
  -2  12   5    0.50   13.60
   0 -12  -5   73.99   14.60
   0 -12   5   76.49   15.20
   0 -12   5   81.39   15.00
   0  12  -5   70.29   15.70
   0  12   5   98.09   15.30
   0  12   5  110.09   15.20
   2 -12   5   80.09   15.20
  -2 -12  -5   93.09   16.30
   2 -12   5   70.39   15.40
  -2  12  -5  105.49   17.20
   2  12   5   64.09   15.30
   2  12   5   79.49   14.00
  -4 -12  -5   56.69   16.40
   4 -12   5   45.20   14.60
  -4  12  -5   46.40   16.80
  -5 -13   5    9.80   15.20
  -5 -13   5   25.90   14.30
  -5 -13   5   -4.00   11.70
  -5  13   5   -4.90   10.00
  -5  13   5   -6.30   16.20
  -3 -13   5   44.60   14.80
  -3 -13   5   40.00   13.30
  -3 -13   5   59.99   16.10
  -3  13   5   63.99   12.30
  -3  13   5   54.99   15.50
  -1 -13   5  105.09   17.40
  -1 -13   5  161.08   17.00
  -1  13   5  115.19   15.80
  -1  13   5  113.39   14.90
   1 -13   5  444.86   26.80
   1 -13   5  409.76   24.20
  -1 -13  -5  383.26   23.70
   1  13   5  376.16   20.70
  -1  13  -5  415.56   25.20
   1  13   5  398.76   23.40
  -3 -13  -5  185.58   21.60
   3 -13   5  183.68   20.00
  -3  13  -5  211.68   22.50
  -5 -13  -5  -37.10   20.80
   5 -13   5  -10.60   13.30
  -6 -14   5  -37.70   14.50
  -6 -14   5    6.10   16.90
  -6  14   5   -2.30   19.20
  -4 -14   5  152.58   17.70
  -4 -14   5  176.78   18.50
  -4 -14   5  240.68   23.60
  -4  14   5  208.48   17.40
  -4  14   5  168.18   20.50
  -2 -14   5  118.79   17.50
  -2 -14   5  104.99   18.40
  -2 -14   5  147.89   17.70
  -2  14   5  148.59   18.40
  -2  14   5  136.69   16.20
   0 -14   5    3.00   13.10
   0 -14   5  -15.40   12.60
   0  14   5    3.70   11.50
   0  14  -5   25.40   15.50
   0  14   5   25.00   13.60
   2 -14   5  242.88   22.50
  -2 -14  -5  260.67   22.80
   2  14   5  293.67   18.30
  -2  14  -5  239.88   23.60
   4 -14   5   -4.80   14.00
  -5 -15   5   43.50   17.90
  -5  15   5   84.39   20.60
  -5  15   5   77.39   13.80
  -3 -15   5   19.70   14.50
  -3 -15   5   19.10   16.30
  -3  15   5   35.70   15.70
  -3  15   5   18.90   12.10
  -1 -15   5   46.30   16.10
  -1  15   5   29.70   14.50
   1 -15   5  140.49   19.00
   1  15   5  119.89   15.70
  -1  15  -5  107.39   18.70
   3 -15   5   57.29   16.70
  -3 -15  -5   51.99   17.40
  -3  15  -5   33.50   17.30
  -4 -16   5  335.77   28.00
  -4  16   5  331.07   27.80
  -2 -16   5  110.29   20.20
  -2 -16   5  111.09   17.90
  -2  16   5  146.99   18.50
   0 -16   5   32.50   15.90
   0  16   5    5.70   13.00
   2 -16   5   19.40   15.20
  -2 -16  -5   28.50   15.50
  -2  16  -5   40.30   17.00
  -3 -17   5  121.99   21.70
  -3  17   5  101.19   20.80
  -1 -17   5   -6.70   15.60
  -1  17   5  -23.60   13.80
   1 -17   5  137.59   20.50
  -2 -18   5   30.10   19.10
  -2 -18   5   53.29   16.90
  -2  18   5   41.60   17.80
   0 -18   5   16.80   17.50
  -6   0   6  927.21   36.00
  -4   0   6  106.09    9.90
  -4   0   6   66.29   16.00
  -2   0   6   32.40   10.50
  -2   0   6   15.90   10.50
  -2   0   6   61.09   15.20
   0   0   6  -16.10    9.30
   0   0   6    1.20   13.10
   2   0   6  432.06   23.80
  -2   0  -6  456.95   25.10
   2   0   6  407.56   24.70
  -4   0  -6  685.53   33.20
  -7  -1   6   25.70   17.40
  -7   1   6   17.80   16.80
  -5  -1   6   -0.50   15.30
  -5   1   6   27.30   14.90
  -3  -1   6   17.60   13.70
  -3  -1   6    0.40    9.40
  -3  -1   6   -3.90    9.30
  -3   1   6    5.50    9.10
  -3   1   6   -9.30   12.70
  -3   1   6   12.80    9.20
  -1  -1   6  179.48   18.70
  -1  -1   6  200.58   16.20
  -1  -1   6  170.28   16.00
  -1   1   6  192.98   16.30
  -1   1   6  193.48   18.70
  -1   1   6  196.58   16.20
   1  -1   6   35.50   14.80
  -1  -1  -6   42.50   13.20
   1  -1   6   14.80   11.50
  -1   1  -6   44.20   13.30
   1   1   6   34.20   12.60
   1   1   6   43.40   14.30
   3  -1   6   22.80   14.20
  -3  -1  -6   20.60   14.10
  -3   1  -6   48.30   16.00
   3   1   6   10.00   15.10
   3   1   6   15.70   13.00
  -5  -1  -6   13.50   16.20
  -5   1  -6   33.10   17.40
  -6  -2   6  234.98   21.70
  -6   2   6  191.58   21.80
  -4  -2   6   51.99   11.20
  -4  -2   6   27.70    8.80
  -4  -2   6   33.40   15.20
  -4   2   6   54.59    8.80
  -4   2   6   56.29   15.80
  -2  -2   6   31.80   11.30
  -2  -2   6   56.19   14.80
  -2  -2   6   52.49   10.80
  -2   2   6   47.20   10.90
  -2   2   6   41.80   14.80
  -2   2   6   28.40   10.60
   0  -2   6   50.89   12.50
   0  -2   6   42.30   12.30
   0  -2   6   37.80   14.60
   0   2   6   45.40   14.20
   0   2   6   50.99   12.20
   2  -2   6  160.88   18.10
   2  -2   6  156.88   19.50
  -2  -2  -6  151.28   18.70
   2   2   6  133.29   17.90
   2   2   6  154.18   18.20
  -2   2  -6  124.69   17.70
  -4  -2  -6  388.46   26.10
   4   2   6  325.87   24.90
  -4   2  -6  407.76   26.40
  -7  -3   6    4.10   16.80
  -7   3   6    6.60   16.90
  -5  -3   6   55.59   15.60
  -5   3   6   39.60   16.80
  -3  -3   6   84.39   13.20
  -3  -3   6  106.69   18.00
  -3  -3   6  116.09   12.50
  -3   3   6  112.89   12.20
  -3   3   6  123.19   17.80
  -3   3   6  116.19   12.10
  -1  -3   6  578.44   29.20
  -1  -3   6  652.43   27.80
  -1  -3   6  575.04   24.30
  -1   3   6  570.94   28.20
  -1   3   6  606.84   24.70
   1  -3   6   60.79   13.00
   1  -3   6   36.80   12.80
   1  -3   6   33.50   15.00
  -1  -3  -6   59.39   14.10
  -1   3  -6   66.69   14.40
   1   3   6   61.29   13.60
   1   3   6   66.79   15.40
  -3  -3  -6   10.80   14.20
   3  -3   6    1.10   12.70
   3   3   6   -1.60   12.40
  -3   3  -6   18.70   14.60
   3   3   6   28.90   14.60
   5   3   6   40.90   16.30
  -6  -4   6   11.00   15.60
  -6   4   6   18.70   16.50
  -4  -4   6   46.90   15.80
  -4  -4   6   62.79   10.40
  -4  -4   6   57.49   12.70
  -4   4   6   59.89   15.80
  -4   4   6   67.19    9.50
  -2  -4   6  148.39   17.90
  -2  -4   6  134.79   14.30
  -2  -4   6  130.09   14.80
  -2   4   6  112.29   17.10
  -2   4   6  129.29   14.00
   0  -4   6   56.99   13.70
   0  -4   6   82.39   16.30
   0  -4   6  102.89   14.80
   0   4   6   95.29   16.00
   0   4   6   96.49   14.50
   2  -4   6   71.09   14.60
   2  -4   6   69.19   14.50
  -2  -4  -6   60.09   14.90
  -2   4  -6   62.29   15.30
   2   4   6   60.69   15.30
   2   4   6   55.59   13.80
   4  -4   6   96.19   16.50
  -4  -4  -6  114.39   19.30
   4   4   6   92.69   17.90
  -4   4  -6  150.58   20.80
  -7  -5   6   36.70   17.50
  -7   5   6   25.90   18.40
  -5  -5   6   70.29   17.00
  -5   5   6   45.80   16.60
  -3  -5   6   40.50   15.90
  -3  -5   6   33.00   12.20
  -3  -5   6   18.30   10.40
  -3   5   6   33.80   14.70
  -3   5   6   43.30   10.90
  -1  -5   6  183.38   20.00
  -1  -5   6  209.38   18.50
  -1  -5   6  209.48   17.50
  -1   5   6  244.18   17.30
  -1   5   6  222.78   19.90
   1  -5   6    5.50   14.40
   1  -5   6   30.30   12.10
  -1  -5  -6   23.30   13.80
   1  -5   6   15.60   12.60
   1   5   6    3.10   12.10
   1   5   6   14.10   13.20
  -1   5  -6   -4.30   12.30
  -3  -5  -6   56.09   16.00
   3  -5   6   43.50   14.10
   3  -5   6   30.70   14.20
   3   5   6   53.49   15.00
   3   5   6   28.80   14.40
  -3   5  -6   58.99   16.10
   5  -5   6   60.79   16.10
   5   5   6  104.79   18.70
  -6  -6   6  554.84   29.20
  -6   6   6  660.73   33.50
  -4  -6   6  176.58   14.20
  -4  -6   6  174.68   19.20
  -4  -6   6  159.28   16.90
  -4   6   6  181.58   13.20
  -4   6   6  125.89   18.80
  -2  -6   6   33.00   11.50
  -2  -6   6   38.90   15.50
  -2  -6   6   44.30   13.00
  -2   6   6   26.80   14.20
  -2   6   6   41.20   11.70
   0  -6   6   47.40   13.50
   0  -6   6   42.90   15.40
   0  -6   6   52.49   13.60
   0   6   6   36.50   14.80
   0   6   6   28.60   12.90
   2  -6   6  124.79   17.00
   2  -6   6  136.79   17.80
  -2  -6  -6  137.09   17.70
   2   6   6  143.39   18.10
   2   6   6  160.28   18.30
  -2   6  -6  170.28   19.40
   4  -6   6  515.55   29.00
  -4  -6  -6  468.25   28.60
   4   6   6  482.15   26.00
  -4   6  -6  499.25   29.50
  -5  -7   6   29.10   16.60
  -5  -7   6   27.90   13.50
  -5   7   6   13.10   17.10
  -3  -7   6   -2.30   13.80
  -3  -7   6   34.80   11.20
  -3  -7   6   31.00   12.60
  -3   7   6   23.50   10.50
  -3   7   6   27.70   15.20
  -1  -7   6    4.50   11.50
  -1  -7   6   14.40   12.10
  -1  -7   6   31.70   14.50
  -1   7   6   20.70   13.40
  -1   7   6   16.50   10.90
   1  -7   6   39.90   14.00
   1  -7   6   77.99   15.40
   1   7   6   71.09   16.40
  -1   7  -6   62.09   16.00
   1   7   6   61.59   13.50
  -3  -7  -6   68.39   17.20
   3  -7   6   47.70   15.60
   3   7   6   64.79   15.90
  -3   7  -6   97.39   18.20
   5  -7   6   23.90   15.70
   5   7   6  -10.30   15.40
  -6  -8   6   74.19   17.80
  -6   8   6   64.49   18.40
  -4  -8   6    7.10   11.20
  -4  -8   6   21.40   16.00
  -4  -8   6   30.00   14.40
  -4   8   6   28.20    9.90
  -4   8   6   29.30   16.30
  -2  -8   6  212.68   19.40
  -2  -8   6  219.58   20.80
  -2  -8   6  195.98   17.30
  -2   8   6  186.68   16.50
  -2   8   6  187.18   20.50
   0  -8   6   24.30   12.80
   0  -8   6   14.30   14.90
   0  -8   6    6.30   12.20
   0   8   6   -9.20   13.80
   0   8   6   29.70   12.40
  -2  -8  -6   45.60   15.40
   2  -8   6   16.00   13.90
   2   8   6   31.70   15.10
  -2   8  -6   21.90   15.10
   4  -8   6  137.39   19.90
  -4  -8  -6  151.68   20.50
  -4   8  -6  163.68   22.20
   4   8   6  194.78   19.60
  -5  -9   6   16.70   16.10
  -5  -9   6   18.20   14.60
  -5   9   6   22.80   16.00
  -3  -9   6   63.69   16.00
  -3  -9   6   52.29   15.00
  -3  -9   6   43.70   12.90
  -3   9   6   61.39   12.60
  -3   9   6   70.69   16.60
  -1  -9   6  421.76   22.80
  -1  -9   6  383.66   26.70
  -1  -9   6  434.26   27.70
  -1   9   6  453.45   22.40
  -1   9   6  439.56   25.60
   1  -9   6   89.99   15.40
   1  -9   6  111.39   16.90
   1   9   6   87.19   15.40
   1   9   6   93.99   15.80
  -3  -9  -6   23.10   14.80
   3  -9   6   18.60   14.80
  -3   9  -6   -0.50   14.90
   3   9   6    8.40   14.10
  -6 -10   6    2.00   15.90
  -6  10   6   -3.70   17.30
  -4 -10   6   22.60   16.40
  -4 -10   6   19.80   12.60
  -4 -10   6    9.60   15.20
  -4  10   6   39.90   17.70
  -4  10   6   16.60   10.30
  -2 -10   6  206.78   21.10
  -2 -10   6  186.98   18.10
  -2 -10   6  183.98   20.10
  -2  10   6  211.28   17.70
  -2  10   6  230.38   21.30
   0 -10   6  487.75   26.30
   0 -10   6  472.45   28.00
   0 -10   6  431.76   27.00
   0  10   6  419.96   25.10
   0  10   6  447.36   24.10
   2 -10   6   84.79   16.50
   2  10   6   85.49   16.30
  -2  10  -6   63.89   17.20
   4 -10   6   30.30   15.60
   4  10   6   12.10   15.50
  -5 -11   6   92.19   18.40
  -5 -11   6   69.49   17.80
  -5  11   6   89.59   19.60
  -3 -11   6  102.19   17.80
  -3 -11   6   76.89   17.70
  -3 -11   6   87.79   15.30
  -3  11   6   91.79   18.20
  -3  11   6  101.69   14.20
  -1 -11   6  245.08   22.20
  -1 -11   6  228.68   21.90
  -1  11   6  255.07   19.70
  -1  11   6  231.38   21.00
   1 -11   6    5.70   13.40
   1  11   6   -5.40   14.00
   3 -11   6  168.28   20.00
   3  11   6  158.18   18.90
  -3  11  -6  137.89   21.00
  -4 -12   6   54.29   17.40
  -4 -12   6   35.60   17.50
  -4  12   6   30.40   11.60
  -4  12   6   -1.10   16.30
  -2 -12   6   14.20   15.50
  -2 -12   6   11.20   15.10
  -2  12   6   10.10   14.70
   0 -12   6   16.70   14.80
   0 -12   6   -8.30   15.80
   0  12   6    0.90   13.40
   2 -12   6   82.49   17.70
   2  12   6  101.69   16.80
  -3 -13   6   16.50   16.70
  -3 -13   6   34.20   17.60
  -3  13   6   15.60   16.90
  -1 -13   6   10.90   16.40
  -1 -13   6   39.80   16.90
  -1  13   6    5.50   13.80
   1 -13   6  -13.60   14.50
   1  13   6    9.30   14.30
  -2 -14   6  141.29   22.00
  -2 -14   6  186.68   21.90
  -2  14   6  172.98   21.50
   0 -14   6  187.38   22.20
   0  14   6  181.48   20.10
   2 -14   6    9.40   15.60
   2  14   6   27.20   15.80
  -1 -15   6    3.60   17.40
  -1 -15   6  -31.90   15.30
  -1  15   6   -4.90   15.30
  -2   0   7  137.69   20.50
  -2   0   7  173.18   16.70
  -2   0   7  164.88   17.20
   0   0   7   85.79   16.00
   0   0   7   91.19   19.40
   2   0   7   -9.50   15.70
  -5  -1   7   17.60   17.10
  -5   1   7    0.20   16.60
  -3  -1   7    2.90   15.20
  -3  -1   7   -3.30   10.40
  -3  -1   7  -16.40   11.00
  -3   1   7    9.90   16.00
  -3   1   7   15.70   10.90
  -1  -1   7   -4.40   14.40
  -1  -1   7    3.40   13.30
  -1  -1   7   -7.90   11.60
  -1   1   7  -11.00   11.70
  -1   1   7   -0.60   15.90
  -1   1   7   22.20   12.30
   1  -1   7  114.99   17.70
   1  -1   7  148.69   21.10
   1   1   7  107.19   19.70
   3  -1   7   75.09   20.00
   3   1   7   50.99   19.20
  -4  -2   7  125.59   20.50
  -4   2   7  130.89   20.20
  -2  -2   7  101.09   14.20
  -2  -2   7   70.99   18.50
  -2  -2   7   85.99   15.80
  -2   2   7   93.99   14.70
  -2   2   7   90.89   18.60
  -2   2   7   73.59   14.50
   0  -2   7   26.60   14.60
   0  -2   7   37.30   17.00
   0   2   7   37.90   16.20
   2  -2   7   54.69   16.10
   2  -2   7   36.00   18.30
   2   2   7   39.70   18.30
  -5  -3   7   36.10   17.50
  -5   3   7   -2.70   16.50
  -3  -3   7   25.10   13.50
  -3  -3   7   25.80   16.80
  -3  -3   7   12.80   11.50
  -3   3   7    8.90   15.70
  -3   3   7   22.90   11.30
  -1  -3   7   85.99   18.70
  -1  -3   7   74.79   16.40
  -1   3   7  115.49   19.30
   1  -3   7  437.66   30.80
   1  -3   7  413.66   28.20
   1   3   7  378.76   26.60
   3  -3   7  246.88   25.40
   3  -3   7  221.58   23.00
   3   3   7  200.58   23.10
  -4  -4   7    9.70   17.40
  -4   4   7   25.50   16.50
  -2  -4   7   66.29   13.90
  -2  -4   7   62.39   15.10
  -2  -4   7   80.89   18.60
  -2   4   7   79.79   18.90
  -2   4   7   87.19   14.50
  -2   4   7   61.09   14.20
   0  -4   7   30.60   17.20
   0  -4   7    8.60   13.90
   0   4   7   41.70   17.80
   2  -4   7   36.70   16.40
   2  -4   7   50.29   19.20
   2   4   7   71.59   19.40
  -3  -5   7   41.00   12.70
  -3  -5   7   58.39   15.20
  -3  -5   7   89.89   19.90
  -3   5   7   61.99   12.80
  -3   5   7   61.49   18.40
  -1  -5   7  -17.60   15.80
  -1  -5   7    1.80   13.30
  -1   5   7   24.10   16.10
   1  -5   7  160.08   19.90
   1  -5   7  140.19   21.10
   1   5   7  144.89   20.90
   3  -5   7   49.00   17.40
   3  -5   7   20.80   20.40
   3   5   7   39.10   17.90
  -4  -6   7  393.66   28.10
  -4   6   7  270.87   25.70
  -2  -6   7  225.88   21.80
  -2  -6   7  235.38   24.30
  -2   6   7  215.78   23.00
   0  -6   7    8.30   14.30
   0  -6   7   26.10   17.50
   0   6   7   42.00   16.30
   2  -6   7   51.19   16.90
   2  -6   7   22.80   18.40
   2   6   7   55.89   17.30
  -3  -7   7   46.70   18.70
  -3  -7   7  100.19   17.80
  -3   7   7   75.09   14.30
  -3   7   7   68.19   18.50
  -1  -7   7   74.49   17.20
  -1  -7   7   71.69   19.50
  -1   7   7   61.19   19.10
   1  -7   7   13.10   15.00
   1  -7   7    7.40   17.30
   1   7   7    3.10   16.60
  -2  -8   7   52.59   16.50
  -2  -8   7   25.40   18.80
  -2   8   7   51.89   17.80
   0  -8   7   65.09   17.10
   0  -8   7   65.39   19.80
   0   8   7   79.99   18.80
  -3  -9   7   -5.10   18.20
  -3  -9   7  -10.70   15.40
  -3   9   7  -12.00   16.00
  -1  -9   7   13.40   16.30
  -1  -9   7   33.40   18.70
  -1   9   7   52.39   18.20
   1  -9   7  298.67   27.90
   1  -9   7  341.87   26.90
   1   9   7  340.37   26.40
  -2 -10   7   18.30   16.70
  -2 -10   7   23.10   18.00
  -2  10   7   44.90   18.70
   0 -10   7   32.90   19.30
   0 -10   7   48.60   18.70
   0  10   7   41.90   16.90
;
_shelx_hkl_checksum              20702
_olex2_submission_special_instructions 'No special instructions were received'
loop_
_space_group_symop_operation_xyz
'x, y, z'
'-x, y, -z'
'x+1/2, y+1/2, z'
'-x+1/2, y+1/2, -z'
'-x, -y, -z'
'x, -y, z'
'-x+1/2, -y+1/2, -z'
'x+1/2, -y+1/2, z'
loop_
_atom_site_label
_atom_site_type_symbol
_atom_site_fract_x
_atom_site_fract_y
_atom_site_fract_z
_atom_site_U_iso_or_equiv
_atom_site_adp_type
_atom_site_occupancy
_atom_site_site_symmetry_order
_atom_site_calc_flag
_atom_site_refinement_flags_posn
_atom_site_refinement_flags_adp
_atom_site_refinement_flags_occupancy
Mn1 Mn 0.0000 0.65857(4) 1.0000 0.00935(19) Uani 1 2 d S T P
V1 V -0.09954(7) 0.81716(3) 1.23259(9) 0.01011(17) Uani 1 1 d . . .
O1 O -0.1046(3) 0.72999(13) 1.2108(4) 0.0150(5) Uani 1 1 d . . .
O2 O 0.0000 0.85209(18) 1.0000 0.0143(7) Uani 1 2 d S T P
O3 O -0.2845(3) 0.84841(13) 1.2162(4) 0.0146(5) Uani 1 1 d . . .
O4 O 0.0000 0.84474(18) 1.5000 0.0129(7) Uani 1 2 d S T P
N1 N 0.0940(3) 0.56252(15) 0.8265(4) 0.0092(6) Uani 1 1 d . . .
C1 C 0.1897(4) 0.5622(2) 0.6580(6) 0.0127(7) Uani 1 1 d . . .
C3 C 0.0522(5) 0.5000 0.9057(7) 0.0080(9) Uani 1 2 d S T P
O5 O 0.5797(16) 0.5000 0.901(2) 0.021(4) Uani 0.305(12) 2 d S T P
H5A H 0.5309 0.4645 0.9575 0.031 Uiso 0.153(6) 1 d G . .
H5B H 0.5732 0.5367 0.9880 0.031 Uiso 0.153(6) 1 d G . .
C0AA C 0.2408(6) 0.5000 0.5672(9) 0.0165(11) Uani 1 2 d S T P
H0AA H 0.306(7) 0.5000 0.459(10) 0.020 Uiso 1 2 d RS T P
H1 H 0.213(4) 0.605(2) 0.598(6) 0.020 Uiso 1 1 d R . .
loop_
_atom_site_aniso_label
_atom_site_aniso_U_11
_atom_site_aniso_U_22
_atom_site_aniso_U_33
_atom_site_aniso_U_23
_atom_site_aniso_U_13
_atom_site_aniso_U_12
Mn1 0.0082(4) 0.0082(4) 0.0113(4) 0.000 -0.0008(3) 0.000
V1 0.0101(3) 0.0119(3) 0.0083(3) -0.0009(2) 0.0006(2) 0.0008(2)
O1 0.0162(12) 0.0153(13) 0.0138(12) 0.0003(10) 0.0024(10) -0.0014(10)
O2 0.0153(18) 0.0143(19) 0.0140(17) 0.000 0.0050(14) 0.000
O3 0.0130(13) 0.0175(14) 0.0128(12) -0.0019(10) -0.0019(10) 0.0019(10)
O4 0.0111(17) 0.0153(18) 0.0120(16) 0.000 -0.0003(14) 0.000
N1 0.0074(14) 0.0106(15) 0.0096(14) 0.0001(11) 0.0011(11) -0.0005(11)
C1 0.0128(17) 0.017(2) 0.0083(17) 0.0039(13) 0.0020(14) -0.0038(14)
C3 0.004(2) 0.012(2) 0.007(2) 0.000 -0.0032(18) 0.000
O5 0.029(8) 0.010(7) 0.025(7) 0.000 0.012(6) 0.000
C0AA 0.015(3) 0.023(3) 0.012(2) 0.000 0.007(2) 0.000
loop_
_atom_type_symbol
_atom_type_description
_atom_type_scat_dispersion_real
_atom_type_scat_dispersion_imag
_atom_type_scat_source
C C 0.0033 0.0016 'International Tables Vol C Tables 4.2.6.8 and 6.1.1.4'
H H 0.0000 0.0000 'International Tables Vol C Tables 4.2.6.8 and 6.1.1.4'
Mn Mn 0.3368 0.7283 'International Tables Vol C Tables 4.2.6.8 and 6.1.1.4'
N N 0.0061 0.0033 'International Tables Vol C Tables 4.2.6.8 and 6.1.1.4'
O O 0.0106 0.0060 'International Tables Vol C Tables 4.2.6.8 and 6.1.1.4'
V V 0.3005 0.5294 'International Tables Vol C Tables 4.2.6.8 and 6.1.1.4'
loop_
_geom_angle_atom_site_label_1
_geom_angle_atom_site_label_2
_geom_angle_atom_site_label_3
_geom_angle
_geom_angle_site_symmetry_1
_geom_angle_site_symmetry_3
O1 Mn1 O1 99.18(13) 2_557 .
O1 Mn1 O3 91.19(9) 2_557 8_565
O1 Mn1 O3 93.47(9) 2_557 7_467
O1 Mn1 O3 93.47(9) . 8_565
O1 Mn1 O3 91.19(9) . 7_467
O1 Mn1 N1 93.85(9) . 2_557
O1 Mn1 N1 93.85(9) 2_557 .
O1 Mn1 N1 166.90(10) 2_557 2_557
O1 Mn1 N1 166.90(10) . .
O3 Mn1 O3 172.80(14) 7_467 8_565
O3 Mn1 N1 89.30(9) 8_565 2_557
O3 Mn1 N1 89.30(9) 7_467 .
O3 Mn1 N1 84.91(9) 8_565 .
O3 Mn1 N1 84.91(9) 7_467 2_557
N1 Mn1 N1 73.15(14) 2_557 .
O1 V1 O2 108.50(13) . .
O1 V1 O4 111.45(13) . .
O3 V1 O1 109.70(12) . .
O3 V1 O2 108.80(10) . .
O3 V1 O4 107.39(10) . .
O4 V1 O2 110.97(8) . .
V1 O1 Mn1 133.13(13) . .
V1 O2 V1 136.9(2) 2_557 .
V1 O3 Mn1 138.86(13) . 7_467
V1 O4 V1 146.1(2) 2_558 .
C1 N1 Mn1 126.9(2) . .
C3 N1 Mn1 116.2(2) . .
C3 N1 C1 116.9(3) . .
N1 C1 C0AA 121.6(4) . .
N1 C3 N1 125.5(4) . 6_565
N1 C3 C3 117.3(2) . 5_567
N1 C3 C3 117.3(2) 6_565 5_567
C1 C0AA C1 117.3(5) 6_565 .
loop_
_geom_bond_atom_site_label_1
_geom_bond_atom_site_label_2
_geom_bond_distance
_geom_bond_site_symmetry_2
Mn1 O1 2.088(2) 2_557
Mn1 O1 2.088(2) .
Mn1 O3 2.107(2) 7_467
Mn1 O3 2.107(2) 8_565
Mn1 N1 2.267(3) 2_557
Mn1 N1 2.267(3) .
V1 O1 1.657(2) .
V1 O2 1.8007(14) .
V1 O3 1.648(2) .
V1 O4 1.7912(11) .
O2 V1 1.8007(13) 2_557
O3 Mn1 2.107(2) 7_467
O4 V1 1.7912(11) 2_558
N1 C1 1.336(4) .
N1 C3 1.333(3) .
C1 C0AA 1.379(5) .
C3 N1 1.333(3) 6_565
C3 C3 1.480(9) 5_567
C0AA C1 1.379(5) 6_565
