#------------------------------------------------------------------------------
#$Date: 2019-11-23 02:54:03 +0200 (Sat, 23 Nov 2019) $
#$Revision: 231934 $
#$URL: file:///home/coder/svn-repositories/cod/cif/4/34/67/4346714.cif $
#------------------------------------------------------------------------------
#
# This file is available in the Crystallography Open Database (COD),
# http://www.crystallography.net/
#
# All data on this site have been placed in the public domain by the
# contributors.
#
data_4346714
loop_
_publ_author_name
'L\'opez-Cabrelles, Javier'
'Gim\'enez-Marqu\'es, M\'onica'
'M\'inguez Espallargas, Guillermo'
'Coronado, Eugenio'
_publ_section_title
;
 Solvent-Free Synthesis of a Pillared Three-Dimensional Coordination
 Polymer with Magnetic Ordering.
;
_journal_issue                   21
_journal_name_full               'Inorganic chemistry'
_journal_page_first              10490
_journal_page_last               10496
_journal_paper_doi               10.1021/acs.inorgchem.5b02003
_journal_volume                  54
_journal_year                    2015
_chemical_formula_sum            'C16 H14 Fe N6'
_chemical_formula_weight         346.18
_space_group_crystal_system      monoclinic
_space_group_IT_number           14
_space_group_name_Hall           '-P 2ybc'
_space_group_name_H-M_alt        'P 1 21/c 1'
_atom_sites_solution_hydrogens   geom
_audit_creation_method           SHELXL-2014
_cell_angle_alpha                90
_cell_angle_beta                 90.754(3)
_cell_angle_gamma                90
_cell_formula_units_Z            2
_cell_length_a                   9.0687(3)
_cell_length_b                   7.6924(3)
_cell_length_c                   9.8492(4)
_cell_measurement_reflns_used    9077
_cell_measurement_temperature    120(2)
_cell_measurement_theta_max      40.9231
_cell_measurement_theta_min      2.2414
_cell_volume                     687.02(4)
_computing_cell_refinement
;
CrysAlisPro, Oxford Diffraction Ltd.,
Version 1.171.33.66 (release 28-04-2010 CrysAlis171 .NET)
(compiled Apr 28 2010,14:27:37)
;
_computing_data_collection
;
CrysAlisPro, Oxford Diffraction Ltd.,
Version 1.171.33.66 (release 28-04-2010 CrysAlis171 .NET)
(compiled Apr 28 2010,14:27:37)
;
_computing_data_reduction
;
CrysAlisPro, Oxford Diffraction Ltd.,
Version 1.171.33.66 (release 28-04-2010 CrysAlis171 .NET)
(compiled Apr 28 2010,14:27:37)
;
_computing_structure_refinement  'SHELXL-2014 (Sheldrick, 2014)'
_computing_structure_solution    'Bruker SHELXTL'
_diffrn_ambient_temperature      120(2)
_diffrn_detector_area_resol_mean 16.0267
_diffrn_measured_fraction_theta_full 1.000
_diffrn_measured_fraction_theta_max 0.981
_diffrn_measurement_device_type  'Xcalibur, Sapphire3, Gemini'
_diffrn_measurement_method       '\w scans'
_diffrn_radiation_source         'Enhance (Mo) X-ray Source'
_diffrn_radiation_type           MoK\a
_diffrn_radiation_wavelength     0.71073
_diffrn_reflns_av_R_equivalents  0.0322
_diffrn_reflns_av_unetI/netI     0.0406
_diffrn_reflns_Laue_measured_fraction_full 1.000
_diffrn_reflns_Laue_measured_fraction_max 0.981
_diffrn_reflns_limit_h_max       15
_diffrn_reflns_limit_h_min       -16
_diffrn_reflns_limit_k_max       13
_diffrn_reflns_limit_k_min       -14
_diffrn_reflns_limit_l_max       16
_diffrn_reflns_limit_l_min       -17
_diffrn_reflns_number            17680
_diffrn_reflns_point_group_measured_fraction_full 1.000
_diffrn_reflns_point_group_measured_fraction_max 0.981
_diffrn_reflns_theta_full        25.242
_diffrn_reflns_theta_max         41.016
_diffrn_reflns_theta_min         2.246
_exptl_absorpt_coefficient_mu    1.106
_exptl_absorpt_correction_T_max  1.00000
_exptl_absorpt_correction_T_min  0.99360
_exptl_absorpt_correction_type   multi-scan
_exptl_absorpt_process_details
;
CrysAlisPro, Oxford Diffraction Ltd.,
Version 1.171.33.66 (release 28-04-2010 CrysAlis171 .NET)
(compiled Apr 28 2010,14:27:37)
Empirical absorption correction using spherical harmonics,
 implemented in SCALE3 ABSPACK scaling algorithm.
;
_exptl_crystal_colour            black
_exptl_crystal_density_diffrn    1.673
_exptl_crystal_description       ?plate
_exptl_crystal_F_000             356
_exptl_crystal_size_max          0.150
_exptl_crystal_size_mid          0.120
_exptl_crystal_size_min          0.040
_refine_diff_density_max         0.733
_refine_diff_density_min         -0.329
_refine_diff_density_rms         0.074
_refine_ls_extinction_method     none
_refine_ls_goodness_of_fit_ref   0.946
_refine_ls_hydrogen_treatment    constr
_refine_ls_matrix_type           full
_refine_ls_number_parameters     106
_refine_ls_number_reflns         4434
_refine_ls_number_restraints     0
_refine_ls_restrained_S_all      0.946
_refine_ls_R_factor_all          0.0348
_refine_ls_R_factor_gt           0.0250
_refine_ls_shift/su_max          0.000
_refine_ls_shift/su_mean         0.000
_refine_ls_structure_factor_coef Fsqd
_refine_ls_weighting_details
'w=1/[\s^2^(Fo^2^)+(0.0376P)^2^] where P=(Fo^2^+2Fc^2^)/3'
_refine_ls_weighting_scheme      calc
_refine_ls_wR_factor_gt          0.0663
_refine_ls_wR_factor_ref         0.0676
_reflns_Friedel_coverage         0.000
_reflns_number_gt                3460
_reflns_number_total             4434
_reflns_threshold_expression     'I > 2\s(I)'
_cod_data_source_file            ic5b02003_si_001.cif
_cod_data_source_block           shelx
_cod_original_sg_symbol_H-M      'P 21/c'
_cod_database_code               4346714
_shelx_space_group_comment
;

The symmetry employed for this shelxl refinement is uniquely defined

by the following loop, which should always be used as a source of

symmetry information in preference to the above space-group names.

They are only intended as comments.

;
_shelx_estimated_absorpt_t_min   0.852
_shelx_estimated_absorpt_t_max   0.957
_shelxl_version_number           2014-3
_shelx_res_file
;

TITL sx92bb in P2(1)/c

CELL 0.71073   9.0687   7.6924   9.8492  90.000  90.754  90.000

ZERR    2.00   0.0003   0.0003   0.0004   0.000   0.003   0.000

LATT  1

SYMM -X, 0.5+Y, 0.5-Z

SFAC C H N FE

UNIT 32 28 12 2

temp -153

size 0.15 0.12 0.04

 

acta

L.S. 10

BOND$H

FMAP 2

PLAN 20

 

WGHT    0.037600

FVAR       0.77170

FE1   4    0.000000    0.000000    0.000000    10.50000    0.00686    0.00592 =

         0.00518   -0.00015    0.00022    0.00023

N1    3    0.206556    0.187434    0.008893    11.00000    0.00910    0.00829 =

         0.00918    0.00011   -0.00043   -0.00078

C2    1    0.327498    0.162803   -0.066239    11.00000    0.01024    0.01228 =

         0.01842   -0.00686    0.00253   -0.00284

AFIX  43

H2    2    0.333884    0.058865   -0.117922    11.00000   -1.20000

AFIX   0

C3    1    0.443654    0.280015   -0.072909    11.00000    0.00917    0.01415 =

         0.02267   -0.00908    0.00507   -0.00330

AFIX  43

H3    2    0.525575    0.255662   -0.128953    11.00000   -1.20000

AFIX   0

C4    1    0.440285    0.433968    0.002770    11.00000    0.00747    0.00774 =

         0.01063   -0.00115   -0.00072   -0.00034

C5    1    0.316048    0.457644    0.082800    11.00000    0.01277    0.00835 =

         0.01161   -0.00165    0.00391   -0.00201

AFIX  43

H5    2    0.308318    0.557945    0.138530    11.00000   -1.20000

AFIX   0

C6    1    0.203946    0.335281    0.081204    11.00000    0.01283    0.00883 =

         0.01432   -0.00127    0.00569   -0.00231

AFIX  43

H6    2    0.119684    0.357473    0.134815    11.00000   -1.20000

AFIX   0

N11   3   -0.098208    0.145498    0.166700    11.00000    0.00819    0.00774 =

         0.00710   -0.00081   -0.00010   -0.00026

C12   1   -0.037102    0.191547    0.287357    11.00000    0.00761    0.00813 =

         0.00758   -0.00071   -0.00014   -0.00021

AFIX  43

H12   2    0.044432    0.131552    0.326725    11.00000   -1.20000

AFIX   0

N13   3   -0.100727    0.328781    0.347190    11.00000    0.00863    0.00792 =

         0.00744   -0.00093    0.00017   -0.00050

C14   1   -0.214336    0.373026    0.258581    11.00000    0.00905    0.00827 =

         0.00980   -0.00050   -0.00038    0.00102

AFIX  43

H14   2   -0.282641    0.465079    0.271160    11.00000   -1.20000

AFIX   0

C15   1   -0.212073    0.262258    0.149783    11.00000    0.00927    0.00901 =

         0.00899   -0.00055   -0.00151    0.00054

AFIX  43

H15   2   -0.278583    0.265462    0.074494    11.00000   -1.20000

AFIX   0

HKLF 4

 

REM  sx92bb in P2(1)/c

REM R1 =  0.0250 for    3460 Fo > 4sig(Fo)  and  0.0348 for all    4434 data

REM    106 parameters refined using      0 restraints

 

END

 

WGHT      0.0376      0.0000

 

REM Highest difference peak  0.733,  deepest hole -0.329,  1-sigma level  0.074

Q1    1  -0.2172  0.3208  0.2027  11.00000  0.05    0.73

Q2    1   0.2626  0.4003  0.0776  11.00000  0.05    0.65

Q3    1   0.4440  0.3604 -0.0395  11.00000  0.05    0.59

Q4    1   0.3812  0.4391  0.0511  11.00000  0.05    0.56

Q5    1   0.3851  0.2188 -0.0622  11.00000  0.05    0.50

Q6    1   0.5000  0.5000  0.0000  10.50000  0.05    0.50

Q7    1  -0.0712  0.2553  0.3168  11.00000  0.05    0.47

Q8    1  -0.0652  0.1711  0.2235  11.00000  0.05    0.42

Q9    1   0.2089  0.2674  0.0476  11.00000  0.05    0.42

Q10   1  -0.1427  0.2211  0.1541  11.00000  0.05    0.40

Q11   1  -0.0160 -0.0820  0.0187  11.00000  0.05    0.39

Q12   1   0.2613  0.1774 -0.0362  11.00000  0.05    0.39

Q13   1  -0.1662  0.3561  0.3144  11.00000  0.05    0.38

Q14   1  -0.0859  0.3633  0.4009  11.00000  0.05    0.34

Q15   1  -0.0802  0.0988  0.1182  11.00000  0.05    0.33

Q16   1   0.1633  0.1209  0.0137  11.00000  0.05    0.29

Q17   1   0.1813  0.3321  0.1095  11.00000  0.05    0.26

Q18   1   0.0672 -0.0029  0.0298  11.00000  0.05    0.25

Q19   1   0.0233  0.1823  0.3065  11.00000  0.05    0.23

Q20   1   0.1455  0.3652  0.2488  11.00000  0.05    0.22

;
_shelx_res_checksum              75540
_shelx_hkl_file
;

  -6  13  -2    4.86    8.12

  -6  13  -1   85.96   11.80

  -6  13   0   31.40    9.43

  -6  13   1  135.11   13.40

  -6  13   2    3.74    8.63

  -5  13  -4    1.88    8.14

  -5  13  -3   71.14   10.25

  -5  13  -2   28.65    9.52

  -5  13   4    1.90    8.53

  -4  13  -5   14.78    7.80

  -8  12  -4   39.71    9.77

  -8  12  -3   13.42    8.33

  -8  12  -2   61.72   10.46

  -8  12  -1   14.03    8.83

  -8  12   0   69.01   11.72

  -8  12   1   -3.58    8.84

  -8  12   2   29.22   10.34

  -8  12   3   21.21   10.11

  -7  12  -5   -2.06    7.35

  -7  12  -4  176.35   13.05

  -7  12  -3    6.55    8.92

  -7  12  -2   82.55   11.14

  -7  12  -1    3.09    9.16

  -7  12   0   24.28    8.98

  -7  12   1   19.21    9.83

  -7  12   2    2.48    8.71

  -7  12   3   24.12   10.07

  -7  12   4  163.65   13.59

  -7  12   5    7.32    8.65

  -6  12  -5    0.44    7.05

  -6  12  -4   21.52    8.40

  -6  12  -3    9.42    8.78

  -6  12  -2   99.28   12.04

  -6  12  -1   11.17    8.87

  -6  12   0   42.76   10.43

  -6  12   1   22.42    9.24

  -6  12   2   74.85   11.40

  -6  12   3    3.64    8.82

  -6  12   4  249.92   16.18

  -6  12   5   15.35    9.56

  -6  12   6   25.69    8.98

  -6  12   7   29.42    8.58

  -5  12  -5    0.57    7.96

  -5  12  -4   -1.44    8.40

  -5  12   5   65.26   10.90

  -5  12   6   47.92   10.22

  -5  12   7   25.61    9.22

  -5  12   8   13.87    8.49

  -4  12   8  175.60   13.45

  -1  12  -9   -3.62    9.22

   0  12  -9   -0.79    8.88

   1  12  -9   30.44    9.74

   2  12  -9    4.90    7.97

   2  12  -8  151.44   12.31

   3  12  -9   -0.94    7.44

   3  12  -9   -0.89    8.33

   3  12  -8  141.72   12.72

   3  12  -8  138.32   12.67

   3  12  -7    6.50    8.07

   4  12  -8  182.42   12.93

   4  12  -8  184.30   13.46

   4  12  -7   11.51    8.03

   5  12  -7   27.40    8.79

   5  12  -6   54.63   10.68

   6  12  -6   23.37    8.70

   6  12  -5   18.47    9.70

   7  12  -5   13.10    9.47

   7  12  -4  195.60   15.03

   8  12  -3   11.14    8.64

 -10  11  -3   20.95    9.59

 -10  11  -2    1.70    8.99

 -10  11  -1  158.53   14.28

 -10  11   0   11.31    8.45

 -10  11   1   38.57   10.88

 -10  11   2    2.52    9.51

  -9  11  -5   37.98    9.29

  -9  11  -4   -2.11    8.76

  -9  11  -3   78.94   10.64

  -9  11  -2   -3.67    9.14

  -9  11  -1  259.42   15.78

  -9  11   0    4.17    9.36

  -9  11   1  122.48   12.55

  -9  11   2    5.06    8.76

  -9  11   3   61.40   11.78

  -9  11   4   -3.42    8.92

  -9  11   5   48.28   10.72

  -8  11  -7  169.13   12.49

  -8  11  -5   39.67    8.79

  -8  11  -4    3.51    7.88

  -8  11  -3   35.05    9.46

  -8  11  -2   21.50    8.88

  -8  11  -1   19.17    8.98

  -8  11   0    3.00    9.27

  -8  11   1   -0.35    9.57

  -8  11   2    0.56    9.71

  -8  11   3   40.47    9.98

  -8  11   4    6.59    9.18

  -8  11   5  178.72   14.16

  -8  11   6   52.41   10.11

  -8  11   7   21.37    8.40

  -7  11  -8   -3.23    8.31

  -7  11  -5   10.12    7.64

  -7  11  -4    0.46    7.66

  -7  11  -3   57.58   10.51

  -7  11  -2    5.91    8.73

  -7  11  -1  217.39   14.81

  -7  11   0   78.64   10.73

  -7  11   1   10.71    9.21

  -7  11   2   -1.19    8.40

  -7  11   3   81.03   11.69

  -7  11   4    5.93    8.27

  -7  11   5   80.08   11.13

  -7  11   6    2.58    8.85

  -7  11   7    1.79    8.85

  -7  11   8    3.86    8.54

  -6  11  -9   55.46   10.57

  -6  11  -8   20.51    8.65

  -6  11  -5   25.00    7.96

  -6  11  -4   23.33    8.27

  -6  11  -3   38.44    9.66

  -6  11  -2   58.31   10.57

  -6  11  -1  328.01   16.55

  -6  11   0   16.51    8.54

  -6  11   1   11.92    8.39

  -6  11   2   10.36    8.86

  -6  11   3  116.16   12.35

  -6  11   4   -2.62    9.26

  -6  11   5  109.29   11.99

  -6  11   6   25.30    8.70

  -6  11   7   66.01    9.77

  -6  11   8   21.82    7.85

  -5  11  -9   27.39    9.39

  -5  11  -6    4.60    6.96

  -5  11  -5  302.65   14.89

  -5  11  -4   61.47    9.55

  -5  11   6    6.21    8.90

  -5  11   7  300.90   15.95

  -5  11   8   32.44    8.77

  -4  11 -10    1.09    9.08

  -4  11  -9   35.79   10.43

  -3  11 -10   67.53   11.26

  -3  11  -9   11.61    9.70

  -2  11 -10    5.85    9.30

  -2  11  -9   20.69    9.03

  -1  11 -11   10.32    8.92

  -1  11 -10    4.78    8.22

  -1  11  -9   82.57   11.11

   0  11 -11  112.99   12.80

   0  11 -10   -0.91    8.39

   0  11  -9   46.80    9.69

   1  11 -11   50.55    9.89

   1  11 -10   -1.51    8.01

   1  11  -9   53.91   10.96

   1  11  -8    0.23    6.75

   2  11 -11   10.53    7.55

   2  11 -10    2.47    7.68

   2  11  -9   82.64    9.89

   2  11  -9   73.33   11.09

   2  11  -8   -0.50    6.98

   3  11 -10    0.41    7.22

   3  11 -10   -0.88    7.98

   3  11  -9  122.67   11.82

   3  11  -9  115.18   11.40

   3  11  -8    4.25    7.46

   3  11  -7   17.91    8.47

   4  11 -10    1.41    7.32

   4  11 -10    0.89    7.13

   4  11  -9   37.39    9.60

   4  11  -9   48.01    9.21

   4  11  -8    1.58    8.52

   4  11  -8    2.73    7.90

   4  11  -7  125.35   12.23

   5  11  -9   60.69   10.93

   5  11  -8   33.07    9.53

   5  11  -7  311.71   16.98

   5  11  -6    2.75    9.03

   6  11  -9   56.97   10.72

   6  11  -8   13.88    9.53

   6  11  -7   64.59   10.89

   6  11  -6   40.70    9.65

   7  11  -8    4.07    8.26

   7  11  -7    1.15    9.52

   7  11  -6    2.37    8.42

   7  11  -5   83.25   11.95

   8  11  -7   18.68    9.30

   8  11  -6   54.28   10.77

   8  11  -5  170.69   14.40

   8  11  -4    3.16    9.11

   9  11  -5   60.11   10.10

   9  11  -4   -2.13    8.14

   9  11  -3   74.40   11.56

   9  11  -2    5.55    7.97

  10  11  -3   97.33   12.00

  10  11  -2    0.22    7.86

  10  11  -1   35.61    8.65

  10  11   0   13.62    7.71

 -11  10  -4   90.07   10.92

 -11  10  -3   21.01    9.31

 -11  10  -2   80.73   11.36

 -11  10  -1   37.17    9.92

 -11  10   0   37.27   11.01

 -11  10   1   17.64    9.91

 -11  10   2  137.66   13.91

 -11  10   3   16.43    9.93

 -11  10   4   11.19    9.56

 -10  10  -5   17.96    8.17

 -10  10  -4  239.41   14.97

 -10  10  -3   -0.59    9.18

 -10  10  -2  153.14   13.73

 -10  10  -1    5.48    9.40

 -10  10   0   11.43    8.54

 -10  10   1    8.61    9.80

 -10  10   2  199.47   14.75

 -10  10   3    7.29    8.43

 -10  10   4  143.00   13.32

 -10  10   5   31.84    9.72

 -10  10   6  124.67   12.10

  -9  10  -5    2.82    7.90

  -9  10  -4   74.58   10.95

  -9  10  -3  100.45   11.12

  -9  10  -2   70.51   10.90

  -9  10  -1    3.37    8.77

  -9  10   0    5.56    8.55

  -9  10   1    1.61    8.54

  -9  10   2  136.83   12.74

  -9  10   3    3.41    9.68

  -9  10   4  170.38   13.93

  -9  10   5   -2.21    8.84

  -9  10   6   75.64   11.20

  -9  10   7   11.10    8.94

  -9  10   8   10.76    8.45

  -8  10  -9   21.97    7.65

  -8  10  -8  184.72   12.91

  -8  10  -7    4.54    7.49

  -8  10  -6   16.14    7.43

  -8  10  -5    2.88    7.63

  -8  10  -4   43.19    9.35

  -8  10  -3    2.70    7.96

  -8  10  -2  239.58   14.58

  -8  10  -1   -1.57    8.31

  -8  10   0  146.15   13.06

  -8  10   1    4.38    8.68

  -8  10   2  103.51   11.96

  -8  10   3   87.40   11.34

  -8  10   4   69.87   11.36

  -8  10   5   24.37    9.53

  -8  10   6   42.80    9.46

  -8  10   7    3.26    8.12

  -8  10   8   -2.70    7.45

  -7  10 -10    5.88    8.30

  -7  10  -9   38.21    9.58

  -7  10  -8   25.06    8.60

  -7  10  -6    7.07    7.04

  -7  10  -5   13.62    7.73

  -7  10  -4   18.61    8.14

  -7  10  -3    1.86    7.47

  -7  10  -2   68.33    9.89

  -7  10  -1   -0.39    8.24

  -7  10   0  157.17   12.99

  -7  10   1   65.77   10.77

  -7  10   2   16.17    9.35

  -7  10   3   32.21    9.16

  -7  10   4    1.08    8.81

  -7  10   5    0.62    8.05

  -7  10   6   87.26   11.10

  -7  10   7   13.72    8.13

  -7  10   8   21.97    8.70

  -7  10  10   71.84   11.12

  -6  10 -10   18.64    8.83

  -6  10  -9   55.63   10.20

  -6  10  -8  153.61   12.43

  -6  10  -6  267.77   13.51

  -6  10  -5   49.28    8.51

  -6  10  -4  169.92   12.10

  -6  10  -3   14.65    7.73

  -6  10  -2   14.79    8.29

  -6  10  -1    4.93    8.11

  -6  10   0  117.00   11.92

  -6  10   1    9.75    8.96

  -6  10   2   67.98   10.62

  -6  10   3    2.56    7.95

  -6  10   4   88.01   10.64

  -6  10   5  171.74   12.60

  -6  10   6  365.37   16.80

  -6  10   7   13.65    8.56

  -6  10   8  127.35   11.24

  -6  10   9   34.22    9.11

  -6  10  10   88.37   11.39

  -6  10  11   -5.79    8.01

  -5  10 -11   39.39    9.64

  -5  10 -10   68.33   10.29

  -5  10  -9   59.60   11.03

  -5  10  -6  111.11    9.41

  -5  10  -5    7.63    7.21

  -5  10   7   36.02    8.84

  -5  10   8   33.83    8.18

  -5  10   9   72.42    9.79

  -5  10  10  130.07   11.58

  -4  10 -11    2.50    8.57

  -4  10 -10  108.02   12.56

  -4  10  -9   28.07   10.02

  -3  10 -12   42.71    9.99

  -3  10 -11   -0.18    8.17

  -3  10 -10   75.48   11.52

  -3  10  -9   77.07   11.38

  -2  10 -12   21.82   10.21

  -2  10 -11   30.70   10.58

  -2  10 -10   64.42   10.73

  -2  10  -9   -0.10    8.71

  -1  10 -12   37.19   10.63

  -1  10 -11   11.67    9.02

  -1  10 -10  132.15   12.67

  -1  10  -9   -4.77    9.56

   0  10 -12    4.74    8.49

   0  10 -11   23.18    9.78

   0  10 -10  241.09   15.26

   0  10  -9   27.58    9.07

   0  10  -8  211.45   11.77

   1  10 -12   14.33    9.55

   1  10 -11    1.30    7.95

   1  10 -10  227.20   14.65

   1  10  -9   16.80    9.13

   1  10  -9   18.78    6.87

   1  10  -8  327.47   14.69

   2  10 -12   61.58   11.10

   2  10 -11    3.71    7.84

   2  10 -10   36.86    7.89

   2  10 -10   38.96    9.23

   2  10  -9  178.91   12.22

   2  10  -9  179.80   13.47

   2  10  -8   31.94    7.90

   3  10 -12   45.63    9.22

   3  10 -11    4.22    6.78

   3  10 -11    3.07    7.80

   3  10 -10   32.02    8.16

   3  10 -10   24.74    8.65

   3  10  -9    2.83    7.19

   3  10  -9    2.12    7.86

   3  10  -8   73.42   10.07

   4  10 -12   63.31    9.42

   4  10 -12   53.76    9.13

   4  10 -11   27.17    8.94

   4  10 -11   27.27    8.65

   4  10 -10   59.75    9.35

   4  10 -10   60.95    9.46

   4  10  -9   11.21    8.49

   4  10  -9   15.00    7.96

   4  10  -8   22.95    7.42

   4  10  -8   25.71    8.43

   4  10  -7   18.50    8.02

   5  10 -11    1.00    7.74

   5  10 -10  110.24   12.08

   5  10  -9   68.68   10.75

   5  10  -8   32.01    8.29

   5  10  -8   27.47    8.85

   5  10  -7   41.70    9.25

   5  10  -6  205.65   13.71

   6  10 -10  112.42   12.33

   6  10  -9   41.39   10.22

   6  10  -8  119.31   12.84

   6  10  -7   15.62    9.52

   6  10  -6  358.52   17.12

   7  10 -10   76.02   11.13

   7  10  -9    1.62    9.32

   7  10  -8   21.92    9.56

   7  10  -7   13.09    8.67

   7  10  -6  100.85   12.27

   7  10  -5    1.70    8.82

   8  10  -9   -1.10    8.64

   8  10  -8    4.76    9.05

   8  10  -7    6.32    8.54

   8  10  -6   43.99   10.72

   8  10  -5   34.62   10.25

   8  10  -4   67.18   10.79

   9  10  -8   14.75    8.77

   9  10  -7    9.17    8.55

   9  10  -6   78.80   11.05

   9  10  -5    3.55    8.38

   9  10  -4  170.12   13.40

   9  10  -3    2.70    8.37

   9  10  -2  117.83   12.11

  10  10  -6  119.74   12.15

  10  10  -5   20.89    9.38

  10  10  -4  135.05   12.98

  10  10  -3    0.98    7.87

  10  10  -2  175.96   13.32

  10  10  -1    4.04    8.33

  10  10   0    5.88    8.02

  11  10  -4   12.70    9.11

  11  10  -3   20.82    8.65

  11  10  -2  121.61   11.61

  11  10  -1   19.99    8.09

  11  10   0   37.71    8.72

 -12   9  -5   38.30    9.04

 -12   9  -4   -0.70    7.93

 -12   9  -3   55.17   10.96

 -12   9  -2   14.34    9.85

 -12   9  -1   60.59   11.43

 -12   9   0   12.04    9.29

 -12   9   1   24.23   10.47

 -12   9   2   -0.69    9.91

 -12   9   3   67.94   11.04

 -12   9   4   -2.89    9.58

 -11   9  -5   79.49   10.85

 -11   9  -4    2.43    8.70

 -11   9  -3  197.01   14.11

 -11   9  -2   13.89    9.68

 -11   9  -1   35.26   10.21

 -11   9   0    7.05    8.82

 -11   9   1   72.64   10.77

 -11   9   2    1.46    8.61

 -11   9   3  112.49   12.92

 -11   9   4   -0.80    8.77

 -11   9   5   85.84   11.47

 -11   9   6    7.33    9.10

 -11   9   7   46.90    9.74

 -10   9  -5    2.67    7.38

 -10   9  -4    1.92    8.01

 -10   9  -3   57.71   10.33

 -10   9  -2    9.78    8.43

 -10   9  -1    9.73    8.62

 -10   9   0    8.39    9.67

 -10   9   1  138.15   12.95

 -10   9   2   32.27   10.02

 -10   9   3  247.13   15.75

 -10   9   4    1.81    9.54

 -10   9   5   21.53    9.70

 -10   9   6    7.10    8.80

 -10   9   7   24.19    9.46

 -10   9   8   81.75   10.85

  -9   9  -6    1.21    7.12

  -9   9  -5  163.29   12.04

  -9   9  -4    2.75    7.63

  -9   9  -3  315.69   15.98

  -9   9  -2    0.98    7.82

  -9   9  -1   80.43   10.85

  -9   9   0   40.00   10.10

  -9   9   1    9.45    9.24

  -9   9   2   47.55   10.54

  -9   9   3  102.82   11.34

  -9   9   4   31.87   10.01

  -9   9   5   45.68   10.04

  -9   9   6   83.02   10.58

  -9   9   7  107.65   11.07

  -9   9   8    0.42    7.34

  -9   9   9  309.52   17.87

  -8   9 -10    3.85    7.92

  -8   9  -9    5.64    7.99

  -8   9  -8   53.04    9.38

  -8   9  -7   12.08    7.01

  -8   9  -6   26.50    7.70

  -8   9  -5  137.22   11.05

  -8   9  -4    7.03    7.50

  -8   9  -3  160.17   12.34

  -8   9  -2   37.96    9.12

  -8   9  -1  135.06   12.00

  -8   9   0  140.64   12.38

  -8   9   1   22.92    9.60

  -8   9   2    5.03    8.80

  -8   9   3   40.19    9.16

  -8   9   4   24.59    8.91

  -8   9   5   14.46    8.22

  -8   9   6   11.86    8.79

  -8   9   7   89.68   10.72

  -8   9   8    1.66    9.34

  -8   9   8    5.33    7.90

  -8   9   9   71.08   10.74

  -8   9  10    1.77    9.11

  -7   9 -11  158.94   12.94

  -7   9 -10    2.00    7.09

  -7   9  -9  149.04   12.13

  -7   9  -8   95.28   10.74

  -7   9  -6   -0.75    5.97

  -7   9  -5  153.83   10.96

  -7   9  -4    6.95    7.16

  -7   9  -3    8.27    8.02

  -7   9  -2   27.98    8.35

  -7   9  -1   41.93    9.17

  -7   9   0   41.93    9.55

  -7   9   1  350.31   16.15

  -7   9   2    7.61    8.94

  -7   9   3  340.49   15.77

  -7   9   4   20.43    8.53

  -7   9   5  359.30   15.93

  -7   9   6   33.44    9.04

  -7   9   7  334.55   15.86

  -7   9   7  323.12   16.22

  -7   9   8    9.51    8.24

  -7   9   8    4.84    7.39

  -7   9   9   42.05   10.11

  -7   9  10    3.03    8.12

  -7   9  11   10.28    8.23

  -6   9 -12    5.03    8.71

  -6   9 -11  111.21   11.76

  -6   9 -10   36.10    9.07

  -6   9  -9    6.86    7.81

  -6   9  -8   99.74   11.21

  -6   9  -6   -0.88    6.42

  -6   9  -5  127.15    9.97

  -6   9  -4    7.20    7.14

  -6   9  -3   56.69    8.59

  -6   9  -2   24.78    8.49

  -6   9  -1   64.46    9.26

  -6   9   0   10.13    8.44

  -6   9   2   -2.80    8.58

  -6   9   3    2.81    8.20

  -6   9   4   14.27    8.36

  -6   9   5   24.12    8.42

  -6   9   6   -0.35    7.74

  -6   9   7   62.68    9.51

  -6   9   7   72.38   10.05

  -6   9   8   -1.22    7.07

  -6   9   8   -1.67    8.04

  -6   9   9   81.16   10.46

  -6   9  10    3.83    8.34

  -6   9  11   19.97    8.42

  -6   9  12   16.88    8.28

  -5   9 -12   47.34    9.63

  -5   9 -11   77.12   11.57

  -5   9 -10    1.91    8.80

  -5   9  -9   31.07    8.88

  -5   9  -6    2.80    5.96

  -5   9  -5  123.08    9.87

  -5   9   6   -2.88    7.63

  -5   9   7   87.72    9.85

  -5   9   7   77.51    9.62

  -5   9   8    2.32    7.11

  -5   9   8    1.34    6.70

  -5   9   9   58.27    9.31

  -5   9  10    2.16    7.95

  -5   9  11   53.62    9.85

  -5   9  12   13.57    8.01

  -4   9 -12   -3.31    9.21

  -4   9 -11   28.87    9.83

  -4   9 -10   28.06    8.76

  -4   9  -9  117.31   11.99

  -4   9   6   -0.35    6.76

  -4   9   7  130.54   10.67

  -4   9   8   57.37    8.90

  -4   9   9   18.51    7.94

  -4   9  10    2.39    6.97

  -4   9  11  154.33   11.85

  -3   9 -13   80.52   10.88

  -3   9 -12    1.21    9.07

  -3   9 -11   21.74    9.97

  -3   9 -10    8.50    8.52

  -3   9  -9  147.29   12.71

  -3   9   6   33.72    7.16

  -3   9   7  299.01   13.39

  -3   9   8  105.04    9.45

  -3   9   9   40.63    7.66

  -2   9 -13   31.71   10.68

  -2   9 -12    4.66    8.99

  -2   9 -11   34.45    9.62

  -2   9 -10   51.28   10.44

  -2   9  -9  123.86   11.84

  -2   9   7  311.47   12.68

  -1   9 -13   18.37   10.12

  -1   9 -12   55.83   10.31

  -1   9 -11  180.24   13.60

  -1   9 -10    3.64    9.07

  -1   9  -9  177.65   12.95

   0   9 -13   38.38   10.25

   0   9 -12   12.05    9.63

   0   9 -11  203.14   14.08

   0   9 -10   30.37    9.50

   0   9  -9  410.70   17.37

   0   9  -8   -1.77    5.91

   1   9 -13   39.08   10.39

   1   9 -12   11.23    8.45

   1   9 -11    5.16    8.88

   1   9 -10    3.66    8.47

   1   9  -9   22.52    8.88

   1   9  -9   28.29    7.50

   1   9  -8   78.52    8.59

   2   9 -13   57.42   10.72

   2   9 -12   20.05    8.33

   2   9 -11  131.56   11.92

   2   9 -10   -1.52    8.40

   2   9 -10    0.72    7.05

   2   9  -9  206.40   13.24

   2   9  -9  196.88   12.20

   2   9  -8   15.45    7.43

   3   9 -13   76.89   10.22

   3   9 -12   18.68    9.17

   3   9 -11  183.08   12.81

   3   9 -11  183.94   13.30

   3   9 -10   22.21    7.96

   3   9 -10   24.08    8.23

   3   9  -9   47.81    8.94

   3   9  -9   47.39    9.27

   3   9  -8  104.79   10.22

   4   9 -13   96.75   11.04

   4   9 -12   10.54    7.44

   4   9 -12   12.54    8.46

   4   9 -11  143.19   12.21

   4   9 -11  156.67   12.32

   4   9 -10    0.99    7.58

   4   9 -10    0.27    7.31

   4   9  -9   19.79    7.92

   4   9  -9   19.49    7.68

   4   9  -8   57.99    9.76

   4   9  -8   77.74    9.48

   4   9  -7  153.46   11.65

   5   9 -12   15.73    7.71

   5   9 -11   69.83   10.71

   5   9 -10   -1.32    7.57

   5   9 -10   -1.17    7.04

   5   9  -9   55.22    9.26

   5   9  -9   58.46    8.65

   5   9  -8   -0.25    8.66

   5   9  -8    4.08    6.39

   5   9  -7   86.47   10.92

   5   9  -6   -5.55    8.24

   6   9 -12   16.65    8.37

   6   9 -11   43.87    9.36

   6   9 -10    8.25    8.02

   6   9  -9   97.40   11.44

   6   9  -8    1.10    8.18

   6   9  -7   74.67   10.19

   6   9  -6    1.83    7.94

   7   9 -11    9.79    8.77

   7   9 -10    6.95    8.65

   7   9  -9   34.15    9.52

   7   9  -8    7.14    8.38

   7   9  -7  326.32   17.06

   7   9  -6   24.60    8.84

   7   9  -5  371.72   17.24

   8   9 -10    3.33    8.17

   8   9  -9   61.69   11.17

   8   9  -8    6.13    8.96

   8   9  -7   86.66   11.94

   8   9  -6   13.72    8.55

   8   9  -5   10.60    9.02

   8   9  -4   34.53    9.82

   9   9  -9  332.02   17.74

   9   9  -8   -4.91    9.44

   9   9  -7  120.02   12.90

   9   9  -6  109.19   12.21

   9   9  -5   55.54   10.24

   9   9  -4   38.78    9.59

   9   9  -3  115.26   12.00

   9   9  -2   36.40    9.24

  10   9  -8   74.63   11.67

  10   9  -7   12.87    9.71

  10   9  -6    1.14    9.26

  10   9  -5   24.05    9.22

  10   9  -4    2.99    7.99

  10   9  -3  231.33   14.91

  10   9  -2   22.78    8.33

  10   9  -1  154.89   12.13

  10   9   0    2.17    7.36

  11   9  -7   40.72    9.95

  11   9  -6    4.96    8.08

  11   9  -5   88.06   11.68

  11   9  -4   -1.70    8.00

  11   9  -3  117.41   12.09

  11   9  -2   -2.71    8.36

  11   9  -1   70.89   10.19

  11   9   0    6.67    7.61

  12   9  -5   90.35   11.50

  12   9  -4    3.70    7.77

  12   9  -3   66.68    9.90

  12   9  -2    1.90    6.94

 -13   8  -4   61.96   10.00

 -13   8  -3    8.30    9.02

 -13   8  -2   36.21    9.94

 -13   8  -1    0.45    9.07

 -13   8   0  152.71   14.40

 -13   8   1   -1.05    8.70

 -13   8   2   26.48    9.48

 -13   8   3    9.29   10.11

 -13   8   4  193.91   14.89

 -12   8  -5   -1.04    8.48

 -12   8  -4   78.49   11.42

 -12   8  -3   12.42    8.91

 -12   8  -2  221.02   15.48

 -12   8  -1    8.89    9.77

 -12   8   0   83.90   11.45

 -12   8   1   -0.26    9.37

 -12   8   2   76.90   11.71

 -12   8   3   14.97    9.32

 -12   8   4  201.20   15.22

 -12   8   5    5.17    9.61

 -12   8   6   93.95   11.56

 -12   8   7    9.26    9.05

 -11   8  -6   23.73    8.30

 -11   8  -5   12.01    7.79

 -11   8  -4   49.36    9.33

 -11   8  -3    9.11    8.56

 -11   8  -2  215.03   14.15

 -11   8  -1   43.21    9.91

 -11   8   0  106.37   12.52

 -11   8   1   93.61   11.44

 -11   8   2   22.99    9.38

 -11   8   3    7.12    9.90

 -11   8   4   90.98   11.30

 -11   8   5    3.12    8.18

 -11   8   6   39.06   10.29

 -11   8   7    2.58    8.05

 -11   8   8    0.27    7.85

 -10   8  -6   90.33    9.87

 -10   8  -5    0.01    7.87

 -10   8  -4  100.78   10.60

 -10   8  -3    1.58    8.53

 -10   8  -2   40.09    9.15

 -10   8  -1    2.33    8.51

 -10   8   0  153.38   13.24

 -10   8   1    2.89    8.88

 -10   8   2    1.83    9.14

 -10   8   3   14.58    9.18

 -10   8   4  165.48   13.58

 -10   8   5    4.31    9.12

 -10   8   6   78.84   10.56

 -10   8   7    6.90    8.57

 -10   8   7   12.43   10.05

 -10   8   8   76.24   11.87

 -10   8   8   86.46   10.19

 -10   8   9    7.64    8.65

 -10   8  10   51.43   10.46

  -9   8  -6   71.98    8.98

  -9   8  -5   59.23    9.20

  -9   8  -4   61.91    9.50

  -9   8  -3  113.42   11.38

  -9   8  -2   13.75    8.61

  -9   8  -1   13.33    8.73

  -9   8   0   73.06   10.48

  -9   8   1   56.26   10.47

  -9   8   2    6.68    9.08

  -9   8   3   15.26    8.66

  -9   8   4  117.51   11.77

  -9   8   5   10.64    8.30

  -9   8   6    7.66    8.31

  -9   8   6   11.94    9.48

  -9   8   7    0.87    9.32

  -9   8   7   -1.54    7.59

  -9   8   8  150.51   13.84

  -9   8   8  142.89   11.80

  -9   8   9   53.26   10.55

  -9   8  10    4.23    9.25

  -9   8  11    0.01    9.01

  -8   8 -12  120.59   11.20

  -8   8 -11    7.29    7.33

  -8   8 -10  344.44   16.06

  -8   8  -9   99.07   10.14

  -8   8  -8    2.67    7.13

  -8   8  -7   23.56    7.22

  -8   8  -6  298.21   13.50

  -8   8  -5   52.49    8.77

  -8   8  -4  202.49   12.32

  -8   8  -3    4.26    8.01

  -8   8  -2  144.71   11.30

  -8   8  -1   44.16    8.99

  -8   8   0  346.04   15.78

  -8   8   1    1.58    8.75

  -8   8   2  538.68   18.89

  -8   8   3  258.26   14.14

  -8   8   4  254.48   14.23

  -8   8   5   50.71    9.32

  -8   8   6   47.18    9.14

  -8   8   6   37.09    9.82

  -8   8   7   40.52   10.33

  -8   8   7   45.91    9.10

  -8   8   8  365.20   15.96

  -8   8   8  389.90   18.35

  -8   8   9   18.47    8.78

  -8   8  10  136.60   13.43

  -8   8  11   33.15   10.64

  -8   8  12  147.18   13.37

  -7   8 -12   39.09    9.73

  -7   8 -11   -2.24    8.37

  -7   8 -10  278.38   15.25

  -7   8  -9   50.92    8.65

  -7   8  -8    1.01    6.86

  -7   8  -7    2.10    6.97

  -7   8  -6  240.03   11.82

  -7   8  -5   25.10    7.14

  -7   8  -4  145.92   10.54

  -7   8  -3   14.42    7.42

  -7   8  -2  261.03   12.90

  -7   8  -1    3.48    7.32

  -7   8   0   52.78    9.26

  -7   8   1   26.65    8.34

  -7   8   2  304.74   14.36

  -7   8   3   12.82    8.37

  -7   8   4   73.24    9.93

  -7   8   5   -3.85    7.43

  -7   8   5    0.40    8.02

  -7   8   6   33.83    8.84

  -7   8   6   38.55    8.79

  -7   8   7   22.67    8.73

  -7   8   7   23.38    8.16

  -7   8   8  173.43   11.64

  -7   8   8  163.70   12.99

  -7   8   9   22.46    8.85

  -7   8  10   84.35   11.22

  -7   8  11    6.10    8.60

  -7   8  12   24.91    8.80

  -6   8 -13   12.14    8.64

  -6   8 -12   71.46   11.27

  -6   8 -11    6.93    8.49

  -6   8 -10  141.22   11.97

  -6   8  -9   -0.47    7.41

  -6   8  -8  156.91   11.90

  -6   8  -6  293.10   12.46

  -6   8  -5    0.73    6.15

  -6   8  -4  177.88   10.90

  -6   8  -3   44.34    8.33

  -6   8  -2  288.38   13.17

  -6   8  -1   46.88    8.60

  -6   8   0  118.95   10.36

  -6   8   1    2.48    7.96

  -6   8   2  157.19   11.29

  -6   8   3    1.84    8.05

  -6   8   4  188.55   11.80

  -6   8   5   37.84    8.56

  -6   8   5   32.25    8.48

  -6   8   6  192.72   12.26

  -6   8   6  193.72   11.85

  -6   8   7   40.79    8.14

  -6   8   7   33.78    9.03

  -6   8   8  230.36   13.74

  -6   8   8  250.25   12.61

  -6   8   9   20.53    9.12

  -6   8  10   64.78    9.88

  -6   8  11    3.34    7.98

  -6   8  12   50.47   10.41

  -6   8  13   -0.88    7.78

  -5   8 -13    4.69    7.74

  -5   8 -12   65.68   10.31

  -5   8 -11    3.94    8.72

  -5   8 -10    2.49    8.37

  -5   8  -9   15.67    8.03

  -5   8  -8  120.31   11.25

  -5   8  -6   92.44    7.84

  -5   8  -5   12.02    5.96

  -5   8   5    0.75    6.77

  -5   8   6    7.51    7.05

  -5   8   7    1.06    6.59

  -5   8   7   -0.53    7.14

  -5   8   8  131.58    9.76

  -5   8   8  136.91   11.13

  -5   8   9    7.03    7.37

  -5   8  10    1.30    7.84

  -5   8  11   16.30    8.64

  -5   8  12   87.54   10.49

  -5   8  13   15.02    8.75

  -5   8  14   56.45    9.68

  -4   8 -14   55.35   10.19

  -4   8 -13   17.76    8.41

  -4   8 -12   65.35   10.92

  -4   8 -11   14.05    9.29

  -4   8 -10   12.04    8.04

  -4   8  -9    8.17    8.53

  -4   8   5   -0.26    6.81

  -4   8   6   79.53    8.73

  -4   8   7    1.35    6.96

  -4   8   8  352.83   14.86

  -4   8   9    2.21    7.06

  -4   8  10    6.48    7.62

  -4   8  11    5.02    7.81

  -4   8  12  153.33   12.21

  -4   8  13    3.54    7.97

  -3   8 -14   93.47   11.67

  -3   8 -13    0.12    8.12

  -3   8 -12   57.08   10.52

  -3   8 -11    4.11    9.28

  -3   8 -10  238.52   14.42

  -3   8  -9   11.56    8.71

  -3   8   5   22.83    6.73

  -3   8   6  260.20   11.88

  -3   8   7   29.20    7.04

  -3   8   8  237.33   12.30

  -3   8   9    6.82    7.01

  -3   8  10  174.55   11.42

  -3   8  11   -0.35    7.02

  -3   8  12  193.39   12.59

  -2   8 -14   90.39   12.25

  -2   8 -13    0.30    9.71

  -2   8 -12   86.23   11.76

  -2   8 -11   -2.96    8.10

  -2   8 -10  166.87   13.11

  -2   8  -9    6.44    8.12

  -2   8   5   26.40    6.06

  -2   8   6  181.67    9.70

  -2   8   7   -1.05    5.49

  -2   8   8   14.75    6.15

  -2   8   9  138.19    9.79

  -2   8  10  247.13   12.46

  -1   8 -14   84.28   12.17

  -1   8 -13   16.47    9.96

  -1   8 -12  236.57   15.15

  -1   8 -11   33.46    9.20

  -1   8 -10  100.26   11.69

  -1   8  -9    7.33    7.88

  -1   8  -8  406.82   13.14

  -1   8   5    1.74    4.66

  -1   8   6  269.45   10.53

  -1   8   7   14.81    5.48

   0   8 -14    9.03    8.29

   0   8 -13    7.50    8.91

   0   8 -12   57.28   11.19

   0   8 -11   26.01    9.27

   0   8 -10   10.34    8.79

   0   8  -9   70.33    9.67

   0   8  -9   78.22    7.76

   0   8  -8  105.50    8.34

   1   8 -14   12.02    9.43

   1   8 -13   37.48   10.47

   1   8 -12  232.17   14.96

   1   8 -11    1.05    7.97

   1   8 -10  158.58   12.72

   1   8 -10  165.38   10.57

   1   8  -9   35.98    7.13

   1   8  -9   32.85    8.82

   1   8  -8   70.48    7.89

   2   8 -14   16.27    9.01

   2   8 -13   75.74   11.35

   2   8 -12  173.98   13.45

   2   8 -11    3.85    7.71

   2   8 -11   -0.84    6.47

   2   8 -10  247.81   14.26

   2   8 -10  240.68   12.54

   2   8  -9  141.43   11.32

   2   8  -9  137.37   10.37

   2   8  -8   11.79    6.50

   3   8 -14   60.91    9.74

   3   8 -13   -0.14    7.71

   3   8 -12  207.27   13.74

   3   8 -12  210.42   12.59

   3   8 -11    4.07    8.04

   3   8 -11   -1.96    6.96

   3   8 -10  180.84   12.13

   3   8 -10  184.97   11.90

   3   8  -9    9.87    7.20

   3   8  -9    6.94    7.75

   3   8  -8  242.74   12.72

   3   8  -8  255.43   13.15

   3   8  -7   29.97    7.66

   4   8 -14   51.03    9.23

   4   8 -13    0.66    6.83

   4   8 -13   -1.38    7.39

   4   8 -12  156.64   12.34

   4   8 -12  146.89   11.73

   4   8 -11    1.94    7.72

   4   8 -11    5.17    7.71

   4   8 -10    3.81    6.97

   4   8 -10    5.48    7.05

   4   8  -9    3.73    7.40

   4   8  -9   -0.03    7.13

   4   8  -8  350.22   14.56

   4   8  -8  354.96   15.57

   4   8  -7    2.95    7.05

   5   8 -13   18.44    8.18

   5   8 -12  104.29   10.59

   5   8 -12   99.75   10.78

   5   8 -11   22.58    8.66

   5   8 -11   25.76    7.66

   5   8 -10    3.63    8.10

   5   8 -10    4.72    7.03

   5   8  -9    4.57    6.27

   5   8  -9    6.02    7.60

   5   8  -8  140.61   10.10

   5   8  -8  131.58   11.63

   5   8  -7   -0.94    6.13

   5   8  -7    1.80    7.78

   5   8  -6    5.47    7.60

   6   8 -13   -1.19    8.23

   6   8 -12   42.66    9.89

   6   8 -11    2.85    7.72

   6   8 -10   59.32    9.75

   6   8  -9   26.57    8.20

   6   8  -8  225.38   13.73

   6   8  -7   36.53    8.92

   6   8  -6  198.29   12.80

   7   8 -12   22.62    8.75

   7   8 -11    5.98    8.48

   7   8 -10   89.07   11.04

   7   8  -9   32.57    9.25

   7   8  -8  151.23   12.84

   7   8  -7   24.87    9.69

   7   8  -6   37.62    9.23

   7   8  -5   -0.06    8.21

   8   8 -12  163.41   13.96

   8   8 -11   23.65    9.51

   8   8 -10  131.35   12.64

   8   8  -9   18.84   10.00

   8   8  -8  381.11   17.59

   8   8  -7   46.86   10.40

   8   8  -6   36.93    9.27

   8   8  -5   37.46    9.74

   8   8  -4  240.31   14.10

   8   8  -3  274.59   14.13

   9   8 -11   -0.79    8.13

   9   8 -10    0.83    9.49

   9   8  -9   65.75   10.59

   9   8  -8  135.74   13.34

   9   8  -7    1.20    9.22

   9   8  -6    5.99    8.56

   9   8  -5   15.53    8.36

   9   8  -4  109.34   11.00

   9   8  -3   15.31    8.28

   9   8  -2    8.61    8.05

  10   8 -10   46.19    9.94

  10   8  -9   10.18    9.52

  10   8  -8   80.84   11.77

  10   8  -7    8.13    9.69

  10   8  -6   76.55   11.48

  10   8  -5    1.83    8.54

  10   8  -4  163.20   12.71

  10   8  -3   15.44    8.58

  10   8  -2   -2.54    7.28

  10   8  -1    2.80    7.48

  10   8   0  141.01   11.05

  11   8  -8    4.86    9.00

  11   8  -7   -1.95    8.24

  11   8  -6   24.82    8.53

  11   8  -5    3.56    8.94

  11   8  -4   89.86   10.79

  11   8  -3    3.44    8.08

  11   8  -2   18.52    8.45

  11   8  -1   85.36   10.18

  11   8   0  103.58   10.19

  12   8  -7    6.61    8.76

  12   8  -6   95.78   11.55

  12   8  -5   17.12    8.88

  12   8  -4  205.51   13.80

  12   8  -3   21.12    8.09

  12   8  -2   84.74   10.09

  12   8  -1   -0.18    7.35

  13   8  -5    1.84    8.07

  13   8  -4  166.73   13.23

  13   8  -3    5.91    7.04

 -14   7  -3   87.12   11.48

 -14   7  -2   -1.50    8.18

 -14   7  -1   48.50   10.48

 -14   7   0   14.57    9.91

 -14   7   1   24.16    9.35

 -14   7   2   10.46    9.18

 -14   7   3  105.69   13.13

 -13   7  -5   36.58    9.54

 -13   7  -4    5.97    8.88

 -13   7  -3   26.57    9.33

 -13   7  -2   15.71    9.81

 -13   7  -1   94.34   12.27

 -13   7   0   55.50   10.52

 -13   7   1   58.19   11.05

 -13   7   2   11.02    9.69

 -13   7   3  190.26   14.70

 -13   7   4    2.28    9.52

 -13   7   5   26.79   10.33

 -13   7   6   55.11   10.42

 -13   7   7   30.54   10.05

 -12   7  -6    6.98    7.27

 -12   7  -5   60.95    9.86

 -12   7  -4   12.22    8.66

 -12   7  -3  153.97   13.36

 -12   7  -2   -0.64    8.89

 -12   7  -1  190.73   14.34

 -12   7   0   57.77   11.17

 -12   7   1   63.94   11.27

 -12   7   2    1.12    9.63

 -12   7   3   72.96   11.68

 -12   7   4   99.24   12.43

 -12   7   5   27.08    9.75

 -12   7   6    6.08    9.36

 -12   7   7   88.47   11.39

 -12   7   8    1.40    8.26

 -12   7   8    4.45    8.57

 -11   7  -6    2.68    7.44

 -11   7  -5   26.43    8.12

 -11   7  -4    3.20    8.05

 -11   7  -3  115.69   11.51

 -11   7  -2   10.08    8.86

 -11   7  -1  118.97   12.18

 -11   7   0   15.44    8.85

 -11   7   1  173.20   13.37

 -11   7   2   14.26    9.13

 -11   7   3   54.11   10.33

 -11   7   4   10.85    8.62

 -11   7   5  227.16   14.28

 -11   7   6   12.24    8.70

 -11   7   7  117.46   11.75

 -11   7   7  114.04   12.24

 -11   7   8    9.80    7.66

 -11   7   8    7.52    8.65

 -11   7   9   23.78   10.01

 -11   7  10   -0.11    9.51

 -10   7  -6    9.10    7.02

 -10   7  -5   64.54    9.20

 -10   7  -4    5.69    7.50

 -10   7  -3   23.73    8.88

 -10   7  -2    8.11    8.12

 -10   7  -1   14.34    8.40

 -10   7   0   63.78   10.29

 -10   7   1   48.84    9.66

 -10   7   2   19.51    8.62

 -10   7   3   21.02    9.62

 -10   7   4   29.41    9.35

 -10   7   5  111.37   11.45

 -10   7   6   72.40   10.30

 -10   7   6   65.16   11.37

 -10   7   7  122.17   12.80

 -10   7   7  123.53   11.93

 -10   7   8   59.83    9.50

 -10   7   8   56.86   11.43

 -10   7   9   23.98    9.42

 -10   7  10    7.20    9.70

 -10   7  11   45.43   11.12

  -9   7  -6   76.18    8.94

  -9   7  -5  148.75   11.05

  -9   7  -4    2.15    7.32

  -9   7  -3   61.18    9.52

  -9   7  -2   38.76    8.71

  -9   7  -1  268.12   13.93

  -9   7   0  123.06   11.51

  -9   7   1  583.63   19.06

  -9   7   2   -0.30    8.15

  -9   7   3  127.35   11.69

  -9   7   4   39.32    9.54

  -9   7   5  105.35   11.30

  -9   7   5  108.84   11.26

  -9   7   6    2.10    7.45

  -9   7   6    0.35    8.66

  -9   7   7  194.63   12.68

  -9   7   7  181.24   13.44

  -9   7   8   47.82    8.88

  -9   7   8   52.33   10.24

  -9   7   9   20.32   10.01

  -9   7  10   32.19    9.68

  -9   7  11   85.69   11.61

  -9   7  12   50.15   11.29

  -8   7 -12    2.86    7.03

  -8   7 -11   75.57    9.54

  -8   7 -10    4.35    6.97

  -8   7  -9  118.70   10.28

  -8   7  -8   -0.03    6.73

  -8   7  -7   34.19    7.10

  -8   7  -6   12.73    6.57

  -8   7  -6   12.82    6.28

  -8   7  -5  183.84   11.15

  -8   7  -4   89.73    9.07

  -8   7  -3   19.54    7.46

  -8   7  -2   12.87    7.45

  -8   7  -1    1.43    7.22

  -8   7   0  118.11   10.40

  -8   7   1  107.43   10.25

  -8   7   2    7.25    7.71

  -8   7   3  171.26   12.13

  -8   7   4   -0.23    8.09

  -8   7   4    5.58    8.02

  -8   7   5   70.65    9.81

  -8   7   5   65.91    9.85

  -8   7   6   21.53    8.69

  -8   7   6   25.00    7.86

  -8   7   7  311.36   14.03

  -8   7   7  298.93   15.71

  -8   7   8    7.19    6.84

  -8   7   8    4.04    9.01

  -8   7   9   21.26    8.79

  -8   7  10   47.03   10.60

  -8   7  11   37.70    9.97

  -8   7  12    1.92    8.51

  -8   7  13   10.45    8.54

  -7   7 -13   51.44    9.86

  -7   7 -12    6.27    8.22

  -7   7 -11  162.53   12.61

  -7   7 -10   25.90    8.06

  -7   7  -9  194.56   12.17

  -7   7  -8    9.27    7.24

  -7   7  -7   83.38    8.72

  -7   7  -6   11.49    6.15

  -7   7  -5  280.25   12.10

  -7   7  -4   75.44    8.43

  -7   7  -3  741.68   18.50

  -7   7  -2   82.99    9.17

  -7   7  -1  258.64   12.60

  -7   7   0   90.79    9.63

  -7   7   1  404.24   15.20

  -7   7   2   25.56    8.35

  -7   7   3  251.58   12.70

  -7   7   4    4.40    8.24

  -7   7   4    9.01    7.37

  -7   7   5   55.56    8.77

  -7   7   5   58.00    9.57

  -7   7   6    3.56    7.94

  -7   7   6    9.45    6.88

  -7   7   7  144.76   10.30

  -7   7   7  143.42   12.20

  -7   7   8   18.06    9.24

  -7   7   8   29.06    7.09

  -7   7   9  186.69   13.34

  -7   7  10    0.39    9.03

  -7   7  11  333.53   17.39

  -7   7  12  150.09   13.25

  -7   7  13  151.12   13.81

  -6   7 -14    8.34    8.39

  -6   7 -13   17.35    9.00

  -6   7 -12   41.69    9.60

  -6   7 -11   60.39    9.66

  -6   7 -10   47.54    8.67

  -6   7  -9  167.04   12.15

  -6   7  -8   55.19    8.26

  -6   7  -6    1.73    5.55

  -6   7  -5   20.29    6.34

  -6   7  -4    7.39    5.86

  -6   7  -3  432.60   14.03

  -6   7  -2   35.83    7.63

  -6   7  -1   22.16    7.62

  -6   7   0   86.89    8.61

  -6   7   1  219.98   11.72

  -6   7   2    1.99    6.71

  -6   7   3  126.43   10.21

  -6   7   4   -0.59    7.06

  -6   7   4    2.01    7.35

  -6   7   5  179.93   12.01

  -6   7   5  181.45   10.68

  -6   7   6   77.89    9.93

  -6   7   6   81.85    8.67

  -6   7   7   27.81    8.26

  -6   7   7   30.26    6.74

  -6   7   8   11.12    6.30

  -6   7   8   18.03    8.67

  -6   7   9  100.89   10.60

  -6   7  10   26.46    9.39

  -6   7  11   16.62    9.47

  -6   7  12   53.35    9.74

  -6   7  13   17.29    9.18

  -6   7  14    7.29    8.64

  -5   7 -14   -0.98    8.75

  -5   7 -13   67.74   10.71

  -5   7 -12    2.41    8.54

  -5   7 -11    2.30    8.63

  -5   7 -10   -3.57    7.68

  -5   7  -9  219.23   13.01

  -5   7  -8   67.08    9.03

  -5   7  -6   43.20    6.22

  -5   7  -5  138.30    8.65

  -5   7  -4   12.90    5.70

  -5   7   3  120.55    9.39

  -5   7   4    3.21    6.66

  -5   7   5  293.59   13.09

  -5   7   6   18.76    7.41

  -5   7   6   18.09    6.49

  -5   7   7  152.90    9.72

  -5   7   7  157.09   11.28

  -5   7   8   27.52    7.97

  -5   7   8   21.92    6.35

  -5   7   9  396.63   16.17

  -5   7  10    4.58    7.75

  -5   7  11   55.64    9.77

  -5   7  12    7.05    8.15

  -5   7  13   41.81    9.14

  -5   7  14   19.14    8.70

  -4   7 -14    2.89    9.48

  -4   7 -13  109.03   12.33

  -4   7 -12   12.81    9.29

  -4   7 -11   24.53    8.66

  -4   7 -10   -1.67    7.92

  -4   7  -9  410.62   16.42

  -4   7  -8   51.07    9.10

  -4   7   3  521.60   14.70

  -4   7   4   56.41    7.71

  -4   7   5  212.73   10.98

  -4   7   6   69.41    8.09

  -4   7   7   66.86    8.27

  -4   7   8  116.96    8.54

  -4   7   8  112.44   10.02

  -4   7   9  142.96   10.81

  -4   7  10   -0.60    7.41

  -4   7  11   62.59    9.39

  -4   7  12    0.11    7.97

  -4   7  13   25.49    8.98

  -4   7  14   24.45    9.15

  -4   7  15  236.44   14.68

  -3   7 -15   33.45   10.00

  -3   7 -14   30.92    9.93

  -3   7 -13  123.16   12.74

  -3   7 -12   28.84    9.97

  -3   7 -11   24.27    9.20

  -3   7 -10    2.07    7.88

  -3   7  -9  117.80   10.95

  -3   7   3  388.33   12.26

  -3   7   4   23.81    6.09

  -3   7   5  118.02    8.29

  -3   7   6   44.90    7.00

  -3   7   7   53.65    7.36

  -3   7   8   27.85    7.26

  -3   7   9  204.62   11.71

  -3   7  10   39.85    7.86

  -3   7  11  253.26   13.31

  -3   7  12   24.17    8.17

  -3   7  14   40.76    8.92

  -2   7 -15  134.26   13.71

  -2   7 -14   49.32   10.82

  -2   7 -13  280.10   16.26

  -2   7 -12   13.12    8.67

  -2   7 -11  273.74   15.09

  -2   7 -10    1.36    8.44

  -2   7  -9  219.36   13.29

  -2   7   4   36.43    5.69

  -2   7   5  637.68   15.01

  -2   7   6   28.13    5.93

  -2   7   7  109.17    8.22

  -2   7   8   12.63    5.88

  -2   7   9  205.46   11.01

  -2   7  10    9.00    6.19

  -1   7 -15   26.14   10.16

  -1   7 -14   14.13    9.62

  -1   7 -13   39.53   10.02

  -1   7 -12  147.01   12.51

  -1   7 -11    6.12    8.92

  -1   7 -10    1.07    7.71

  -1   7  -9   41.47    9.24

  -1   7  -8    5.87    4.77

  -1   7   4    7.45    4.45

  -1   7   5  486.67   12.54

  -1   7   6   40.55    5.64

  -1   7   7  108.25    7.71

  -1   7   8    7.06    5.40

  -1   7   9  133.62    8.94

  -1   7  10   10.58    5.93

   0   7 -15   36.78   10.34

   0   7 -14    7.06    9.49

   0   7 -13  308.14   17.04

   0   7 -12   39.96    9.90

   0   7 -11   96.88   10.86

   0   7 -10    6.96    8.46

   0   7  -9   81.98    7.44

   0   7  -9   76.74    9.93

   0   7  -8   39.89    6.19

   0   7   4  165.11    7.22

   0   7   5  448.38   11.26

   0   7   6    5.85    4.16

   0   7   7  202.16    8.74

   1   7 -15   -1.10    8.92

   1   7 -14   15.26    9.07

   1   7 -13   64.90   10.58

   1   7 -12   25.58    8.88

   1   7 -11   93.07   11.20

   1   7 -10    8.74    5.78

   1   7 -10   12.59    7.53

   1   7  -9  142.56    9.22

   1   7  -9  131.98   11.13

   1   7  -8    7.94    5.64

   2   7 -15  118.75   12.68

   2   7 -14    1.85    8.73

   2   7 -13   57.97   10.43

   2   7 -12    1.17    7.64

   2   7 -11  265.64   12.80

   2   7 -11  276.74   14.64

   2   7 -10   10.54    6.21

   2   7 -10    9.55    7.77

   2   7  -9  212.07   12.45

   2   7  -9  208.14   11.20

   2   7  -8    9.71    6.18

   2   7  -8   11.28    7.49

   2   7  -7  126.06    9.08

   3   7 -15  203.51   14.11

   3   7 -14   46.07    9.27

   3   7 -13   20.25    8.43

   3   7 -12   21.24    7.13

   3   7 -12   17.43    8.26

   3   7 -11  273.92   13.56

   3   7 -11  263.53   14.26

   3   7 -10   37.13    7.90

   3   7 -10   37.57    7.86

   3   7  -9  201.16   11.79

   3   7  -9  199.60   11.69

   3   7  -8   34.31    7.76

   3   7  -8   23.86    7.12

   3   7  -7   69.43    8.31

   4   7 -15  221.26   14.15

   4   7 -14   30.85    8.26

   4   7 -13   29.37    7.77

   4   7 -13   37.93    8.70

   4   7 -12    1.57    7.56

   4   7 -12    0.67    6.89

   4   7 -11   52.69    9.06

   4   7 -11   51.64    9.01

   4   7 -10    6.71    7.40

   4   7 -10    5.03    6.73

   4   7  -9  132.48   10.60

   4   7  -9  150.53   10.58

   4   7  -8  112.23   10.09

   4   7  -8  121.01    9.52

   4   7  -7   64.70    9.04

   5   7 -14   29.20    7.96

   5   7 -13   41.44    8.62

   5   7 -13   32.04    8.43

   5   7 -12    4.84    6.96

   5   7 -12    9.75    7.28

   5   7 -11   49.39    9.52

   5   7 -11   53.55    8.34

   5   7 -10   -0.03    6.53

   5   7 -10    1.93    7.34

   5   7  -9  375.14   14.42

   5   7  -9  372.58   15.90

   5   7  -8   23.24    6.61

   5   7  -8   20.76    8.16

   5   7  -7  157.96    9.39

   5   7  -7  145.01   10.96

   5   7  -6   16.06    8.06

   6   7 -14    3.13    8.28

   6   7 -13   21.07    8.37

   6   7 -12   53.93    9.62

   6   7 -11   20.63    8.29

   6   7 -10   25.88    9.09

   6   7  -9  104.37   11.41

   6   7  -8   21.16    9.07

   6   7  -7   28.22    8.95

   6   7  -6   77.68    9.79

   6   7  -6   80.19    7.14

   6   7  -5  185.45   11.94

   7   7 -13  168.32   13.53

   7   7 -12  137.47   12.87

   7   7 -11  307.01   16.71

   7   7 -10    2.20    8.95

   7   7  -9  194.39   13.63

   7   7  -8   17.88    8.25

   7   7  -7  149.42   11.91

   7   7  -6    9.12    8.69

   7   7  -5   60.83    9.63

   7   7  -4   10.07    7.65

   8   7 -13   18.92    8.66

   8   7 -12    3.70    8.23

   8   7 -11   39.73    9.84

   8   7 -10   31.07    9.54

   8   7  -9   25.17    9.07

   8   7  -8   12.90    9.37

   8   7  -7  290.64   15.16

   8   7  -6   16.29    9.10

   8   7  -5   68.60    9.65

   8   7  -4   -1.71    7.58

   8   7  -3  154.81   11.46

   9   7 -12   51.42    9.93

   9   7 -11   84.26   11.61

   9   7 -10   26.95    8.98

   9   7  -9   19.01    9.81

   9   7  -8   56.71   10.13

   9   7  -7  187.25   13.42

   9   7  -6    2.20    8.17

   9   7  -5  108.14   11.14

   9   7  -4   39.22    8.97

   9   7  -3  141.65   11.17

   9   7  -2    1.00    6.78

   9   7  -1  606.92   18.11

  10   7 -11   32.61   10.11

  10   7 -10    2.30    9.17

  10   7  -9    6.67    8.94

  10   7  -8   55.52   10.04

  10   7  -7  130.06   12.01

  10   7  -6   45.63    9.56

  10   7  -5  123.87   11.87

  10   7  -4   39.02    9.18

  10   7  -3   13.32    7.44

  10   7  -2   27.21    8.06

  10   7  -1   43.23    7.85

  10   7   0   71.13    8.50

  10   7   1   12.25    6.28

  11   7 -10   -1.31    8.13

  11   7  -9   21.52    8.68

  11   7  -8   12.29    8.95

  11   7  -7  102.16   12.14

  11   7  -6   22.58    9.18

  11   7  -5  238.56   14.32

  11   7  -4   10.99    8.14

  11   7  -3   53.51    9.41

  11   7  -2    6.38    6.92

  11   7  -1  180.74   11.65

  11   7   0   24.46    7.29

  12   7  -8    3.30    9.07

  12   7  -7   66.46   10.27

  12   7  -6    3.21    8.59

  12   7  -5   35.78    8.80

  12   7  -4   95.79   10.52

  12   7  -3   75.03    9.53

  12   7  -2    1.58    6.82

  13   7  -7   27.05    9.21

  13   7  -6   50.03    9.70

  13   7  -5   31.29    8.58

  13   7  -4    1.04    7.73

  13   7  -3  183.33   13.03

 -14   6  -5    2.74    7.78

 -14   6  -4  117.14   11.82

 -14   6  -3   -1.79    9.21

 -14   6  -2  105.29   11.86

 -14   6  -1    7.73    8.44

 -14   6   0    2.81    9.95

 -14   6   1   51.74   10.83

 -14   6   2  114.80   12.74

 -14   6   3   18.85   10.52

 -14   6   4  147.02   13.36

 -14   6   5    4.47    8.51

 -14   6   6    9.68    9.54

 -13   6  -6   82.46   10.49

 -13   6  -5    6.99    7.70

 -13   6  -4  140.23   12.21

 -13   6  -3    2.51    8.21

 -13   6  -2  209.59   14.46

 -13   6  -1   11.54    8.57

 -13   6   0   13.48    9.63

 -13   6   1    8.75    8.74

 -13   6   2    4.51    9.00

 -13   6   3    1.68    9.16

 -13   6   4   21.99    9.22

 -13   6   5    6.58    8.71

 -13   6   6   32.55    9.25

 -13   6   7   -5.79    8.10

 -13   6   8   94.01   12.40

 -13   6   8   98.90   10.91

 -12   6  -6   97.89   10.60

 -12   6  -5   21.66    8.06

 -12   6  -4    8.30    8.41

 -12   6  -3   -1.60    8.30

 -12   6  -2   40.83   10.37

 -12   6  -1   33.68   10.17

 -12   6   0  122.31   12.03

 -12   6   1   19.80    9.97

 -12   6   2  134.81   13.25

 -12   6   3   25.25    9.48

 -12   6   4   53.51   10.98

 -12   6   5   12.95    9.28

 -12   6   6  126.85   12.02

 -12   6   6  147.07   13.28

 -12   6   7    6.00    8.53

 -12   6   7   11.41    8.90

 -12   6   8   31.83   10.09

 -12   6   8   33.58    9.08

 -12   6   9    7.63    9.24

 -11   6  -6  215.46   12.80

 -11   6  -5   39.82    8.97

 -11   6  -4    4.55    7.85

 -11   6  -3   74.32   10.57

 -11   6  -2    2.03    8.21

 -11   6  -1   19.31    8.74

 -11   6   0   77.35   11.05

 -11   6   1  115.57   11.59

 -11   6   2  153.57   12.48

 -11   6   3   49.91   10.66

 -11   6   4   24.31    9.35

 -11   6   5   11.09    8.74

 -11   6   5   13.58    8.59

 -11   6   6  245.82   15.45

 -11   6   6  256.65   14.88

 -11   6   7   17.54    8.85

 -11   6   7   12.45    9.01

 -11   6   8  108.26   12.39

 -11   6   8  125.49   11.72

 -11   6   9   47.15   10.99

 -11   6  10   12.58   10.19

 -11   6  11    8.50    9.87

 -10   6  -6  246.28   12.80

 -10   6  -5   66.06    8.95

 -10   6  -4  239.01   13.18

 -10   6  -3   54.22    8.92

 -10   6  -2  221.83   13.50

 -10   6  -1   69.67   10.29

 -10   6   0  502.65   18.08

 -10   6   1    0.79    8.97

 -10   6   2  338.22   15.94

 -10   6   3    5.28    8.07

 -10   6   4   24.54    9.26

 -10   6   4   30.79    9.29

 -10   6   5   11.51    8.90

 -10   6   5    4.47    8.31

 -10   6   6  183.11   13.72

 -10   6   6  169.42   12.33

 -10   6   7    8.82    9.07

 -10   6   7    8.49    7.59

 -10   6   8  116.61   11.05

 -10   6   8  102.89   12.00

 -10   6   9    1.53    9.42

 -10   6  10  130.46   13.55

 -10   6  11   61.85   11.86

 -10   6  12  257.46   16.33

  -9   6  -6   41.13    7.37

  -9   6  -5   34.35    7.59

  -9   6  -4   98.68    9.40

  -9   6  -3    4.69    6.90

  -9   6  -2  203.79   12.32

  -9   6  -1    0.91    7.77

  -9   6   0  261.63   13.45

  -9   6   1    0.74    8.22

  -9   6   2   86.62   10.44

  -9   6   3    6.97    7.90

  -9   6   4   25.17    8.06

  -9   6   4   26.51    8.69

  -9   6   5  107.22   10.17

  -9   6   5   98.28   10.93

  -9   6   6  167.81   12.56

  -9   6   6  174.28   11.88

  -9   6   7    9.17    7.58

  -9   6   7    8.57    9.45

  -9   6   8   19.58    6.96

  -9   6   8   28.05   10.30

  -9   6   9   -0.49    8.58

  -9   6  10   45.64   11.18

  -9   6  11    1.53    9.68

  -9   6  12  148.73   13.59

  -9   6  13    3.04    9.05

  -8   6 -13   14.76    7.09

  -8   6 -12   61.71    9.46

  -8   6 -11    2.05    7.24

  -8   6 -10   82.34    9.32

  -8   6  -9    2.13    6.49

  -8   6  -8  365.04   14.04

  -8   6  -7   59.64    7.31

  -8   6  -6  160.27    9.80

  -8   6  -6  169.25    9.74

  -8   6  -5   23.45    6.67

  -8   6  -4  165.47   10.30

  -8   6  -3    8.30    6.48

  -8   6  -2  242.90   12.13

  -8   6  -1   11.94    7.22

  -8   6   0  165.61   11.18

  -8   6   1   -1.33    7.53

  -8   6   2   65.49    9.20

  -8   6   3   -1.61    7.15

  -8   6   3   -3.16    8.26

  -8   6   4  147.46   11.57

  -8   6   4  133.36   10.48

  -8   6   5    3.97    8.35

  -8   6   5    0.60    6.80

  -8   6   6  591.80   19.48

  -8   6   6  596.33   17.71

  -8   6   7   23.96    7.12

  -8   6   7   29.27    8.91

  -8   6   8  116.45    9.81

  -8   6   8  113.29   11.56

  -8   6   9   -0.24    8.68

  -8   6  10   56.68   10.36

  -8   6  11    3.13    8.65

  -8   6  12  133.25   13.72

  -8   6  13    2.84    8.53

  -7   6 -14   33.09    9.34

  -7   6 -13   28.27    8.94

  -7   6 -12    8.24    7.38

  -7   6 -11   37.08    8.00

  -7   6 -10   19.74    7.43

  -7   6  -9    1.23    6.86

  -7   6  -8  195.21   11.16

  -7   6  -7   16.36    6.51

  -7   6  -6   75.04    7.34

  -7   6  -5    2.10    5.40

  -7   6  -4   97.80    8.46

  -7   6  -3   28.56    7.02

  -7   6  -2   40.73    7.52

  -7   6  -1   46.05    7.85

  -7   6   0   16.16    6.66

  -7   6   1   20.74    7.33

  -7   6   2   22.40    7.18

  -7   6   3   41.46    8.08

  -7   6   3   44.42    8.69

  -7   6   4   37.63    8.64

  -7   6   4   34.70    7.74

  -7   6   5  149.75   11.31

  -7   6   5  149.81   10.12

  -7   6   6  248.84   13.33

  -7   6   6  261.71   12.26

  -7   6   7   -1.94    8.50

  -7   6   7    4.99    6.16

  -7   6   8   54.49   10.15

  -7   6   8   59.45    7.78

  -7   6   9   76.01   10.70

  -7   6  10   27.98    9.87

  -7   6  11    9.62    9.50

  -7   6  12   31.36    9.27

  -7   6  13    0.63    9.04

  -7   6  14   29.72    9.77

  -6   6 -14   69.07   10.85

  -6   6 -13   43.73    9.61

  -6   6 -12   61.95    9.70

  -6   6 -11   -1.29    7.81

  -6   6 -10  184.12   12.42

  -6   6  -9   97.42    9.40

  -6   6  -8  117.26    9.86

  -6   6  -7    8.60    6.33

  -6   6  -7    7.14    4.76

  -6   6  -6   22.05    5.57

  -6   6  -5    1.09    5.12

  -6   6  -4  399.02   12.70

  -6   6  -3    3.67    5.87

  -6   6  -2  298.07   11.54

  -6   6  -1  165.16    9.79

  -6   6   0  308.80   11.72

  -6   6   1  125.41    8.99

  -6   6   1  101.99   13.38

  -6   6   2  917.91   18.88

  -6   6   2  884.93   34.80

  -6   6   3   34.00    7.50

  -6   6   3   35.79    7.87

  -6   6   4  394.86   14.38

  -6   6   4  395.28   13.60

  -6   6   5   76.08    7.82

  -6   6   5   89.10    9.50

  -6   6   6   89.01    9.71

  -6   6   6   80.84    7.84

  -6   6   7   77.99    9.89

  -6   6   7   80.12    7.94

  -6   6   8   87.51    9.86

  -6   6   8   83.50    7.88

  -6   6   9    8.95    8.70

  -6   6  10  215.31   13.50

  -6   6  11   -1.16    8.33

  -5   6 -15   -0.59    8.55

  -5   6 -14   59.18   10.03

  -5   6 -13   24.12    8.53

  -5   6 -12  113.44   11.18

  -5   6 -11   56.81    9.24

  -5   6 -10  531.33   18.24

  -5   6  -9    1.14    6.81

  -5   6  -8  252.15   12.58

  -5   6  -7   29.15    4.91

  -5   6  -6    2.62    4.51

  -5   6  -5   63.49    6.18

  -5   6  -4  497.75   13.05

  -5   6  -3   37.83    5.94

  -5   6   0  108.04   13.83

  -5   6   1  115.08   14.78

  -5   6   2  801.95   33.62

  -5   6   2  785.27   17.43

  -5   6   3   13.59    6.50

  -5   6   4  718.38   17.51

  -5   6   5    5.82    5.59

  -5   6   5    9.90    7.15

  -5   6   6   75.72    7.32

  -5   6   6   73.81    8.46

  -5   6   7    0.38    7.43

  -5   6   7    4.48    5.45

  -5   6   8  157.24    8.94

  -5   6   8  128.78   10.39

  -5   6   9    8.66    7.76

  -4   6 -15    4.57    9.35

  -4   6 -14  117.37   12.33

  -4   6 -13    3.14    8.41

  -4   6 -12   16.22    8.76

  -4   6 -11    0.64    8.60

  -4   6 -10  172.21   11.90

  -4   6  -9    1.62    7.63

  -4   6  -8  238.94   12.12

  -4   6  -7    5.25    4.03

  -4   6  -6   84.82    6.14

  -4   6   0  127.70   13.86

  -4   6   1   81.06   12.30

  -4   6   2  122.41   14.48

  -4   6   2  118.42    8.07

  -4   6   3    2.44    5.61

  -4   6   4  291.11   11.30

  -4   6   5    0.23    5.61

  -4   6   6   45.36    7.64

  -4   6   7    5.07    6.65

  -4   6   8  215.79    9.59

  -4   6   8  205.37   11.37

  -3   6 -15   13.65    8.79

  -3   6 -14  219.70   14.69

  -3   6 -13   95.21   11.18

  -3   6 -12  103.32   11.01

  -3   6 -11    2.11    8.76

  -3   6 -10   64.02    9.32

  -3   6  -9    4.64    7.83

  -3   6  -8  160.70   10.94

  -3   6  -1   78.58   12.94

  -3   6   0  450.54   25.76

  -3   6   1   33.77    9.25

  -3   6   2  215.81   18.75

  -3   6   2  228.42    9.10

  -3   6   3    9.49    4.90

  -3   6   4  312.94   10.78

  -3   6   5   44.10    6.34

  -3   6   6  215.41    9.98

  -3   6   7   82.75    7.91

  -2   6 -16   10.73    9.18

  -2   6 -15   13.82    9.83

  -2   6 -14   33.54   10.45

  -2   6 -13    1.55    9.35

  -2   6 -12   87.11   11.15

  -2   6 -11   21.27    8.27

  -2   6 -10   26.29    8.86

  -2   6  -9   64.59    9.08

  -2   6  -8  167.22   10.88

  -2   6  -1  298.09   21.91

  -2   6   0  219.99   18.85

  -2   6   1  145.56   16.57

  -2   6   2  172.69    7.60

  -2   6   2  175.15   17.68

  -2   6   3   60.99    5.79

  -2   6   4  175.78    8.14

  -2   6   5   12.59    5.09

  -2   6   6  453.27   12.71

  -1   6 -16   -0.92    8.29

  -1   6 -15    1.83    9.30

  -1   6 -14   64.22   11.42

  -1   6 -13   -3.56    9.18

  -1   6 -12  313.74   15.98

  -1   6 -11    9.93    7.95

  -1   6 -10  136.56   11.48

  -1   6  -9    3.22    7.64

  -1   6  -8  183.94   11.28

  -1   6  -8  178.06    8.12

  -1   6  -1    2.06    9.69

  -1   6   0 1585.94   46.60

  -1   6   1   -2.30    9.93

  -1   6   2  780.25   34.39

  -1   6   3    3.99    3.83

  -1   6   4  308.41    9.38

  -1   6   5    9.93    4.35

  -1   6   6  436.46   11.73

   0   6 -16   23.94    9.90

   0   6 -15    5.29    9.05

   0   6 -14  124.00   12.38

   0   6 -13    7.10    8.66

   0   6 -12  236.97   14.51

   0   6 -11   14.04    8.51

   0   6 -10  158.61    8.68

   0   6 -10  138.08   11.15

   0   6  -9    4.24    7.05

   0   6  -9    5.94    4.83

   0   6  -8   62.84    6.33

   0   6  -8   59.13    8.40

   0   6  -1   13.15    7.59

   0   6   0 1458.80   45.02

   0   6   1    1.05    8.61

   0   6   2  328.75   23.12

   0   6   3   76.73    4.97

   0   6   4  277.14    8.28

   0   6   5  166.87    7.05

   0   6   6  243.94    8.68

   1   6 -16  118.47   12.47

   1   6 -15   22.73    9.95

   1   6 -14  331.76   17.30

   1   6 -13    9.59    9.12

   1   6 -12  178.71   13.10

   1   6 -11   82.67    7.74

   1   6 -11   72.68    9.54

   1   6 -10  221.52   10.47

   1   6 -10  227.31   13.21

   1   6  -9    7.69    7.04

   1   6  -9    5.19    5.37

   1   6  -8  341.70   13.44

   1   6  -8  315.24   11.45

   1   6  -7   94.99    7.13

   1   6  -1   -1.75    9.29

   1   6   0 1565.21   46.63

   1   6   1    4.68    9.83

   1   6   2  127.66   15.28

   1   6   4  449.18    9.25

   1   6   5  234.99    7.33

   1   6   6  854.42   13.89

   2   6 -16   60.40   10.55

   2   6 -15   25.64    9.84

   2   6 -14  111.38   12.11

   2   6 -13  144.60   12.68

   2   6 -12    1.92    6.02

   2   6 -12   -0.28    8.31

   2   6 -11   11.77    5.96

   2   6 -11   13.99    8.06

   2   6 -10   40.60    6.95

   2   6 -10   47.36    8.53

   2   6  -9   80.08    8.88

   2   6  -9   85.41    8.06

   2   6  -8  212.92   11.02

   2   6  -8  225.68   10.66

   2   6  -7    4.06    5.35

   2   6  -3   59.24   12.34

   2   6  -1  158.67   16.90

   2   6   0  221.86   19.10

   2   6   1  279.00   21.41

   2   6   2   46.90   10.82

   3   6 -16   78.76   10.39

   3   6 -15    5.18    7.75

   3   6 -14   63.71    9.77

   3   6 -13    1.71    6.52

   3   6 -13    4.59    7.47

   3   6 -12   13.35    7.70

   3   6 -12   19.23    7.08

   3   6 -11   15.02    7.31

   3   6 -11   17.42    7.05

   3   6 -10  131.32    9.79

   3   6 -10  137.60   10.76

   3   6  -9   34.67    7.29

   3   6  -9   36.80    7.22

   3   6  -8   90.18    8.39

   3   6  -8   78.20    7.99

   3   6  -7   90.07    8.29

   3   6  -3   18.79    9.11

   3   6  -1   31.16   10.17

   3   6   0  436.03   26.06

   3   6   1   85.78   14.07

   3   6   2  398.04   25.20

   4   6 -15   -1.22    7.51

   4   6 -14   26.23    7.65

   4   6 -14   35.43    8.58

   4   6 -13   17.50    7.59

   4   6 -13   17.44    7.54

   4   6 -12   93.92   10.03

   4   6 -12  106.17   10.16

   4   6 -11    5.04    6.60

   4   6 -11    6.36    6.73

   4   6 -10  765.46   20.37

   4   6 -10  727.87   19.41

   4   6  -9    0.66    7.10

   4   6  -9    1.61    5.98

   4   6  -8  203.34   10.44

   4   6  -8  198.89   11.32

   4   6  -7    0.22    6.46

   4   6  -7    0.85    5.23

   4   6  -6   36.59    7.08

   4   6  -4  275.38   21.26

   4   6  -3    1.44    8.62

   4   6   0  118.62   15.22

   4   6   1   33.48   10.50

   4   6   2  857.42   36.56

   5   6 -15   11.96    7.41

   5   6 -14   42.35    8.75

   5   6 -14   49.49    8.62

   5   6 -13   40.91    8.80

   5   6 -13   43.88    8.52

   5   6 -12   14.14    7.08

   5   6 -12   17.44    8.14

   5   6 -11   -2.84    6.22

   5   6 -11    0.96    7.14

   5   6 -10  437.15   15.54

   5   6 -10  416.35   16.58

   5   6  -9    7.92    5.75

   5   6  -9    5.07    7.05

   5   6  -8  132.57   10.61

   5   6  -8  127.76    8.78

   5   6  -7    4.27    7.18

   5   6  -7    5.22    4.92

   5   6  -6   69.63    8.74

   5   6  -4  739.84   32.42

   5   6  -3   12.37    8.60

   5   6  -2  857.66   33.25

   5   6   0  104.64   15.12

   5   6   1   85.99   13.87

   6   6 -15   18.55    7.78

   6   6 -14  235.51   14.74

   6   6 -13   68.46   10.48

   6   6 -12   87.87   10.59

   6   6 -11   -2.74    7.53

   6   6 -10  217.18   13.21

   6   6  -9   11.45    5.55

   6   6  -9   11.02    7.70

   6   6  -8   81.57    7.36

   6   6  -8   71.37    9.37

   6   6  -7   80.25    9.59

   6   6  -7   81.52    6.94

   6   6  -6   89.79    6.76

   6   6  -6   91.08    9.95

   6   6  -5   86.51    9.55

   7   6 -14   28.62    9.20

   7   6 -13    3.34    8.58

   7   6 -12   33.45    9.63

   7   6 -11    4.79    8.61

   7   6 -10   31.53    8.90

   7   6  -9   78.99   10.07

   7   6  -8   71.36    9.91

   7   6  -7    3.65    8.33

   7   6  -6  251.68   13.44

   7   6  -5  147.21   10.74

   7   6  -4   32.96    7.80

   8   6 -13    9.91    8.22

   8   6 -12  121.33   12.20

   8   6 -11   -2.44    9.01

   8   6 -10   57.66   10.11

   8   6  -9    2.02    8.61

   8   6  -8  111.11   11.49

   8   6  -7   24.55    8.78

   8   6  -6  585.58   18.89

   8   6  -5    1.30    7.90

   8   6  -4  135.92   10.47

   8   6  -3    1.95    6.90

   8   6  -2   62.57    8.23

   9   6 -13    3.15    9.02

   9   6 -12  167.13   13.47

   9   6 -11    2.57    9.07

   9   6 -10   41.51    9.61

   9   6  -9   -0.09    8.87

   9   6  -8   23.72    9.62

   9   6  -7   10.54    8.52

   9   6  -6  169.83   12.37

   9   6  -5   92.89    9.94

   9   6  -4   36.59    8.18

   9   6  -3   -0.99    6.79

   9   6  -2   86.52    8.82

   9   6  -1    0.67    6.25

  10   6 -12  236.45   15.31

  10   6 -11   60.93   11.36

  10   6 -10  127.18   13.07

  10   6  -9    2.60    9.11

  10   6  -8  111.00   12.03

  10   6  -7   13.50    8.90

  10   6  -6  181.20   13.19

  10   6  -5    5.00    8.01

  10   6  -4   24.45    7.82

  10   6  -3    3.62    7.29

  10   6  -2  359.20   14.52

  10   6  -1    5.04    6.50

  10   6   0  505.95   15.89

  10   6   1   74.91    7.63

  11   6 -11    7.02    8.49

  11   6 -10   12.89    8.74

  11   6  -9   50.59    9.65

  11   6  -8  105.90   11.98

  11   6  -7    7.94    9.02

  11   6  -6  230.87   14.16

  11   6  -5   12.44    8.33

  11   6  -4   30.34    8.20

  11   6  -3   43.65    8.41

  11   6  -2  151.31   11.04

  11   6  -1  119.51    9.81

  11   6   0   84.30    8.31

  12   6  -9    2.42    8.25

  12   6  -8   25.23    9.60

  12   6  -7   13.40    8.18

  12   6  -6  115.27   11.79

  12   6  -5    7.18    8.32

  12   6  -4   52.32    9.31

  12   6  -3   31.35    8.20

  12   6  -2  119.73   10.42

  13   6  -8   81.08   10.77

  13   6  -7    3.43    8.19

  13   6  -6   37.26    8.98

  13   6  -5    0.60    8.06

  13   6  -4   22.66    8.26

  13   6  -3   -1.30    6.91

  14   6  -6   17.37    8.40

  14   6  -5   -0.70    6.07

 -15   5  -4    1.43    9.01

 -15   5  -3   73.66   10.85

 -15   5  -2    7.81    9.56

 -15   5  -1   86.48   12.06

 -15   5   0   16.51    9.12

 -15   5   1   90.24   12.21

 -15   5   2   30.12   10.28

 -15   5   3   95.42   12.10

 -15   5   4   18.09   10.25

 -14   5  -5  166.52   13.29

 -14   5  -4   36.12    9.71

 -14   5  -3   79.13   10.88

 -14   5  -2    3.69    9.46

 -14   5  -1   37.62   10.51

 -14   5   0  128.86   12.80

 -14   5   1  116.82   12.84

 -14   5   2   36.69   10.36

 -14   5   3  166.49   13.72

 -14   5   4   19.21   10.07

 -14   5   5  178.97   14.67

 -14   5   6   14.26    8.84

 -14   5   7   53.45   10.83

 -13   5  -6   41.63    9.08

 -13   5  -5  128.53   11.68

 -13   5  -4   32.05    9.48

 -13   5  -3   98.99   11.35

 -13   5  -2    1.05    9.18

 -13   5  -1   41.68   10.31

 -13   5   0   14.76    8.86

 -13   5   1   79.55   11.97

 -13   5   2   22.69   10.40

 -13   5   3    4.65    8.56

 -13   5   4  143.11   13.72

 -13   5   5   59.45   10.98

 -13   5   6   28.77    9.01

 -13   5   6   44.79   10.23

 -13   5   7    9.09    9.07

 -13   5   7    7.24    9.06

 -13   5   8   -0.03    9.25

 -13   5   8    1.00    8.00

 -13   5   9  115.52   11.67

 -12   5  -6  129.42   11.17

 -12   5  -5   49.01    8.78

 -12   5  -4   57.08   10.04

 -12   5  -3   -6.46    8.12

 -12   5  -2    8.01    8.99

 -12   5  -1   58.87   10.69

 -12   5   0   60.99   10.62

 -12   5   1  199.44   14.22

 -12   5   2    1.42    9.14

 -12   5   3   61.41   10.70

 -12   5   4  106.94   12.08

 -12   5   5   62.79   10.92

 -12   5   5   59.68    9.83

 -12   5   6   56.44    9.90

 -12   5   6   71.37   10.42

 -12   5   7    0.13    8.36

 -12   5   7   -0.97    8.14

 -12   5   8   18.88    8.98

 -12   5   8   12.77    8.13

 -12   5   9   54.58   10.81

 -12   5  10    3.52    8.52

 -11   5  -6   24.67    7.62

 -11   5  -5  385.64   15.75

 -11   5  -4    5.81    7.86

 -11   5  -3   35.68    9.31

 -11   5  -2  214.02   13.19

 -11   5  -1  191.86   12.91

 -11   5   0    2.19    9.03

 -11   5   1   74.49   10.24

 -11   5   2   -2.55    8.32

 -11   5   3   57.48   10.52

 -11   5   4    9.86    8.49

 -11   5   4    8.29    8.35

 -11   5   5   65.58   10.01

 -11   5   5   74.87   10.52

 -11   5   6   -0.18    8.12

 -11   5   6    6.16    8.26

 -11   5   7  209.81   13.47

 -11   5   7  189.50   14.14

 -11   5   8   28.15   10.20

 -11   5   8   27.68    7.88

 -11   5   9  227.56   14.92

 -11   5  10  100.09   12.47

 -11   5  11   63.59   11.30

 -10   5  -6   32.03    7.42

 -10   5  -5  298.48   13.75

 -10   5  -4   21.78    7.43

 -10   5  -3   64.32    8.89

 -10   5  -2    1.56    8.08

 -10   5  -1  355.23   15.39

 -10   5   0    3.67    7.86

 -10   5   1  127.16   11.50

 -10   5   2    0.73    8.69

 -10   5   3  197.15   12.51

 -10   5   3  205.24   12.81

 -10   5   4   21.84    8.64

 -10   5   4   18.17    8.21

 -10   5   5  107.56   11.23

 -10   5   5  115.21   10.45

 -10   5   6    2.63    7.83

 -10   5   6   -0.46    8.22

 -10   5   7  166.15   11.76

 -10   5   7  161.44   13.04

 -10   5   8    3.93    9.21

 -10   5   8    6.35    6.93

 -10   5   9  146.81   13.43

 -10   5  10    3.48    9.52

 -10   5  11   78.30   12.21

 -10   5  12   46.42   10.08

  -9   5  -6   19.40    6.50

  -9   5  -5  247.21   11.89

  -9   5  -4    2.64    6.91

  -9   5  -3  169.37   10.93

  -9   5  -2   40.50    8.12

  -9   5  -1  337.84   13.93

  -9   5   0    7.47    7.34

  -9   5   1  146.15   10.95

  -9   5   2   -2.92    7.69

  -9   5   3  323.83   14.02

  -9   5   3  318.63   14.04

  -9   5   4   -0.60    7.32

  -9   5   4    1.21    7.23

  -9   5   5  467.79   17.11

  -9   5   5  462.20   15.98

  -9   5   6   -2.21    7.89

  -9   5   6    2.55    6.91

  -9   5   7  160.66   10.78

  -9   5   7  170.65   12.71

  -9   5   8    2.96    8.51

  -9   5   8    3.64    6.86

  -9   5   9  122.82   12.37

  -9   5  10    3.20    9.14

  -9   5  11   49.05   10.79

  -9   5  12    2.64    9.25

  -9   5  13  121.37   13.64

  -8   5 -13   32.69    7.95

  -8   5 -12   16.75    7.56

  -8   5 -11  105.35    9.68

  -8   5 -10   26.54    7.01

  -8   5  -9   77.12    8.38

  -8   5  -8    2.80    5.53

  -8   5  -7  134.47    8.83

  -8   5  -7  141.59    8.66

  -8   5  -6   14.04    5.91

  -8   5  -6   10.07    5.01

  -8   5  -5    4.45    5.66

  -8   5  -5    5.86    4.74

  -8   5  -4   -1.43    6.20

  -8   5  -3   57.74    7.82

  -8   5  -2   21.66    7.12

  -8   5  -1  358.87   13.45

  -8   5   0    7.58    6.69

  -8   5   1   90.89    9.19

  -8   5   2   89.26    9.08

  -8   5   2   90.61    9.17

  -8   5   3   56.52    8.95

  -8   5   3   72.17    8.62

  -8   5   4    0.92    8.00

  -8   5   4   -0.83    6.59

  -8   5   5  145.59   10.11

  -8   5   5  141.44   11.17

  -8   5   6    8.82    6.42

  -8   5   6   10.09    7.84

  -8   5   7   -0.88    8.54

  -8   5   7    0.68    6.35

  -8   5   8    5.91    5.99

  -8   5   8    5.66    8.26

  -8   5   9   45.01   10.34

  -8   5  10    3.98    8.96

  -8   5  11   11.43    9.64

  -7   5 -14    0.43    7.70

  -7   5 -13   27.04    8.77

  -7   5 -12    5.36    7.06

  -7   5 -11   36.29    8.00

  -7   5 -10   27.58    7.08

  -7   5  -9   87.17    8.74

  -7   5  -8   -0.37    6.02

  -7   5  -7  150.94    8.31

  -7   5  -7  159.61    9.23

  -7   5  -6   23.98    5.60

  -7   5  -6   25.17    5.66

  -7   5  -5  159.25    8.69

  -7   5  -4   79.85    7.33

  -7   5  -3   77.75    7.43

  -7   5  -2    0.70    7.74

  -7   5  -2    6.78    5.82

  -7   5  -1  436.28   24.93

  -7   5  -1  417.03   13.17

  -7   5   0   39.32    6.56

  -7   5   1   25.65    6.41

  -7   5   2   24.12    6.54

  -7   5   2   24.50    7.31

  -7   5   3  155.16    9.84

  -7   5   3  162.14   10.52

  -7   5   4    2.93    6.43

  -7   5   4    5.08    7.37

  -7   5   5  232.54   12.35

  -7   5   5  222.69   10.68

  -7   5   6   68.00    9.19

  -7   5   6   64.30    7.38

  -7   5   7  135.26    9.11

  -7   5   7  135.24   11.53

  -7   5   8   30.31    6.26

  -7   5   8   33.89    9.37

  -6   5 -15   77.17   10.11

  -6   5 -14   32.81    9.06

  -6   5 -13   39.60    9.58

  -6   5 -12   77.46    9.93

  -6   5 -11   80.17    9.55

  -6   5 -10   41.53    8.12

  -6   5  -9   65.04    8.59

  -6   5  -8    3.32    5.97

  -6   5  -7   35.16    4.99

  -6   5  -7   30.78    6.45

  -6   5  -6   20.95    4.97

  -6   5  -5  280.56   10.03

  -6   5  -4  155.52    8.20

  -6   5  -3  201.52    8.99

  -6   5  -3  244.30   19.87

  -6   5  -2   16.14    5.41

  -6   5  -2   14.14    9.10

  -6   5  -1  704.53   15.36

  -6   5   0  288.39   10.48

  -6   5   1   47.11    6.30

  -6   5   1   43.95    9.35

  -6   5   2  237.45   17.19

  -6   5   2  234.61   10.97

  -6   5   2  225.72    9.77

  -6   5   3  450.86   13.98

  -6   5   3  439.97   13.05

  -6   5   4   16.46    7.01

  -6   5   4   13.88    5.73

  -6   5   5   61.17    7.04

  -6   5   5   66.63    8.53

  -6   5   6  151.52   10.97

  -6   5   6  151.77    8.86

  -6   5   7  189.79   11.64

  -6   5   7  191.02    9.53

  -6   5   8   27.36    5.76

  -5   5 -15   88.20   11.61

  -5   5 -14    3.42    8.60

  -5   5 -13   26.76    8.30

  -5   5 -12   -2.29    7.53

  -5   5 -11  402.73   16.18

  -5   5 -10   26.45    7.66

  -5   5  -9  288.52   13.17

  -5   5  -8   47.53    7.38

  -5   5  -7  361.90   10.21

  -5   5  -7  342.94   12.39

  -5   5  -6    5.36    4.01

  -5   5  -5  444.63   11.35

  -5   5  -4   61.95    5.82

  -5   5  -3  394.16   24.63

  -5   5  -3  355.73   10.45

  -5   5  -2    2.34    4.79

  -5   5  -1  460.66   11.92

  -5   5   0   46.24    5.54

  -5   5   0   66.15   10.07

  -5   5   1  281.38   18.42

  -5   5   2   53.18    6.44

  -5   5   2   55.16    6.40

  -5   5   2   45.04    9.23

  -5   5   3 1509.55   21.14

  -5   5   3 1549.45   22.51

  -5   5   4  552.92   14.58

  -5   5   4  571.23   13.70

  -5   5   5  464.54   12.50

  -5   5   5  464.58   14.18

  -5   5   6   -0.98    4.99

  -5   5   6    0.32    6.43

  -5   5   7  459.36   12.57

  -5   5   8   56.49    6.17

  -4   5 -16  140.18   12.73

  -4   5 -15  203.05   14.06

  -4   5 -14   12.01    9.45

  -4   5 -13   20.54    9.02

  -4   5 -12   16.34    8.55

  -4   5 -11  384.84   16.21

  -4   5 -10   -0.14    7.55

  -4   5  -9   97.84    9.24

  -4   5  -8    0.98    5.95

  -4   5  -7  467.97   10.64

  -4   5  -7  451.06   13.85

  -4   5  -6   23.51    4.05

  -4   5  -5  541.47   11.75

  -4   5  -4  531.23   28.55

  -4   5  -3 1023.18   38.02

  -4   5   0   57.15    9.96

  -4   5   1  233.54    8.97

  -4   5   1  226.77   16.68

  -4   5   2   14.66    8.44

  -4   5   2   20.73    5.35

  -4   5   3  482.45   12.55

  -4   5   4   44.51    6.20

  -4   5   5  185.64    9.55

  -4   5   5  195.52   18.43

  -4   5   7  272.70    9.51

  -4   5   8   27.84    4.90

  -3   5 -16    0.09    8.34

  -3   5 -15   65.95   11.32

  -3   5 -14   55.70   10.82

  -3   5 -13   51.82    9.94

  -3   5 -12   70.23    9.93

  -3   5 -11  348.19   15.55

  -3   5 -10  107.36   10.36

  -3   5  -9   60.24    8.62

  -3   5  -8   74.28    8.15

  -3   5  -7  203.88    6.87

  -3   5  -4   50.42   10.56

  -3   5  -3  137.73   15.95

  -3   5  -1  253.18   18.13

  -3   5   0  727.00   28.48

  -3   5   1  624.98   26.80

  -3   5   2   18.42    4.46

  -3   5   3  567.91   12.55

  -3   5   4  436.94   11.63

  -3   5   5   80.40   13.18

  -3   5   5   96.99    7.10

  -2   5 -16   -1.13    9.15

  -2   5 -15   14.41    8.71

  -2   5 -14   35.96    9.53

  -2   5 -13  110.28   11.85

  -2   5 -12   25.85    9.31

  -2   5 -11  164.42   11.86

  -2   5 -10   34.87    8.42

  -2   5  -9   43.04    7.94

  -2   5  -8   32.19    7.37

  -2   5  -7  256.25    7.76

  -2   5  -4   25.98   10.16

  -2   5  -3  169.25   15.73

  -2   5  -1  302.88   19.68

  -2   5   0    2.97    7.71

  -2   5   1  309.27   19.79

  -2   5   2   45.76    4.77

  -2   5   3  419.60   10.27

  -2   5   4    4.30    8.39

  -2   5   4    5.11    4.33

  -2   5   5   36.09    9.57

  -2   5   7  629.69   30.20

  -1   5 -16    1.99    9.32

  -1   5 -15   31.79    9.24

  -1   5 -14   27.93    9.12

  -1   5 -13  144.39   12.54

  -1   5 -12    0.55    8.48

  -1   5 -11  118.52   10.73

  -1   5 -10    9.70    8.26

  -1   5  -9   13.75    4.01

  -1   5  -9   15.02    7.52

  -1   5  -8    5.95    3.73

  -1   5  -8    7.58    6.86

  -1   5  -7  190.10    7.28

  -1   5  -5  493.85   27.82

  -1   5  -4    2.02    7.99

  -1   5  -3  365.60   22.58

  -1   5  -1  688.81   28.36

  -1   5   0    2.96    6.91

  -1   5   1  603.94   26.86

  -1   5   2   79.75    4.90

  -1   5   3  664.52   11.70

  -1   5   4   51.40    4.70

  -1   5   4   48.43   11.05

  -1   5   5   14.44    9.86

  -1   5   7  767.20   31.43

   0   5 -16    9.99    8.32

   0   5 -15  115.05   12.28

   0   5 -14    2.59    9.28

   0   5 -13  122.94   12.23

   0   5 -12   77.33   10.59

   0   5 -11  266.89   14.11

   0   5 -10   12.40    4.71

   0   5 -10   10.90    7.38

   0   5  -9  232.55   12.01

   0   5  -9  226.32    9.17

   0   5  -8    0.92    4.14

   0   5  -8   -1.08    6.68

   0   5  -7 1165.65   17.41

   0   5  -5  691.18   32.13

   0   5  -4   -1.69    7.67

   0   5  -3 1113.90   37.19

   0   5  -1  886.28   32.12

   0   5   0   -4.24    8.60

   0   5   1  787.62   30.35

   0   5   2   40.61    3.61

   0   5   3 1137.41   13.86

   0   5   4   -0.57    3.02

   0   5   4   -0.45    8.55

   0   5   5  724.77   33.37

   1   5 -16    5.07    9.19

   1   5 -15  131.76   12.33

   1   5 -14    2.77    8.58

   1   5 -13  158.74   12.54

   1   5 -12   62.49    9.94

   1   5 -11  257.93   13.55

   1   5 -11  257.28   10.96

   1   5 -10   23.86    5.57

   1   5 -10   23.08    7.81

   1   5  -9  193.94   10.83

   1   5  -9  182.92    8.94

   1   5  -8    2.45    6.22

   1   5  -8    5.93    4.89

   1   5  -7  754.49   15.02

   1   5  -5   10.64    9.22

   1   5  -4   53.41   10.78

   1   5  -3  601.95   27.46

   1   5  -1  530.39   25.19

   1   5   0    0.99    7.89

   1   5   1  690.05   29.16

   1   5   3  381.24    7.51

   1   5   4   -1.71    8.41

   1   5   4    1.02    2.51

   1   5   5  465.19   26.91

   2   5 -16   16.68    8.68

   2   5 -15   65.31    9.98

   2   5 -14    6.64    8.58

   2   5 -13  160.31   12.64

   2   5 -12   41.21    7.01

   2   5 -12   52.29    9.59

   2   5 -11   69.33    7.65

   2   5 -11   63.80    9.44

   2   5 -10  167.87   10.82

   2   5 -10  152.45    9.47

   2   5  -9  210.51   10.02

   2   5  -9  192.78   10.95

   2   5  -8   -0.39    6.15

   2   5  -8    1.47    5.38

   2   5  -7  602.20   14.79

   2   5  -7  642.21   14.82

   2   5  -6   35.84    5.66

   2   5  -5   60.94   12.25

   2   5  -4    1.13    8.52

   2   5  -3  424.72   23.05

   2   5  -1  297.09   19.52

   2   5   0    7.95    8.99

   2   5   1  299.38   19.49

   2   5   3  164.21    4.44

   2   5   4   25.09    2.62

   2   5   5  461.46   27.42

   2   5   5  434.81    8.15

   3   5 -16   26.72    9.09

   3   5 -15   40.54    9.80

   3   5 -14   42.11    8.72

   3   5 -13  177.38   12.47

   3   5 -13  172.99   11.37

   3   5 -12   58.09    8.20

   3   5 -12   54.71    9.03

   3   5 -11    9.10    7.09

   3   5 -11    9.38    6.45

   3   5 -10   44.80    7.32

   3   5 -10   42.29    7.59

   3   5  -9   57.88    7.76

   3   5  -9   56.87    7.40

   3   5  -8   44.41    7.05

   3   5  -8   42.34    7.01

   3   5  -7   81.82    6.98

   3   5  -7   80.47    7.34

   3   5  -6   66.07    7.08

   3   5  -5   96.27   12.95

   3   5  -4  411.44   23.85

   3   5  -3  571.29   26.34

   3   5  -1  568.44   26.14

   3   5   0  718.98   29.47

   3   5   1  241.41   17.92

   4   5 -16   23.30    8.44

   4   5 -15   10.80    8.34

   4   5 -14    5.38    6.49

   4   5 -14   -1.19    7.39

   4   5 -13  109.14   10.55

   4   5 -13   91.05    9.68

   4   5 -12   15.61    7.64

   4   5 -12    8.21    6.97

   4   5 -11  139.21   10.35

   4   5 -11  140.36   10.53

   4   5 -10   -0.16    6.83

   4   5 -10    4.36    6.47

   4   5  -9  336.35   13.32

   4   5  -9  327.67   12.49

   4   5  -8   32.99    6.11

   4   5  -8   24.34    6.97

   4   5  -7  277.25   10.30

   4   5  -7  263.31   11.33

   4   5  -6   19.12    6.09

   4   5  -5  174.97   16.74

   4   5  -4   42.66   10.17

   4   5  -3  495.56   24.45

   4   5   0   57.30    9.90

   4   5   1  384.15   22.33

   4   5   2   12.13    7.83

   5   5 -15  127.85   11.20

   5   5 -15  102.80   10.60

   5   5 -14    5.09    6.72

   5   5 -14   10.95    7.66

   5   5 -13   82.75   10.28

   5   5 -13   77.81    9.12

   5   5 -12    0.49    6.56

   5   5 -12    0.21    7.10

   5   5 -11  188.07   11.84

   5   5 -11  179.74   11.04

   5   5 -10   26.29    6.52

   5   5 -10   24.41    8.00

   5   5  -9  228.59   12.37

   5   5  -9  222.59   10.69

   5   5  -8   50.32    8.17

   5   5  -8   56.75    6.70

   5   5  -7  452.14   15.09

   5   5  -7  445.95   12.47

   5   5  -6    2.22    4.15

   5   5  -6    0.21    6.35

   5   5  -5  485.68   14.21

   5   5  -4  581.90   26.61

   5   5  -3 1502.95   40.31

   5   5  -2   62.90    9.81

   5   5   0   55.37   10.86

   5   5   1  436.51   23.69

   5   5   2    2.64    9.03

   5   5   5  407.87   24.72

   6   5 -15   45.34    9.45

   6   5 -14   47.40    9.09

   6   5 -13  119.91   11.09

   6   5 -12   89.61   10.08

   6   5 -11  208.19   12.95

   6   5 -10   45.74    8.73

   6   5 -10   41.29    6.71

   6   5  -9  222.80   10.37

   6   5  -9  197.92   12.17

   6   5  -8   23.76    7.86

   6   5  -8   31.20    5.74

   6   5  -7  189.15   11.53

   6   5  -7  193.22    8.59

   6   5  -6  136.10    7.09

   6   5  -6  134.04   10.30

   6   5  -5   65.87    5.14

   6   5  -5   66.58    8.64

   6   5  -4   14.83    6.70

   6   5   0  253.98   18.49

   6   5   1  620.73   28.20

   6   5   2   16.53    8.49

   6   5   3  196.43   17.79

   6   5   4  156.65   15.60

   6   5   5  305.16   21.63

   7   5 -15    9.47    7.45

   7   5 -14   -3.41    7.59

   7   5 -13  136.94   11.98

   7   5 -12   84.07   10.60

   7   5 -11   72.55   10.66

   7   5 -10  108.54   11.26

   7   5  -9  170.97   12.03

   7   5  -8   26.17    8.29

   7   5  -7  146.64   11.39

   7   5  -6   60.15    8.96

   7   5  -5  222.46   11.67

   7   5  -4    5.38    6.49

   7   5  -3  170.21    9.88

   8   5 -14   32.72    8.95

   8   5 -13  153.47   13.20

   8   5 -12   14.57    9.19

   8   5 -11   22.08    8.54

   8   5 -10   14.10    9.34

   8   5  -9   36.34    9.05

   8   5  -8    8.98    8.73

   8   5  -7    2.15    7.98

   8   5  -6   11.43    7.94

   8   5  -5  149.90   10.88

   8   5  -4    1.12    6.55

   8   5  -3   68.95    8.09

   8   5  -2   75.06    7.92

   8   5  -1  102.61    8.08

   9   5 -13  104.39   12.14

   9   5 -12    5.06    9.06

   9   5 -11   36.92    9.62

   9   5 -10   -7.54    8.81

   9   5  -9  119.26   12.11

   9   5  -8    4.17    8.34

   9   5  -7  178.34   12.30

   9   5  -6   -1.37    7.40

   9   5  -5  473.39   16.49

   9   5  -4    0.18    6.74

   9   5  -3  321.04   13.03

   9   5  -2    0.44    6.15

   9   5  -1  140.05    9.18

   9   5   0    4.96    5.23

   9   5   1  347.61   11.88

  10   5 -12   49.72   10.43

  10   5 -11   76.36   10.87

  10   5 -10    6.69    8.40

  10   5  -9  142.03   12.29

  10   5  -8   -0.28    8.22

  10   5  -7  163.21   12.21

  10   5  -6    3.53    8.08

  10   5  -5  114.54   10.67

  10   5  -4   22.16    7.28

  10   5  -3  202.78   11.65

  10   5  -2    6.05    6.15

  10   5  -1  119.05    8.83

  10   5   0    1.64    5.22

  10   5   1  368.51   12.54

  11   5 -11   49.39   10.77

  11   5 -10  110.71   12.73

  11   5  -9  263.42   15.71

  11   5  -8   26.97    8.89

  11   5  -7  197.58   13.66

  11   5  -6    2.03    7.44

  11   5  -5   65.23    9.68

  11   5  -4    5.01    6.90

  11   5  -3   68.44    8.66

  11   5  -2    0.20    6.02

  11   5  -1   78.86    8.17

  11   5   0    4.71    5.47

  12   5 -10   -1.57    8.38

  12   5  -9   43.09   10.23

  12   5  -8   13.51    8.04

  12   5  -7    4.13    8.05

  12   5  -6   62.25   10.12

  12   5  -5   63.68    9.56

  12   5  -4  100.18   10.23

  12   5  -3   53.46    8.34

  12   5  -2   -1.16    6.15

  13   5  -9  121.01   12.36

  13   5  -8   -1.26    8.77

  13   5  -7    8.22    8.52

  13   5  -6   39.09    9.19

  13   5  -5   66.31    9.83

  13   5  -4  138.46   11.28

  14   5  -7   57.54    9.38

  14   5  -6    0.05    7.59

  14   5  -5  182.20   12.84

 -15   4  -5    8.16    8.69

 -15   4  -4    7.76    9.08

 -15   4  -3    5.71    8.57

 -15   4  -2   62.38   11.42

 -15   4  -1   26.76   10.84

 -15   4   0   72.34   11.25

 -15   4   1    3.89    9.93

 -15   4   2    3.70   10.08

 -15   4   3    5.98    8.83

 -15   4   4   38.96   11.05

 -15   4   5   29.11   10.48

 -15   4   6  213.70   15.16

 -14   4  -6  232.85   14.15

 -14   4  -5    2.42    7.99

 -14   4  -4   22.52    9.47

 -14   4  -3   24.48    9.14

 -14   4  -2   60.82   10.74

 -14   4  -1   15.43    9.59

 -14   4   0  118.65   12.21

 -14   4   1    1.06    9.13

 -14   4   2   97.22   12.15

 -14   4   3    3.17    8.43

 -14   4   4    0.81    9.38

 -14   4   5   -1.73    9.15

 -14   4   6  175.30   13.50

 -14   4   7    4.38    8.70

 -14   4   7    2.23    8.79

 -14   4   8   32.86    9.71

 -14   4   8   35.55    9.34

 -13   4  -6   45.85    9.19

 -13   4  -5  135.56   11.53

 -13   4  -4   37.14    9.14

 -13   4  -3   18.59    8.65

 -13   4  -2   12.25    8.42

 -13   4  -1   10.88    8.36

 -13   4   0  144.25   12.91

 -13   4   1    0.40    8.51

 -13   4   2  378.87   17.41

 -13   4   3   23.76    9.36

 -13   4   4   72.30   10.89

 -13   4   5  116.95   11.76

 -13   4   5   98.61   11.10

 -13   4   6   90.91   10.69

 -13   4   6   95.12   10.97

 -13   4   7  183.84   13.15

 -13   4   7  175.77   13.71

 -13   4   8   28.03    9.68

 -13   4   8   29.32    8.17

 -13   4   9    3.96    8.01

 -13   4  10   12.85    9.17

 -12   4  -6   26.44    7.53

 -12   4  -5    8.10    7.88

 -12   4  -4  434.99   17.08

 -12   4  -3   72.96   10.26

 -12   4  -2  108.63   10.89

 -12   4  -1   35.56    9.16

 -12   4   0   55.05    9.69

 -12   4   1    4.12    8.41

 -12   4   2   47.37    9.64

 -12   4   3   10.54    8.72

 -12   4   4   71.76    9.57

 -12   4   4   69.37   10.23

 -12   4   5  117.13   11.10

 -12   4   5  118.77   11.29

 -12   4   6   12.76    8.84

 -12   4   6   16.08    8.02

 -12   4   7   44.69    9.77

 -12   4   7   49.10    9.11

 -12   4   8  218.11   14.81

 -12   4   8  229.29   13.70

 -12   4   9   85.43   11.12

 -12   4  10  167.05   13.90

 -12   4  11   11.84    9.29

 -11   4  -6    3.92    6.83

 -11   4  -5   10.17    7.33

 -11   4  -4  259.98   13.38

 -11   4  -3    9.31    8.03

 -11   4  -2  251.11   13.50

 -11   4  -1   19.02    8.57

 -11   4   0   78.57    9.94

 -11   4   1    1.15    8.59

 -11   4   2  112.12   11.23

 -11   4   3    2.37    8.00

 -11   4   3    3.64    7.61

 -11   4   4  273.49   13.74

 -11   4   4  272.83   14.29

 -11   4   5    0.61    7.63

 -11   4   5    5.71    8.14

 -11   4   6   20.59    8.76

 -11   4   6   23.10    8.54

 -11   4   7    0.95    7.93

 -11   4   7    8.58    7.74

 -11   4   8  110.20   11.32

 -11   4   8   98.80   10.19

 -11   4   9    2.32    8.81

 -11   4  10   58.47   10.44

 -11   4  11   -2.69    8.39

 -11   4  12   86.63   12.39

 -10   4  -9   16.06    7.12

 -10   4  -8  205.87   12.39

 -10   4  -7   -3.82    5.75

 -10   4  -7   -0.36    7.26

 -10   4  -6  115.62    9.36

 -10   4  -5   17.83    7.05

 -10   4  -4   55.25    8.18

 -10   4  -3   -0.38    6.81

 -10   4  -2  278.81   13.64

 -10   4  -1    4.69    8.13

 -10   4   0   33.18    8.54

 -10   4   1  187.15   12.17

 -10   4   2  202.47   12.51

 -10   4   3   14.41    8.24

 -10   4   3   19.56    7.87

 -10   4   4  270.51   13.82

 -10   4   4  265.36   13.42

 -10   4   5    7.47    7.39

 -10   4   5   10.96    7.60

 -10   4   6  204.28   12.69

 -10   4   6  223.34   12.66

 -10   4   7    9.23    8.69

 -10   4   7   11.69    7.26

 -10   4   8  112.89   11.95

 -10   4   8  123.16    9.92

 -10   4   9    0.84    8.80

 -10   4  10   91.94   12.09

 -10   4  11   -1.49    9.67

 -10   4  12   20.77    9.33

 -10   4  13   -6.24    9.18

  -9   4  -9    5.72    6.29

  -9   4  -8  100.79    9.12

  -9   4  -7   12.75    6.71

  -9   4  -7   17.03    5.81

  -9   4  -6  190.76   10.88

  -9   4  -6  196.07   10.35

  -9   4  -5   12.44    6.45

  -9   4  -4   88.51    8.36

  -9   4  -3   57.59    8.03

  -9   4  -2  308.32   12.79

  -9   4  -1   52.72    7.89

  -9   4   0   75.18    8.45

  -9   4   1    5.12    7.35

  -9   4   2  329.26   13.08

  -9   4   2  332.41   13.62

  -9   4   3  124.48    9.94

  -9   4   3  120.53   10.02

  -9   4   4   78.36    9.29

  -9   4   4   73.52    8.68

  -9   4   5    4.64    7.60

  -9   4   5    5.83    7.22

  -9   4   6  134.03    9.91

  -9   4   6  126.34   11.03

  -9   4   7   20.56    6.80

  -9   4   7   22.68    8.42

  -9   4   8   91.27    8.54

  -9   4   8   82.47   10.39

  -9   4   9    8.36    8.92

  -8   4 -13    0.03    7.01

  -8   4 -12  164.58   11.54

  -8   4 -11   28.94    7.27

  -8   4 -10   52.41    7.65

  -8   4  -9   11.69    5.79

  -8   4  -8  202.37   10.02

  -8   4  -8  198.39   10.62

  -8   4  -7   14.87    5.17

  -8   4  -7   23.34    5.43

  -8   4  -7   29.16    6.56

  -8   4  -6  175.27    9.27

  -8   4  -6  188.04    8.60

  -8   4  -6  181.73    9.86

  -8   4  -5    4.99    5.80

  -8   4  -5    1.00    5.34

  -8   4  -5    0.80    3.83

  -8   4  -4  349.22   12.17

  -8   4  -4  357.52   10.06

  -8   4  -3  180.77    9.75

  -8   4  -2  148.06    9.19

  -8   4  -1    9.80    6.01

  -8   4   0  162.45    9.42

  -8   4   1    4.76    6.28

  -8   4   2  327.08   12.36

  -8   4   2  335.01   12.74

  -8   4   3  112.16    9.50

  -8   4   3  110.06    9.11

  -8   4   4  321.18   12.54

  -8   4   4  318.64   13.00

  -8   4   5    2.69    6.48

  -8   4   5    6.18    7.79

  -8   4   6  105.62   10.25

  -8   4   6  116.58    9.00

  -8   4   7   15.91    5.99

  -8   4   7   28.97    8.93

  -8   4   8  146.86    9.25

  -7   4 -15    2.51    7.46

  -7   4 -14   44.90    9.52

  -7   4 -13   27.24    7.89

  -7   4 -12  243.43   13.48

  -7   4 -11   12.93    6.84

  -7   4 -10   60.97    8.20

  -7   4  -9    7.11    6.10

  -7   4  -8  176.22    9.28

  -7   4  -8  183.79    9.76

  -7   4  -7    2.35    4.22

  -7   4  -7    1.97    4.98

  -7   4  -7    2.65    5.14

  -7   4  -6   19.16    4.99

  -7   4  -6   25.76    5.21

  -7   4  -6   19.13    5.64

  -7   4  -5   61.12    6.32

  -7   4  -5   64.08    5.82

  -7   4  -5   63.22    6.71

  -7   4  -4  282.01   10.39

  -7   4  -3   -0.25    5.45

  -7   4  -3    2.18    7.86

  -7   4  -2  230.75   16.81

  -7   4  -2  223.41    9.72

  -7   4  -1  260.07   10.55

  -7   4  -1  255.30   17.28

  -7   4   0  635.46   14.92

  -7   4   1   49.86    6.43

  -7   4   1   50.92    6.78

  -7   4   2  240.15   10.38

  -7   4   2  231.72   10.29

  -7   4   3  144.33    8.71

  -7   4   3  158.83    9.50

  -7   4   4  554.40   14.42

  -7   4   4  548.20   15.50

  -7   4   5   17.88    6.11

  -7   4   5   17.50    7.67

  -7   4   6   23.99    7.82

  -7   4   6   29.31    6.23

  -7   4   7   15.69    5.60

  -7   4   8   70.54    6.85

  -6   4 -15    7.05    7.41

  -6   4 -14  106.30   11.47

  -6   4 -13   -0.40    7.13

  -6   4 -12  119.26   10.90

  -6   4 -11    6.41    7.04

  -6   4 -10  102.35    9.20

  -6   4  -9    8.38    6.22

  -6   4  -8  289.96   10.30

  -6   4  -8  300.94   11.95

  -6   4  -7    7.65    5.17

  -6   4  -7    8.49    4.41

  -6   4  -7    7.00    3.89

  -6   4  -6  377.28   10.52

  -6   4  -6  381.08   11.42

  -6   4  -6  372.31   10.97

  -6   4  -5   21.72    4.87

  -6   4  -5   17.94    4.59

  -6   4  -4  146.88    7.56

  -6   4  -4  136.40   14.60

  -6   4  -3   91.38    6.50

  -6   4  -3   95.34   12.34

  -6   4  -2  385.21   11.00

  -6   4  -2  372.13   20.83

  -6   4  -1   24.32    5.44

  -6   4   0  544.01   12.95

  -6   4   1    4.21    5.67

  -6   4   1    4.47    5.05

  -6   4   1    3.56    4.48

  -6   4   2   38.63    7.73

  -6   4   2   47.30    6.15

  -6   4   2   40.80    6.13

  -6   4   3   37.20    6.58

  -6   4   3   30.75    5.59

  -6   4   4  353.73   11.11

  -6   4   4  351.17   12.37

  -6   4   5  200.55    9.00

  -6   4   5  204.66   17.47

  -6   4   5  215.43   10.92

  -6   4   6  475.91   26.42

  -6   4   6  535.33   13.36

  -6   4   7   49.60    6.05

  -6   4   8  230.83    9.45

  -5   4 -16   29.03    8.70

  -5   4 -15   21.98    9.45

  -5   4 -14  172.98   12.79

  -5   4 -13   -1.04    7.95

  -5   4 -12   51.86    9.38

  -5   4 -11    8.23    7.07

  -5   4 -10   21.15    7.17

  -5   4  -9  259.93   11.99

  -5   4  -8  105.91    8.24

  -5   4  -7  161.20    7.20

  -5   4  -7  165.80    8.90

  -5   4  -7  150.69    6.54

  -5   4  -6 1127.26   18.60

  -5   4  -6 1149.51   16.30

  -5   4  -6 1155.53   16.82

  -5   4  -5  220.14    7.97

  -5   4  -5  195.41    7.60

  -5   4  -5  232.32   19.40

  -5   4  -4  211.99   18.21

  -5   4  -4  224.38    8.00

  -5   4  -3    6.84    3.88

  -5   4  -3   14.23    7.40

  -5   4  -2  679.13   27.61

  -5   4  -2  638.28   12.60

  -5   4  -1    0.73    4.45

  -5   4   0  736.67   24.35

  -5   4   0  681.13   13.21

  -5   4   1    3.63    4.03

  -5   4   1   -0.51    4.61

  -5   4   1   -6.37    5.61

  -5   4   2  153.71    7.64

  -5   4   2  166.05    7.98

  -5   4   3   17.18    4.99

  -5   4   3   18.09    5.33

  -5   4   4    6.38    7.76

  -5   4   4    6.30    4.50

  -5   4   4    4.33    5.41

  -5   4   5  269.35    9.21

  -5   4   5  263.09   19.14

  -5   4   6  908.10   36.69

  -5   4   6  940.83   16.09

  -5   4   6  918.23   37.04

  -5   4   7   14.10    4.45

  -5   4   8  168.71    7.82

  -4   4 -16   20.04    9.10

  -4   4 -15   15.22    9.10

  -4   4 -14   56.55   10.42

  -4   4 -13   22.19    8.42

  -4   4 -12  360.64   15.80

  -4   4 -11    5.70    7.85

  -4   4 -10  207.26   11.80

  -4   4  -9    4.33    6.12

  -4   4  -8  176.40    9.84

  -4   4  -7  670.46   15.51

  -4   4  -7  709.39   12.34

  -4   4  -7  660.82   11.31

  -4   4  -6  580.90   10.97

  -4   4  -6  567.18   10.79

  -4   4  -5  312.56    8.10

  -4   4  -5  318.66    8.36

  -4   4  -5  324.34   22.19

  -4   4  -4   60.25    4.81

  -4   4  -4   50.10   10.25

  -4   4  -3   51.16    4.72

  -4   4  -3   46.37    9.28

  -4   4   0 1136.60   30.78

  -4   4   1   29.17    4.54

  -4   4   1   35.27    7.85

  -4   4   2 1499.53   19.20

  -4   4   3    9.96    4.51

  -4   4   4  230.52    9.08

  -4   4   4  224.65   17.41

  -4   4   5  330.71   21.33

  -4   4   5  362.01    9.81

  -4   4   5  381.57   24.21

  -4   4   6 1017.53   15.69

  -4   4   6  987.20   37.91

  -4   4   7  973.03   15.50

  -4   4   8  104.96    6.12

  -3   4 -16  139.14   12.86

  -3   4 -15   50.64   10.68

  -3   4 -14    8.01    8.40

  -3   4 -13   42.24    9.29

  -3   4 -12  266.89   14.37

  -3   4 -11   -2.74    7.87

  -3   4 -10  251.91   12.64

  -3   4  -9   21.84    6.77

  -3   4  -8  211.44   10.29

  -3   4  -7  123.78    8.10

  -3   4  -6  221.56    5.62

  -3   4  -6  228.79    6.32

  -3   4  -6  226.45    6.62

  -3   4  -5    0.33    2.41

  -3   4  -5   -0.09    7.06

  -3   4  -4 1354.22   40.25

  -3   4  -3   62.49   11.71

  -3   4  -1   -0.07    5.81

  -3   4   0  848.48   26.96

  -3   4   1  374.49   18.70

  -3   4   1  371.68    9.23

  -3   4   2  633.74   11.96

  -3   4   3  115.62    6.28

  -3   4   3  109.46   11.87

  -3   4   4  248.78   17.57

  -3   4   5   15.50    7.67

  -3   4   6  197.55   17.83

  -3   4   6  206.55   18.24

  -3   4   7    6.58    9.33

  -3   4   7    4.18    3.40

  -3   4   8  494.51   10.63

  -2   4 -17   -1.95    7.80

  -2   4 -16  237.39   15.92

  -2   4 -15    8.63    8.36

  -2   4 -14   79.53   11.49

  -2   4 -13  137.45   12.24

  -2   4 -12   60.11    9.33

  -2   4 -11   21.37    7.95

  -2   4 -10  249.30   12.61

  -2   4  -9    1.43    6.78

  -2   4  -8  204.02   10.55

  -2   4  -7    5.90    5.52

  -2   4  -7    4.88    2.72

  -2   4  -6   12.62    2.61

  -2   4  -5   69.96   11.80

  -2   4  -4 1477.89   41.59

  -2   4  -3   59.85    9.79

  -2   4  -1   19.43    8.09

  -2   4   0  844.19   27.11

  -2   4   1  664.41   11.27

  -2   4   2  461.75    9.63

  -2   4   3   34.96    8.84

  -2   4   3   34.25    4.25

  -2   4   4  774.08   30.26

  -2   4   5    2.81    9.31

  -2   4   6   55.28   11.84

  -2   4   6   61.44   11.63

  -2   4   7    2.99    8.12

  -2   4   8  327.64   22.46

  -1   4 -17   -0.88    8.27

  -1   4 -16  118.43   12.95

  -1   4 -15   15.86    8.67

  -1   4 -14  216.62   14.75

  -1   4 -13    2.14    8.79

  -1   4 -12    3.50    7.86

  -1   4 -11   80.24    9.50

  -1   4 -10  448.48   15.50

  -1   4  -9   29.41    7.41

  -1   4  -9   39.61    4.59

  -1   4  -8  414.82   13.23

  -1   4  -8  420.10   10.03

  -1   4  -7    9.25    3.16

  -1   4  -7    8.37    5.37

  -1   4  -6  226.79    6.95

  -1   4  -5  177.51   17.02

  -1   4  -4  783.98   30.34

  -1   4  -3   15.42    7.18

  -1   4  -1  174.88   13.85

  -1   4   0   54.27    9.99

  -1   4   1  158.09    5.60

  -1   4   2  533.63    9.46

  -1   4   3 1027.18   32.68

  -1   4   3 1019.47   13.28

  -1   4   4 1024.20   34.43

  -1   4   5   26.09    8.43

  -1   4   6  536.87   28.18

  -1   4   7    1.98    6.66

  -1   4   8  415.25   22.79

   0   4 -17   -0.45    9.30

   0   4 -16   46.74    9.78

   0   4 -15    6.65    9.11

   0   4 -14  236.01   14.70

   0   4 -13   11.16    8.08

   0   4 -12   43.25    9.23

   0   4 -11   90.60    9.90

   0   4 -10  331.64   10.43

   0   4 -10  333.64   13.73

   0   4  -9   15.26    4.49

   0   4  -9   19.15    7.60

   0   4  -8  258.98    8.63

   0   4  -8  268.02   11.17

   0   4  -7    2.65    3.52

   0   4  -7    1.88    5.56

   0   4  -6  364.19    9.10

   0   4  -5  110.16   14.12

   0   4  -4  312.12   19.54

   0   4  -3   53.48    9.27

   0   4  -1   16.37    8.06

   0   4   0  216.31   14.66

   0   4   2 1350.78   13.19

   0   4   3   56.25    3.77

   0   4   3   56.93   10.68

   0   4   4  286.43   18.79

   0   4   5   93.14   12.26

   0   4   6  394.99   25.25

   0   4   7    0.44    6.65

   1   4 -17   20.25    8.55

   1   4 -16   70.78   11.51

   1   4 -15   53.19    9.92

   1   4 -14   72.66   10.91

   1   4 -13   27.57    8.75

   1   4 -12  130.26    8.48

   1   4 -12  114.56   10.59

   1   4 -11    5.73    7.03

   1   4 -11    5.07    4.93

   1   4 -10  165.03    8.50

   1   4 -10  168.99   10.73

   1   4  -9   79.60    8.55

   1   4  -9   85.86    6.71

   1   4  -8  397.70   12.84

   1   4  -8  380.55   10.88

   1   4  -7    9.52    5.35

   1   4  -7    5.72    4.13

   1   4  -6  542.76   11.58

   1   4  -5   28.63    9.99

   1   4  -4 1021.21   33.46

   1   4  -3 1082.67   32.79

   1   4  -1  154.76   13.73

   1   4   0   44.63    9.80

   1   4   2 1297.62   11.25

   1   4   3   31.55    2.76

   1   4   3   40.99    9.92

   1   4   4  766.92   30.11

   1   4   5  143.47   14.86

   1   4   6  241.91   20.16

   1   4   6  233.50   19.70

   1   4   7   12.66    6.26

   2   4 -17    8.15    8.09

   2   4 -16   98.44   11.65

   2   4 -15   -1.70    8.18

   2   4 -14   64.39   10.41

   2   4 -13    4.82    5.78

   2   4 -13    4.57    7.58

   2   4 -12  296.76   12.32

   2   4 -12  284.08   14.03

   2   4 -11    5.23    7.49

   2   4 -11    6.27    5.74

   2   4 -10  157.92    8.89

   2   4 -10  162.83   10.43

   2   4  -9  196.28    9.23

   2   4  -9  172.16    9.71

   2   4  -8  333.35   10.98

   2   4  -8  346.70   11.87

   2   4  -7    1.89    4.76

   2   4  -7    3.07    4.65

   2   4  -6   55.56    5.48

   2   4  -5    3.06    7.89

   2   4  -4  763.04   28.97

   2   4  -3   37.85    9.44

   2   4  -1  688.92   25.47

   2   4   0  781.15   27.14

   2   4   1    5.74    8.32

   2   4   3   69.25   10.43

   2   4   3   70.24    2.85

   2   4   4 1432.49   40.91

   2   4   5   73.01   12.92

   2   4   6    8.47    9.50

   2   4   6   12.22    9.49

   3   4 -17   15.04    8.99

   3   4 -16   25.30    8.81

   3   4 -15    1.30    8.23

   3   4 -14  111.44   11.08

   3   4 -14  127.49    9.91

   3   4 -13    5.40    7.70

   3   4 -13    3.62    6.47

   3   4 -12  188.08   11.83

   3   4 -12  196.28   11.15

   3   4 -11   -1.04    6.89

   3   4 -11    0.84    5.78

   3   4 -10  254.50   11.21

   3   4 -10  271.30   11.95

   3   4  -9  203.98   10.02

   3   4  -9  196.63   10.08

   3   4  -8  485.74   13.36

   3   4  -8  481.92   13.57

   3   4  -7    4.41    4.49

   3   4  -7    2.91    4.98

   3   4  -6  198.10    8.15

   3   4  -6  203.45    8.85

   3   4  -5   20.57    5.26

   3   4  -5   14.09    7.01

   3   4  -4  250.30   17.16

   3   4  -3  136.68   12.86

   3   4  -1  383.67   19.96

   3   4   0  836.67   28.39

   3   4   1    1.66    6.70

   3   4   4 1227.11   38.09

   3   4   5   -0.70    1.45

   3   4   5    0.97    9.24

   3   4   6  224.09   19.73

   3   4   6  221.56   19.16

   4   4 -16   41.43    9.07

   4   4 -15   10.23    7.69

   4   4 -15   10.97    6.80

   4   4 -14  276.87   13.90

   4   4 -14  276.25   14.65

   4   4 -13    7.43    7.09

   4   4 -13    9.19    6.69

   4   4 -12   47.48    8.19

   4   4 -12   39.44    8.02

   4   4 -11   10.55    6.56

   4   4 -11    8.02    6.75

   4   4 -10    8.92    6.22

   4   4 -10   14.85    6.81

   4   4  -9   39.42    7.06

   4   4  -9   36.17    6.52

   4   4  -8   98.31    8.59

   4   4  -8  107.80    7.47

   4   4  -7  919.38   18.41

   4   4  -7  958.02   16.72

   4   4  -6  988.25   15.99

   4   4  -6  974.61   18.00

   4   4  -5  369.31   11.27

   4   4  -4  224.85   16.14

   4   4  -3    7.96    6.44

   4   4  -2 1569.50   36.04

   4   4   0 1129.56   32.61

   4   4   1   14.21    7.74

   4   4   4   59.22    2.74

   4   4   4   49.43    9.79

   4   4   5  284.31   20.90

   4   4   5  298.83   20.31

   4   4   6  511.29   28.49

   4   4   6  561.09   28.74

   5   4 -16   11.04    8.00

   5   4 -15   -0.38    7.23

   5   4 -15    0.03    7.37

   5   4 -14  103.88   10.12

   5   4 -14  105.82   10.40

   5   4 -13    7.15    7.08

   5   4 -13    4.04    6.98

   5   4 -12  208.92   12.50

   5   4 -12  202.75   11.71

   5   4 -11   17.00    6.63

   5   4 -11   23.45    8.02

   5   4 -10   81.67    9.53

   5   4 -10  111.13    8.51

   5   4  -9    3.44    5.11

   5   4  -9    2.47    6.77

   5   4  -8  153.22   10.00

   5   4  -8  183.60    8.67

   5   4  -7    9.44    4.50

   5   4  -7   10.80    6.86

   5   4  -6  932.72   18.52

   5   4  -6  951.34   15.42

   5   4  -5  265.22   10.78

   5   4  -5  260.43    8.05

   5   4  -4    4.49    5.44

   5   4  -3   14.45    6.59

   5   4  -2  166.79   12.42

   5   4   0  720.80   26.40

   5   4   1   -1.89    6.45

   5   4   2  608.18   25.14

   5   4   4  219.73    5.39

   5   4   4  216.26   16.25

   5   4   5  220.49   17.42

   5   4   5  207.54   17.88

   5   4   6 1181.27   42.00

   5   4   6 1166.72   40.73

   6   4 -16   35.48    8.67

   6   4 -15    8.33    7.96

   6   4 -14    8.48    7.81

   6   4 -13    5.15    7.71

   6   4 -12  287.48   14.86

   6   4 -12  303.07   13.41

   6   4 -11   38.41    6.86

   6   4 -11   34.13    9.03

   6   4 -10  132.40   11.00

   6   4 -10  159.06    9.37

   6   4  -9    7.29    7.55

   6   4  -9    3.69    4.72

   6   4  -8  232.79   12.09

   6   4  -8  252.58    9.68

   6   4  -7   48.02    5.28

   6   4  -7   47.54    8.08

   6   4  -6  533.33   15.36

   6   4  -6  544.38   11.68

   6   4  -5  194.42   10.11

   6   4  -5  219.53    7.24

   6   4  -4  343.77   11.88

   6   4  -4  366.63    8.37

   6   4  -3   39.02    5.98

   6   4  -3   31.20    7.24

   6   4  -2   42.80    7.17

   6   4  -1    4.70    5.04

   6   4   1   24.95    7.30

   6   4   2  365.18   20.04

   6   4   3   95.27   10.66

   6   4   4  133.53   13.00

   6   4   5   12.47    7.81

   6   4   6  382.94   24.03

   7   4 -15    2.34    8.28

   7   4 -14   43.71    9.13

   7   4 -13   75.38    9.99

   7   4 -12  173.27   13.00

   7   4 -11   31.38    9.06

   7   4 -10  138.50   11.26

   7   4  -9   24.37    8.74

   7   4  -8   66.58    9.24

   7   4  -7   16.85    7.97

   7   4  -6   24.86    7.88

   7   4  -5   21.53    6.88

   7   4  -4  569.12   15.12

   7   4  -3  148.13    8.79

   7   4  -2  235.27    9.48

   8   4 -14   84.84   11.20

   8   4 -13   13.55    8.31

   8   4 -12    8.05    8.57

   8   4 -11    2.30    8.56

   8   4 -10  236.32   13.83

   8   4  -9    6.43    8.65

   8   4  -8  157.99   11.60

   8   4  -7   25.33    8.14

   8   4  -6  108.51   10.12

   8   4  -5   -0.44    6.92

   8   4  -4  301.92   12.20

   8   4  -3  122.55    8.63

   8   4  -2  305.17   11.17

   8   4  -1    9.51    5.22

   8   4   0  156.13    8.03

   8   4   0  181.25   17.02

   9   4 -14  133.42   12.17

   9   4 -13   39.84   10.24

   9   4 -12   23.84    9.24

   9   4 -11   34.36    9.24

   9   4 -10  215.39   13.63

   9   4  -9   -1.92    8.40

   9   4  -8  101.39   10.74

   9   4  -7   18.16    8.39

   9   4  -6  127.42   10.53

   9   4  -5    2.09    6.76

   9   4  -4   72.11    8.10

   9   4  -3  121.63    9.00

   9   4  -2  335.76   12.27

   9   4  -1    3.89    5.08

   9   4   0   84.02    6.97

   9   4   1   52.47    5.69

   9   4   2  326.07   10.27

  10   4 -13    0.45    8.52

  10   4 -12   27.38    9.06

  10   4 -11    2.75    8.10

  10   4 -10  108.68   11.47

  10   4  -9    1.14    8.18

  10   4  -8  114.30   11.47

  10   4  -7   12.71    8.44

  10   4  -6  209.85   12.40

  10   4  -5   12.70    7.58

  10   4  -4  250.35   12.35

  10   4  -3   17.89    6.86

  10   4  -2  205.53   10.53

  10   4  -1  201.89    9.94

  10   4   0   25.61    5.58

  10   4   1    2.43    4.32

  11   4 -12   78.48   10.80

  11   4 -11    0.29    8.70

  11   4 -10   62.39   11.24

  11   4  -9   12.82    8.68

  11   4  -8   89.79   11.02

  11   4  -7    3.62    7.91

  11   4  -6   14.36    8.22

  11   4  -5    3.69    6.79

  11   4  -4  261.81   12.91

  11   4  -3   -0.61    6.07

  11   4  -2   84.60    8.28

  11   4  -1    0.25    5.36

  12   4 -11   15.70    9.38

  12   4 -10  163.02   13.30

  12   4  -9   71.69   11.09

  12   4  -8  216.38   14.19

  12   4  -7   30.69    8.34

  12   4  -6   18.35    7.75

  12   4  -5  115.12   10.21

  12   4  -4   67.21    8.80

  12   4  -3   22.66    7.03

  12   4  -2   40.93    7.12

  13   4 -10   17.46    8.42

  13   4  -9    4.11    8.66

  13   4  -8   28.18    9.32

  13   4  -7  166.33   13.05

  13   4  -6   93.44   10.68

  13   4  -5   97.03    9.98

  13   4  -4   60.51    8.83

  14   4  -8   31.36    8.73

  14   4  -7    8.67    7.18

  14   4  -6  185.78   13.12

 -16   3  -2    4.98    9.52

 -16   3  -1   76.59   11.93

 -16   3   0   -1.23    9.50

 -16   3   1   66.41   11.99

 -16   3   2    5.97   10.13

 -15   3  -6   -3.48    7.64

 -15   3  -5   51.11    9.36

 -15   3  -4   12.71    8.94

 -15   3  -3    3.46    8.42

 -15   3  -2   21.19    9.56

 -15   3  -1  101.55   12.25

 -15   3   0    4.34    8.90

 -15   3   1   55.82   10.69

 -15   3   2    7.61    9.28

 -15   3   3   29.94    9.56

 -15   3   4   17.43    9.73

 -15   3   5   16.27    9.62

 -15   3   6    2.67    8.12

 -15   3   7  124.46   12.62

 -14   3  -6   10.88    7.65

 -14   3  -5   21.95    8.81

 -14   3  -4   39.70    9.71

 -14   3  -3   65.69   10.98

 -14   3  -2   10.60    8.93

 -14   3  -1  230.32   15.09

 -14   3   0    3.07    9.53

 -14   3   1  122.66   12.75

 -14   3   2   55.43   10.71

 -14   3   3    2.56    9.69

 -14   3   4    1.36    8.79

 -14   3   5   13.97    8.41

 -14   3   6   14.08    7.69

 -14   3   6   10.25    8.97

 -14   3   7   82.46   10.09

 -14   3   7   91.08   10.69

 -14   3   8   23.15    8.31

 -14   3   8   24.09    7.93

 -14   3   9   -0.47    8.40

 -13   3  -6   86.51   10.15

 -13   3  -5   39.57    8.71

 -13   3  -4   21.92    8.37

 -13   3  -3  145.70   12.02

 -13   3  -2   -1.96    9.19

 -13   3  -1   41.60   10.20

 -13   3   0    0.02    8.51

 -13   3   1  133.85   12.92

 -13   3   2   -1.54    9.01

 -13   3   3   88.52   10.97

 -13   3   4   -1.21    9.04

 -13   3   5  210.53   13.15

 -13   3   5  220.84   14.58

 -13   3   6   65.10    9.92

 -13   3   6   75.11   10.29

 -13   3   7  317.39   16.18

 -13   3   7  343.91   16.25

 -13   3   8    8.46    7.22

 -13   3   8    2.71    7.92

 -13   3   9   60.67    9.74

 -13   3  10    1.64    8.54

 -12   3 -10    2.21    7.76

 -12   3  -9  270.63   15.40

 -12   3  -8   71.09   10.47

 -12   3  -7  288.91   15.45

 -12   3  -6    2.64    6.94

 -12   3  -5  154.11   11.68

 -12   3  -4   20.26    8.36

 -12   3  -3  409.46   16.77

 -12   3  -2    8.85    8.19

 -12   3  -1   25.45    8.59

 -12   3   0   -0.29    8.39

 -12   3   1   69.34   10.13

 -12   3   2    0.87    8.14

 -12   3   3  210.28   13.45

 -12   3   4   74.12   10.05

 -12   3   4   75.76    9.29

 -12   3   5  262.68   13.77

 -12   3   5  266.90   14.32

 -12   3   6   42.00    8.80

 -12   3   6   39.45    9.19

 -12   3   7  279.40   14.63

 -12   3   7  293.90   15.11

 -12   3   8    7.24    7.47

 -12   3   8    6.70    8.54

 -12   3   9  133.12   11.85

 -12   3  10    0.48    9.23

 -12   3  11   78.05   11.66

 -11   3 -10   11.74    8.00

 -11   3  -9  301.81   15.38

 -11   3  -8   -0.33    7.62

 -11   3  -7   10.30    7.91

 -11   3  -7   24.60    6.86

 -11   3  -6    6.58    6.54

 -11   3  -6    6.22    8.58

 -11   3  -5   15.96    7.21

 -11   3  -5   12.12    8.05

 -11   3  -4   73.35    9.23

 -11   3  -3  349.67   14.74

 -11   3  -2    0.97    7.74

 -11   3  -1  176.65   11.92

 -11   3   0    0.39    8.31

 -11   3   1  181.91   12.19

 -11   3   2   32.61    8.65

 -11   3   3  469.83   15.69

 -11   3   3  480.50   17.51

 -11   3   4   45.40    8.02

 -11   3   4   39.14    8.73

 -11   3   5   20.94    8.31

 -11   3   5   13.67    7.71

 -11   3   6    6.46    7.73

 -11   3   6    6.78    7.22

 -11   3   7    2.16    7.99

 -11   3   7    3.00    7.23

 -11   3   8   78.30    9.16

 -11   3   8   84.34   10.69

 -11   3   9    9.61    7.85

 -11   3  10    1.96    9.00

 -11   3  11  134.71   13.21

 -11   3  12   -0.28    8.64

 -10   3 -10   -0.28    7.23

 -10   3  -9  213.62   12.83

 -10   3  -8    1.97    7.48

 -10   3  -7   24.97    6.18

 -10   3  -7   26.38    8.19

 -10   3  -6    6.55    7.14

 -10   3  -6    6.13    6.10

 -10   3  -5   12.33    7.52

 -10   3  -5   15.02    6.93

 -10   3  -4    6.41    6.68

 -10   3  -4    6.43    7.26

 -10   3  -3  345.87   13.76

 -10   3  -2   -0.91    7.49

 -10   3  -1   53.24    8.38

 -10   3   0   16.68    7.77

 -10   3   1   37.72    8.31

 -10   3   2   23.69    7.85

 -10   3   2   25.24    6.76

 -10   3   3  417.42   14.58

 -10   3   3  416.21   15.61

 -10   3   4   -1.29    7.35

 -10   3   4    2.29    6.83

 -10   3   5   40.90    8.40

 -10   3   5   35.24    8.29

 -10   3   6   37.46    7.74

 -10   3   6   43.19    8.93

 -10   3   7   80.15    8.70

 -10   3   7   80.13    9.88

 -10   3   8    0.93    8.56

 -10   3   8    0.66    6.29

 -10   3   9   55.45    9.54

  -9   3 -10   10.68    6.97

  -9   3  -9   69.37    8.61

  -9   3  -8    0.49    6.78

  -9   3  -7   97.63    7.65

  -9   3  -7   93.04    8.99

  -9   3  -6    0.04    6.71

  -9   3  -6    1.37    5.38

  -9   3  -5   24.03    6.29

  -9   3  -5   18.03    7.16

  -9   3  -4   94.86    8.27

  -9   3  -4   86.71    8.76

  -9   3  -3  453.78   14.27

  -9   3  -3  445.44   14.66

  -9   3  -2    7.47    6.39

  -9   3  -1    8.33    6.41

  -9   3   0   -0.48    6.28

  -9   3   1   84.10    8.79

  -9   3   2   19.37    7.26

  -9   3   2   19.63    6.30

  -9   3   3  169.81    9.82

  -9   3   3  168.65   10.51

  -9   3   4    1.77    6.51

  -9   3   4    0.85    6.81

  -9   3   5   48.93    7.88

  -9   3   5   51.55    8.15

  -9   3   6    0.31    6.02

  -9   3   6    2.65    7.44

  -9   3   7   55.99    8.79

  -9   3   7   62.69    7.79

  -9   3   8   12.06    6.10

  -8   3 -12   -1.71    6.13

  -8   3 -11   88.22    8.78

  -8   3 -10   29.33    6.75

  -8   3 -10   24.20    6.87

  -8   3  -9   53.34    6.82

  -8   3  -9   55.91    7.55

  -8   3  -8   17.11    5.17

  -8   3  -8   22.19    6.55

  -8   3  -7  276.89   11.82

  -8   3  -7  274.70   10.21

  -8   3  -7  274.01   10.10

  -8   3  -6   38.29    5.03

  -8   3  -6   36.85    6.78

  -8   3  -6   43.59    6.04

  -8   3  -5  261.08   10.35

  -8   3  -5  225.99   10.62

  -8   3  -4    4.88    5.26

  -8   3  -4    2.29    5.87

  -8   3  -3 1036.81   19.47

  -8   3  -3 1041.65   37.43

  -8   3  -3  971.87   18.64

  -8   3  -2   33.99    6.70

  -8   3  -2   24.06    9.42

  -8   3  -1  173.94    9.37

  -8   3   0   17.45    6.25

  -8   3   1  638.01   15.48

  -8   3   1  639.98   14.93

  -8   3   2    1.12    5.71

  -8   3   2    1.02    5.39

  -8   3   3  229.58   10.77

  -8   3   3  232.00   10.61

  -8   3   4  183.26   10.05

  -8   3   4  197.37   10.16

  -8   3   5  296.28   12.45

  -8   3   5  292.71   11.42

  -8   3   6    3.34    5.53

  -8   3   7  160.37    9.28

  -8   3   8   26.94    5.77

  -7   3 -15    8.31    8.21

  -7   3 -14   22.33    8.26

  -7   3 -13  359.47   15.84

  -7   3 -12    2.37    6.55

  -7   3 -11   93.44    9.16

  -7   3 -10   12.22    6.29

  -7   3 -10   11.69    5.82

  -7   3  -9  156.43    9.23

  -7   3  -9  157.85    9.38

  -7   3  -8    6.91    5.55

  -7   3  -8    3.16    5.04

  -7   3  -7  325.10   10.16

  -7   3  -7  335.77   11.94

  -7   3  -7  332.10   10.95

  -7   3  -6    4.25    4.32

  -7   3  -6    1.61    5.50

  -7   3  -6    5.90    4.17

  -7   3  -5  411.07   11.45

  -7   3  -5  385.14   10.21

  -7   3  -5  410.85   12.28

  -7   3  -4   11.22    5.06

  -7   3  -4    7.31    3.33

  -7   3  -4    7.84    5.16

  -7   3  -3  386.33   11.79

  -7   3  -3  388.43   11.28

  -7   3  -2   29.18    5.77

  -7   3  -2   22.88    6.69

  -7   3  -1  332.45   10.76

  -7   3  -1  349.52   17.07

  -7   3   0   56.85    6.12

  -7   3   0   63.41   12.76

  -7   3   1  713.65   32.69

  -7   3   1  691.39   14.75

  -7   3   1  704.53   14.70

  -7   3   2   58.33    6.36

  -7   3   2   53.89    6.29

  -7   3   2   74.15    7.23

  -7   3   3  334.60   11.17

  -7   3   3  332.49   11.41

  -7   3   4    1.87    5.32

  -7   3   4   -2.44    5.31

  -7   3   4    1.78    6.11

  -7   3   5  645.34   14.83

  -7   3   5  712.45   28.53

  -7   3   6   -0.49    5.14

  -7   3   7  314.30   10.96

  -7   3   8    1.11    4.77

  -6   3 -16   10.78    8.13

  -6   3 -15   -0.58    8.33

  -6   3 -14   12.35    8.17

  -6   3 -13  309.23   14.93

  -6   3 -12   19.92    7.66

  -6   3 -11   93.48    9.19

  -6   3 -10   20.52    6.73

  -6   3  -9  451.27   13.18

  -6   3  -9  430.16   13.83

  -6   3  -8  139.95    8.44

  -6   3  -8  143.26    8.10

  -6   3  -7  823.32   14.12

  -6   3  -7  787.32   15.86

  -6   3  -7  811.92   16.07

  -6   3  -6    0.31    3.70

  -6   3  -6   -1.36    4.16

  -6   3  -6    0.60    4.56

  -6   3  -5  585.99   12.21

  -6   3  -5  631.94   13.51

  -6   3  -5  617.27   12.60

  -6   3  -4  108.14    6.66

  -6   3  -4  107.06    6.23

  -6   3  -3    1.85    4.21

  -6   3  -3    4.98    6.58

  -6   3  -3    1.57    4.29

  -6   3  -2   70.39    9.56

  -6   3  -2   67.45    5.55

  -6   3  -2   70.87    5.92

  -6   3  -1  243.98    8.85

  -6   3  -1  253.50   14.92

  -6   3   0   -0.41    4.18

  -6   3   1  476.92   11.43

  -6   3   1  507.15   11.91

  -6   3   1  474.05   16.44

  -6   3   2   28.34    5.36

  -6   3   2   27.43    5.26

  -6   3   2   31.47    9.91

  -6   3   3  274.12    9.21

  -6   3   3  301.69   10.26

  -6   3   3  293.02   21.61

  -6   3   4  153.91    7.57

  -6   3   4  148.17   12.54

  -6   3   5  818.80   15.13

  -6   3   5  849.27   31.25

  -6   3   5  778.29   29.52

  -6   3   6    4.74    7.72

  -6   3   6    4.07    4.50

  -6   3   6    1.83    7.11

  -6   3   7  577.61   13.21

  -6   3   8   17.41    4.67

  -5   3 -16   -4.01    7.85

  -5   3 -15   15.40    8.12

  -5   3 -14    8.68    8.68

  -5   3 -13  346.96   15.80

  -5   3 -12    3.00    7.09

  -5   3 -11   65.77    8.92

  -5   3 -10   28.31    7.33

  -5   3  -9    6.47    5.76

  -5   3  -9    7.74    4.56

  -5   3  -8    0.91    5.41

  -5   3  -8    0.32    4.06

  -5   3  -7  118.10    5.52

  -5   3  -7  112.16    7.27

  -5   3  -7  123.14    6.89

  -5   3  -6  193.81    6.86

  -5   3  -6  188.24    7.74

  -5   3  -6  185.61    7.97

  -5   3  -5  166.25    7.06

  -5   3  -5  176.61    6.71

  -5   3  -5  156.80    7.05

  -5   3  -4   67.93    4.92

  -5   3  -4   70.67   10.47

  -5   3  -4   75.99    5.37

  -5   3  -3   55.58    4.70

  -5   3  -3   53.23    4.96

  -5   3  -3   49.43    8.95

  -5   3  -2  110.50    5.92

  -5   3  -2  123.31   11.22

  -5   3  -2  124.50    6.15

  -5   3  -1 1322.26   16.60

  -5   3   0    2.88    4.25

  -5   3   0    0.60    4.32

  -5   3   1 1525.98   29.99

  -5   3   1 1466.12   17.65

  -5   3   1 1493.09   18.40

  -5   3   2   94.93    5.89

  -5   3   2   94.32    6.32

  -5   3   3   38.64    7.18

  -5   3   3   48.55    9.83

  -5   3   3   40.50    5.22

  -5   3   3   47.04    5.11

  -5   3   4    1.03    6.25

  -5   3   4    2.55    3.68

  -5   3   4   -0.18    9.30

  -5   3   5   41.60    9.07

  -5   3   5   32.46    4.57

  -5   3   5   23.01    8.11

  -5   3   5   33.66    9.53

  -5   3   6   81.53   12.42

  -5   3   6   73.84    5.35

  -5   3   6   89.85   12.70

  -5   3   7  112.08    6.25

  -5   3   7  105.15   14.93

  -5   3   7   95.59   14.66

  -5   3   8   97.91    5.90

  -4   3 -16   -0.64    8.10

  -4   3 -15   57.98   10.45

  -4   3 -14   17.48    9.23

  -4   3 -13  244.88   13.93

  -4   3 -12    0.55    7.92

  -4   3 -11   97.77    9.46

  -4   3 -10   -0.23    6.53

  -4   3  -9    9.00    6.17

  -4   3  -8  114.12    6.13

  -4   3  -8  110.25    8.01

  -4   3  -7  132.63    7.73

  -4   3  -7  142.42    6.38

  -4   3  -6  227.75    7.44

  -4   3  -6  222.28    6.52

  -4   3  -6  213.97    8.40

  -4   3  -5  144.04    6.03

  -4   3  -5  162.08    5.87

  -4   3  -4   45.10    3.94

  -4   3  -4   46.94    4.15

  -4   3  -4   31.39    8.35

  -4   3  -3  217.49   15.22

  -4   3  -3  192.62    6.37

  -4   3  -3  205.71    6.69

  -4   3  -2   57.46    8.80

  -4   3  -2   55.05    4.35

  -4   3  -1  668.22   11.02

  -4   3   0   55.55    4.67

  -4   3   0   57.34    7.53

  -4   3   1 2060.19   35.63

  -4   3   1 2045.88   19.92

  -4   3   2   42.55    4.85

  -4   3   2   41.11    4.18

  -4   3   3   21.06    6.97

  -4   3   3   18.83    3.55

  -4   3   4    0.45    3.42

  -4   3   4    8.10    9.02

  -4   3   4    2.31    6.97

  -4   3   5  920.64   34.53

  -4   3   5  801.71   12.78

  -4   3   5  859.48   31.02

  -4   3   6  337.83   22.83

  -4   3   6  379.23    9.17

  -4   3   6  346.34   21.97

  -4   3   6  392.13   23.48

  -4   3   7  442.80    9.85

  -4   3   7  494.19   27.56

  -4   3   7  436.55   25.75

  -4   3   8    4.52    3.31

  -3   3 -17   97.37   12.38

  -3   3 -16   22.62    9.37

  -3   3 -15   86.51   10.89

  -3   3 -14    8.78    9.09

  -3   3 -13   58.17    9.39

  -3   3 -12    2.24    8.18

  -3   3 -11   40.56    8.15

  -3   3 -10   81.05    8.62

  -3   3  -9  447.82   14.07

  -3   3  -8   69.27    4.64

  -3   3  -8   70.46    7.41

  -3   3  -7  865.50   12.59

  -3   3  -7  834.92   15.97

  -3   3  -6   14.12    2.44

  -3   3  -6   16.69    1.98

  -3   3  -6   17.00    3.02

  -3   3  -6   17.91    4.93

  -3   3  -5 1763.00   16.40

  -3   3  -5 1817.83   12.34

  -3   3  -5 1808.57   15.85

  -3   3  -4  275.13   17.65

  -3   3  -4  287.87    6.71

  -3   3  -4  278.94    6.69

  -3   3  -3 1249.82   33.45

  -3   3  -3 1313.42   13.40

  -3   3  -2   25.42    7.94

  -3   3   0    2.92    3.71

  -3   3   0   -1.22    5.54

  -3   3   1  706.66   11.19

  -3   3   2    6.56    3.49

  -3   3   3   41.26    8.23

  -3   3   4  472.10   21.53

  -3   3   5 2177.66   49.13

  -3   3   5 2163.99   48.37

  -3   3   6    8.16    3.08

  -3   3   6    8.74    7.43

  -3   3   6   14.02    9.10

  -3   3   6    4.33    7.37

  -3   3   7 1162.89   39.20

  -3   3   7 1257.33   42.90

  -3   3   7 1246.70   42.74

  -3   3   7 1179.57   14.37

  -3   3   8  118.64   14.59

  -2   3 -17  128.11   12.93

  -2   3 -16    2.45    8.47

  -2   3 -15  161.18   13.72

  -2   3 -14   21.15    8.70

  -2   3 -13   99.73   11.13

  -2   3 -12   97.06   10.24

  -2   3 -11  118.74   10.72

  -2   3 -10    0.94    7.37

  -2   3  -9 1106.64   20.96

  -2   3  -8    0.85    2.26

  -2   3  -8    1.38    5.37

  -2   3  -7  186.74    5.47

  -2   3  -7  172.98    5.31

  -2   3  -7  170.75    8.25

  -2   3  -6    0.07    2.00

  -2   3  -6    0.23    1.71

  -2   3  -6    2.04    4.65

  -2   3  -6    0.59    2.02

  -2   3  -5  913.25   10.14

  -2   3  -4  210.42   16.13

  -2   3  -4  186.37    4.66

  -2   3  -3 1126.43   31.66

  -2   3  -3 1202.91   10.87

  -2   3  -1 1249.39   28.43

  -2   3   0  104.50   10.33

  -2   3   1 1718.08   15.61

  -2   3   2  516.13    9.34

  -2   3   2  553.12   20.48

  -2   3   3 1653.07   36.73

  -2   3   4   10.18    7.57

  -2   3   5 1012.46   33.82

  -2   3   5 1071.20   32.18

  -2   3   6   23.16    7.81

  -2   3   6   29.04    9.35

  -2   3   6   20.87    9.45

  -2   3   7  114.79   12.95

  -2   3   7  123.57   15.06

  -2   3   7  116.09   14.48

  -2   3   8   74.91   11.59

  -1   3 -17   96.64   11.74

  -1   3 -16   27.99    9.41

  -1   3 -15  303.28   16.62

  -1   3 -14    6.17    8.24

  -1   3 -13  138.06   12.05

  -1   3 -12    0.23    7.58

  -1   3 -11  198.87   12.23

  -1   3 -10    5.90    7.67

  -1   3  -9 1250.02   16.28

  -1   3  -9 1233.25   21.64

  -1   3  -8    3.37    2.85

  -1   3  -8    4.91    5.58

  -1   3  -7   22.12    3.21

  -1   3  -7   18.38    5.46

  -1   3  -6   10.45    4.20

  -1   3  -6   14.19    1.83

  -1   3  -6   13.83    2.78

  -1   3  -5  409.78    7.68

  -1   3  -5  438.65   23.09

  -1   3  -4  620.61   25.18

  -1   3  -3 1032.87   30.01

  -1   3  -1  822.21   23.59

  -1   3   0   49.60    8.81

  -1   3   1  539.26    8.19

  -1   3   2  148.85   12.04

  -1   3   2  151.71    5.11

  -1   3   3 2225.95   42.73

  -1   3   4    4.65    8.15

  -1   3   5  659.29   27.41

  -1   3   6    9.61    8.53

  -1   3   6   11.51    8.35

  -1   3   6    9.59    6.24

  -1   3   7   90.88   11.14

  -1   3   7   96.22   14.61

  -1   3   7   88.62   13.26

   0   3 -17    4.82    9.37

   0   3 -16    3.20    8.85

   0   3 -15  176.73   13.25

   0   3 -14    2.23    9.08

   0   3 -13    4.47    7.75

   0   3 -12   12.70    8.57

   0   3 -11   90.42    6.45

   0   3 -11   98.59    9.69

   0   3 -10   52.86    5.44

   0   3 -10   58.51    8.14

   0   3  -9  535.25   14.90

   0   3  -9  541.94   11.87

   0   3  -8   58.25    4.98

   0   3  -8   63.86    6.98

   0   3  -7    4.32    4.76

   0   3  -7    6.93    3.39

   0   3  -6   32.92    3.69

   0   3  -6   28.93    5.21

   0   3  -5  150.69    5.55

   0   3  -5  160.56   14.31

   0   3  -4   85.74   10.73

   0   3  -3  689.85   24.33

   0   3  -1   12.08    7.20

   0   3   0    1.93    7.89

   0   3   1   11.00    2.26

   0   3   2   55.78    9.26

   0   3   2   61.45    3.29

   0   3   3  697.69   25.11

   0   3   4   90.11   11.35

   0   3   5  165.46   14.63

   0   3   6   33.33    6.97

   0   3   6   27.02    8.73

   0   3   6   27.53    8.42

   0   3   7   -0.64    8.07

   0   3   7    7.19    7.06

   0   3   7    6.00    5.75

   1   3 -17   34.30    9.81

   1   3 -16    1.01    7.89

   1   3 -15  138.57   12.93

   1   3 -14   45.89    9.70

   1   3 -13   22.37    8.30

   1   3 -12    0.92    4.91

   1   3 -12    3.39    7.97

   1   3 -11  137.72    7.96

   1   3 -11  149.52   10.71

   1   3 -10    5.99    6.43

   1   3 -10    3.03    4.53

   1   3  -9  222.59    8.68

   1   3  -9  237.75   10.76

   1   3  -8   11.48    4.13

   1   3  -8   15.51    5.82

   1   3  -7   89.37    5.79

   1   3  -7   91.12    6.69

   1   3  -6    7.20    4.49

   1   3  -6    6.53    3.54

   1   3  -5  639.32   10.93

   1   3  -4    2.56    7.83

   1   3  -3 2182.67   41.50

   1   3  -1  562.11   20.42

   1   3   0   58.65    9.05

   1   3   2    6.88    6.11

   1   3   3  952.66   28.73

   1   3   4  620.01   24.87

   1   3   5  399.30   21.56

   1   3   5  421.37   22.41

   1   3   6   14.01    7.77

   1   3   6   13.98    8.24

   1   3   6   14.30    4.92

   1   3   7   10.89    8.94

   1   3   7   14.55    9.54

   1   3   7   17.79    5.41

   2   3 -17   83.42   11.36

   2   3 -16   10.63    8.12

   2   3 -15  160.78   12.83

   2   3 -14   -0.38    8.51

   2   3 -13  226.36   13.03

   2   3 -13  250.06   11.57

   2   3 -12    0.78    5.76

   2   3 -12    0.58    7.63

   2   3 -11  178.07   10.85

   2   3 -11  182.36    9.52

   2   3 -10   57.94    8.02

   2   3 -10   50.47    6.16

   2   3  -9  183.94    8.65

   2   3  -9  190.65    9.90

   2   3  -8   62.41    6.09

   2   3  -8   57.74    6.36

   2   3  -7  116.78    6.64

   2   3  -7  115.93    6.88

   2   3  -6   25.73    4.75

   2   3  -6   26.35    4.39

   2   3  -5  973.26   14.25

   2   3  -4    6.97    7.56

   2   3  -3 1538.37   34.19

   2   3  -1 1802.10   35.55

   2   3   0   89.98   10.04

   2   3   3 1179.55   31.87

   2   3   4  196.09    4.01

   2   3   4  183.48   14.61

   2   3   5  912.79   31.94

   2   3   5  941.48   32.06

   2   3   5  934.87    9.96

   2   3   6    6.72    8.94

   2   3   6    1.50    3.35

   2   3   6    2.04    2.33

   2   3   6   -2.23    7.87

   2   3   7  169.17   17.93

   2   3   7  185.16    6.04

   2   3   7  195.54   18.48

   2   3   8   -0.10    3.16

   3   3 -17   92.09   11.18

   3   3 -16    3.57    8.74

   3   3 -15   29.00    9.08

   3   3 -14   10.52    7.65

   3   3 -14    8.99    6.27

   3   3 -13  164.46   11.69

   3   3 -13  168.00   10.56

   3   3 -12    2.51    6.02

   3   3 -12    0.34    7.35

   3   3 -11  184.39   10.06

   3   3 -11  190.96   10.90

   3   3 -10   26.94    6.45

   3   3 -10   21.64    6.75

   3   3  -9  743.48   16.31

   3   3  -9  745.68   16.68

   3   3  -8  147.43    8.15

   3   3  -8  157.13    8.28

   3   3  -7 1173.67   18.40

   3   3  -7 1182.36   17.81

   3   3  -6    8.52    4.87

   3   3  -6   12.38    4.08

   3   3  -5 2210.00   20.67

   3   3  -5 2183.21   22.45

   3   3  -4  445.63   20.27

   3   3  -4  456.64   10.32

   3   3  -3   50.59    8.42

   3   3  -2    8.94    6.18

   3   3   0    0.66    6.80

   3   3   3 1253.84   32.89

   3   3   4  271.97   17.39

   3   3   4  281.24    5.23

   3   3   5 1743.80   44.34

   3   3   5 1773.37   43.78

   3   3   5 1830.66   14.50

   3   3   6   16.57    2.80

   3   3   6   16.44    8.82

   3   3   6   16.23    2.32

   3   3   6   13.50    7.66

   3   3   7  856.97   35.51

   3   3   7  856.90   12.38

   3   3   7  898.83   36.82

   3   3   8   67.49    4.74

   3   3   9  427.33   10.68

   3   3  10   67.79    5.80

   4   3 -17   21.13    8.44

   4   3 -16    1.00    8.01

   4   3 -15   43.46    9.51

   4   3 -15   42.92    8.11

   4   3 -14    6.36    7.36

   4   3 -14    6.41    6.39

   4   3 -13  204.35   11.92

   4   3 -13  194.31   12.12

   4   3 -12    5.43    6.55

   4   3 -12    2.62    6.62

   4   3 -11  205.17   11.29

   4   3 -11  204.44   11.11

   4   3 -10   -2.01    6.50

   4   3 -10    0.01    5.55

   4   3  -9   93.79    8.15

   4   3  -9  109.90    7.80

   4   3  -8    5.94    4.84

   4   3  -8    3.17    5.78

   4   3  -7  450.59   12.78

   4   3  -7  451.90   11.39

   4   3  -7  496.16   26.53

   4   3  -6  381.89   11.45

   4   3  -6  374.85    9.68

   4   3  -5  863.21   12.84

   4   3  -5  850.02   15.24

   4   3  -4    0.14    3.78

   4   3  -3   14.07    6.15

   4   3  -2   38.65    6.88

   4   3   0   51.71    7.97

   4   3   1  702.17   22.63

   4   3   3  210.71   14.42

   4   3   4   35.03    8.68

   4   3   4   49.01    2.96

   4   3   4   46.28    9.33

   4   3   5  131.51   13.57

   4   3   5  150.88   14.32

   4   3   5  146.55    4.82

   4   3   6  211.46    6.18

   4   3   6  242.03   18.51

   4   3   6  213.33   17.70

   4   3   7  127.35   16.05

   4   3   7  118.40   15.10

   4   3   7  130.72    5.69

   4   3   8  106.35    5.74

   4   3   9    7.95    3.91

   4   3  10    2.21    4.05

   5   3 -16   -0.54    7.21

   5   3 -16   -3.54    7.08

   5   3 -15  102.58   10.27

   5   3 -15   78.13   10.00

   5   3 -14   71.19    9.61

   5   3 -14   67.88    9.08

   5   3 -13  258.71   13.21

   5   3 -13  278.70   13.96

   5   3 -12   20.74    7.50

   5   3 -12   13.94    6.84

   5   3 -11  344.92   14.21

   5   3 -11  391.10   14.05

   5   3 -10    4.47    6.61

   5   3 -10    5.65    5.48

   5   3  -9    4.05    4.79

   5   3  -9    4.89    6.55

   5   3  -8   89.56    8.35

   5   3  -8  100.21    6.82

   5   3  -7   98.05    8.22

   5   3  -7   85.73   12.44

   5   3  -7  106.02    6.32

   5   3  -6   72.09    7.45

   5   3  -6   82.97    5.34

   5   3  -6   84.37   11.43

   5   3  -5   34.85    5.73

   5   3  -5   32.45    3.69

   5   3  -4   -0.97    4.81

   5   3  -4    1.26    2.49

   5   3  -3   47.61    5.42

   5   3  -2  100.76    8.41

   5   3  -1 1504.55   27.22

   5   3   0   -0.62    5.23

   5   3   1 1258.60   30.19

   5   3   3   54.03    8.29

   5   3   4   59.45    9.40

   5   3   4   59.29    9.46

   5   3   5  156.40   14.20

   5   3   5  165.60    5.58

   5   3   5  154.00   14.51

   5   3   6  195.49   17.55

   5   3   6  182.79    6.17

   5   3   6  164.05   16.05

   5   3   7  112.79   14.85

   5   3   7  143.69   16.82

   5   3   7  117.72    5.51

   5   3   8    2.48    3.44

   5   3   9    9.88    4.14

   6   3 -16   31.26    8.83

   6   3 -15  105.77   11.35

   6   3 -14    3.57    7.77

   6   3 -13   41.46    8.81

   6   3 -13   36.28    7.22

   6   3 -12   26.38    8.53

   6   3 -12   18.27    6.64

   6   3 -11  101.05   10.43

   6   3 -11  103.58    8.29

   6   3 -10   33.60    7.94

   6   3 -10   34.52    6.06

   6   3  -9    2.34    7.27

   6   3  -9    2.73    4.53

   6   3  -8   18.80    7.72

   6   3  -8   16.73    4.58

   6   3  -7  601.15   16.16

   6   3  -7  572.87   12.21

   6   3  -6    3.02    3.21

   6   3  -6    4.49    6.05

   6   3  -5  810.27   12.06

   6   3  -5  803.00   27.25

   6   3  -5  804.41   16.71

   6   3  -4  155.98    5.16

   6   3  -4  151.05    8.11

   6   3  -3  284.58    5.95

   6   3  -3  265.92    9.32

   6   3  -2   36.21    5.12

   6   3  -1  516.74   14.97

   6   3   1  246.57   13.82

   6   3   2   72.49    7.26

   6   3   2   75.22    8.96

   6   3   3    0.30    4.31

   6   3   3    3.26    4.12

   6   3   4   95.92   10.60

   6   3   5  619.20   26.20

   6   3   5  618.31   27.06

   6   3   6    3.29    7.19

   6   3   6    0.06    2.64

   6   3   6    0.08    7.74

   6   3   7  763.81   13.53

   6   3   8  131.26    6.50

   7   3 -15  105.11   11.28

   7   3 -14    7.34    7.76

   7   3 -13    9.35    8.77

   7   3 -12   30.48    8.33

   7   3 -11  100.55   10.93

   7   3 -10    5.89    7.90

   7   3  -9  183.89   11.70

   7   3  -8    0.74    7.71

   7   3  -7  302.26   13.05

   7   3  -6    0.00    6.86

   7   3  -5  638.42   15.84

   7   3  -4    2.17    5.73

   7   3  -3  325.26   10.73

   7   3  -2   61.27    6.05

   7   3  -2   81.80   13.20

   7   3  -1  719.55   13.74

   7   3  -1  720.13   31.04

   7   3   0   57.97   10.90

   7   3   0   58.11    5.14

   7   3   1  360.05   16.03

   7   3   1  337.46   19.83

   7   3   2   25.32    6.44

   7   3   2   28.48    6.49

   7   3   6    5.29    3.05

   7   3   7  314.77    9.48

   8   3 -15  196.63   14.53

   8   3 -14    2.31    7.96

   8   3 -13   53.16   10.45

   8   3 -12    0.63    8.29

   8   3 -11  276.40   14.93

   8   3 -10    4.80    8.06

   8   3  -9  490.75   17.75

   8   3  -8   28.85    8.58

   8   3  -7  156.90   11.17

   8   3  -6    0.34    7.05

   8   3  -5  291.50   12.16

   8   3  -4  192.12    9.96

   8   3  -3  251.19   10.24

   8   3  -2   -1.56    4.79

   8   3  -1  645.67   31.60

   8   3  -1  630.97   13.80

   8   3   0   13.69    4.29

   8   3   0   17.71    8.36

   8   3   1  178.09   15.90

   8   3   1  178.87    7.36

   8   3   2   34.62    4.15

   8   3   6   35.36    4.61

   8   3   7  245.72    9.09

   9   3 -14    4.78    8.17

   9   3 -13    1.48    8.71

   9   3 -12    8.13    9.15

   9   3 -11  189.22   13.85

   9   3 -10   27.36    9.50

   9   3  -9  226.59   13.78

   9   3  -8    4.91    7.71

   9   3  -7   59.13    8.77

   9   3  -6   -0.05    6.91

   9   3  -5   49.69    8.05

   9   3  -4    0.65    5.81

   9   3  -3  169.19    9.56

   9   3  -2   19.66    5.57

   9   3  -1   97.69    6.83

   9   3   0    2.41    4.12

   9   3   1    5.20    3.91

  10   3 -13    3.01    9.03

  10   3 -12    3.73    8.86

  10   3 -11  132.20   12.69

  10   3 -10   23.58    9.58

  10   3  -9   56.48    9.54

  10   3  -8   -4.45    8.29

  10   3  -7   80.23    9.58

  10   3  -6   32.74    8.27

  10   3  -5   39.59    7.45

  10   3  -4    2.70    6.11

  10   3  -3  396.87   13.40

  10   3  -2   21.71    5.72

  10   3  -1   34.00    5.76

  10   3   0   24.93    5.09

  11   3 -12   -0.05    8.80

  11   3 -11  124.33   12.70

  11   3 -10    3.50    8.01

  11   3  -9    7.20    8.61

  11   3  -8   78.63    9.99

  11   3  -7    6.63    7.88

  11   3  -6    4.15    7.21

  11   3  -5   16.18    7.50

  11   3  -4   45.74    7.76

  11   3  -3  456.15   14.83

  11   3  -2   29.53    6.40

  11   3  -1  184.68    9.46

  12   3 -11   63.96   10.30

  12   3 -10    5.84    8.77

  12   3  -9  122.68   11.78

  12   3  -8    4.90    7.62

  12   3  -7  271.75   14.44

  12   3  -6   36.14    8.22

  12   3  -5  247.46   13.15

  12   3  -4   67.91    8.50

  12   3  -3  213.37   11.38

  13   3 -10    2.11    7.76

  13   3  -9   50.95    9.66

  13   3  -8    8.96    7.70

  13   3  -7  320.15   15.97

  13   3  -6   80.28   10.16

  13   3  -5  198.62   12.20

  13   3  -4    2.71    6.18

  14   3  -9    4.45    7.53

  14   3  -8   10.34    8.03

  14   3  -7   89.92   10.51

  14   3  -6   10.36    7.57

 -16   2  -4   65.92   10.99

 -16   2  -3    3.55    8.37

 -16   2  -2   10.11    8.85

 -16   2  -1    9.82    8.92

 -16   2   0  220.67   15.67

 -16   2   1    6.43    8.94

 -16   2   2   99.57   11.82

 -16   2   3    3.14    8.77

 -16   2   4   61.89   10.91

 -15   2  -6   66.91    9.71

 -15   2  -5    4.57    8.52

 -15   2  -4  136.56   13.24

 -15   2  -3   -1.53    8.71

 -15   2  -2   18.13    9.78

 -15   2  -1   17.68   10.22

 -15   2   0   60.06   10.71

 -15   2   1   48.21   11.36

 -15   2   2    4.67   10.11

 -15   2   3   28.13   10.28

 -15   2   4   -0.70    9.70

 -15   2   5   18.23    9.68

 -15   2   6   14.81    9.09

 -15   2   7   14.10    8.65

 -14   2  -9    3.01    8.31

 -14   2  -8   65.61   11.40

 -14   2  -6   42.66    8.83

 -14   2  -5   19.37    8.62

 -14   2  -4   55.83    9.92

 -14   2  -3   47.95   10.55

 -14   2  -2   13.57    8.60

 -14   2  -1   90.87   11.45

 -14   2   0   72.03   11.42

 -14   2   1    6.45    8.86

 -14   2   2   69.69   10.78

 -14   2   3   44.63   10.93

 -14   2   4  224.19   14.60

 -14   2   5    8.79    8.54

 -14   2   6  152.94   13.21

 -14   2   7   38.69    9.25

 -14   2   8   28.78    8.06

 -14   2   9   -3.32    7.05

 -13   2 -10  100.24   12.14

 -13   2  -9   22.11    9.06

 -13   2  -8  119.22   12.72

 -13   2  -7   48.46   10.37

 -13   2  -6   36.27   10.46

 -13   2  -6   36.13    8.37

 -13   2  -5   21.99    8.18

 -13   2  -4   51.43    9.23

 -13   2  -3   89.47   10.95

 -13   2  -2  133.80   11.75

 -13   2  -1    1.08    8.43

 -13   2   0  226.65   14.17

 -13   2   1   10.88    8.70

 -13   2   2   51.57   10.15

 -13   2   3   18.89    8.82

 -13   2   4  179.62   13.12

 -13   2   4  162.53   10.76

 -13   2   5   -0.29    6.76

 -13   2   5    3.80    8.48

 -13   2   6   99.23    9.97

 -13   2   6   96.04   10.77

 -13   2   7   77.65   10.03

 -13   2   7   82.61   10.28

 -13   2   8   19.19    7.91

 -13   2   8   17.06    8.32

 -13   2   9    8.86    8.32

 -13   2  10   74.99   10.30

 -13   2  11    7.77    7.81

 -12   2 -11   43.06    9.90

 -12   2 -10   86.80   11.38

 -12   2  -9   40.00   10.27

 -12   2  -8  109.37   11.52

 -12   2  -7   81.92    8.93

 -12   2  -7   87.23   11.08

 -12   2  -6   99.61    9.61

 -12   2  -6   98.28   11.76

 -12   2  -5    7.11    7.05

 -12   2  -5    8.35    8.52

 -12   2  -4   94.32   10.06

 -12   2  -4   98.22   11.10

 -12   2  -3    3.43    7.64

 -12   2  -2  215.53   13.47

 -12   2  -1   34.28    9.52

 -12   2   0  393.45   16.30

 -12   2   1   69.20   10.59

 -12   2   2   82.48   10.71

 -12   2   3   34.10    9.33

 -12   2   3   24.90    6.70

 -12   2   4  132.13   10.15

 -12   2   4  149.39   12.31

 -12   2   5    3.89    6.54

 -12   2   5   -1.90    8.30

 -12   2   6  126.18   10.60

 -12   2   6  147.68   11.41

 -12   2   7    3.90    7.13

 -12   2   7    5.08    7.27

 -12   2   8  116.74   10.30

 -12   2   8  111.76   10.79

 -12   2   9   10.42    7.86

 -12   2  10  101.11   11.60

 -12   2  11   -0.31    8.69

 -12   2  12   98.02   11.21

 -11   2 -12   42.92    9.76

 -11   2 -11    7.17    7.82

 -11   2 -10  132.47   11.87

 -11   2  -9   33.70    9.25

 -11   2  -8  102.14   10.93

 -11   2  -7    8.36    6.09

 -11   2  -7   10.57    8.28

 -11   2  -6  344.80   13.93

 -11   2  -6  326.55   15.57

 -11   2  -5   83.98    8.78

 -11   2  -5   79.57   10.19

 -11   2  -4  426.73   15.41

 -11   2  -4  425.60   16.77

 -11   2  -3   91.72    9.61

 -11   2  -3   99.80   10.62

 -11   2  -2  152.06   11.16

 -11   2  -1   13.22    7.83

 -11   2   0  130.14   11.05

 -11   2   1   11.06    7.85

 -11   2   2   64.55    7.46

 -11   2   2   56.41    9.24

 -11   2   3   18.68    6.55

 -11   2   3   15.15    8.49

 -11   2   4  149.80   11.15

 -11   2   4  134.39    9.77

 -11   2   5   13.43    7.65

 -11   2   5    9.46    7.09

 -11   2   6  111.03   10.01

 -11   2   6  111.11   10.04

 -11   2   7   33.55    8.59

 -11   2   7   42.07    8.11

 -11   2   8  291.72   15.06

 -11   2   8  291.79   13.41

 -11   2   9   90.55   10.98

 -11   2  10  138.41   12.67

 -10   2 -11    1.56    7.51

 -10   2 -10  248.06   14.03

 -10   2  -9    1.99    7.38

 -10   2  -8    4.18    7.52

 -10   2  -7   19.51    6.00

 -10   2  -7   27.23    8.17

 -10   2  -6    9.15    5.85

 -10   2  -6    1.93    7.81

 -10   2  -5    3.16    5.98

 -10   2  -5    3.20    7.57

 -10   2  -4   80.40    8.65

 -10   2  -4   85.72   10.14

 -10   2  -3    4.74    7.49

 -10   2  -3    2.19    7.05

 -10   2  -2   35.70    8.04

 -10   2  -2   37.82    8.34

 -10   2  -1   21.21    8.04

 -10   2   0   73.59    9.00

 -10   2   1   41.73    8.39

 -10   2   2  291.93   13.22

 -10   2   2  273.75   11.04

 -10   2   3    1.71    7.15

 -10   2   3    0.13    6.00

 -10   2   4  311.30   12.49

 -10   2   4  289.80   13.22

 -10   2   5   27.10    7.15

 -10   2   5   28.16    7.36

 -10   2   6    3.52    6.54

 -10   2   6    6.54    6.80

 -10   2   7   49.83    8.63

 -10   2   7   62.32    8.10

 -10   2   8   15.48    6.22

  -9   2 -11   15.76    7.75

  -9   2 -10  277.60   13.75

  -9   2  -9   23.40    7.72

  -9   2  -8  116.16   10.19

  -9   2  -7    1.69    5.06

  -9   2  -7    1.83    7.10

  -9   2  -6  159.44    9.06

  -9   2  -6  173.61   10.92

  -9   2  -5   29.49    6.18

  -9   2  -5   30.84    7.80

  -9   2  -4  364.33   12.55

  -9   2  -4  369.15   13.67

  -9   2  -3   75.14    8.78

  -9   2  -3   71.53    7.63

  -9   2  -2  311.55   12.10

  -9   2  -2  314.88   12.56

  -9   2  -2  334.17   22.49

  -9   2  -1   14.08    6.40

  -9   2   0   42.89    7.08

  -9   2   1  147.87    9.79

  -9   2   1  159.45    8.39

  -9   2   2   95.60    9.13

  -9   2   2   90.29    7.28

  -9   2   3   46.68    7.59

  -9   2   3   62.51    7.10

  -9   2   4  549.19   15.53

  -9   2   4  533.18   14.95

  -9   2   5   27.73    6.94

  -9   2   5   20.74    6.72

  -9   2   6  120.69    8.85

  -9   2   7   74.66    7.75

  -9   2   8  339.12   12.46

  -8   2 -12   23.04    6.90

  -8   2 -11   18.31    6.41

  -8   2 -11   22.60    7.17

  -8   2 -10   82.05    7.82

  -8   2 -10   70.05    8.51

  -8   2  -9   28.80    5.84

  -8   2  -9   34.24    7.45

  -8   2  -8   64.92    8.01

  -8   2  -8   66.55    8.59

  -8   2  -8   62.33    6.21

  -8   2  -7   11.72    6.59

  -8   2  -7    9.84    4.64

  -8   2  -7    6.00    6.67

  -8   2  -6  178.79   10.50

  -8   2  -6  178.20    8.70

  -8   2  -6  179.04   10.11

  -8   2  -5   37.79    5.70

  -8   2  -5   39.38    7.14

  -8   2  -5   33.23    7.77

  -8   2  -4  153.76    9.31

  -8   2  -4  155.34    8.38

  -8   2  -3   84.71    7.92

  -8   2  -3   76.75    7.08

  -8   2  -3   74.85   11.69

  -8   2  -2  449.85   12.89

  -8   2  -2  463.12   24.95

  -8   2  -2  474.73   13.51

  -8   2  -1   32.49    6.02

  -8   2  -1   43.27   10.69

  -8   2  -1   34.21    6.14

  -8   2   0  432.77   25.45

  -8   2   0  422.49   12.47

  -8   2   1    0.30    4.54

  -8   2   1    0.60    5.59

  -8   2   2  185.28    8.75

  -8   2   2  187.86    9.84

  -8   2   3  342.62   11.82

  -8   2   3  345.13   11.33

  -8   2   4  382.96   12.35

  -8   2   4  374.13   12.19

  -8   2   5    2.39    5.73

  -8   2   6   93.12    7.68

  -8   2   7    0.05    4.96

  -8   2   8  116.32    7.84

  -7   2 -16   35.50    9.27

  -7   2 -15   11.29    7.97

  -7   2 -14  161.17   12.32

  -7   2 -13    6.74    6.89

  -7   2 -12  325.75   14.14

  -7   2 -11   96.64    8.77

  -7   2 -11   92.96    8.71

  -7   2 -10  316.77   12.79

  -7   2 -10  342.82   12.96

  -7   2  -9   38.59    6.26

  -7   2  -9   35.11    6.77

  -7   2  -9   43.75    7.31

  -7   2  -8  359.36   13.10

  -7   2  -8  365.85   12.85

  -7   2  -8  353.11   11.47

  -7   2  -7   18.78    6.05

  -7   2  -7   18.38    4.24

  -7   2  -7   19.39    6.32

  -7   2  -7   21.36    4.74

  -7   2  -6  839.95   17.64

  -7   2  -6  875.04   17.50

  -7   2  -6  839.45   32.89

  -7   2  -6  877.85   15.51

  -7   2  -6  858.68   14.83

  -7   2  -5  155.90    7.61

  -7   2  -5  156.78    9.00

  -7   2  -5  162.10    8.80

  -7   2  -5  155.50    6.40

  -7   2  -5  147.25   13.87

  -7   2  -4  133.17    8.21

  -7   2  -4  129.74    8.11

  -7   2  -4  129.96    5.38

  -7   2  -4  125.71    7.09

  -7   2  -4  125.49   12.10

  -7   2  -3  118.32    7.15

  -7   2  -3  114.15    4.54

  -7   2  -3  120.09   12.56

  -7   2  -3  113.13    7.39

  -7   2  -2  270.58    9.47

  -7   2  -2  265.93    9.74

  -7   2  -2  268.18    5.86

  -7   2  -2  254.99   17.62

  -7   2  -1  161.56    8.11

  -7   2  -1  171.21    8.09

  -7   2  -1  166.37   10.09

  -7   2  -1  187.26   16.22

  -7   2   0 1222.75   39.34

  -7   2   0 1183.54   18.27

  -7   2   0 1248.49   24.35

  -7   2   1   -0.75    4.08

  -7   2   1   -0.14    9.65

  -7   2   1    2.59    4.07

  -7   2   2  886.28   17.11

  -7   2   2  819.63   34.68

  -7   2   2  841.85   15.78

  -7   2   2  846.84   15.26

  -7   2   3  186.72   11.54

  -7   2   3  183.25    8.66

  -7   2   3  176.99    8.35

  -7   2   3  180.34    5.17

  -7   2   4  777.97   15.32

  -7   2   4  790.22   25.08

  -7   2   4  771.95   23.72

  -7   2   5    1.90    5.01

  -7   2   5    0.27    5.99

  -7   2   6  495.29   12.76

  -7   2   7  108.79    7.16

  -7   2   8  463.46   12.35

  -6   2 -16   55.14   10.03

  -6   2 -15   13.13    8.46

  -6   2 -14  109.15   11.16

  -6   2 -13    7.45    7.63

  -6   2 -12  286.86   13.76

  -6   2 -11   45.83    7.91

  -6   2 -11   63.43    7.35

  -6   2 -10   56.10    7.59

  -6   2 -10   64.06    7.28

  -6   2  -9   70.67    7.22

  -6   2  -9   72.80    7.25

  -6   2  -9   79.11    7.52

  -6   2  -8    3.83    5.46

  -6   2  -8    5.28    5.16

  -6   2  -8    3.52    4.86

  -6   2  -7   60.71    6.60

  -6   2  -7   60.62    5.85

  -6   2  -7   63.03    4.71

  -6   2  -7   65.30    6.50

  -6   2  -6  716.77   12.92

  -6   2  -6  672.30   29.80

  -6   2  -6  703.96   15.08

  -6   2  -6  707.95   13.50

  -6   2  -6  717.86   14.78

  -6   2  -5   70.78    6.57

  -6   2  -5   81.36    5.40

  -6   2  -5   74.70    6.19

  -6   2  -5   69.06    4.92

  -6   2  -4  475.80   12.04

  -6   2  -4  484.81   10.85

  -6   2  -4  474.60   11.82

  -6   2  -4  468.54    9.37

  -6   2  -3   93.18    5.94

  -6   2  -3   99.10    6.13

  -6   2  -3   86.98    6.34

  -6   2  -3  101.44    4.40

  -6   2  -2  580.30   11.86

  -6   2  -2  585.20   19.78

  -6   2  -2  569.69   12.21

  -6   2  -1   68.05    5.69

  -6   2  -1   66.52   10.40

  -6   2  -1   71.50    5.83

  -6   2  -1   69.99    7.34

  -6   2   0  852.48   14.14

  -6   2   0  850.92   30.51

  -6   2   0  844.15   13.53

  -6   2   1  234.73    7.95

  -6   2   1  231.80   18.16

  -6   2   1  239.04    8.65

  -6   2   1  237.40    7.92

  -6   2   2  233.54    8.29

  -6   2   2  241.24   18.43

  -6   2   2  221.85    8.03

  -6   2   3   49.65    5.32

  -6   2   3   54.82    7.48

  -6   2   3   56.60    2.85

  -6   2   3   54.91    6.92

  -6   2   3   62.83   12.09

  -6   2   4    3.65    7.09

  -6   2   4    7.19    5.28

  -6   2   4    1.60    3.96

  -6   2   4   -1.33    5.23

  -6   2   5  252.15    8.71

  -6   2   5  256.01   16.46

  -6   2   5  232.18   15.80

  -6   2   6   24.45    4.68

  -6   2   6   31.21    8.72

  -6   2   6   31.05    8.47

  -6   2   7  153.94   15.75

  -6   2   7  147.02   15.60

  -6   2   7  156.06    7.17

  -6   2   8  515.02   11.86

  -5   2 -16   99.64   11.24

  -5   2 -15   21.16    8.36

  -5   2 -14   25.43    8.21

  -5   2 -13   69.97    9.32

  -5   2 -12  105.54    9.93

  -5   2 -11    6.45    6.94

  -5   2 -10  139.73    8.07

  -5   2 -10  138.37    9.64

  -5   2 -10  143.67    8.19

  -5   2  -9    2.35    4.69

  -5   2  -9    2.78    4.51

  -5   2  -9    2.69    5.42

  -5   2  -8   98.53    7.36

  -5   2  -8   95.07    6.68

  -5   2  -8   93.92    6.81

  -5   2  -7    7.24    2.74

  -5   2  -7    1.26    4.59

  -5   2  -7    3.66    9.06

  -5   2  -7    6.79    4.63

  -5   2  -7    3.04    4.32

  -5   2  -6  642.39   13.30

  -5   2  -6  637.27   12.99

  -5   2  -6  659.97   12.86

  -5   2  -6  660.10   11.09

  -5   2  -5    1.69    4.02

  -5   2  -5    1.64    3.00

  -5   2  -5   -0.02    4.32

  -5   2  -5    3.11    3.25

  -5   2  -4  293.41    7.97

  -5   2  -4  292.53    8.67

  -5   2  -4  295.01    8.94

  -5   2  -4  285.18    7.63

  -5   2  -3    1.82    3.41

  -5   2  -3    2.18    3.70

  -5   2  -3    5.59    4.21

  -5   2  -2  258.48   13.79

  -5   2  -2  262.64    7.85

  -5   2  -2  281.67    7.89

  -5   2  -1  237.18   12.27

  -5   2  -1  248.89    7.50

  -5   2  -1  224.00    7.36

  -5   2   0  100.33    5.33

  -5   2   1    9.23    7.50

  -5   2   1   13.75    3.94

  -5   2   1   19.45    4.15

  -5   2   2  361.35    8.90

  -5   2   2  349.67    9.02

  -5   2   3  213.96    7.14

  -5   2   3  222.25   12.45

  -5   2   4  590.26   27.65

  -5   2   4  539.58   21.55

  -5   2   4  544.53   10.92

  -5   2   4  546.41   21.16

  -5   2   5    8.76    3.56

  -5   2   5    2.35    9.37

  -5   2   5    8.71    6.96

  -5   2   5    9.44    6.82

  -5   2   6  428.57   22.66

  -5   2   6  397.61   22.31

  -5   2   6  474.85   27.73

  -5   2   6  417.80    9.83

  -5   2   7    9.37    3.51

  -5   2   7   10.56    7.92

  -5   2   7    8.56    8.39

  -4   2 -17    3.68    8.00

  -4   2 -16   94.32   11.51

  -4   2 -15   63.82   10.54

  -4   2 -14   25.03    9.16

  -4   2 -13    7.58    8.06

  -4   2 -12   48.37    8.92

  -4   2 -11    1.61    6.67

  -4   2 -10  209.38   10.79

  -4   2 -10  227.56    9.09

  -4   2  -9   27.01    6.52

  -4   2  -9   32.43    4.86

  -4   2  -9   30.89    4.75

  -4   2  -8  396.06   12.13

  -4   2  -8  393.29   10.55

  -4   2  -8  421.39   10.78

  -4   2  -7  157.99    6.90

  -4   2  -7  156.82    7.07

  -4   2  -7  161.64   16.58

  -4   2  -7  151.17    7.77

  -4   2  -6  441.27    8.16

  -4   2  -6  431.55   10.51

  -4   2  -6  413.43   10.04

  -4   2  -6  419.19    9.82

  -4   2  -5   39.13    3.33

  -4   2  -5   35.01    3.98

  -4   2  -5   34.36    4.38

  -4   2  -5   36.08    4.30

  -4   2  -4   65.76    4.36

  -4   2  -4   68.68    4.78

  -4   2  -4   67.68    4.00

  -4   2  -4   68.71    4.61

  -4   2  -3  276.50    7.28

  -4   2  -3  258.96    6.70

  -4   2  -3  280.65   15.35

  -4   2  -2  655.36   20.62

  -4   2  -2  665.76   10.60

  -4   2  -2  682.09   10.35

  -4   2  -1   11.83    3.57

  -4   2   0  362.81    7.96

  -4   2   0  373.30   11.94

  -4   2   1   55.60    4.04

  -4   2   2  438.20    8.68

  -4   2   2  457.34   15.66

  -4   2   3   22.34    3.30

  -4   2   3   21.48    6.30

  -4   2   4 1081.46   29.96

  -4   2   4 1075.23   29.30

  -4   2   4 1092.66   13.61

  -4   2   4 1127.63   35.24

  -4   2   5    8.76    3.03

  -4   2   5   10.61    7.45

  -4   2   5    6.85    7.14

  -4   2   5    4.01    7.03

  -4   2   6  558.91   27.35

  -4   2   6  622.41   27.28

  -4   2   6  542.50   25.95

  -4   2   6  566.14   10.14

  -4   2   7  312.72    7.80

  -4   2   7  332.84   22.41

  -4   2   7  353.87   22.70

  -3   2 -17    8.31    8.54

  -3   2 -16   70.21   10.52

  -3   2 -15    1.49    7.90

  -3   2 -14  141.90   11.96

  -3   2 -13   43.16    9.15

  -3   2 -12  199.32   12.48

  -3   2 -11   25.90    7.56

  -3   2 -10  233.57   11.37

  -3   2  -9   90.17    5.48

  -3   2  -9  100.58    5.90

  -3   2  -9   90.51    8.10

  -3   2  -8  419.28    9.89

  -3   2  -8  466.49   10.29

  -3   2  -8  477.87   12.96

  -3   2  -7  610.65   11.28

  -3   2  -7  622.64   29.88

  -3   2  -7  614.62   13.27

  -3   2  -7  635.04   11.27

  -3   2  -6  353.93    6.26

  -3   2  -6  329.00    9.36

  -3   2  -6  336.37    8.03

  -3   2  -6  321.21    8.21

  -3   2  -5  190.52    4.92

  -3   2  -5  188.66    6.84

  -3   2  -5  182.66    5.92

  -3   2  -5  185.01    6.22

  -3   2  -4    2.88    2.08

  -3   2  -4    1.93    2.50

  -3   2  -4    1.90    3.09

  -3   2  -3   69.28    3.64

  -3   2  -3   66.30    3.75

  -3   2  -3   77.24    9.95

  -3   2  -2 2179.53   36.35

  -3   2  -2 2190.14   16.12

  -3   2  -2 2113.74   16.20

  -3   2  -1  231.80    5.73

  -3   2   0 2907.83   77.18

  -3   2   0 2895.65   33.26

  -3   2   1 1174.60   12.84

  -3   2   2  951.90   22.71

  -3   2   2  965.14   11.40

  -3   2   3  539.87   19.18

  -3   2   3  518.55    8.54

  -3   2   4  829.34   28.09

  -3   2   4  791.82   25.51

  -3   2   4  840.06   10.78

  -3   2   5   67.88    3.86

  -3   2   5   65.27    9.76

  -3   2   5   62.42    9.90

  -3   2   5   64.08    9.63

  -3   2   6  712.73   28.95

  -3   2   6  786.12   30.00

  -3   2   6  776.39   10.53

  -3   2   6  769.16   30.23

  -3   2   7  232.08   19.33

  -3   2   7  220.29    5.93

  -3   2   7  209.02   17.89

  -2   2 -17   -0.59    8.94

  -2   2 -16  242.76   15.85

  -2   2 -15   36.50   10.07

  -2   2 -14  235.89   14.61

  -2   2 -13   18.33    8.89

  -2   2 -12  249.18   13.13

  -2   2 -11   13.01    7.70

  -2   2 -10  121.95    9.34

  -2   2  -9   48.96    7.33

  -2   2  -9   53.59    4.41

  -2   2  -8  505.19   13.18

  -2   2  -8  513.36    9.87

  -2   2  -8  507.03    8.58

  -2   2  -7   61.12    3.26

  -2   2  -7   61.23    4.06

  -2   2  -7   56.14    5.83

  -2   2  -7   55.21    3.80

  -2   2  -6 1837.42   13.51

  -2   2  -6 1819.50   16.40

  -2   2  -6 1846.35   20.30

  -2   2  -6 1827.20   16.01

  -2   2  -5  349.05    5.46

  -2   2  -5  360.12    5.59

  -2   2  -5  346.45    6.70

  -2   2  -5  343.92    8.82

  -2   2  -4 2247.52   15.31

  -2   2  -4 2246.62   55.11

  -2   2  -3 1012.81   27.01

  -2   2  -3 1016.65    9.79

  -2   2  -2 4298.83   49.68

  -2   2  -2 4506.74   78.78

  -2   2   0 1253.93   22.97

  -2   2   0 1274.89   11.74

  -2   2   1 1815.16   56.18

  -2   2   2  887.83   22.16

  -2   2   3  762.28   22.89

  -2   2   4  387.37   18.15

  -2   2   4  379.53   18.20

  -2   2   5   52.95   10.03

  -2   2   5   67.29    9.67

  -2   2   5   66.18   10.73

  -2   2   6  893.31   32.47

  -2   2   6  924.74   33.07

  -2   2   6  917.97   10.18

  -2   2   6  899.70   29.45

  -2   2   7   31.37    2.56

  -2   2   7   38.94   10.86

  -2   2   7   25.30   10.21

  -1   2 -17    1.93    9.37

  -1   2 -16  128.18   13.06

  -1   2 -15   42.63   10.31

  -1   2 -14   21.21    9.12

  -1   2 -13   22.88    8.83

  -1   2 -12  254.98   13.31

  -1   2 -11    1.06    7.59

  -1   2 -10  308.91   12.76

  -1   2 -10  332.22    9.00

  -1   2  -9   -0.38    6.38

  -1   2  -9    0.06    3.16

  -1   2  -8  187.75    6.22

  -1   2  -8  179.32    9.05

  -1   2  -8  188.15    5.79

  -1   2  -7  103.68    4.51

  -1   2  -7  102.83    4.18

  -1   2  -7  105.39    6.68

  -1   2  -6  124.48    4.46

  -1   2  -6  128.84    4.12

  -1   2  -6  120.57    6.17

  -1   2  -5   73.23    3.37

  -1   2  -5   67.46    2.87

  -1   2  -5   71.09    4.93

  -1   2  -4  328.00    5.65

  -1   2  -3  279.15   15.31

  -1   2  -2  508.81   17.51

  -1   2   0   41.66    7.39

  -1   2   1  261.19    5.27

  -1   2   1  238.21   12.12

  -1   2   2 3019.55   40.19

  -1   2   3  747.83   22.94

  -1   2   4  728.16   24.92

  -1   2   4  735.13   21.92

  -1   2   5   20.99    6.47

  -1   2   5   21.31    7.33

  -1   2   6   63.79   10.71

  -1   2   6   63.52   10.88

  -1   2   6   62.85    8.82

  -1   2   7   14.00    8.10

   0   2 -17   14.77    8.64

   0   2 -16  175.41   13.61

   0   2 -15    4.88    8.24

   0   2 -14   13.28    8.68

   0   2 -13    3.25    8.30

   0   2 -12  123.62   11.01

   0   2 -11  104.40    9.68

   0   2 -11  117.86    6.96

   0   2 -10  549.33   15.80

   0   2 -10  499.51   11.80

   0   2  -9    2.47    5.72

   0   2  -9    2.09    3.56

   0   2  -8  589.64   11.17

   0   2  -8  563.87   13.54

   0   2  -7  163.36    5.93

   0   2  -7  173.46    4.63

   0   2  -7  184.14    8.07

   0   2  -6  292.89    7.18

   0   2  -6  305.11    5.24

   0   2  -6  297.09    8.78

   0   2  -5  190.26    5.57

   0   2  -5  191.68    6.67

   0   2  -4 1448.24   12.86

   0   2  -3  319.91   15.32

   0   2  -2 1314.72   26.62

   0   2  -1  271.18   12.90

   0   2   0  454.18   15.21

   0   2   1  223.83   12.20

   0   2   2 1244.26   26.53

   0   2   3  329.76   15.85

   0   2   4 1384.32   33.64

   0   2   5  178.64   10.83

   0   2   5  187.19   15.07

   0   2   6  244.01   17.90

   0   2   6  329.58   14.79

   0   2   7  166.86   16.16

   0   2   7  174.87   16.84

   1   2 -17   10.84    9.17

   1   2 -16  173.44   13.84

   1   2 -15   35.99    9.96

   1   2 -14   40.48    9.74

   1   2 -13   38.92    9.32

   1   2 -12   32.90    5.77

   1   2 -12   32.24    8.53

   1   2 -11   26.25    5.32

   1   2 -11   22.97    7.46

   1   2 -10   44.07    5.49

   1   2 -10   43.81    7.64

   1   2  -9   54.59    5.30

   1   2  -9   48.20    6.66

   1   2  -8  170.54    7.16

   1   2  -8  173.82    8.53

   1   2  -7   11.52    3.77

   1   2  -7    3.17    7.60

   1   2  -7   13.04    4.37

   1   2  -6   63.92    4.64

   1   2  -6   60.38    4.92

   1   2  -5   17.12    3.79

   1   2  -5   14.77    3.40

   1   2  -4  741.52   10.32

   1   2  -3  757.60   22.41

   1   2  -2 3262.75   40.92

   1   2   0   40.11    6.47

   1   2   2  448.03   16.68

   1   2   3  295.48   15.53

   1   2   4  325.36   17.51

   1   2   4  325.62    5.52

   1   2   4  332.52   17.71

   1   2   5   67.63    6.12

   1   2   5   83.83   11.95

   1   2   5   65.01   11.25

   1   2   5   68.47    3.47

   1   2   6  124.41    4.88

   1   2   6  133.72   13.87

   1   2   6  128.16   13.99

   1   2   7   96.26   12.42

   1   2   7   95.29    5.03

   1   2   7   97.65   13.06

   1   2   8  179.44    7.03

   2   2 -17   -3.21    8.02

   2   2 -16   56.22   10.13

   2   2 -15   20.04    8.88

   2   2 -14   93.00    8.38

   2   2 -14   98.70   10.81

   2   2 -13   10.40    5.71

   2   2 -13   15.20    7.94

   2   2 -12  335.41   12.35

   2   2 -12  352.67   14.65

   2   2 -11  107.73    7.93

   2   2 -11  121.64    9.96

   2   2 -10  320.33   11.00

   2   2 -10  348.56   12.73

   2   2  -9  444.12   11.98

   2   2  -9  441.62   12.90

   2   2  -8 1110.21   17.27

   2   2  -8 1119.10   40.62

   2   2  -8 1132.32   18.21

   2   2  -7   31.64    4.57

   2   2  -7   30.62    8.74

   2   2  -7   28.65    4.71

   2   2  -6  910.14   14.10

   2   2  -6  910.64   13.97

   2   2  -5   67.13    4.95

   2   2  -5   68.99    4.61

   2   2  -4  395.24    8.42

   2   2  -4  363.55    7.62

   2   2  -3  783.33   22.08

   2   2  -2  866.53   20.89

   2   2   0 1289.41   24.35

   2   2   2 4304.51   48.95

   2   2   3 1008.03   26.63

   2   2   4 2177.89   56.84

   2   2   4 2176.72   41.79

   2   2   4 2166.44   41.86

   2   2   5  345.58    6.74

   2   2   5  342.37    8.59

   2   2   5  344.60   19.29

   2   2   5  326.64   19.26

   2   2   6 1891.49   46.64

   2   2   6 1820.17   45.73

   2   2   6 1802.83   16.58

   2   2   7   56.21    4.38

   2   2   7   49.04   11.39

   2   2   7   54.54   10.47

   2   2   8  478.03   10.59

   2   2   9   56.04    5.32

   2   2  10  119.07    7.25

   3   2 -17   -1.75    8.50

   3   2 -16   48.56    9.80

   3   2 -15    1.75    8.42

   3   2 -15   -0.04    6.44

   3   2 -14  170.42   12.60

   3   2 -14  173.91   11.03

   3   2 -13   22.11    8.18

   3   2 -13   19.51    6.76

   3   2 -12  611.59   16.88

   3   2 -12  625.32   18.21

   3   2 -11   43.36    7.09

   3   2 -11   39.13    7.70

   3   2 -10  105.49    8.03

   3   2 -10   99.12    8.25

   3   2  -9   18.23    5.52

   3   2  -9   15.93    5.58

   3   2  -8  283.09   10.02

   3   2  -8  288.79   21.84

   3   2  -8  281.49    9.90

   3   2  -7  222.36    8.56

   3   2  -7  225.19   17.67

   3   2  -7  215.11    8.11

   3   2  -6  778.17   13.92

   3   2  -6  747.54   28.59

   3   2  -6  772.26   12.86

   3   2  -5   60.43    4.82

   3   2  -5   68.69    4.49

   3   2  -4  801.27   10.80

   3   2  -4  826.91   12.56

   3   2  -3  502.79    9.43

   3   2  -2  948.58   21.15

   3   2   0 2950.52   36.60

   3   2   2 2037.41   34.01

   3   2   3   78.73    9.43

   3   2   3   72.17    8.69

   3   2   4    2.12    6.15

   3   2   4    2.45    6.56

   3   2   4    2.16    1.72

   3   2   5  186.56    5.30

   3   2   5  191.15   15.27

   3   2   5  184.67   14.49

   3   2   6  316.11    7.49

   3   2   6  331.56   20.76

   3   2   6  360.04   21.20

   3   2   7  627.97   11.30

   3   2   7  598.17   28.92

   3   2   7  637.78   29.65

   3   2   8  459.94   10.72

   3   2   9   88.17    6.24

   3   2  10  226.29    9.17

   3   2  11   25.31    5.60

   3   2  12  194.38    9.98

   4   2 -17    7.38    7.61

   4   2 -16   78.19   10.52

   4   2 -15    0.52    7.94

   4   2 -15   -2.87    7.01

   4   2 -14   89.17    9.65

   4   2 -14   91.58   10.46

   4   2 -13   60.54    8.66

   4   2 -13   57.07    8.78

   4   2 -12  341.91   13.81

   4   2 -12  345.70   13.94

   4   2 -11   29.76    6.81

   4   2 -11   34.42    7.01

   4   2 -10   53.05    7.26

   4   2 -10   60.69    6.98

   4   2  -9   28.61    6.34

   4   2  -9   34.29    5.81

   4   2  -8  133.45    8.22

   4   2  -8  134.15   15.18

   4   2  -8  152.11    7.59

   4   2  -7  314.25   10.52

   4   2  -7  330.41    9.53

   4   2  -7  298.46   20.34

   4   2  -6  578.23   13.05

   4   2  -6  605.97   25.69

   4   2  -6  574.26   11.14

   4   2  -5    5.87    3.97

   4   2  -5    2.57    6.41

   4   2  -5    5.57    2.88

   4   2  -4 1108.42   15.36

   4   2  -4 1081.48   12.14

   4   2  -3   28.10    2.49

   4   2  -3   24.05    4.05

   4   2  -2  461.36   14.23

   4   2  -2  459.23    9.05

   4   2  -1   61.61    5.61

   4   2   0  381.96   13.73

   4   2   2  671.68   18.40

   4   2   2  630.73   19.39

   4   2   3  273.26   13.92

   4   2   3  245.17   13.83

   4   2   4   64.96    9.32

   4   2   4   57.05    3.03

   4   2   4   57.31    8.65

   4   2   5   50.22    9.48

   4   2   5   38.55    3.23

   4   2   5   38.20    9.23

   4   2   6  416.36    9.06

   4   2   6  460.70   23.91

   4   2   6  427.67   22.91

   4   2   7  139.36   15.03

   4   2   7  148.69    6.30

   4   2   8  388.43   10.23

   4   2   9   29.49    4.91

   4   2  10  200.46    8.95

   4   2  11    3.02    5.04

   4   2  12   60.27    6.97

   4   2  13   11.07    5.96

   5   2 -17   23.71    8.33

   5   2 -16   79.45    9.86

   5   2 -16   86.12   10.63

   5   2 -15   29.22    8.53

   5   2 -15   44.54    8.51

   5   2 -14   29.66    7.73

   5   2 -14   31.41    8.03

   5   2 -13    3.43    6.97

   5   2 -13    8.47    7.24

   5   2 -12   61.49    7.97

   5   2 -12   71.13    9.43

   5   2 -11   49.40    8.05

   5   2 -11   45.06    7.03

   5   2 -10   53.64    8.00

   5   2 -10   55.89    6.93

   5   2  -9    1.73    4.62

   5   2  -9    2.67    6.72

   5   2  -8  366.58   12.57

   5   2  -8  392.30   10.97

   5   2  -8  383.50   23.89

   5   2  -7   10.54    5.67

   5   2  -7   17.90    7.68

   5   2  -7   14.01    4.00

   5   2  -6  383.23   11.59

   5   2  -6  381.93   20.51

   5   2  -6  422.89    9.49

   5   2  -5    8.04    2.77

   5   2  -5    6.64    4.69

   5   2  -5    6.14    5.96

   5   2  -4  543.80   11.85

   5   2  -4  525.92   19.19

   5   2  -4  560.43    8.58

   5   2  -3  224.52    7.84

   5   2  -3  237.06    5.00

   5   2  -2  353.22    8.70

   5   2  -1   14.64    3.38

   5   2  -1   19.09    3.30

   5   2   1  221.11   10.95

   5   2   1  243.72    9.16

   5   2   2  286.35   12.98

   5   2   2  273.23   11.53

   5   2   3    0.61    5.30

   5   2   3    2.80    4.69

   5   2   3    4.78    3.58

   5   2   4  329.81   17.09

   5   2   4  301.74   16.28

   5   2   5    0.59    6.43

   5   2   5   -0.06    6.32

   5   2   6  617.45   11.41

   5   2   6  605.34   27.00

   5   2   7    4.56    3.26

   5   2   7    3.39    7.84

   5   2   8  100.26    6.14

   5   2   9    5.14    4.50

   5   2  10  130.64    7.92

   5   2  11    7.17    5.17

   5   2  12  104.81    8.29

   5   2  13   75.45    7.95

   6   2 -16   -0.18    6.88

   6   2 -15    9.67    7.66

   6   2 -14   56.50    9.82

   6   2 -14   64.50    8.60

   6   2 -13   23.20    8.02

   6   2 -13   23.89    6.88

   6   2 -12  128.17    9.49

   6   2 -12  126.87   11.12

   6   2 -11    0.63    7.53

   6   2 -11    0.23    5.30

   6   2 -10  155.11   10.88

   6   2 -10  152.96    8.72

   6   2  -9   36.57    8.17

   6   2  -9   35.54    5.50

   6   2  -8  541.49   15.69

   6   2  -8  570.51   12.80

   6   2  -7  163.26    9.82

   6   2  -7  158.81    6.76

   6   2  -6   26.59    6.45

   6   2  -6   31.57    3.66

   6   2  -6   39.13    8.74

   6   2  -5  249.36    9.94

   6   2  -5  259.64   14.99

   6   2  -5  273.88    6.75

   6   2  -4    2.34    1.99

   6   2  -4    2.78    4.39

   6   2  -4    4.09    9.50

   6   2  -4   -0.09    4.52

   6   2  -3   49.18    5.48

   6   2  -3   56.57   10.87

   6   2  -3   47.71    5.41

   6   2  -2  228.11   17.32

   6   2  -2  236.98    8.12

   6   2  -2  217.65    7.80

   6   2  -1  230.94   16.85

   6   2  -1  232.05    7.42

   6   2   0  881.77   29.16

   6   2   0  851.08   12.44

   6   2   1   63.08    9.11

   6   2   1   84.78    7.00

   6   2   1   73.63    4.64

   6   2   2  558.95   19.95

   6   2   3   99.58    8.07

   6   2   4  472.59   19.90

   6   2   5   81.63   10.44

   6   2   6  686.28   28.75

   6   2   6  673.04   12.83

   6   2   7   47.69   10.75

   6   2   7   55.72    5.14

   6   2   8    6.36    4.06

   6   2   9   75.19    6.45

   6   2  10   66.16    6.63

   6   2  11   51.34    6.80

   6   2  12  267.02   11.68

   7   2 -16   76.72   10.25

   7   2 -15   -1.25    8.12

   7   2 -14  267.24   14.84

   7   2 -13    8.36    8.71

   7   2 -12  150.59   12.02

   7   2 -11    8.40    7.74

   7   2 -10   48.47    8.78

   7   2  -9   33.99    8.39

   7   2  -8  450.54   15.48

   7   2  -7  112.19    9.62

   7   2  -6  485.70   14.39

   7   2  -5   -0.66    5.84

   7   2  -4  769.29   15.68

   7   2  -3  181.84    8.03

   7   2  -3  162.82   16.72

   7   2  -2  832.96   33.99

   7   2  -2  856.63   14.86

   7   2  -1    1.39    3.63

   7   2  -1    5.27    8.56

   7   2   0 1233.47   37.21

   7   2   0 1179.35   15.56

   7   2   1  178.91   14.28

   7   2   1  171.48    6.17

   7   2   2  286.33   12.04

   7   2   2  273.46    7.00

   7   2   2  251.59   14.90

   7   2   3  120.96    4.52

   7   2   7   12.38    4.10

   7   2   8  340.94   11.02

   7   2   9   34.36    5.47

   7   2  10  308.41   11.66

   7   2  11   94.93    8.11

   8   2 -15   32.01    9.37

   8   2 -14  132.09   12.82

   8   2 -13   21.34    9.33

   8   2 -12  142.37   12.23

   8   2 -11    5.83    7.95

   8   2 -10  102.98   10.61

   8   2  -9   -1.69    7.91

   8   2  -8  123.44   10.76

   8   2  -7    0.91    7.38

   8   2  -6   86.59    8.46

   8   2  -5    4.34    6.06

   8   2  -4  390.59   12.45

   8   2  -3  334.11   10.88

   8   2  -2  190.60    8.41

   8   2  -1    2.97    3.87

   8   2  -1    4.69    7.97

   8   2   0  439.82   10.40

   8   2   0  442.86   24.40

   8   2   1   33.20    4.14

   8   2   1   27.33    8.37

   8   2   2  486.63    9.60

   8   2   7    7.84    4.38

   8   2   8   57.67    6.06

   8   2   9   32.31    5.63

   8   2  10   73.96    7.21

   9   2 -14   25.72   10.00

   9   2 -13    5.80    9.29

   9   2 -12   87.63   11.55

   9   2 -11    6.84    8.79

   9   2 -10  331.69   15.82

   9   2  -9   -0.49    7.44

   9   2  -8  324.33   14.70

   9   2  -7   73.26    8.99

   9   2  -6  130.22   10.08

   9   2  -5   23.86    6.72

   9   2  -4  527.87   14.60

   9   2  -3   58.44    6.48

   9   2  -2   96.38    6.89

   9   2  -1  148.33    7.56

   9   2   0   42.33    4.80

   9   2   0   47.21   10.60

   9   2   1   11.10    3.52

   9   2   7   -1.06    4.68

   9   2   8  112.57    7.74

   9   2   9   11.14    5.27

  10   2 -14   71.06   11.23

  10   2 -13   22.02    9.29

  10   2 -12    3.65    8.24

  10   2 -11   33.56    9.68

  10   2 -10   48.19   10.02

  10   2  -9   18.00    8.29

  10   2  -8   20.11    7.91

  10   2  -7   66.80    9.43

  10   2  -6   10.19    7.40

  10   2  -5   29.68    7.47

  10   2  -4  310.77   12.43

  10   2  -3    0.08    5.10

  10   2  -2  257.69   10.28

  10   2  -1   44.87    5.74

  10   2   0   75.43    5.88

  10   2   7   17.70    5.38

  10   2   8    3.42    4.96

  11   2 -13   30.42   10.15

  11   2 -12   24.00    9.70

  11   2 -11   76.46   11.20

  11   2 -10  139.46   12.35

  11   2  -9   90.77   11.26

  11   2  -8  275.32   14.68

  11   2  -7   31.77    8.66

  11   2  -6  112.09   10.16

  11   2  -5    5.64    6.52

  11   2  -4  153.64    9.73

  11   2  -3   13.60    5.84

  11   2  -2   48.29    6.33

  11   2   7    2.99    5.56

  12   2 -12  116.05   11.98

  12   2 -11    1.49    8.99

  12   2 -10  113.33   11.88

  12   2  -9   15.08    8.26

  12   2  -8  117.10   11.03

  12   2  -7   -0.58    7.70

  12   2  -6  120.48   10.77

  12   2  -5    2.61    6.29

  12   2  -4  126.50    9.64

  12   2  -3   33.03    6.52

  13   2 -11    0.49    7.86

  13   2 -10   76.78   11.09

  13   2  -9   11.85    7.71

  13   2  -8   14.13    7.88

  13   2  -7   85.79   10.60

  13   2  -6   85.05    9.61

  13   2  -5   -1.45    6.45

  13   2  -4  162.84   10.60

  14   2  -9   -1.17    7.37

  14   2  -8   20.94    8.39

  14   2  -7   30.32    8.12

  14   2  -6  125.00   10.98

 -16   1  -4   -1.69    9.19

 -16   1  -3  100.27   11.82

 -16   1  -2    6.37    9.82

 -16   1  -1   12.18    9.96

 -16   1   0   74.62   11.64

 -16   1   1   12.34   10.20

 -16   1   2   35.00   10.93

 -16   1   3    6.34    8.96

 -16   1   4    4.22    9.82

 -15   1  -6    6.52    7.79

 -15   1  -5   54.69   10.24

 -15   1  -4    1.77    9.00

 -15   1  -3  183.18   14.10

 -15   1  -2   20.00   10.19

 -15   1  -1   61.05   11.50

 -15   1   0   29.24    9.71

 -15   1   1  163.71   14.25

 -15   1   2   15.13   10.02

 -15   1   3  195.42   14.50

 -15   1   4    3.92    9.83

 -15   1   5  201.48   14.93

 -15   1   6    2.33    8.82

 -15   1   7   17.92    8.76

 -14   1  -9  131.24   13.32

 -14   1  -8    1.02    9.07

 -14   1  -7   32.89   10.77

 -14   1  -6    2.13    7.49

 -14   1  -6    2.96    9.57

 -14   1  -5   50.43    9.92

 -14   1  -5   53.58   10.80

 -14   1  -4   -3.45    8.84

 -14   1  -3   82.48   10.84

 -14   1  -2   35.78   10.26

 -14   1  -1   51.32   10.93

 -14   1   0    4.76    8.79

 -14   1   1   57.74   11.24

 -14   1   2   23.19   10.08

 -14   1   3  126.49   12.66

 -14   1   4    1.07    9.45

 -14   1   5   82.88   11.36

 -14   1   6    9.40    8.81

 -14   1   7   16.64    8.71

 -14   1   8    1.35    7.88

 -13   1 -11   23.76    9.85

 -13   1 -10    8.31    9.74

 -13   1  -9   86.69   11.62

 -13   1  -8   -0.06    9.36

 -13   1  -7   55.26   10.64

 -13   1  -6   25.20   10.52

 -13   1  -6   27.95    8.35

 -13   1  -5  201.82   13.93

 -13   1  -5  208.80   12.93

 -13   1  -4   14.01    8.37

 -13   1  -4   14.07    9.01

 -13   1  -3  104.73   10.99

 -13   1  -2   21.47    9.38

 -13   1  -1  162.06   13.05

 -13   1   0   43.71    9.80

 -13   1   1   19.38    9.38

 -13   1   2   39.67   10.26

 -13   1   3   91.27   11.11

 -13   1   4   22.60    9.72

 -13   1   5   62.02   10.53

 -13   1   6   44.17    9.06

 -13   1   7   88.40   10.65

 -13   1   7   71.31    9.11

 -13   1   8    5.40    7.06

 -13   1   8    7.92    7.13

 -13   1   9  107.84   10.74

 -13   1  10   36.04    8.53

 -13   1  11   75.73   10.44

 -12   1 -12    3.00    8.95

 -12   1 -11   91.21   11.29

 -12   1 -10   20.02    9.11

 -12   1  -9   65.92   10.60

 -12   1  -8    8.88    8.75

 -12   1  -7  100.80   11.61

 -12   1  -7  109.09    9.79

 -12   1  -6   -1.77    8.58

 -12   1  -6   -0.63    6.69

 -12   1  -5   84.81    9.40

 -12   1  -5   93.80   11.40

 -12   1  -4   -3.21    7.37

 -12   1  -4    2.14    8.90

 -12   1  -3   17.89    8.05

 -12   1  -3   10.39    8.59

 -12   1  -2   -1.47    8.58

 -12   1  -2   -0.63    8.64

 -12   1  -1  198.39   13.13

 -12   1   0    1.69    8.13

 -12   1   1  196.56   13.27

 -12   1   2   78.66   10.63

 -12   1   3  191.42   12.87

 -12   1   3  204.43   10.41

 -12   1   4   97.42    8.52

 -12   1   4   86.88   10.74

 -12   1   5  108.14    9.00

 -12   1   5   98.09   10.70

 -12   1   6   67.08    9.48

 -12   1   6   67.24    8.54

 -12   1   7   36.86    8.13

 -12   1   7   46.96    8.33

 -12   1   8   60.24    8.65

 -12   1   8   45.20    8.62

 -12   1   9   12.32    8.17

 -12   1  10   -1.59    7.66

 -12   1  11   42.69    9.31

 -12   1  12    3.78    8.46

 -11   1 -13   53.66   10.28

 -11   1 -12    2.27    8.25

 -11   1 -11   91.05   11.67

 -11   1 -10   63.18   10.67

 -11   1  -9   -1.16    8.73

 -11   1  -8    7.73    8.97

 -11   1  -8    7.68    8.70

 -11   1  -7   96.08   10.87

 -11   1  -7  107.47    9.01

 -11   1  -7  123.48   11.97

 -11   1  -6   21.22    8.96

 -11   1  -6   19.79    6.86

 -11   1  -6   26.59    9.00

 -11   1  -5   91.83    9.10

 -11   1  -5   79.95   10.31

 -11   1  -5   74.12   10.72

 -11   1  -4   -0.53    7.18

 -11   1  -4    3.32    8.68

 -11   1  -3   51.92    8.55

 -11   1  -3   57.38    9.51

 -11   1  -2   29.27    8.48

 -11   1  -2   37.23    8.66

 -11   1  -1  159.24   11.73

 -11   1   0  102.47   10.05

 -11   1   1  207.26   12.53

 -11   1   2   72.64    9.88

 -11   1   2   69.50    6.83

 -11   1   3   11.17    5.46

 -11   1   3    9.14    7.76

 -11   1   4   33.40    8.74

 -11   1   4   46.43    6.90

 -11   1   5  121.32   10.46

 -11   1   5  112.91    9.04

 -11   1   6   46.05    8.03

 -11   1   6   33.21    7.99

 -11   1   7   95.79    9.36

 -11   1   7   96.49    9.56

 -11   1   8   26.93    7.26

 -11   1   8   20.94    8.04

 -10   1 -13  112.64   11.21

 -10   1 -12    6.19    7.82

 -10   1 -11  119.44   11.63

 -10   1 -10    0.85    7.95

 -10   1 -10   -1.15    8.12

 -10   1  -9   61.65    9.75

 -10   1  -9   58.15    9.46

 -10   1  -8   30.85    8.82

 -10   1  -8   31.03    9.03

 -10   1  -7  382.32   13.11

 -10   1  -7  366.33   15.91

 -10   1  -7  379.89   15.75

 -10   1  -6   11.72    6.23

 -10   1  -6    7.35    8.03

 -10   1  -6   11.31    8.59

 -10   1  -5  571.55   16.04

 -10   1  -5  535.61   17.26

 -10   1  -5  545.43   17.63

 -10   1  -4    7.36    6.76

 -10   1  -4    5.51    7.87

 -10   1  -4    5.32    8.12

 -10   1  -3  329.32   13.65

 -10   1  -3  329.57   13.23

 -10   1  -3  326.93   13.84

 -10   1  -2  427.79   15.21

 -10   1  -2  432.70   14.63

 -10   1  -1  360.43   13.95

 -10   1  -1  383.65   14.06

 -10   1   0    2.67    7.09

 -10   1   1  314.47   13.30

 -10   1   1  345.59   10.83

 -10   1   2    3.80    4.82

 -10   1   2    1.19    7.21

 -10   1   2    2.80    4.01

 -10   1   3   48.22    8.10

 -10   1   3   46.14    6.31

 -10   1   4   19.93    6.01

 -10   1   4   21.97    7.68

 -10   1   5  428.89   14.09

 -10   1   5  432.49   14.60

 -10   1   6   48.60    7.83

 -10   1   6   53.42    7.97

 -10   1   7  384.54   14.07

 -10   1   8    2.23    5.63

  -9   1 -13   64.52    9.59

  -9   1 -12   27.06    8.55

  -9   1 -11   63.41    9.64

  -9   1 -11   66.63    9.50

  -9   1 -10   60.35    9.00

  -9   1 -10   57.41    8.94

  -9   1  -9  142.06   11.29

  -9   1  -9  128.89   10.73

  -9   1  -8   19.01    7.74

  -9   1  -8   11.30    7.46

  -9   1  -7  145.49   10.98

  -9   1  -7  141.51   10.64

  -9   1  -7  161.10    8.82

  -9   1  -6   22.16    5.72

  -9   1  -6   23.32    7.91

  -9   1  -6   25.54    8.10

  -9   1  -5  237.58   12.14

  -9   1  -5  230.20   12.04

  -9   1  -5  241.07   10.39

  -9   1  -4  212.73   11.16

  -9   1  -4  219.79   10.17

  -9   1  -4  222.70   11.48

  -9   1  -3    4.00    6.29

  -9   1  -3    4.28    6.12

  -9   1  -3    4.33    6.51

  -9   1  -2   61.00    8.07

  -9   1  -2   52.06    7.23

  -9   1  -2   55.15    7.21

  -9   1  -1  183.66    9.98

  -9   1  -1  178.76   10.18

  -9   1   0   13.38    6.60

  -9   1   0   13.27    6.06

  -9   1   1  214.41   10.34

  -9   1   1  231.74    8.61

  -9   1   1  232.57    8.95

  -9   1   2   51.29    7.37

  -9   1   2   66.54    5.40

  -9   1   2   58.42    6.07

  -9   1   3  249.04    8.16

  -9   1   3  233.08   11.07

  -9   1   3  236.77    9.77

  -9   1   4    2.60    6.43

  -9   1   4   -0.34    5.41

  -9   1   5  287.98   11.59

  -9   1   6   59.35    7.27

  -9   1   7  153.54    9.25

  -9   1   8    1.10    5.27

  -8   1 -12   11.57    6.82

  -8   1 -12   18.39    7.40

  -8   1 -11  300.87   13.69

  -8   1 -11  296.53   13.89

  -8   1 -10  261.14   12.86

  -8   1 -10  273.99   13.18

  -8   1  -9  368.33   14.32

  -8   1  -9  355.42   14.40

  -8   1  -8   -2.32    6.75

  -8   1  -8    2.01    6.88

  -8   1  -7  128.87    9.65

  -8   1  -7  149.79   10.10

  -8   1  -7  136.32    7.60

  -8   1  -6  193.54    8.69

  -8   1  -6  174.84   10.22

  -8   1  -6  183.22   10.59

  -8   1  -5  295.97   11.86

  -8   1  -5  300.42   10.51

  -8   1  -5  294.09   11.89

  -8   1  -4   66.87    7.67

  -8   1  -4   64.64    6.55

  -8   1  -4   70.22    7.29

  -8   1  -3  120.59    7.66

  -8   1  -3  122.08    8.04

  -8   1  -3  129.95    8.50

  -8   1  -3  123.32   12.15

  -8   1  -2  161.96    8.60

  -8   1  -2  151.22    8.27

  -8   1  -2  141.29    8.35

  -8   1  -2  175.80   15.61

  -8   1  -1  786.43   16.03

  -8   1  -1  869.51   32.76

  -8   1  -1  782.16   15.75

  -8   1  -1  806.17   16.36

  -8   1   0    2.98    5.14

  -8   1   0    5.96    8.70

  -8   1   0    1.99    4.76

  -8   1   0    1.72    3.81

  -8   1   1  579.19   14.04

  -8   1   1  609.25   11.94

  -8   1   1  584.99   12.37

  -8   1   2  206.16    9.50

  -8   1   2  219.22    8.47

  -8   1   2  222.85    7.49

  -8   1   3  596.14   13.46

  -8   1   3  606.89   14.66

  -8   1   3  624.45   11.35

  -8   1   4  173.28    9.07

  -8   1   4  181.00    6.43

  -8   1   5  175.61    8.85

  -8   1   6   35.83    5.94

  -8   1   7  274.15   10.53

  -8   1   8   71.70    6.50

  -7   1 -16    8.04    7.31

  -7   1 -15  143.43   11.64

  -7   1 -14    6.12    7.24

  -7   1 -13    9.18    6.75

  -7   1 -12  114.82    9.76

  -7   1 -12  110.79    9.36

  -7   1 -12  121.24    9.94

  -7   1 -11   63.92    7.71

  -7   1 -11   61.74    7.81

  -7   1 -11   58.19    8.20

  -7   1 -10    8.86    6.42

  -7   1 -10    0.07    5.58

  -7   1 -10    6.09    6.43

  -7   1  -9   37.69    7.30

  -7   1  -9   30.57    7.11

  -7   1  -9   41.90    6.03

  -7   1  -8   45.04    7.15

  -7   1  -8   52.06    5.86

  -7   1  -8   48.29    7.13

  -7   1  -7   59.58    7.33

  -7   1  -7   62.83    5.51

  -7   1  -7   52.54    7.02

  -7   1  -7   58.94    5.17

  -7   1  -6   14.07    4.26

  -7   1  -6    3.57    7.52

  -7   1  -6   14.89    3.69

  -7   1  -6   14.64    5.80

  -7   1  -6   11.25    5.98

  -7   1  -5  252.09    8.83

  -7   1  -5  232.44   10.10

  -7   1  -5  250.99   16.48

  -7   1  -5  260.50    7.36

  -7   1  -5  251.19   10.34

  -7   1  -4  124.09    6.92

  -7   1  -4  117.49   10.40

  -7   1  -4  127.78    7.94

  -7   1  -4  122.89   10.72

  -7   1  -4  126.11    7.78

  -7   1  -4  128.36    4.85

  -7   1  -3  456.32   11.38

  -7   1  -3  461.09   20.41

  -7   1  -3  471.49   12.15

  -7   1  -3  463.17   12.42

  -7   1  -3  469.29   16.99

  -7   1  -2   -0.41    4.84

  -7   1  -2   -0.44    3.93

  -7   1  -2    1.90    2.94

  -7   1  -2    0.56    6.75

  -7   1  -2    1.54    4.17

  -7   1  -1  277.65    9.26

  -7   1  -1  268.89    9.31

  -7   1  -1  281.11   18.11

  -7   1  -1  275.52    8.62

  -7   1  -1  271.80    9.20

  -7   1   0  364.67   21.65

  -7   1   0  373.16    9.18

  -7   1   0  376.83   10.53

  -7   1   0  367.49    9.14

  -7   1   0  354.77   10.40

  -7   1   1   46.53    5.48

  -7   1   1   48.56    4.24

  -7   1   1   45.44    4.63

  -7   1   1   47.80   10.80

  -7   1   2  430.34   10.40

  -7   1   2  442.05    9.12

  -7   1   2  408.29   24.59

  -7   1   2  425.16   11.46

  -7   1   3   68.93    6.06

  -7   1   3   79.18    6.25

  -7   1   3   83.48    4.41

  -7   1   4   18.50    5.07

  -7   1   4   11.11    4.67

  -7   1   5   45.93    5.52

  -7   1   5   39.37    7.41

  -7   1   6    2.92    4.32

  -7   1   7  208.21    8.57

  -7   1   8    0.83    3.93

  -6   1 -16    9.08    8.19

  -6   1 -15  197.16   13.33

  -6   1 -14    3.77    7.29

  -6   1 -13    9.27    7.37

  -6   1 -12   15.62    6.71

  -6   1 -12   10.94    6.27

  -6   1 -11  195.66   10.30

  -6   1 -11  192.67   11.07

  -6   1 -11  204.84   10.84

  -6   1 -10   30.94    6.70

  -6   1 -10   23.91    6.18

  -6   1 -10   22.39    6.30

  -6   1  -9  208.95    9.82

  -6   1  -9  199.18   10.05

  -6   1  -9  212.91   10.15

  -6   1  -8    1.33    5.38

  -6   1  -8    0.53    4.52

  -6   1  -8   -2.11    5.51

  -6   1  -7  343.63    8.77

  -6   1  -7  333.49   11.28

  -6   1  -7  329.31   22.39

  -6   1  -7  339.30   10.09

  -6   1  -7  335.30   11.19

  -6   1  -6   37.64    5.84

  -6   1  -6   32.93    9.37

  -6   1  -6   38.32    4.41

  -6   1  -6   40.92    4.48

  -6   1  -6   44.27    6.07

  -6   1  -5  406.12   14.71

  -6   1  -5  385.49    9.49

  -6   1  -5  372.99    8.73

  -6   1  -5  351.20   10.67

  -6   1  -5  397.78   20.30

  -6   1  -5  373.53   10.87

  -6   1  -4    3.40    2.37

  -6   1  -4    6.24    5.19

  -6   1  -4    1.78    3.55

  -6   1  -4    2.62    4.65

  -6   1  -4    3.95    4.71

  -6   1  -4    1.26    4.81

  -6   1  -3 1158.83   28.95

  -6   1  -3 1175.84   17.30

  -6   1  -3 1133.71   16.64

  -6   1  -3 1195.42   27.34

  -6   1  -3 1186.81   16.10

  -6   1  -3 1163.12   11.81

  -6   1  -2  124.99    6.14

  -6   1  -2  120.09   11.10

  -6   1  -2  116.31    6.02

  -6   1  -2  124.47    3.55

  -6   1  -2  114.20    6.46

  -6   1  -1  354.15   18.57

  -6   1  -1  332.96    8.97

  -6   1  -1  335.51    9.10

  -6   1  -1  338.85    9.11

  -6   1   0   21.65    3.39

  -6   1   0   19.02    3.80

  -6   1   0   22.78    3.66

  -6   1   0   13.83    6.96

  -6   1   0   20.01    2.98

  -6   1   1  686.89   12.56

  -6   1   1  725.63   28.57

  -6   1   1  709.87   10.58

  -6   1   1  681.30   11.55

  -6   1   2  177.34    6.82

  -6   1   2  175.10    8.16

  -6   1   2  167.63    5.31

  -6   1   2  166.53   15.50

  -6   1   2  173.53    7.20

  -6   1   2  163.22    7.24

  -6   1   3  984.20   15.09

  -6   1   3 1048.26   36.49

  -6   1   3 1047.71   22.72

  -6   1   3 1017.15   22.17

  -6   1   4   25.12    4.65

  -6   1   4   30.88    6.04

  -6   1   4   30.58    6.23

  -6   1   5  543.51   11.77

  -6   1   5  591.78   23.13

  -6   1   6  156.28    6.99

  -6   1   7  279.23    8.73

  -5   1 -17   62.76    9.84

  -5   1 -16  107.61   11.58

  -5   1 -15  123.01   11.77

  -5   1 -14    3.91    8.21

  -5   1 -13   58.81    8.61

  -5   1 -12    1.46    5.66

  -5   1 -12   -1.63    6.92

  -5   1 -11  282.84   11.55

  -5   1 -11  297.96   11.18

  -5   1 -11  274.85   12.64

  -5   1 -10    9.20    5.51

  -5   1 -10    6.18    5.78

  -5   1 -10    5.93    4.89

  -5   1  -9  531.52   13.82

  -5   1  -9  512.43   13.97

  -5   1  -9  528.40   13.46

  -5   1  -8   87.91    6.85

  -5   1  -8   90.20    6.79

  -5   1  -8   98.70    7.17

  -5   1  -7  278.96    9.65

  -5   1  -7  267.16   20.40

  -5   1  -7  291.84    9.39

  -5   1  -7  304.28    7.24

  -5   1  -7  282.57    9.82

  -5   1  -6    3.17    3.56

  -5   1  -6    4.74    2.79

  -5   1  -6    5.96    7.57

  -5   1  -6    3.43    4.28

  -5   1  -6    3.37    4.21

  -5   1  -5  217.26    6.65

  -5   1  -5  224.23   15.61

  -5   1  -5  210.66    6.78

  -5   1  -5  213.28    8.02

  -5   1  -5  199.64    7.73

  -5   1  -4   46.43    4.10

  -5   1  -4   46.33    4.80

  -5   1  -4   51.01    8.29

  -5   1  -4   48.80    3.58

  -5   1  -4   46.32    4.73

  -5   1  -3  778.20   11.93

  -5   1  -3  803.85   13.02

  -5   1  -3  791.86    9.74

  -5   1  -3  827.60   22.04

  -5   1  -3  784.97   12.90

  -5   1  -2  732.43   11.67

  -5   1  -2  727.92   12.14

  -5   1  -2  761.16   22.51

  -5   1  -2  766.20    8.22

  -5   1  -1  248.65   14.60

  -5   1  -1  253.06    9.69

  -5   1   0   50.83    3.56

  -5   1   0   45.69    4.26

  -5   1   0   46.74    3.77

  -5   1   0   40.59    8.19

  -5   1   0   46.18    4.43

  -5   1   1  688.35   10.74

  -5   1   1  688.45    9.21

  -5   1   1  639.85   24.64

  -5   1   2    1.61    3.39

  -5   1   2    3.08    3.02

  -5   1   2    4.73    2.03

  -5   1   2    5.34    3.25

  -5   1   3 1617.32   17.31

  -5   1   3 1607.99   29.11

  -5   1   3 1605.01   29.12

  -5   1   4   45.07    4.40

  -5   1   4   42.76    7.21

  -5   1   4   47.12    7.60

  -5   1   5  542.72   10.52

  -5   1   5  549.76   22.12

  -5   1   6   67.98    4.75

  -5   1   7  150.07    6.04

  -4   1 -17  121.24   12.52

  -4   1 -16   32.77    8.82

  -4   1 -15  113.21   11.42

  -4   1 -14   18.92    8.64

  -4   1 -13  109.12   10.95

  -4   1 -12   34.59    8.07

  -4   1 -11   81.49    7.15

  -4   1 -11   88.52    8.84

  -4   1 -10  118.43    7.67

  -4   1 -10  134.83    9.31

  -4   1 -10  130.09    7.30

  -4   1  -9  365.28   12.23

  -4   1  -9  368.11   11.04

  -4   1  -9  360.35   10.54

  -4   1  -8   52.16    5.24

  -4   1  -8   58.03    6.42

  -4   1  -8   58.59    5.70

  -4   1  -7  257.58   19.57

  -4   1  -7  239.10    8.44

  -4   1  -7  237.20    8.24

  -4   1  -7  251.12    8.85

  -4   1  -6  222.01   16.70

  -4   1  -6  192.03    7.21

  -4   1  -6  189.96    7.38

  -4   1  -6  201.80    5.36

  -4   1  -6  203.71    7.37

  -4   1  -5  923.70   13.85

  -4   1  -5  851.09   28.50

  -4   1  -5  907.63   11.03

  -4   1  -5  907.82   13.00

  -4   1  -5  896.09   13.41

  -4   1  -4    1.08    2.43

  -4   1  -4    0.27    2.94

  -4   1  -4    1.81    2.60

  -4   1  -4   -0.07    3.55

  -4   1  -3 1696.52   15.31

  -4   1  -3 1735.97   14.20

  -4   1  -3 1694.41   16.60

  -4   1  -3 1698.82   16.79

  -4   1  -2   41.42    3.82

  -4   1  -2   39.59    3.73

  -4   1  -2   45.33    2.68

  -4   1  -1 1312.26   21.23

  -4   1   0  792.66    9.12

  -4   1   0  728.17   22.54

  -4   1   0  757.12    9.93

  -4   1   1   35.16    3.71

  -4   1   1   31.80    2.52

  -4   1   2  426.27    8.25

  -4   1   2  401.45   12.66

  -4   1   3 1072.61   24.17

  -4   1   3 1041.69   12.50

  -4   1   3 1024.31   23.51

  -4   1   4  225.67    6.26

  -4   1   4  224.85   13.32

  -4   1   4  239.68   17.00

  -4   1   5  247.53    6.58

  -4   1   5  240.18   15.22

  -4   1   6    6.19    2.61

  -4   1   6    5.46    6.92

  -4   1   7  423.98    8.29

  -3   1 -17   85.19   11.18

  -3   1 -16   -1.93    7.84

  -3   1 -15  100.39   11.35

  -3   1 -14    6.42    8.76

  -3   1 -13  168.69   12.12

  -3   1 -12    0.45    7.16

  -3   1 -11  216.62    9.28

  -3   1 -11  203.32   11.23

  -3   1 -10   14.54    4.71

  -3   1 -10   16.23    6.67

  -3   1  -9  381.68   12.40

  -3   1  -9  399.95   10.05

  -3   1  -8    3.96    3.55

  -3   1  -8   -0.36    3.68

  -3   1  -8    4.78    4.82

  -3   1  -7  536.05   26.83

  -3   1  -7  546.11   12.14

  -3   1  -7  539.08   10.84

  -3   1  -7  532.09   10.59

  -3   1  -6  366.72    8.58

  -3   1  -6  403.63    6.00

  -3   1  -6  380.93   21.27

  -3   1  -6  375.48    9.44

  -3   1  -6  386.90    8.71

  -3   1  -5  598.69    7.69

  -3   1  -5  625.83   24.32

  -3   1  -5  594.60   10.48

  -3   1  -5  570.70    9.91

  -3   1  -5  584.98   10.04

  -3   1  -4   31.00    2.56

  -3   1  -4   28.03    3.30

  -3   1  -4   28.91    3.32

  -3   1  -4   29.59    3.32

  -3   1  -3  426.56    6.88

  -3   1  -3  427.97    7.20

  -3   1  -3  425.20    7.70

  -3   1  -3  411.10    7.85

  -3   1  -2  181.88    4.89

  -3   1  -2  174.04    5.08

  -3   1  -2  155.57    9.64

  -3   1  -1 1467.52   22.13

  -3   1   0  255.91    6.85

  -3   1   0  262.41    5.66

  -3   1   1  517.20   11.53

  -3   1   2  403.54    7.09

  -3   1   2  382.90   12.88

  -3   1   3 2796.05   38.62

  -3   1   3 2886.26   71.09

  -3   1   4   17.00    2.54

  -3   1   4   18.86    7.15

  -3   1   4   17.15    8.04

  -3   1   5  419.50    7.25

  -3   1   5  427.23   19.71

  -3   1   6   47.78    3.01

  -3   1   6   44.19    9.99

  -3   1   7  386.16    6.83

  -2   1 -17    4.22    9.65

  -2   1 -16   17.48    9.59

  -2   1 -15   32.59    9.25

  -2   1 -14   49.57    9.33

  -2   1 -13  109.24   10.76

  -2   1 -12    6.70    8.00

  -2   1 -11  297.22   13.23

  -2   1 -11  316.52   10.17

  -2   1 -10  111.02    6.39

  -2   1 -10  108.07    8.94

  -2   1  -9   50.39    7.06

  -2   1  -9   54.03    4.86

  -2   1  -9   53.83    4.20

  -2   1  -8   43.72    3.81

  -2   1  -8   53.55    6.48

  -2   1  -8   55.35    4.58

  -2   1  -8   49.61    3.13

  -2   1  -7  455.83    7.25

  -2   1  -7  424.66   24.04

  -2   1  -7  443.37    9.17

  -2   1  -7  424.58   10.78

  -2   1  -7  429.14    8.57

  -2   1  -6   55.17    2.65

  -2   1  -6   58.56   10.90

  -2   1  -6   51.05    3.80

  -2   1  -6   54.49    4.94

  -2   1  -6   54.34    3.68

  -2   1  -5    9.85    3.41

  -2   1  -5    9.88    2.68

  -2   1  -5   10.81    2.61

  -2   1  -4  133.40    4.43

  -2   1  -4  126.81    4.47

  -2   1  -4  134.04    5.21

  -2   1  -3   54.13    3.54

  -2   1  -3   49.55    3.28

  -2   1  -3   51.18    3.12

  -2   1  -2  261.85   11.71

  -2   1  -2  280.27    5.51

  -2   1  -1  525.93   13.56

  -2   1   0 2606.20   22.32

  -2   1   1 1233.77   17.97

  -2   1   2 2213.78   29.31

  -2   1   3  768.08    7.92

  -2   1   3  718.14   21.51

  -2   1   3  728.98   20.70

  -2   1   4  308.23   15.85

  -2   1   4  300.21    5.19

  -2   1   4  304.70   15.54

  -2   1   5  223.12    4.53

  -2   1   5  201.07   14.23

  -2   1   6    6.15    1.59

  -2   1   6    3.59    7.67

  -2   1   7  245.78   18.84

  -1   1 -17  105.39   12.77

  -1   1 -16   16.12    9.73

  -1   1 -15  146.84   12.54

  -1   1 -14   27.36    8.37

  -1   1 -13  290.58   14.42

  -1   1 -12    6.96    8.10

  -1   1 -11  303.09   13.36

  -1   1 -10   25.39    3.83

  -1   1 -10   31.05    4.44

  -1   1 -10   27.82    7.42

  -1   1  -9   45.53    7.03

  -1   1  -9   36.70    3.84

  -1   1  -9   30.07    6.96

  -1   1  -9   42.87    4.41

  -1   1  -8    7.46    2.88

  -1   1  -8    4.25    2.24

  -1   1  -8    2.51   10.22

  -1   1  -8    2.50    5.32

  -1   1  -7 1143.36   11.89

  -1   1  -7 1159.61   38.22

  -1   1  -7 1072.09   16.35

  -1   1  -7 1143.06   12.79

  -1   1  -6  206.92    5.26

  -1   1  -6  227.63   17.01

  -1   1  -6  212.00    7.39

  -1   1  -6  205.30    5.05

  -1   1  -5 1230.52   10.79

  -1   1  -5 1143.72   11.25

  -1   1  -5 1196.37   10.71

  -1   1  -5 1197.82   14.34

  -1   1  -4 1150.51    9.80

  -1   1  -4 1145.38   12.59

  -1   1  -4 1142.54    9.88

  -1   1  -3 4107.44   81.46

  -1   1  -2 5153.09   45.50

  -1   1  -1 3877.58   33.35

  -1   1   0   10.78    3.95

  -1   1   1 2958.12   27.80

  -1   1   2 1902.10   27.58

  -1   1   3   20.67    6.25

  -1   1   4   28.36    6.83

  -1   1   7 1043.95   36.23

   0   1 -17  156.07   13.10

   0   1 -16    0.38    8.40

   0   1 -15   17.85    8.97

   0   1 -14   39.82    9.81

   0   1 -13  117.06   11.10

   0   1 -12   72.04    6.33

   0   1 -12   61.50    9.04

   0   1 -11   57.49    5.49

   0   1 -11   55.37    8.48

   0   1 -10    7.89    3.84

   0   1 -10    7.49    6.69

   0   1  -9  107.78    8.11

   0   1  -9  134.31   13.03

   0   1  -9  108.44    5.93

   0   1  -8  125.58    5.79

   0   1  -8  124.10    7.43

   0   1  -8  123.60   15.26

   0   1  -7  916.88    8.81

   0   1  -7  911.56   33.86

   0   1  -7  911.87   15.05

   0   1  -7  937.95   12.64

   0   1  -6  100.16    4.44

   0   1  -6  110.17    5.69

   0   1  -6  103.41   11.69

   0   1  -5 1284.51   33.48

   0   1  -5 1334.66   12.66

   0   1  -5 1256.55   14.72

   0   1  -4    0.65    2.72

   0   1  -4   -0.24    2.18

   0   1  -3  268.93    5.72

   0   1  -2    1.57    6.77

   0   1  -1  530.20   12.66

   0   1   0    0.08    2.97

   0   1   1  550.67   12.91

   0   1   2    2.52    5.07

   0   1   3  254.10    9.81

   0   1   4   -0.07    2.17

   0   1   4    1.60    4.55

   0   1   5 1277.99   13.07

   0   1   6  103.90    4.94

   0   1   7  880.91   13.22

   1   1 -17  106.25   12.71

   1   1 -16   65.43   10.77

   1   1 -15   44.22    9.40

   1   1 -14   13.54    8.48

   1   1 -13  367.35   12.63

   1   1 -13  374.22   15.92

   1   1 -12    4.20    4.85

   1   1 -12    5.71    7.25

   1   1 -11  486.10   13.03

   1   1 -11  473.12   15.33

   1   1 -10  550.50   15.31

   1   1 -10  525.22   26.26

   1   1 -10  559.14   12.97

   1   1  -9  883.84   32.60

   1   1  -9  827.83   14.61

   1   1  -9  866.57   17.20

   1   1  -8   78.32   13.82

   1   1  -8   54.56    6.12

   1   1  -8   61.73   10.29

   1   1  -8   56.01    5.07

   1   1  -7 1006.45   14.24

   1   1  -7 1121.91   37.20

   1   1  -7 1026.37   15.77

   1   1  -6  136.52    5.52

   1   1  -6  131.45   13.75

   1   1  -6  129.48    6.32

   1   1  -5 1093.95   12.69

   1   1  -5 1112.01   31.30

   1   1  -5 1116.74   13.70

   1   1  -4   35.11    3.44

   1   1  -4   33.79    3.55

   1   1  -3   24.48    3.05

   1   1  -3   23.40    3.05

   1   1  -2 1930.56   26.81

   1   1  -1 2991.87   26.89

   1   1   0   10.51    4.43

   1   1   1 4108.66   33.43

   1   1   2 5043.82   44.50

   1   1   3 3976.53   99.70

   1   1   4 1089.03   10.61

   1   1   5 1185.94   12.44

   1   1   6  248.22   17.60

   1   1   6  198.48    6.28

   1   1   7 1108.78   14.72

   1   1   8    5.15    3.82

   1   1   9   39.66    5.21

   1   1  10   23.66    5.56

   2   1 -17   49.76   10.62

   2   1 -16  149.07   12.51

   2   1 -15   90.92   10.40

   2   1 -14    0.22    5.89

   2   1 -14    1.94    8.41

   2   1 -13  113.97    8.68

   2   1 -13  126.86   10.75

   2   1 -12   44.32    6.64

   2   1 -12   43.54    8.21

   2   1 -11  195.20    9.48

   2   1 -11  195.59   11.22

   2   1 -10   84.27    7.95

   2   1 -10  101.70    7.28

   2   1  -9  121.32   14.77

   2   1  -9  124.56    7.38

   2   1  -9  120.38    7.87

   2   1  -8   32.59    5.41

   2   1  -8   31.85    8.63

   2   1  -8   24.89   10.52

   2   1  -8   29.35    4.99

   2   1  -7  235.38    8.04

   2   1  -7  220.38   17.86

   2   1  -7  225.38    8.07

   2   1  -7  244.85   17.24

   2   1  -6    4.37    3.32

   2   1  -6    6.74    3.34

   2   1  -6    8.33    6.98

   2   1  -5  228.73    6.75

   2   1  -5  222.01    6.55

   2   1  -5  239.48   15.48

   2   1  -4  296.02    7.13

   2   1  -4  277.76   14.41

   2   1  -4  276.03    6.34

   2   1  -3  784.26   10.01

   2   1  -3  776.41    8.64

   2   1  -2 2333.99   59.79

   2   1  -1 1205.85   16.18

   2   1   0 2627.12   25.05

   2   1   1  496.65   12.51

   2   1   2  258.17   11.28

   2   1   2  277.36   11.75

   2   1   3   50.75    2.63

   2   1   3   51.16    8.18

   2   1   4  134.92   11.12

   2   1   4  119.53    4.17

   2   1   5    9.84    7.60

   2   1   5    9.26    2.60

   2   1   6   53.89    4.16

   2   1   7  448.04    9.88

   2   1   8   47.79    5.15

   2   1   9   54.73    5.66

   2   1  10  113.23    7.48

   2   1  11  287.21   11.18

   3   1 -17  102.08   11.20

   3   1 -16   72.40   11.08

   3   1 -15  223.67   12.12

   3   1 -15  227.56   14.03

   3   1 -14    1.01    6.17

   3   1 -14   -2.06    7.45

   3   1 -13   53.46    7.54

   3   1 -13   58.78    9.09

   3   1 -12   10.28    6.15

   3   1 -12    6.38    6.74

   3   1 -11  149.23   10.06

   3   1 -11  140.98    9.30

   3   1 -10   13.32    5.66

   3   1 -10   11.95    5.89

   3   1  -9  111.34    7.61

   3   1  -9  105.13    7.62

   3   1  -8   14.38    4.65

   3   1  -8    9.11    8.85

   3   1  -8   21.76    8.27

   3   1  -8   12.73    5.23

   3   1  -7  388.08   10.51

   3   1  -7  399.93   23.00

   3   1  -7  397.83   22.92

   3   1  -7  395.48   10.11

   3   1  -6   54.75    4.59

   3   1  -6   39.47    9.50

   3   1  -6   53.53    5.25

   3   1  -6   59.09   10.13

   3   1  -5  444.85    9.82

   3   1  -5  429.00   19.56

   3   1  -5  427.45    8.53

   3   1  -4   15.89    2.74

   3   1  -4   16.58    3.85

   3   1  -4   20.48    6.32

   3   1  -3 2920.18   81.02

   3   1  -3 2764.71   36.47

   3   1  -3 2850.33   63.72

   3   1  -2  424.34    7.71

   3   1  -1  528.70    7.57

   3   1   0  259.82    8.49

   3   1   1 1503.92   18.71

   3   1   1 1449.58   20.32

   3   1   2  172.70    7.12

   3   1   2  176.18    9.32

   3   1   2  174.52    9.48

   3   1   3  385.22   15.25

   3   1   3  400.01   15.53

   3   1   4   27.50    2.83

   3   1   4   32.45    7.34

   3   1   5  575.61    9.49

   3   1   6  372.47    8.56

   3   1   7  538.79   10.96

   3   1   8    3.26    4.05

   3   1   9  391.09   11.15

   3   1  10    8.66    5.28

   3   1  11  210.53    9.96

   3   1  12   -0.24    5.76

   3   1  13  153.57   10.22

   4   1 -17   78.36   10.46

   4   1 -16    0.42    8.23

   4   1 -16    1.60    6.94

   4   1 -15   94.79   10.04

   4   1 -15   89.58   10.55

   4   1 -14   61.05    9.21

   4   1 -14   48.84    8.23

   4   1 -13   61.21    8.43

   4   1 -13   59.36    8.59

   4   1 -12    2.72    6.35

   4   1 -12    6.73    6.99

   4   1 -11  264.19   11.64

   4   1 -11  245.44   11.81

   4   1 -10   71.66    7.14

   4   1 -10   68.23    7.54

   4   1  -9  605.85   14.34

   4   1  -9  575.86   14.89

   4   1  -8   26.44    5.88

   4   1  -8   19.20    4.69

   4   1  -8   18.89    9.55

   4   1  -7  409.58   11.52

   4   1  -7  460.40   26.07

   4   1  -7  417.70   22.99

   4   1  -7  419.52   10.27

   4   1  -6    2.76    4.04

   4   1  -6    2.67    6.35

   4   1  -6    4.79    7.91

   4   1  -6    5.16    3.08

   4   1  -5  251.72    8.28

   4   1  -5  250.77   15.09

   4   1  -5  240.42    6.57

   4   1  -5  273.92   18.76

   4   1  -4  221.02    7.35

   4   1  -4  237.74   17.00

   4   1  -4  237.63   12.94

   4   1  -4  218.77    5.44

   4   1  -3 1012.87   13.37

   4   1  -3 1056.75   31.48

   4   1  -3 1075.94   22.30

   4   1  -3 1093.78    9.62

   4   1  -2  436.14    8.39

   4   1  -2  447.33   19.96

   4   1  -2  427.40   11.23

   4   1  -1   31.48    3.15

   4   1  -1   29.77    2.41

   4   1  -1   40.25    8.57

   4   1   0  758.98   21.73

   4   1   0  766.79    9.10

   4   1   1 1310.48   25.34

   4   1   1 1306.41   16.73

   4   1   2   47.57    5.20

   4   1   2   42.15    5.32

   4   1   2   41.84    4.98

   4   1   3 1670.75   30.37

   4   1   4    2.40    5.77

   4   1   5  882.07   28.04

   4   1   5  865.17   12.41

   4   1   6  189.72    6.80

   4   1   7  235.10    8.06

   4   1   8   51.87    5.41

   4   1   9  340.23   10.80

   4   1  10  115.48    7.97

   4   1  11   87.20    7.68

   4   1  12   32.73    6.61

   4   1  13  121.05    9.46

   4   1  14   13.28    7.11

   5   1 -17  109.02   11.23

   5   1 -16   24.21    8.18

   5   1 -16   24.79    7.81

   5   1 -15   78.57   10.20

   5   1 -15   85.97   10.00

   5   1 -14    8.86    6.70

   5   1 -14   10.11    7.19

   5   1 -13  123.00   10.49

   5   1 -13  119.85   10.06

   5   1 -12   57.87    8.94

   5   1 -12   57.19    7.90

   5   1 -11   78.83    7.84

   5   1 -11   82.62    9.25

   5   1 -10   11.67    6.42

   5   1 -10   11.90    5.22

   5   1  -9  452.47   14.22

   5   1  -9  448.77   12.33

   5   1  -8   43.16    9.80

   5   1  -8   43.50    7.19

   5   1  -8   45.82    5.32

   5   1  -7  155.69    8.73

   5   1  -7  150.05    6.61

   5   1  -7  164.18   15.01

   5   1  -6   57.56    5.98

   5   1  -6   64.33   12.88

   5   1  -6   68.72    4.48

   5   1  -6   66.02   10.12

   5   1  -5  552.15   12.26

   5   1  -5  560.14   27.96

   5   1  -5  511.26   20.54

   5   1  -5  566.08    9.37

   5   1  -4   42.19    4.99

   5   1  -4   47.96    2.99

   5   1  -4   56.15   11.31

   5   1  -4   40.74    6.61

   5   1  -3 1678.99   18.11

   5   1  -3 1586.58   41.37

   5   1  -3 1755.76   26.66

   5   1  -2    4.32    3.01

   5   1  -2    4.09    8.11

   5   1  -1  664.68   24.28

   5   1  -1  674.00   10.26

   5   1   0   44.96    3.27

   5   1   0   42.86    8.28

   5   1   1  253.60    5.49

   5   1   1  239.55    7.91

   5   1   1  232.37    6.19

   5   1   1  233.30   12.80

   5   1   2  730.23   16.58

   5   1   3  789.40   20.53

   5   1   4   52.17    7.46

   5   1   5  217.00   14.86

   5   1   6    4.41    3.74

   5   1   6    2.80    7.64

   5   1   7  278.58    9.02

   5   1   7  274.74   19.54

   5   1   8   91.06    6.49

   5   1   8   82.61   12.76

   5   1   9  527.65   13.42

   5   1  10    7.36    5.25

   5   1  11  277.15   11.52

   5   1  12    1.09    5.59

   5   1  13   70.14    8.28

   5   1  14    5.38    6.63

   6   1 -16    0.52    7.99

   6   1 -15  148.31   11.86

   6   1 -14   16.79    6.85

   6   1 -14   18.15    7.85

   6   1 -13  176.10   12.48

   6   1 -13  189.09   11.25

   6   1 -12   40.13    9.02

   6   1 -12   37.18    6.89

   6   1 -11   98.62    7.98

   6   1 -11   93.32   10.02

   6   1 -10    4.93    7.42

   6   1 -10    5.56    4.87

   6   1  -9  450.89   15.08

   6   1  -9  458.26   12.36

   6   1  -8    0.94    6.92

   6   1  -8    0.33    3.88

   6   1  -7  283.92   11.49

   6   1  -7  280.45    8.39

   6   1  -6  154.39    8.79

   6   1  -6  164.46    5.97

   6   1  -5  544.81   13.11

   6   1  -5  550.26    9.07

   6   1  -5  539.18   28.78

   6   1  -4   23.71    5.23

   6   1  -4   32.25   11.09

   6   1  -4   24.99    2.34

   6   1  -3  997.62   15.21

   6   1  -3 1066.30   36.56

   6   1  -2  164.62    6.53

   6   1  -2  171.62   15.85

   6   1  -1  658.56   26.27

   6   1  -1  694.22   11.21

   6   1   0   19.62    6.77

   6   1   0   20.05    3.02

   6   1   1  355.77    7.00

   6   1   1  352.21   17.10

   6   1   2  106.95    6.04

   6   1   2  119.74    3.88

   6   1   3 1169.49   10.19

   6   1   3 1161.25   24.10

   6   1   3 1217.73   25.03

   6   1   4    3.92    3.91

   6   1   5  372.26   18.42

   6   1   6   38.35    8.68

   6   1   6   35.51    4.86

   6   1   7  316.43   10.04

   6   1   7  351.56   21.86

   6   1   8    3.97    4.85

   6   1   9  210.10    9.77

   6   1  10   20.92    5.98

   6   1  11  212.51   10.83

   6   1  12    7.95    5.95

   6   1  13   12.87    6.67

   6   1  14    2.60    6.71

   7   1 -16   26.31    9.45

   7   1 -15    8.18    7.70

   7   1 -14   36.25    8.88

   7   1 -13   64.13    9.67

   7   1 -12  127.74   11.28

   7   1 -11  119.70   10.78

   7   1 -10   92.45    9.74

   7   1  -9  198.83   11.74

   7   1  -8    1.18    7.54

   7   1  -7  205.11   10.58

   7   1  -6    4.58    5.90

   7   1  -5   43.21    6.46

   7   1  -4   10.06    4.62

   7   1  -3   75.40    5.87

   7   1  -3   93.70   13.09

   7   1  -2  390.18    9.98

   7   1  -2  448.63   24.55

   7   1  -1   47.79    4.44

   7   1  -1   37.01    9.13

   7   1   0  352.57    8.29

   7   1   0  353.21   20.15

   7   1   1  273.80    6.81

   7   1   2    0.58    1.77

   7   1   2   -0.32    1.42

   7   1   3  471.25   14.80

   7   1   4  115.88    9.74

   7   1   5  256.13   15.95

   7   1   7   49.29    6.15

   7   1   8   47.10    6.23

   7   1   9   33.55    6.26

   7   1  10    4.58    5.77

   7   1  11   59.84    7.74

   7   1  12  108.31    9.13

   7   1  13    6.89    6.19

   7   1  14    0.82    6.66

   8   1 -15   87.69   11.75

   8   1 -14    4.59    8.73

   8   1 -13  248.95   15.18

   8   1 -12   44.25   10.14

   8   1 -11  213.33   13.34

   8   1 -10  107.95   10.52

   8   1  -9   61.63    9.53

   8   1  -8   74.86    9.12

   8   1  -7  273.36   12.43

   8   1  -6   38.41    7.36

   8   1  -5  173.61    9.27

   8   1  -4  155.70    8.31

   8   1  -3  596.50   13.39

   8   1  -2  216.48    8.19

   8   1  -2  205.86   19.02

   8   1  -1  582.42   11.78

   8   1  -1  609.48   29.27

   8   1   0    1.39    3.15

   8   1   1  805.62   11.92

   8   1   7  123.47    8.22

   8   1   8   -0.38    5.38

   8   1   9  347.82   12.75

   8   1  10  263.52   12.06

   8   1  11  271.45   12.60

   8   1  12   12.65    6.52

   8   1  13  146.85   10.74

   9   1 -15   40.21    8.89

   9   1 -14   50.58    9.79

   9   1 -13  104.04   11.88

   9   1 -12   13.60    9.09

   9   1 -11    3.71    8.12

   9   1 -10  160.62   12.58

   9   1  -9    8.14    7.57

   9   1  -8    0.54    7.60

   9   1  -7  155.19   10.87

   9   1  -6   61.89    8.38

   9   1  -5  299.78   12.01

   9   1  -4   -0.61    5.30

   9   1  -3  237.00    9.66

   9   1  -2   57.78    5.80

   9   1  -1  222.11    8.25

   9   1   0   16.57    3.81

   9   1   7  142.85    9.02

   9   1   8   16.84    6.18

   9   1   9  131.77    9.35

   9   1  10   51.20    7.66

   9   1  11   67.66    8.46

   9   1  12   29.50    7.73

  10   1 -14    2.07    8.58

  10   1 -13  144.62   13.36

  10   1 -12   20.23    8.95

  10   1 -11  103.42   12.17

  10   1 -10   62.23   10.02

  10   1  -9  315.76   15.22

  10   1  -8    2.59    7.35

  10   1  -7  348.61   14.40

  10   1  -6   61.59    8.23

  10   1  -5  413.00   14.17

  10   1  -4   18.78    5.98

  10   1  -3   43.71    6.17

  10   1  -2    1.96    4.47

  10   1  -1  302.62    9.95

  10   1   8   21.98    6.64

  10   1   9   49.40    7.37

  10   1  10   -0.15    6.41

  10   1  11  109.37    9.83

  11   1 -13   88.85   11.46

  11   1 -12    1.72    9.07

  11   1 -11   99.47   11.82

  11   1 -10   33.87    9.00

  11   1  -9  145.14   11.89

  11   1  -8   20.21    7.87

  11   1  -7   98.45   10.17

  11   1  -6   46.69    7.90

  11   1  -5  127.55    9.76

  11   1  -4   40.80    7.00

  11   1  -3   12.66    5.69

  11   1  -2   77.02    6.82

  11   1   8    4.37    6.41

  11   1   9    2.67    6.49

  11   1  10   69.16    8.69

  12   1 -12    2.72    9.17

  12   1 -11   49.22   10.25

  12   1 -10    1.70    8.66

  12   1  -9   18.02    9.13

  12   1  -8   46.26    9.09

  12   1  -7   38.41    8.19

  12   1  -6   77.89    9.08

  12   1  -5  111.15    9.54

  12   1  -4   87.82    8.36

  12   1  -3  186.67   10.06

  12   1   8    3.97    6.58

  12   1   9   60.35    8.55

  13   1 -11   81.57   11.62

  13   1 -10   37.19    9.51

  13   1  -9  108.98   11.06

  13   1  -8    2.72    8.28

  13   1  -7   76.16    9.56

  13   1  -6   47.55    8.36

  13   1  -5   61.06    8.33

  13   1   7   47.66    8.25

  13   1   8    2.14    6.71

  14   1  -9  114.02   11.34

  14   1  -8   -0.45    8.10

  14   1  -7    9.99    7.75

  14   1   7   28.26    7.69

 -16   0  -4   55.46   10.95

 -16   0  -3   -0.78    8.46

 -16   0  -2  358.91   18.81

 -16   0  -1    6.26    9.81

 -16   0   0    7.81    9.17

 -16   0   1   -0.27    9.52

 -16   0   2  215.74   15.74

 -16   0   3    2.32    8.89

 -16   0   4   91.23   12.18

 -16   0   5   -1.11    9.16

 -15   0  -7   -0.72    8.76

 -15   0  -6    1.47    8.83

 -15   0  -6    3.93    7.46

 -15   0  -5   -1.49    8.30

 -15   0  -5   -0.44   10.08

 -15   0  -4   31.13    9.70

 -15   0  -3   -2.24    8.56

 -15   0  -2  221.41   15.03

 -15   0  -1    1.56    8.44

 -15   0   0   22.62    9.90

 -15   0   1    4.71    8.85

 -15   0   2  156.59   13.50

 -15   0   3   -4.28    9.16

 -15   0   4  171.58   13.75

 -15   0   5   -2.30    8.03

 -15   0   6   24.94    8.73

 -15   0   7    0.53    7.83

 -14   0  -9   -2.37    8.64

 -14   0  -8  232.43   16.32

 -14   0  -7    1.26    9.52

 -14   0  -6  122.60   11.66

 -14   0  -6  122.28   13.41

 -14   0  -5    2.68    8.02

 -14   0  -5    0.71    8.55

 -14   0  -4  255.54   15.98

 -14   0  -4  238.37   14.48

 -14   0  -3    0.57    9.06

 -14   0  -3    2.63    8.94

 -14   0  -2  199.70   13.96

 -14   0  -1    1.68    8.63

 -14   0   0   61.03   11.08

 -14   0   1    1.08    8.72

 -14   0   2  102.53   11.81

 -14   0   3   -2.99    9.58

 -14   0   4  189.58   13.81

 -14   0   5   -4.12    8.01

 -14   0   6   59.55   10.60

 -14   0   7   -1.87    7.70

 -13   0 -11   -1.44    8.54

 -13   0 -10   38.54    9.84

 -13   0  -9   -5.09    8.72

 -13   0  -8   54.50   11.12

 -13   0  -7    4.23    9.57

 -13   0  -7   -0.52    7.12

 -13   0  -7   -0.85    9.78

 -13   0  -6  128.13   12.90

 -13   0  -6  125.65   11.13

 -13   0  -6  114.50   12.17

 -13   0  -5    2.97    9.40

 -13   0  -5   -0.16    7.40

 -13   0  -5   -3.93    8.60

 -13   0  -4   91.57   10.61

 -13   0  -4   94.05   11.72

 -13   0  -3   -1.99    8.02

 -13   0  -3    0.00    9.38

 -13   0  -2   78.56   11.08

 -13   0  -2   88.18   10.85

 -13   0  -1   -3.33    9.03

 -13   0   0   23.33    8.94

 -13   0   1    6.51    9.33

 -13   0   2  188.21   13.80

 -13   0   3   -4.10    8.54

 -13   0   4   32.04    9.80

 -13   0   5   -1.93    8.77

 -13   0   6    0.74    7.70

 -13   0   7   -0.11    7.43

 -13   0   8   83.52    9.79

 -12   0 -12   65.83   11.34

 -12   0 -11    0.56    8.40

 -12   0 -10    8.66    8.90

 -12   0 -10    3.52    8.75

 -12   0  -9   -0.82    9.27

 -12   0  -9    0.24    9.50

 -12   0  -8    1.90    8.58

 -12   0  -8    2.16    8.58

 -12   0  -7    2.39    9.27

 -12   0  -7    0.16    8.55

 -12   0  -7    0.13    6.66

 -12   0  -6  111.06   10.11

 -12   0  -6  139.28   12.73

 -12   0  -6  134.52   12.47

 -12   0  -5   -0.65    7.27

 -12   0  -5   -2.19    8.37

 -12   0  -5    7.91    8.75

 -12   0  -4   40.18    8.86

 -12   0  -4   47.22    9.68

 -12   0  -4   47.90    9.75

 -12   0  -3    2.32    8.26

 -12   0  -3   -3.46    8.60

 -12   0  -3   -0.24    8.48

 -12   0  -2  172.42   12.36

 -12   0  -2  171.40   12.16

 -12   0  -1    0.41    7.75

 -12   0  -1   -0.24    7.93

 -12   0   0    5.67    8.21

 -12   0   1    2.47    8.12

 -12   0   1    0.01    5.89

 -12   0   2  123.67   11.29

 -12   0   2  139.56    8.86

 -12   0   3    4.84    8.14

 -12   0   4    1.02    7.76

 -12   0   5   -3.21    7.50

 -12   0   6   87.47   10.22

 -12   0   6   91.84    8.61

 -12   0   7    2.37    7.37

 -12   0   7   -1.70    6.58

 -12   0   8   49.60    8.26

 -12   0   8   51.36    8.15

 -12   0   9   -3.85    7.05

 -11   0 -13   -0.12    8.62

 -11   0 -12  183.94   13.78

 -11   0 -12  170.85   14.08

 -11   0 -11   -2.00    9.02

 -11   0 -11   -2.92    9.06

 -11   0 -10   51.17    9.97

 -11   0 -10   51.63   10.30

 -11   0  -9   -2.02    8.16

 -11   0  -9   -3.57    9.18

 -11   0  -8  277.82   15.26

 -11   0  -8  276.46   15.20

 -11   0  -7    1.14    8.57

 -11   0  -7    0.03    5.91

 -11   0  -7   -0.53    8.57

 -11   0  -6  246.73   12.33

 -11   0  -6  248.75   14.57

 -11   0  -6  234.83   14.10

 -11   0  -5    1.75    6.88

 -11   0  -5   -1.43    7.95

 -11   0  -5    2.00    8.60

 -11   0  -4   -3.50    7.04

 -11   0  -4    6.16    7.92

 -11   0  -4    4.27    8.43

 -11   0  -3    1.22    7.90

 -11   0  -3   -2.78    7.03

 -11   0  -3   -0.11    7.79

 -11   0  -2   87.35   10.00

 -11   0  -2   87.20    9.75

 -11   0  -2   92.61    9.43

 -11   0  -1   -0.55    7.94

 -11   0  -1    1.19    7.54

 -11   0  -1   -1.02    6.64

 -11   0   0  112.93   10.46

 -11   0   0  113.38    8.43

 -11   0   1    5.14    7.86

 -11   0   1    0.02    5.18

 -11   0   2  485.33   13.67

 -11   0   2  435.68   16.16

 -11   0   3    1.25    4.64

 -11   0   3   -1.71    8.02

 -11   0   3   -0.19    4.73

 -11   0   4  265.04   13.39

 -11   0   4  275.64   10.84

 -11   0   5    1.06    7.62

 -11   0   5    1.99    5.53

 -11   0   6  789.19   19.19

 -11   0   6  797.73   20.34

 -11   0   7   -0.73    6.57

 -11   0   8   14.90    6.64

 -10   0 -14   21.25    8.97

 -10   0 -13   -0.09    7.29

 -10   0 -13   -0.97    8.65

 -10   0 -12  218.27   13.88

 -10   0 -12  250.81   14.97

 -10   0 -11    0.97    8.92

 -10   0 -11    0.06    7.50

 -10   0 -10    4.48    8.57

 -10   0 -10    7.24    8.44

 -10   0  -9    1.59    8.75

 -10   0  -9    1.08    8.56

 -10   0  -8  369.51   16.25

 -10   0  -8  372.60   16.20

 -10   0  -7    2.76    8.25

 -10   0  -7    2.13    5.57

 -10   0  -7   -0.46    8.02

 -10   0  -6  239.74   11.21

 -10   0  -6  244.48   13.42

 -10   0  -6  245.73   13.69

 -10   0  -5    2.32    6.02

 -10   0  -5   -2.49    7.51

 -10   0  -5    1.72    8.10

 -10   0  -4   68.46    9.38

 -10   0  -4   69.98    9.40

 -10   0  -4   71.58    8.08

 -10   0  -3   -0.22    6.36

 -10   0  -3    2.50    7.36

 -10   0  -3   -3.14    7.87

 -10   0  -2  118.79    9.77

 -10   0  -2  126.41    9.54

 -10   0  -2  130.38   10.03

 -10   0  -1   -1.43    5.73

 -10   0  -1   -0.80    6.50

 -10   0  -1   -0.47    7.08

 -10   0  -1    0.84    6.11

 -10   0   0  775.92   17.49

 -10   0   0  756.00   16.41

 -10   0   0  785.12   18.88

 -10   0   0  750.08   18.51

 -10   0   1    3.05    4.95

 -10   0   1    2.98    6.87

 -10   0   1    2.77    3.91

 -10   0   2   95.24    9.21

 -10   0   2   94.56    6.99

 -10   0   2   92.92    6.48

 -10   0   3    0.70    6.92

 -10   0   3    3.03    4.67

 -10   0   3    0.32    4.39

 -10   0   4    8.05    6.64

 -10   0   4    9.60    4.47

 -10   0   4    2.84    4.91

 -10   0   5    3.74    6.75

 -10   0   5    0.18    5.42

 -10   0   6  472.84   15.18

 -10   0   7   -2.21    5.93

 -10   0   8   68.84    7.66

  -9   0 -14  278.60   15.35

  -9   0 -13   -2.40    7.13

  -9   0 -13    2.59    7.91

  -9   0 -12  671.10   21.54

  -9   0 -12  698.13   21.19

  -9   0 -11    0.64    8.25

  -9   0 -11   -2.20    7.29

  -9   0 -10   19.16    8.04

  -9   0 -10   13.77    8.38

  -9   0  -9    0.67    7.49

  -9   0  -9   -0.72    8.42

  -9   0  -8  173.55   11.69

  -9   0  -8  197.22   12.16

  -9   0  -7   -5.39    7.33

  -9   0  -7   -1.67    7.48

  -9   0  -7    3.50    4.93

  -9   0  -6  236.19   10.37

  -9   0  -6  263.16   12.94

  -9   0  -6  230.42   12.17

  -9   0  -5    0.38    5.48

  -9   0  -5   -0.50    7.52

  -9   0  -5    0.00    6.93

  -9   0  -4  518.31   14.32

  -9   0  -4  538.49   15.82

  -9   0  -4  517.41   15.63

  -9   0  -3    2.74    5.76

  -9   0  -3   -1.73    6.36

  -9   0  -3   -1.42    6.47

  -9   0  -2  615.59   15.68

  -9   0  -2  624.99   15.74

  -9   0  -2  662.10   16.69

  -9   0  -1    0.21    6.03

  -9   0  -1    1.88    6.38

  -9   0  -1   -1.39    5.40

  -9   0  -1    2.82    5.23

  -9   0   0 2375.73   29.05

  -9   0   0 2421.99   26.48

  -9   0   0 2348.50   28.83

  -9   0   0 2422.23   27.50

  -9   0   1    0.21    3.66

  -9   0   1   -1.02    6.13

  -9   0   1   -0.27    4.98

  -9   0   1   -1.30    4.34

  -9   0   2  555.42   15.22

  -9   0   2  541.47   12.59

  -9   0   2  544.23   12.39

  -9   0   3   -0.61    5.82

  -9   0   3    2.63    4.39

  -9   0   3   -0.73    4.08

  -9   0   4    7.89    6.09

  -9   0   4    8.02    4.09

  -9   0   5   -1.84    5.62

  -9   0   6  316.24   11.84

  -9   0   7    0.39    5.54

  -9   0   8  232.18   10.44

  -8   0 -14   27.10    8.29

  -8   0 -13    2.17    7.36

  -8   0 -12   20.86    8.00

  -8   0 -12   18.24    7.56

  -8   0 -11   -2.60    7.38

  -8   0 -11   -2.46    7.62

  -8   0 -10   85.36    9.29

  -8   0 -10   66.73    9.20

  -8   0  -9   -1.61    7.43

  -8   0  -9   -1.78    7.39

  -8   0  -8  160.81   10.56

  -8   0  -8  157.62   10.62

  -8   0  -7   -0.56    4.31

  -8   0  -7   -2.15    6.80

  -8   0  -7   -1.76    7.35

  -8   0  -6  321.35   10.76

  -8   0  -6  330.07   12.91

  -8   0  -6  317.19   12.90

  -8   0  -5   -0.09    4.82

  -8   0  -5    0.87    6.08

  -8   0  -5   -1.91    6.79

  -8   0  -4  322.92   10.94

  -8   0  -4  329.72   12.09

  -8   0  -4  331.37   11.96

  -8   0  -3    1.08    4.83

  -8   0  -3    0.98    5.66

  -8   0  -3   -1.98    5.62

  -8   0  -2    8.56    5.09

  -8   0  -2    7.35    5.07

  -8   0  -2    6.94    5.23

  -8   0  -2    7.34    5.13

  -8   0  -1   -1.28    5.26

  -8   0  -1    0.06    5.00

  -8   0  -1    0.01    5.28

  -8   0  -1   -0.25    4.40

  -8   0   0   50.78    6.34

  -8   0   0   52.71    5.84

  -8   0   0   46.65    5.46

  -8   0   0   48.66    6.53

  -8   0   1   -0.28    3.29

  -8   0   1   -0.08    4.74

  -8   0   1    0.04    4.11

  -8   0   1    0.99    3.97

  -8   0   1   -0.12    4.79

  -8   0   2   62.60    5.32

  -8   0   2   53.77    6.40

  -8   0   2   58.51    5.01

  -8   0   3   -1.08    5.63

  -8   0   4   27.70    6.16

  -8   0   5   -0.23    4.97

  -8   0   6  732.38   15.77

  -8   0   7   -2.69    4.68

  -8   0   8  267.91   10.10

  -7   0 -16  111.01   10.78

  -7   0 -15   -1.67    7.27

  -7   0 -14   32.95    8.11

  -7   0 -13    0.24    7.05

  -7   0 -13   -0.14    6.92

  -7   0 -12    1.28    6.36

  -7   0 -12    0.88    6.34

  -7   0 -12   -3.98    7.24

  -7   0 -11    0.12    5.62

  -7   0 -11   -1.87    6.56

  -7   0 -11   -0.61    6.82

  -7   0 -10  350.69   13.90

  -7   0 -10  370.88   12.87

  -7   0 -10  354.92   14.19

  -7   0  -9   -1.57    4.76

  -7   0  -9    0.54    6.30

  -7   0  -9   -0.71    6.56

  -7   0  -8  247.56   11.60

  -7   0  -8  243.38    9.29

  -7   0  -8  262.40   11.92

  -7   0  -7    0.87    3.84

  -7   0  -7   -3.15    6.38

  -7   0  -7    0.17    6.55

  -7   0  -7    0.92    3.63

  -7   0  -6   77.96    5.80

  -7   0  -6   74.74    5.00

  -7   0  -6   78.09    7.61

  -7   0  -6   66.77    7.31

  -7   0  -5    1.42    4.18

  -7   0  -5    0.15    5.36

  -7   0  -5    2.49    5.50

  -7   0  -5    0.59    2.45

  -7   0  -4  593.82   12.75

  -7   0  -4  621.58   14.38

  -7   0  -4  635.67   14.48

  -7   0  -4  627.46    9.14

  -7   0  -3   -0.56    4.17

  -7   0  -3    1.34    4.82

  -7   0  -3    1.39    4.63

  -7   0  -2  731.22   13.99

  -7   0  -2  738.30   13.90

  -7   0  -2  716.66   14.52

  -7   0  -2  726.66   14.16

  -7   0  -1    0.61    4.11

  -7   0  -1   -2.39    4.54

  -7   0  -1    0.99    3.81

  -7   0  -1    0.81    4.38

  -7   0   0   11.45    4.14

  -7   0   0    7.40    3.85

  -7   0   0   14.76    4.50

  -7   0   0    8.58    4.44

  -7   0   0    9.51    2.97

  -7   0   1   -0.95    4.31

  -7   0   1   -0.72    3.49

  -7   0   1    0.61    3.03

  -7   0   1   -0.41    3.48

  -7   0   1    0.80    4.67

  -7   0   2  859.49   13.31

  -7   0   2  850.42   15.37

  -7   0   3    0.91    4.42

  -7   0   3    1.78    3.04

  -7   0   3    0.73    1.85

  -7   0   4  208.80   10.40

  -7   0   4  199.39    8.35

  -7   0   5    0.89    4.29

  -7   0   6  360.80   10.55

  -7   0   7   -0.66    4.03

  -7   0   8   14.91    4.37

  -6   0 -16  137.64   11.92

  -6   0 -15   -0.58    7.87

  -6   0 -14   82.51   10.10

  -6   0 -13   -0.41    6.78

  -6   0 -13   -0.26    6.87

  -6   0 -12   19.12    6.95

  -6   0 -12   19.83    7.37

  -6   0 -12   15.96    6.05

  -6   0 -11    0.05    6.03

  -6   0 -11   -2.16    6.17

  -6   0 -11   -1.81    6.67

  -6   0 -10  282.85   12.22

  -6   0 -10  291.63   11.64

  -6   0 -10  280.85   11.87

  -6   0  -9   -1.05    5.86

  -6   0  -9    0.18    4.83

  -6   0  -9    1.57    5.84

  -6   0  -8  424.34   11.88

  -6   0  -8  451.54   13.41

  -6   0  -8  410.88   13.14

  -6   0  -7   -1.01    3.89

  -6   0  -7    1.98    7.46

  -6   0  -7   -3.56    5.65

  -6   0  -7   -0.40    3.14

  -6   0  -7   -0.15    5.13

  -6   0  -6  175.31    6.83

  -6   0  -6  149.82   14.02

  -6   0  -6  155.39    6.53

  -6   0  -6  160.98    8.40

  -6   0  -6  162.91    8.48

  -6   0  -5    0.11    3.28

  -6   0  -5    3.17    5.69

  -6   0  -5    1.22    2.69

  -6   0  -5    1.30    4.65

  -6   0  -5   -0.35    4.65

  -6   0  -4  194.08    7.18

  -6   0  -4  206.99   12.83

  -6   0  -4  202.97    5.54

  -6   0  -4  187.50    8.08

  -6   0  -4  203.31    8.19

  -6   0  -3    0.50    3.83

  -6   0  -3   -0.10    1.57

  -6   0  -3    0.45    3.96

  -6   0  -3    0.07    3.62

  -6   0  -3    0.83    3.70

  -6   0  -2  792.21   13.14

  -6   0  -2  799.98   13.31

  -6   0  -2  795.34   13.72

  -6   0  -2  795.90   13.37

  -6   0  -1    0.10    3.17

  -6   0  -1    2.34    4.06

  -6   0  -1   -1.52    3.60

  -6   0   0  167.28    6.25

  -6   0   0  178.48    6.61

  -6   0   0  179.66    5.60

  -6   0   0  191.47    7.11

  -6   0   1    1.42    3.29

  -6   0   1    0.66    3.51

  -6   0   1    1.31    3.03

  -6   0   1    0.51    2.95

  -6   0   1   -1.44    2.77

  -6   0   2 1073.86   15.40

  -6   0   2 1064.68   13.44

  -6   0   2 1096.87   16.61

  -6   0   3   -1.11    3.58

  -6   0   3    1.87    3.15

  -6   0   4  845.28   13.93

  -6   0   5    0.57    3.71

  -6   0   6  300.98    8.89

  -6   0   7    0.53    3.38

  -5   0 -17   -3.86    7.67

  -5   0 -16  173.49   13.81

  -5   0 -15   -2.89    7.72

  -5   0 -14  204.69   13.38

  -5   0 -13    4.78    6.43

  -5   0 -13    0.35    7.34

  -5   0 -12  115.47    9.20

  -5   0 -12  113.66    9.75

  -5   0 -11   -1.31    5.24

  -5   0 -11    1.74    5.83

  -5   0 -11   -0.07    6.28

  -5   0 -10  185.63    9.79

  -5   0 -10  196.78   10.07

  -5   0 -10  193.84    9.55

  -5   0  -9   -1.11    4.90

  -5   0  -9   -0.90    5.01

  -5   0  -9    0.42    5.39

  -5   0  -8 1089.94   17.96

  -5   0  -8 1081.58   18.40

  -5   0  -8 1065.35   18.63

  -5   0  -7    3.48    8.21

  -5   0  -7    1.45    2.29

  -5   0  -7   -1.81    4.63

  -5   0  -7   -0.52    3.93

  -5   0  -7   -0.41    4.57

  -5   0  -6   81.50   11.27

  -5   0  -6   77.93    6.18

  -5   0  -6   80.44    5.28

  -5   0  -6   81.80    6.35

  -5   0  -6   82.21    4.46

  -5   0  -5   -0.87    2.83

  -5   0  -5    0.51    6.07

  -5   0  -5    0.48    2.75

  -5   0  -5   -1.76    4.40

  -5   0  -5    0.63    4.21

  -5   0  -4 2743.81   21.49

  -5   0  -4 2723.65   43.99

  -5   0  -4 2720.56   19.23

  -5   0  -4 2713.24   24.20

  -5   0  -4 2730.52   24.50

  -5   0  -3    1.07    3.17

  -5   0  -3   -0.60    4.60

  -5   0  -3   -0.43    1.86

  -5   0  -3   -0.10    3.70

  -5   0  -2 1300.54   15.32

  -5   0  -2 1310.76   15.14

  -5   0  -2 1330.59   26.95

  -5   0  -2 1295.52   21.58

  -5   0  -1    0.71    2.83

  -5   0  -1    0.16    5.65

  -5   0   0  803.21    9.91

  -5   0   0  807.04   11.21

  -5   0   0  792.40   11.61

  -5   0   1   -0.98    2.59

  -5   0   1    1.10    2.53

  -5   0   1    0.17    3.22

  -5   0   2  909.39   12.85

  -5   0   2  884.89   10.91

  -5   0   3   -0.25    3.37

  -5   0   4 1757.56   17.77

  -5   0   5   -0.18    3.05

  -5   0   6  517.48   10.02

  -5   0   7    0.89    2.87

  -4   0 -17    0.62    7.96

  -4   0 -16   54.40   10.43

  -4   0 -15    2.42    7.94

  -4   0 -14  253.79   14.38

  -4   0 -13    0.83    5.95

  -4   0 -13    4.76    7.23

  -4   0 -12  230.66   11.04

  -4   0 -12  232.36   12.47

  -4   0 -11   -0.83    4.46

  -4   0 -11    2.28    6.84

  -4   0 -11    0.64    5.35

  -4   0 -10  431.55   12.89

  -4   0 -10  443.82   14.00

  -4   0 -10  426.32   12.00

  -4   0  -9   -0.36    4.31

  -4   0  -9   -1.40    5.26

  -4   0  -9    1.50    4.87

  -4   0  -8  728.04   14.17

  -4   0  -8  750.65   15.09

  -4   0  -8  744.73   14.69

  -4   0  -7    0.22    3.92

  -4   0  -7    0.50    4.27

  -4   0  -7   -1.77    7.13

  -4   0  -7    0.80    1.82

  -4   0  -6  307.15    6.44

  -4   0  -6  291.59    8.77

  -4   0  -6  317.03   19.36

  -4   0  -6  295.67    8.36

  -4   0  -6  307.78    5.53

  -4   0  -5    0.18    2.28

  -4   0  -5    1.10    2.98

  -4   0  -5   -0.92    6.93

  -4   0  -5   -0.19    3.34

  -4   0  -4 2558.42   21.53

  -4   0  -4 2587.34   42.72

  -4   0  -4 2545.92   18.71

  -4   0  -4 2581.77   22.72

  -4   0  -3   -0.12    2.60

  -4   0  -3    0.34    3.39

  -4   0  -3    2.13    4.90

  -4   0  -3    0.69    1.91

  -4   0  -2  445.35    8.09

  -4   0  -2  438.82   13.82

  -4   0  -2  444.01   13.11

  -4   0  -1    0.03    2.92

  -4   0  -1   -0.38    2.50

  -4   0  -1   -1.13    5.16

  -4   0   0 1310.16   12.85

  -4   0   0 1310.56   12.58

  -4   0   0 1325.50   11.26

  -4   0   0 1318.06   28.08

  -4   0   1    0.03    2.25

  -4   0   2 1394.19   14.17

  -4   0   2 1489.89   12.15

  -4   0   3    0.78    2.90

  -4   0   4 1266.93   13.56

  -4   0   5   -0.27    2.49

  -4   0   6   38.42    3.21

  -4   0   7    0.00    2.22

  -3   0 -17   -0.32    7.78

  -3   0 -16   25.65   10.06

  -3   0 -15    0.57    7.95

  -3   0 -14  221.65   14.03

  -3   0 -13    0.07    7.37

  -3   0 -13   -2.32    5.59

  -3   0 -12   59.50    6.91

  -3   0 -12   52.05    8.63

  -3   0 -11   -0.49    7.31

  -3   0 -11   -0.07    5.04

  -3   0 -10  129.13    7.66

  -3   0 -10  139.68    9.46

  -3   0 -10  138.08    7.02

  -3   0  -9    0.32    5.33

  -3   0  -9   -1.03    4.39

  -3   0  -9   -0.02    3.72

  -3   0  -8    7.85    4.73

  -3   0  -8    4.01    4.15

  -3   0  -7    0.57    3.70

  -3   0  -7   -0.12    1.38

  -3   0  -7   -0.02    8.74

  -3   0  -7   -0.35    4.29

  -3   0  -6  171.25   14.75

  -3   0  -6  169.58    6.64

  -3   0  -6  180.59    7.05

  -3   0  -6  172.06    4.07

  -3   0  -5   -0.36    1.72

  -3   0  -5    0.83    3.08

  -3   0  -5    1.34    7.05

  -3   0  -5   -1.37    3.15

  -3   0  -4 1529.54   12.09

  -3   0  -4 1417.92   31.75

  -3   0  -4 1449.05   14.00

  -3   0  -4 1442.86   14.85

  -3   0  -3    0.56    2.08

  -3   0  -3    0.77    2.37

  -3   0  -3    1.42    2.74

  -3   0  -3    1.22    5.60

  -3   0  -3    0.09    2.13

  -3   0  -2  870.70   15.24

  -3   0  -2  895.25    9.49

  -3   0  -2  856.10   17.85

  -3   0  -1    0.27    3.20

  -3   0  -1    1.05    4.84

  -3   0   0  154.57   10.24

  -3   0   1    1.17    2.20

  -3   0   2  404.45    6.75

  -3   0   3    0.60    2.36

  -3   0   4   26.13    2.62

  -3   0   5    0.01    1.93

  -3   0   6    6.26    1.88

  -2   0 -17   -1.50    8.77

  -2   0 -16   10.51    8.36

  -2   0 -15    1.13    9.14

  -2   0 -14  132.99   11.60

  -2   0 -13    1.90    8.15

  -2   0 -12  102.59   10.27

  -2   0 -12  101.11    7.53

  -2   0 -11    0.10    4.71

  -2   0 -11    0.63    6.81

  -2   0 -10  357.43   12.92

  -2   0 -10  351.06   10.78

  -2   0  -9    1.12    2.53

  -2   0  -9    1.17    4.11

  -2   0  -9    2.93    5.90

  -2   0  -8  393.33    7.62

  -2   0  -8  356.62   23.62

  -2   0  -8  385.06   11.28

  -2   0  -8  380.71   12.85

  -2   0  -7   -0.57    3.00

  -2   0  -7   -0.03    1.93

  -2   0  -7   -0.72    7.25

  -2   0  -7   -1.07    3.96

  -2   0  -6  965.48    9.52

  -2   0  -6  928.03   16.48

  -2   0  -6  920.04   31.34

  -2   0  -6  944.45   13.95

  -2   0  -5    2.36    7.26

  -2   0  -5   -1.53    3.37

  -2   0  -4  162.76   12.16

  -2   0  -4  165.72    5.29

  -2   0  -4  166.45    5.12

  -2   0  -3    1.38    2.44

  -2   0  -3   -0.54    2.63

  -2   0  -3    1.46    6.17

  -2   0  -2   60.56    6.76

  -2   0  -1    2.21    3.77

  -2   0  -1    2.38    3.67

  -2   0   1    1.29    3.00

  -2   0   2 1115.92   19.21

  -1   0 -17   -2.04    9.33

  -1   0 -16    0.84    8.33

  -1   0 -15   -1.44    9.31

  -1   0 -14    8.51    7.80

  -1   0 -13    3.78    8.26

  -1   0 -12   57.98    9.28

  -1   0 -12   51.38    6.18

  -1   0 -11   -0.20    7.01

  -1   0 -10   19.69    3.71

  -1   0 -10   18.03    6.79

  -1   0  -9    2.68    2.96

  -1   0  -9    0.36    6.03

  -1   0  -8  949.10   12.82

  -1   0  -8 1031.73   38.76

  -1   0  -8  963.49   16.76

  -1   0  -8  995.58   25.06

  -1   0  -7    0.28    4.21

  -1   0  -7    1.05    2.35

  -1   0  -7   -1.13    7.54

  -1   0  -7    0.08    3.94

  -1   0  -6 1540.27   13.55

  -1   0  -6 1563.15   26.50

  -1   0  -6 1532.52   39.90

  -1   0  -6 1514.81   17.39

  -1   0  -5    0.93    1.98

  -1   0  -5    0.93    8.01

  -1   0  -5    0.93    3.63

  -1   0  -5    1.45    3.51

  -1   0  -4  126.98   11.47

  -1   0  -4  131.17    4.80

  -1   0  -3    0.73    2.75

  -1   0  -3   -0.25    6.62

  -1   0  -2  436.89   13.05

  -1   0  -1    0.92    3.40

   0   0 -17    0.70    8.30

   0   0 -16   40.90   10.59

   0   0 -15    3.14    8.01

   0   0 -14  728.87   21.95

   0   0 -13    0.20    7.82

   0   0 -12 1225.66   19.73

   0   0 -12 1207.76   24.51

   0   0 -11    2.25    7.71

   0   0 -11    2.05    4.11

   0   0 -10  179.86    7.55

   0   0 -10  181.77   10.37

   0   0  -9    2.05    3.53

   0   0  -9    1.36    6.41

   0   0  -9    0.10    5.43

   0   0  -8  385.23   18.00

   0   0  -8  415.68    9.40

   0   0  -8  421.42   24.84

   0   0  -8  392.15   11.21

   0   0  -7    1.76    5.04

   0   0  -7    2.96    7.80

   0   0  -7   -0.48    4.28

   0   0  -7    0.43    2.84

   0   0  -6  908.94   23.71

   0   0  -6  986.56   32.05

   0   0  -6  975.43   14.02

   0   0  -6  974.63   11.98

   0   0  -5    0.46    2.31

   0   0  -5    0.72    8.08

   0   0  -5    0.69    5.29

   0   0  -5   -0.88    3.55

   0   0  -4  708.59   17.32

   0   0  -4  662.11   22.12

   0   0  -4  727.83    9.81

   0   0  -4  718.15    8.42

   0   0  -3    2.24    7.47

   0   0  -3    0.69    2.69

   0   0  -2 2640.27   29.50

   0   0   3    0.65    2.51

   0   0   4  684.88    8.92

   0   0   5   -0.27    2.60

   0   0   6  938.30   12.80

   0   0   7    0.40    3.88

   0   0   8  404.52   10.59

   1   0 -17   -1.81    8.98

   1   0 -16   26.88    8.90

   1   0 -15   -0.49    8.61

   1   0 -14  291.70   15.23

   1   0 -13    1.31    5.16

   1   0 -13    1.83    7.62

   1   0 -12  210.41    9.71

   1   0 -12  215.81   12.35

   1   0 -11   -0.56    4.60

   1   0 -11    5.16    7.51

   1   0 -10  225.12    8.92

   1   0 -10  239.70   11.15

   1   0  -9    2.00    4.17

   1   0  -9    0.02    7.20

   1   0  -9    2.19    5.61

   1   0  -8   87.83   10.95

   1   0  -8   78.94   13.32

   1   0  -8   94.93    6.81

   1   0  -8   95.55    5.81

   1   0  -7    0.50    3.42

   1   0  -7    0.81    4.17

   1   0  -7    1.47    5.79

   1   0  -7   -1.96    8.49

   1   0  -6 2229.07   40.97

   1   0  -6 2246.17   47.83

   1   0  -6 2304.41   20.96

   1   0  -6 2359.60   19.60

   1   0  -5   -0.19    2.69

   1   0  -5   -0.20    3.39

   1   0  -5   -0.73    7.56

   1   0  -5   -0.90    6.26

   1   0  -4  837.70   23.81

   1   0  -4  884.19   10.22

   1   0  -4  826.24   21.81

   1   0  -4  846.75   10.51

   1   0  -3    0.24    2.59

   1   0  -3    0.78    2.62

   1   0  -3   -0.78    6.38

   1   0  -3   -1.44    5.46

   1   0  -2  231.52   10.12

   1   0  -2  242.91   10.23

   1   0  -1   -0.36    2.93

   1   0  -1    2.46    4.48

   1   0   0 3300.41   86.38

   1   0   3    0.10    2.52

   1   0   4  131.54    4.62

   1   0   5    0.91    2.81

   1   0   6 1510.96   16.20

   1   0   7    0.89    3.71

   1   0   8  919.37   15.24

   1   0   9    3.44    4.85

   1   0  10   15.96    5.82

   1   0  11   -0.21    5.81

   2   0 -17    0.81    8.38

   2   0 -16  120.68   12.30

   2   0 -15   -1.38    8.13

   2   0 -14  106.74    8.73

   2   0 -14  113.52   11.48

   2   0 -13    3.77    5.77

   2   0 -13    0.15    7.64

   2   0 -12    1.84    6.92

   2   0 -12    1.44    5.33

   2   0 -11    0.67    5.21

   2   0 -11   -1.44    6.35

   2   0 -10  548.36   13.61

   2   0 -10  558.38   28.37

   2   0 -10  520.88   14.67

   2   0  -9    0.63    4.51

   2   0  -9   -0.77    8.34

   2   0  -9    0.60    5.13

   2   0  -8   90.61    6.21

   2   0  -8   80.67   11.57

   2   0  -8   94.90   13.93

   2   0  -8   85.98    6.52

   2   0  -7    0.31    3.74

   2   0  -7    0.40    4.18

   2   0  -7   -2.46    7.39

   2   0  -7   -4.04    8.60

   2   0  -6 1940.62   43.78

   2   0  -6 1944.34   19.28

   2   0  -6 1972.10   19.42

   2   0  -6 2057.13   42.96

   2   0  -5   -0.43    3.13

   2   0  -5   -0.12    3.35

   2   0  -5    1.06    6.81

   2   0  -5    0.17    7.10

   2   0  -4 2029.69   16.75

   2   0  -4 1919.25   36.47

   2   0  -4 2027.60   36.02

   2   0  -4 2049.58   15.82

   2   0  -3   -1.22    2.90

   2   0  -3   -0.61    7.54

   2   0  -3   -0.38    5.42

   2   0  -3    0.19    2.05

   2   0  -2 1170.49   10.33

   2   0  -2 1091.93   23.83

   2   0  -2 1139.43   19.14

   2   0  -1    1.38    6.53

   2   0   0   44.97    6.18

   2   0   4  163.90    5.20

   2   0   5   -0.14    2.73

   2   0   6  917.51   13.03

   2   0   7   -0.33    3.69

   2   0   8  364.33   10.20

   2   0   9    1.03    4.70

   2   0  10  333.10   11.49

   2   0  11   -1.29    5.66

   2   0  12  112.83    9.24

   3   0 -17    6.96    8.20

   3   0 -16  121.77   11.81

   3   0 -15    0.62    6.39

   3   0 -15   -0.97    8.12

   3   0 -14   43.47    8.64

   3   0 -14   45.84    7.90

   3   0 -13   -2.24    6.13

   3   0 -13   -1.58    7.10

   3   0 -12    1.42    5.90

   3   0 -12    8.32    6.78

   3   0 -11   -1.47    5.50

   3   0 -11    1.17    6.17

   3   0 -10  771.95   16.85

   3   0 -10  784.30   17.32

   3   0  -9   -0.33    4.97

   3   0  -9   -1.37    5.27

   3   0  -9    3.47    9.89

   3   0  -8  169.11    8.07

   3   0  -8  193.70   17.12

   3   0  -8  165.80   16.32

   3   0  -8  170.85    7.84

   3   0  -7   -0.63    3.98

   3   0  -7   -0.05    4.00

   3   0  -7    1.92    7.45

   3   0  -7    2.04    8.22

   3   0  -6    5.84    7.55

   3   0  -6    7.13    3.70

   3   0  -6    6.56    3.51

   3   0  -6    5.57    7.80

   3   0  -5   -0.11    5.97

   3   0  -5    0.57    3.12

   3   0  -5    0.07    2.68

   3   0  -5    1.66    6.73

   3   0  -4   25.41    3.43

   3   0  -4   30.89    8.87

   3   0  -4   24.96    6.30

   3   0  -4   25.74    2.90

   3   0  -3   -0.82    2.49

   3   0  -3    3.28    8.01

   3   0  -3    0.82    1.99

   3   0  -3    1.23    4.84

   3   0  -2  429.11   17.72

   3   0  -2  399.03    7.11

   3   0  -1    0.46    2.39

   3   0  -1    4.20    7.44

   3   0   0  159.24    9.90

   3   0   1    1.03    2.80

   3   0   1    0.75    2.23

   3   0   5   -0.38    2.94

   3   0   6  165.44    6.47

   3   0   7    0.96    3.96

   3   0   8    3.82    4.36

   3   0   9   -0.95    5.09

   3   0  10  134.53    8.77

   3   0  11    0.58    6.05

   3   0  12   52.76    7.64

   3   0  13    1.72    6.51

   4   0 -17   -3.65    7.66

   4   0 -16  227.87   13.37

   4   0 -16  220.95   14.31

   4   0 -15   -0.24    6.74

   4   0 -15   -1.52    8.23

   4   0 -14  126.85   10.31

   4   0 -14  129.51   11.04

   4   0 -13   -2.78    6.78

   4   0 -13    4.27    6.76

   4   0 -12   21.07    7.25

   4   0 -12   24.54    7.27

   4   0 -11    2.66    6.64

   4   0 -11   -1.46    6.21

   4   0 -10  417.10   13.72

   4   0 -10  421.62   13.11

   4   0  -9   -0.40    5.54

   4   0  -9    1.88    5.02

   4   0  -8  467.11   11.71

   4   0  -8  461.79   12.77

   4   0  -7    1.59    4.86

   4   0  -7   -0.67    3.74

   4   0  -7    2.22    7.92

   4   0  -6   38.14   10.42

   4   0  -6   35.46    3.99

   4   0  -6   36.42    5.45

   4   0  -5    0.30    3.86

   4   0  -5    0.22    7.24

   4   0  -5    1.37    2.60

   4   0  -4 1197.91   35.00

   4   0  -4 1280.51   15.49

   4   0  -4 1284.03   12.27

   4   0  -3    0.72    1.68

   4   0  -3    2.09    3.43

   4   0  -3    2.40    6.34

   4   0  -2 1393.65   13.83

   4   0  -2 1381.52   33.09

   4   0  -1    3.00    6.43

   4   0  -1    0.13    2.44

   4   0   0 1351.66   10.86

   4   0   2  438.01   13.11

   4   0   3    0.52    5.02

   4   0   5    0.36    3.45

   4   0   6  280.47    8.58

   4   0   7   -1.47    4.23

   4   0   8  737.79   14.78

   4   0   9   -0.70    5.22

   4   0  10  401.70   12.90

   4   0  11   -0.58    5.71

   4   0  12  240.57   11.86

   4   0  13    0.04    6.38

   4   0  14  228.94   12.59

   5   0 -17   -2.93    6.89

   5   0 -17    0.83    7.92

   5   0 -16  172.61   12.45

   5   0 -16  170.59   12.48

   5   0 -15   -2.05    6.77

   5   0 -15   -1.21    6.97

   5   0 -14  149.93   11.24

   5   0 -14  154.79   11.26

   5   0 -13    2.65    6.98

   5   0 -13   -3.07    6.35

   5   0 -12  136.38   10.32

   5   0 -12  137.77    9.78

   5   0 -11    0.46    6.60

   5   0 -11    4.57    5.95

   5   0 -10  822.93   17.41

   5   0 -10  790.88   18.85

   5   0  -9   -2.66    6.71

   5   0  -9   -0.25    4.60

   5   0  -8  662.72   15.79

   5   0  -8  677.80   13.79

   5   0  -7   -0.19    5.30

   5   0  -7    1.78    3.60

   5   0  -6  495.28   12.38

   5   0  -6  531.23   28.15

   5   0  -6  515.96   10.11

   5   0  -5   -2.08    4.32

   5   0  -5    7.36    8.56

   5   0  -5    0.65    2.52

   5   0  -4 1712.34   19.04

   5   0  -4 1775.22   14.19

   5   0  -4 1836.36   45.98

   5   0  -3   -1.37    3.49

   5   0  -3    3.13    8.05

   5   0  -2  875.86   11.98

   5   0  -2  888.10   29.31

   5   0  -1   -0.03    2.52

   5   0  -1   -0.32    7.17

   5   0   0  789.82    9.56

   5   0   1   -0.48    1.71

   5   0   2 1320.05   18.37

   5   0   2 1267.99   21.49

   5   0   3    2.36    4.55

   5   0   4 2778.68   44.67

   5   0   5    4.65    6.70

   5   0   6   78.28    6.03

   5   0   6   90.38   11.91

   5   0   7    0.16    8.12

   5   0   7    0.48    4.42

   5   0   8 1004.83   17.65

   5   0   9   -0.11    5.39

   5   0  10  184.13    9.91

   5   0  11   -2.00    6.26

   5   0  12  118.65    9.51

   5   0  13    5.39    6.52

   5   0  14  202.47   12.41

   5   0  15   -3.88    6.62

   6   0 -16   94.95   11.08

   6   0 -15   -1.41    6.79

   6   0 -15    3.81    8.06

   6   0 -14  167.03   12.67

   6   0 -14  180.24   11.78

   6   0 -13   -2.31    8.19

   6   0 -13   -0.42    6.12

   6   0 -12   76.58    8.09

   6   0 -12   55.64    9.43

   6   0 -11   -2.65    7.13

   6   0 -11    0.00    5.36

   6   0 -10  325.65   13.76

   6   0 -10  344.59   11.87

   6   0  -9    1.49    7.37

   6   0  -9    1.23    4.36

   6   0  -8    2.55    3.84

   6   0  -8    1.88    6.36

   6   0  -7    0.48    6.09

   6   0  -7    0.69    3.40

   6   0  -6  324.65   11.19

   6   0  -6  329.43    8.06

   6   0  -5    1.30    4.85

   6   0  -5    0.33    9.83

   6   0  -5    1.52    2.34

   6   0  -4  857.61   14.68

   6   0  -4  926.45    9.83

   6   0  -4  945.14   35.80

   6   0  -3    0.21    9.41

   6   0  -3    0.26    3.84

   6   0  -2 1050.03   14.02

   6   0  -2 1040.75   34.09

   6   0  -1   -0.64    2.77

   6   0   0  168.53    5.23

   6   0   1   -0.23    1.77

   6   0   2  801.34    7.96

   6   0   3    0.73    3.84

   6   0   3   -0.66    3.15

   6   0   4  205.93   13.04

   6   0   4  199.85   11.43

   6   0   5    1.68    6.08

   6   0   6  164.11   14.40

   6   0   7    0.59    4.78

   6   0   7    4.26    9.35

   6   0   8  392.46   12.23

   6   0   9   -1.40    5.93

   6   0  10  281.83   12.08

   6   0  11    2.25    6.13

   6   0  12   17.70    7.14

   6   0  13   -0.12    6.46

   6   0  14   62.09    9.05

   6   0  15    0.11    7.64

   6   0  16  135.11   11.74

   7   0 -16  126.91   12.18

   7   0 -15   -2.93    7.89

   7   0 -14  171.96   13.23

   7   0 -13    2.49    8.55

   7   0 -12  143.57   11.71

   7   0 -11    0.42    7.51

   7   0 -10  400.19   15.81

   7   0  -9   -1.46    7.36

   7   0  -8   14.56    7.30

   7   0  -7    0.94    6.56

   7   0  -6  346.08   12.04

   7   0  -5    0.86    5.12

   7   0  -4  185.95    8.14

   7   0  -3    0.87    4.17

   7   0  -2  834.19   13.56

   7   0  -1    0.84    2.99

   7   0   0    8.99    2.74

   7   0   1    0.16    2.13

   7   0   2  731.42    8.49

   7   0   3   -0.14    2.40

   7   0   4  608.59   20.88

   7   0   5    1.42    5.99

   7   0   6   61.40   10.61

   7   0   7   -2.37    5.44

   7   0   8  240.02   10.61

   7   0   9    0.99    6.23

   7   0  10  354.03   13.47

   7   0  11    0.68    6.62

   7   0  12   -0.05    6.67

   7   0  13   -0.33    7.27

   7   0  14   36.28    7.93

   7   0  15   -5.74    7.31

   7   0  16   98.46   10.56

   8   0 -15   -1.52    8.92

   8   0 -14   26.59    9.65

   8   0 -13   -3.56    7.99

   8   0 -12    3.67    8.48

   8   0 -11   -1.60    8.21

   8   0 -10   10.97    8.53

   8   0  -9    1.82    7.36

   8   0  -8  243.54   12.37

   8   0  -7    0.22    6.53

   8   0  -6  689.67   16.67

   8   0  -5   -1.40    5.69

   8   0  -4   27.25    5.36

   8   0  -3   -0.89    4.24

   8   0  -2   63.55    5.32

   8   0  -1    0.53    3.33

   8   0   0   48.56    4.02

   8   0   1    0.64    2.42

   8   0   7    0.68    5.81

   8   0   8  158.34    9.63

   8   0   9   -1.77    6.26

   8   0  10   71.10    8.55

   8   0  11    0.39    6.88

   8   0  12   22.55    7.19

   8   0  13   -0.20    6.86

   8   0  14   23.23    7.59

   8   0  15    4.19    7.53

   9   0 -15   -3.20    8.17

   9   0 -14  107.55   12.00

   9   0 -13    3.68    9.07

   9   0 -12  567.37   20.38

   9   0 -11    1.24    8.33

   9   0 -10   63.79   10.44

   9   0  -9   -0.80    8.13

   9   0  -8  244.06   13.00

   9   0  -7   -0.50    6.79

   9   0  -6  313.27   12.62

   9   0  -5    1.12    5.80

   9   0  -4    6.86    5.53

   9   0  -3   -0.39    4.66

   9   0  -2  550.77   12.57

   9   0  -1    0.89    3.66

   9   0   0 2450.66   22.44

   9   0   8  174.06   10.77

   9   0   9    2.85    6.29

   9   0  10   11.05    6.75

   9   0  11    0.89    6.53

   9   0  12  616.84   19.79

   9   0  13   -0.09    7.07

   9   0  14  277.01   14.47

  10   0 -14  130.53   12.41

  10   0 -13    3.66    9.25

  10   0 -12  453.45   19.35

  10   0 -11    2.99    8.08

  10   0 -10   45.54    9.19

  10   0  -9   -0.89    7.48

  10   0  -8   69.62    9.43

  10   0  -7   -1.21    7.18

  10   0  -6  440.35   14.98

  10   0  -5   -1.25    5.76

  10   0  -4   10.03    5.39

  10   0  -3   -0.08    4.78

  10   0  -2   97.17    6.79

  10   0  -1   -0.19    3.78

  10   0   8  332.59   14.08

  10   0   9    4.93    6.55

  10   0  10    4.68    6.73

  10   0  11    2.21    7.08

  10   0  12  222.43   13.48

  10   0  13    1.35    6.48

  11   0 -13    5.26    8.09

  11   0 -12   84.79   11.15

  11   0 -11    0.08    8.83

  11   0 -10   28.99    8.96

  11   0  -9    1.62    7.54

  11   0  -8   17.01    8.39

  11   0  -7   -0.52    6.69

  11   0  -6  805.66   20.16

  11   0  -5   -3.35    5.98

  11   0  -4  266.28   11.50

  11   0  -3    0.45    4.95

  11   0  -2  484.42   13.16

  11   0   8  252.29   13.11

  11   0   9    3.47    6.82

  11   0  10   48.86    8.48

  11   0  11   -0.65    7.02

  11   0  12  150.02   11.72

  12   0 -12   17.10    9.68

  12   0 -11    3.37    8.96

  12   0 -10  104.76   11.47

  12   0  -9    0.49    7.30

  12   0  -8   49.16    9.24

  12   0  -7   -0.73    7.47

  12   0  -6   87.78    9.48

  12   0  -5   -0.78    6.23

  12   0  -4    0.87    5.71

  12   0   8   -0.87    6.96

  12   0   9   -0.41    6.82

  12   0  10    5.46    6.93

  12   0  11    2.48    7.08

  13   0 -11   -1.69    8.13

  13   0 -10   33.59    8.95

  13   0  -9    2.05    8.37

  13   0  -8   84.30   10.38

  13   0  -7    0.63    6.79

  13   0  -6    2.11    6.91

  13   0  -5   -0.87    5.78

  13   0   8   43.71    8.86

  13   0   9   -0.78    7.69

  13   0  10   35.39    8.00

  14   0 -10  104.29   11.63

  14   0  -9    0.25    8.11

  14   0  -8  318.18   15.75

  14   0  -7    3.68    7.03

  14   0   7   -0.85    7.01

  14   0   8  238.60   14.40

  14   0   9    4.08    6.77

  15   0   7    2.54    6.82

 -16  -1  -4    1.49    8.88

 -16  -1  -3  103.34   11.88

 -16  -1  -2   10.07    8.79

 -16  -1  -1    5.52    8.62

 -16  -1   0   77.16   12.34

 -16  -1   1    5.84    8.62

 -16  -1   2   41.39   10.14

 -16  -1   3   10.41   10.04

 -16  -1   4    6.02    8.57

 -15  -1  -7   69.15   11.25

 -15  -1  -6    8.44    8.11

 -15  -1  -6    6.14    9.51

 -15  -1  -5   56.06    9.75

 -15  -1  -5   67.29   11.70

 -15  -1  -4    4.01    8.43

 -15  -1  -4    6.25    9.68

 -15  -1  -3  179.66   14.63

 -15  -1  -2   26.55    9.62

 -15  -1  -1   59.50   11.31

 -15  -1   0   30.24   10.15

 -15  -1   1  169.36   14.59

 -15  -1   2    9.64   10.24

 -15  -1   3  199.25   14.62

 -15  -1   4    6.59    9.79

 -15  -1   5  187.11   14.21

 -15  -1   6    4.97    8.66

 -15  -1   7   28.93    9.31

 -14  -1  -9  129.43   13.54

 -14  -1  -9  127.64   13.03

 -14  -1  -8    1.75    8.81

 -14  -1  -8    3.88    9.87

 -14  -1  -7   38.11   10.92

 -14  -1  -7   20.97   10.31

 -14  -1  -6    4.41    9.69

 -14  -1  -6    5.10    7.96

 -14  -1  -6    8.12   10.03

 -14  -1  -5   60.02    9.64

 -14  -1  -5   62.48   11.01

 -14  -1  -5   62.48   10.86

 -14  -1  -4   -1.89    8.15

 -14  -1  -4    0.18    8.96

 -14  -1  -4    1.50    9.28

 -14  -1  -3   80.44   11.23

 -14  -1  -3   77.78   10.99

 -14  -1  -2   38.71    9.71

 -14  -1  -2   42.32   10.41

 -14  -1  -1   64.35   10.79

 -14  -1   0   11.34    9.47

 -14  -1   1   56.63   10.03

 -14  -1   2   26.76    9.40

 -14  -1   3  104.54   12.25

 -14  -1   4    2.72    8.46

 -14  -1   5   76.30   10.55

 -14  -1   6   15.40    9.11

 -14  -1   7   16.91    8.03

 -13  -1 -10    6.73   10.13

 -13  -1 -10    5.19    9.92

 -13  -1  -9   99.37   12.72

 -13  -1  -9  105.31   12.56

 -13  -1  -8    0.51    9.35

 -13  -1  -8   -0.64    9.96

 -13  -1  -7   51.16   10.85

 -13  -1  -7   54.81    8.75

 -13  -1  -7   48.81   11.15

 -13  -1  -6   20.32    8.15

 -13  -1  -6   29.32    9.60

 -13  -1  -6   19.78   10.01

 -13  -1  -5  201.39   12.88

 -13  -1  -5  196.20   14.19

 -13  -1  -5  196.21   14.17

 -13  -1  -4   21.28    8.32

 -13  -1  -4   18.05    8.87

 -13  -1  -4    9.46    8.64

 -13  -1  -3  105.71   10.94

 -13  -1  -3   93.66   10.71

 -13  -1  -3   94.56   11.65

 -13  -1  -2   17.57    8.60

 -13  -1  -2   16.36    8.43

 -13  -1  -2   14.72    8.51

 -13  -1  -1  178.37   13.07

 -13  -1  -1  171.38   12.63

 -13  -1   0   42.24    9.59

 -13  -1   0   54.11    8.30

 -13  -1   1   30.04    9.46

 -13  -1   1   28.66    7.39

 -13  -1   2   31.72    9.72

 -13  -1   2   35.50    7.11

 -13  -1   3   82.54   10.56

 -13  -1   4   12.11    8.41

 -13  -1   5   66.93    9.76

 -13  -1   6   53.07    9.60

 -13  -1   7   78.86    9.87

 -13  -1   8   -0.25    7.55

 -12  -1 -12   -0.84    9.16

 -12  -1 -12    2.49    8.77

 -12  -1 -11   87.42   11.18

 -12  -1 -11   84.77   12.00

 -12  -1 -10   16.65   10.03

 -12  -1 -10   19.79    9.81

 -12  -1  -9   81.20   11.64

 -12  -1  -9   70.22   11.01

 -12  -1  -8    8.88    9.72

 -12  -1  -8    8.08    9.77

 -12  -1  -7   92.23   11.15

 -12  -1  -7   99.49    9.47

 -12  -1  -7  101.06   12.16

 -12  -1  -6   -0.84    6.74

 -12  -1  -6    4.94    9.05

 -12  -1  -6    5.02    8.36

 -12  -1  -5   83.51    9.73

 -12  -1  -5   83.12   11.40

 -12  -1  -5   91.32   10.58

 -12  -1  -4    1.23    7.31

 -12  -1  -4    3.03    8.60

 -12  -1  -4    2.99    9.03

 -12  -1  -3   16.97    8.73

 -12  -1  -3   22.79    8.45

 -12  -1  -3   24.27    8.91

 -12  -1  -2    3.61    8.13

 -12  -1  -2    0.18    8.61

 -12  -1  -2    5.17    7.65

 -12  -1  -1  208.45   13.27

 -12  -1  -1  204.94   12.08

 -12  -1  -1  212.49   11.85

 -12  -1  -1  205.09   12.75

 -12  -1   0   -2.18    7.89

 -12  -1   0    1.15    6.42

 -12  -1   0   -0.31    6.72

 -12  -1   0    4.56    8.27

 -12  -1   1  201.49   10.85

 -12  -1   1  178.61   12.81

 -12  -1   2   76.62   10.88

 -12  -1   2   82.93    8.26

 -12  -1   3  193.44   12.69

 -12  -1   3  214.34   10.99

 -12  -1   4  118.08   11.10

 -12  -1   5  120.37   10.75

 -12  -1   6   69.40    9.48

 -12  -1   7   41.61    8.01

 -12  -1   8   43.43    8.33

 -11  -1 -13   61.23    9.95

 -11  -1 -13   55.87   10.35

 -11  -1 -12    1.39    8.39

 -11  -1 -12    1.90    8.26

 -11  -1 -11  111.50   11.81

 -11  -1 -11   82.17   11.50

 -11  -1 -10   73.13   11.17

 -11  -1 -10   66.13   11.19

 -11  -1  -9   -1.11    9.25

 -11  -1  -9    6.40    8.72

 -11  -1  -8    9.03    8.97

 -11  -1  -8   12.22    9.68

 -11  -1  -7  113.78   12.17

 -11  -1  -7  114.33    9.11

 -11  -1  -7  126.78   11.78

 -11  -1  -6   20.44    9.57

 -11  -1  -6   26.67    7.49

 -11  -1  -6   18.85    8.99

 -11  -1  -5   88.45   10.64

 -11  -1  -5   78.03   10.82

 -11  -1  -5   89.38    9.19

 -11  -1  -4    3.57    7.43

 -11  -1  -4    2.43    8.49

 -11  -1  -4    0.61    7.50

 -11  -1  -3   59.67    9.13

 -11  -1  -3   54.42    9.30

 -11  -1  -3   53.98    8.89

 -11  -1  -2   40.59    8.20

 -11  -1  -2   31.59    8.17

 -11  -1  -2   39.58    7.75

 -11  -1  -2   39.99    8.63

 -11  -1  -1  167.83   11.67

 -11  -1  -1  160.59   10.35

 -11  -1  -1  159.77   10.37

 -11  -1  -1  163.47   11.48

 -11  -1   0   82.64    9.83

 -11  -1   0   90.22    8.63

 -11  -1   0   86.69    8.42

 -11  -1   0   89.35    9.63

 -11  -1   1  202.72   12.57

 -11  -1   1  197.28   10.27

 -11  -1   1  211.10   10.65

 -11  -1   2   72.62    9.99

 -11  -1   2   74.99    7.67

 -11  -1   3    9.32    7.62

 -11  -1   3    7.46    5.63

 -11  -1   4   43.40    8.44

 -11  -1   4   43.79    6.46

 -11  -1   5  109.56    9.81

 -11  -1   6   38.79    8.25

 -11  -1   6   39.84    6.46

 -11  -1   7   95.81    9.44

 -11  -1   8   27.96    7.03

 -10  -1 -14    3.98    8.16

 -10  -1 -13  112.07   11.77

 -10  -1 -13  109.23   11.70

 -10  -1 -12    6.92    7.96

 -10  -1 -12   12.72    8.66

 -10  -1 -11  126.18   11.96

 -10  -1 -11  116.79   12.38

 -10  -1 -10   -2.22    8.81

 -10  -1 -10    4.06    9.28

 -10  -1  -9   57.50   10.31

 -10  -1  -9   57.61   10.24

 -10  -1  -8   18.83    9.45

 -10  -1  -8   12.85    8.85

 -10  -1  -7  378.49   13.26

 -10  -1  -7  386.66   16.33

 -10  -1  -7  366.42   16.00

 -10  -1  -6    9.81    6.37

 -10  -1  -6    9.54    8.06

 -10  -1  -6   11.59    8.78

 -10  -1  -5  562.63   16.15

 -10  -1  -5  534.66   17.79

 -10  -1  -5  542.63   17.63

 -10  -1  -4    6.78    7.65

 -10  -1  -4    4.78    6.31

 -10  -1  -4    4.02    7.91

 -10  -1  -3  355.78   13.59

 -10  -1  -3  344.24   14.30

 -10  -1  -3  348.76   14.08

 -10  -1  -2  414.20   14.49

 -10  -1  -2  424.04   14.17

 -10  -1  -2  428.03   14.98

 -10  -1  -2  416.92   14.13

 -10  -1  -1  376.42   13.92

 -10  -1  -1  376.23   13.18

 -10  -1  -1  350.97   13.64

 -10  -1  -1  365.74   12.83

 -10  -1   0    5.23    6.92

 -10  -1   0    3.85    5.57

 -10  -1   0    3.69    5.76

 -10  -1   0    7.03    7.05

 -10  -1   1  314.24   13.22

 -10  -1   1  313.39   11.30

 -10  -1   1  318.25   11.71

 -10  -1   1  315.95   12.42

 -10  -1   2    8.08    7.52

 -10  -1   2    0.47    4.80

 -10  -1   2    2.82    5.36

 -10  -1   3   44.92    7.85

 -10  -1   3   46.93    6.38

 -10  -1   4   21.04    7.11

 -10  -1   4   25.98    5.09

 -10  -1   5  417.85   14.43

 -10  -1   6   54.15    7.64

 -10  -1   7  365.10   13.56

 -10  -1   8    3.54    5.72

  -9  -1 -15   26.83    9.12

  -9  -1 -14    3.69    7.95

  -9  -1 -13   62.48    9.48

  -9  -1 -13   67.77   10.33

  -9  -1 -12   34.44    9.07

  -9  -1 -12   40.13    9.47

  -9  -1 -11   51.96    9.80

  -9  -1 -11   68.32   10.63

  -9  -1 -10   56.39    9.37

  -9  -1 -10   49.76    9.81

  -9  -1  -9  134.54   11.57

  -9  -1  -9  150.45   12.29

  -9  -1  -8   21.29    8.18

  -9  -1  -8   16.36    8.27

  -9  -1  -7  148.91    8.55

  -9  -1  -7  147.91   11.43

  -9  -1  -7  140.61   11.15

  -9  -1  -6   23.46    5.76

  -9  -1  -6   32.02    8.04

  -9  -1  -6   24.96    8.35

  -9  -1  -5  252.58   10.89

  -9  -1  -5  226.75   11.86

  -9  -1  -5  238.30   12.22

  -9  -1  -4  220.53   10.37

  -9  -1  -4  222.66   11.28

  -9  -1  -4  232.00   11.94

  -9  -1  -3    2.96    6.24

  -9  -1  -3    4.48    6.07

  -9  -1  -3    1.62    6.72

  -9  -1  -3    4.32    6.73

  -9  -1  -2   69.27    7.52

  -9  -1  -2   49.04    7.67

  -9  -1  -2   56.08    7.23

  -9  -1  -2   55.33    7.47

  -9  -1  -1  182.39    9.92

  -9  -1  -1  175.46    9.23

  -9  -1  -1  176.62    9.31

  -9  -1  -1  170.99    9.78

  -9  -1   0   13.05    6.60

  -9  -1   0   13.76    5.78

  -9  -1   0   15.58    6.34

  -9  -1   0   16.48    5.55

  -9  -1   1  221.32    9.04

  -9  -1   1  215.97   10.35

  -9  -1   1  243.41   10.00

  -9  -1   1  230.39   10.11

  -9  -1   1  226.49    7.32

  -9  -1   2   53.90    7.44

  -9  -1   2   61.62    5.79

  -9  -1   2   67.67    6.56

  -9  -1   2   61.90    4.89

  -9  -1   3  236.89    8.57

  -9  -1   3  247.82   11.29

  -9  -1   4    3.09    6.24

  -9  -1   5  296.50   11.67

  -9  -1   6   63.78    7.29

  -9  -1   7  152.34    9.17

  -9  -1   8    0.30    5.12

  -8  -1 -15   99.39   11.27

  -8  -1 -14   50.58    9.45

  -8  -1 -13  166.29   12.86

  -8  -1 -13  175.00   12.02

  -8  -1 -12   10.38    7.43

  -8  -1 -12   13.92    8.35

  -8  -1 -11  292.35   14.08

  -8  -1 -11  281.31   14.54

  -8  -1 -10  259.58   13.26

  -8  -1 -10  270.70   13.91

  -8  -1  -9  368.25   14.92

  -8  -1  -9  374.02   15.21

  -8  -1  -8   -0.18    6.70

  -8  -1  -8   -0.72    7.83

  -8  -1  -7  134.02    7.61

  -8  -1  -7  151.35   10.81

  -8  -1  -7  129.48    9.98

  -8  -1  -6  191.35    8.79

  -8  -1  -6  172.58   10.81

  -8  -1  -6  194.22   11.11

  -8  -1  -5  283.64   11.76

  -8  -1  -5  287.92   10.45

  -8  -1  -5  292.07   12.26

  -8  -1  -4   67.58    6.60

  -8  -1  -4   55.82    7.38

  -8  -1  -4   62.22    7.22

  -8  -1  -3  130.67    8.13

  -8  -1  -3  125.82    8.14

  -8  -1  -3  124.41    8.12

  -8  -1  -3  120.50    8.11

  -8  -1  -2  162.90    8.88

  -8  -1  -2  145.27    8.22

  -8  -1  -2  150.01    8.68

  -8  -1  -2  147.64    8.40

  -8  -1  -1  790.20   15.61

  -8  -1  -1  799.21   16.15

  -8  -1  -1  819.13   15.82

  -8  -1  -1  799.79   16.31

  -8  -1   0    2.08    4.70

  -8  -1   0    2.93    5.38

  -8  -1   0    0.54    4.47

  -8  -1   0    0.83    4.76

  -8  -1   1  576.01   14.20

  -8  -1   1  583.39   12.55

  -8  -1   1  591.84   10.54

  -8  -1   1  587.50   13.55

  -8  -1   1  624.01   13.54

  -8  -1   2  209.37    7.14

  -8  -1   2  213.65    9.87

  -8  -1   2  207.31    7.76

  -8  -1   2  224.34    8.93

  -8  -1   3  598.55   14.36

  -8  -1   3  627.91   11.86

  -8  -1   4  169.06    8.67

  -8  -1   5  189.00    9.20

  -8  -1   6   37.24    6.05

  -8  -1   7  276.53   10.35

  -8  -1   8   72.35    6.31

  -7  -1 -16   11.57    7.45

  -7  -1 -15  128.99   11.07

  -7  -1 -15  136.28   11.89

  -7  -1 -14    4.36    6.80

  -7  -1 -14    1.66    7.68

  -7  -1 -13    6.67    6.16

  -7  -1 -13    8.44    8.04

  -7  -1 -12  107.44    9.61

  -7  -1 -12  121.07    9.72

  -7  -1 -12  126.37   11.15

  -7  -1 -11   52.16    9.14

  -7  -1 -11   64.22    7.58

  -7  -1 -11   63.34    8.60

  -7  -1 -10    7.81    7.42

  -7  -1 -10    2.30    5.35

  -7  -1 -10    7.21    6.68

  -7  -1  -9   31.66    7.73

  -7  -1  -9   40.25    5.90

  -7  -1  -9   38.91    7.97

  -7  -1  -8   43.19    8.25

  -7  -1  -8   51.59    5.67

  -7  -1  -8   51.63    7.64

  -7  -1  -7   55.87    5.36

  -7  -1  -7   67.76    8.25

  -7  -1  -7   54.29    5.02

  -7  -1  -7   62.54    7.99

  -7  -1  -6   16.48    3.38

  -7  -1  -6   17.99    6.83

  -7  -1  -6   13.15    4.26

  -7  -1  -5  253.97    6.83

  -7  -1  -5  254.29   10.69

  -7  -1  -5  259.34    9.08

  -7  -1  -4  119.33    7.11

  -7  -1  -4  120.96    7.67

  -7  -1  -3  471.36   11.69

  -7  -1  -3  456.67   12.07

  -7  -1  -3  453.98   12.01

  -7  -1  -3  470.17   12.43

  -7  -1  -2   -0.18    4.89

  -7  -1  -2    1.44    4.83

  -7  -1  -2   -0.50    4.61

  -7  -1  -2   -0.22    4.35

  -7  -1  -1  284.54    9.46

  -7  -1  -1  295.12    9.40

  -7  -1  -1  269.17    9.10

  -7  -1  -1  272.78    9.53

  -7  -1   0  364.33   10.36

  -7  -1   0  381.76   10.48

  -7  -1   0  365.20   10.03

  -7  -1   0  375.43    7.39

  -7  -1   0  368.46    9.79

  -7  -1   1   41.44    5.26

  -7  -1   1   45.58    5.11

  -7  -1   1   43.36    4.63

  -7  -1   1   44.48    3.55

  -7  -1   2  412.14   11.23

  -7  -1   2  416.64    9.47

  -7  -1   2  409.40   10.34

  -7  -1   3   74.35    6.06

  -7  -1   3   74.43    4.60

  -7  -1   3   81.39    7.26

  -7  -1   4   12.13    4.59

  -7  -1   5   40.27    5.31

  -7  -1   6    5.07    4.22

  -7  -1   7  205.72    8.27

  -6  -1 -16    9.25    7.28

  -6  -1 -15  184.45   13.05

  -6  -1 -14    3.79    7.52

  -6  -1 -14    4.52    7.61

  -6  -1 -13   13.51    7.39

  -6  -1 -13   13.57    7.08

  -6  -1 -12   16.17    6.82

  -6  -1 -12   16.97    6.97

  -6  -1 -12   12.19    7.40

  -6  -1 -11  216.97   11.22

  -6  -1 -11  205.67   11.03

  -6  -1 -11  207.91   11.77

  -6  -1 -10   27.21    6.39

  -6  -1 -10   23.84    7.34

  -6  -1 -10   22.07    6.72

  -6  -1  -9  204.17   10.53

  -6  -1  -9  198.06    9.45

  -6  -1  -9  213.60   11.09

  -6  -1  -8    0.32    4.25

  -6  -1  -8    0.60    6.25

  -6  -1  -7  335.50    9.86

  -6  -1  -7  340.56    8.97

  -6  -1  -7  334.68   11.90

  -6  -1  -6   37.52    4.34

  -6  -1  -6   38.82    6.25

  -6  -1  -6   35.29    4.34

  -6  -1  -5  371.83    9.60

  -6  -1  -5  373.02    8.34

  -6  -1  -5  366.96   11.11

  -6  -1  -4    4.17    3.68

  -6  -1  -4    2.10    4.33

  -6  -1  -4    3.94    2.13

  -6  -1  -3 1200.41   16.36

  -6  -1  -3 1166.09   16.84

  -6  -1  -3 1180.70   10.56

  -6  -1  -3 1153.89    9.85

  -6  -1  -3 1133.36   16.79

  -6  -1  -2  112.26    6.12

  -6  -1  -2  126.80    6.40

  -6  -1  -2  124.01    3.64

  -6  -1  -2  124.67    6.29

  -6  -1  -1  344.09    9.11

  -6  -1  -1  355.62    9.32

  -6  -1  -1  344.32    6.24

  -6  -1  -1  344.76    9.25

  -6  -1   0   19.80    4.23

  -6  -1   0   18.54    3.70

  -6  -1   0   23.34    2.52

  -6  -1   1  697.45    9.69

  -6  -1   1  687.13   12.66

  -6  -1   1  683.21   11.27

  -6  -1   1  706.74   12.23

  -6  -1   1  692.54   12.49

  -6  -1   2  164.61    7.19

  -6  -1   2  176.79    5.89

  -6  -1   2  177.27    8.78

  -6  -1   2  173.48    6.58

  -6  -1   3  988.40   15.02

  -6  -1   3 1014.34   12.16

  -6  -1   4   25.47    4.61

  -6  -1   4   28.59    5.50

  -6  -1   5  559.20   11.73

  -6  -1   5  551.82   20.45

  -6  -1   6  166.32    6.96

  -6  -1   6  150.42   13.15

  -6  -1   7  286.10    8.59

  -6  -1   7  291.60   19.21

  -6  -1   8   -0.07    8.30

  -5  -1 -17   62.24   10.67

  -5  -1 -16  113.28   11.81

  -5  -1 -15  103.77   10.84

  -5  -1 -14    3.46    7.14

  -5  -1 -14    1.98    7.15

  -5  -1 -13   72.43    8.90

  -5  -1 -13   58.50    8.72

  -5  -1 -12   -2.01    5.52

  -5  -1 -12    1.92    6.97

  -5  -1 -12    0.94    6.31

  -5  -1 -11  295.14   12.76

  -5  -1 -11  289.90   12.53

  -5  -1 -11  271.85   11.44

  -5  -1 -10    6.43    5.99

  -5  -1 -10    9.79    5.89

  -5  -1  -9  556.89   15.09

  -5  -1  -9  514.62   13.82

  -5  -1  -8   90.50    7.82

  -5  -1  -8   89.66    6.56

  -5  -1  -7  294.61    7.40

  -5  -1  -7  285.53   10.35

  -5  -1  -7  294.96    9.32

  -5  -1  -6    4.56    2.89

  -5  -1  -6    3.52    4.62

  -5  -1  -6    4.18    3.40

  -5  -1  -6    2.55    1.86

  -5  -1  -5  212.53    6.64

  -5  -1  -5  211.25    4.71

  -5  -1  -5  214.54    6.81

  -5  -1  -5  210.40    8.26

  -5  -1  -4   51.83    3.49

  -5  -1  -4   46.86    2.43

  -5  -1  -4   47.44    4.85

  -5  -1  -4   48.36    4.32

  -5  -1  -3  784.86   12.20

  -5  -1  -3  788.20    8.95

  -5  -1  -3  828.91    8.13

  -5  -1  -2  748.09   11.95

  -5  -1  -2  762.77    7.97

  -5  -1  -1  257.12    5.13

  -5  -1   0   44.49    2.94

  -5  -1   0   45.87    3.91

  -5  -1   0   42.13    3.59

  -5  -1   0   54.12    2.77

  -5  -1   1  680.59   10.00

  -5  -1   1  674.98   10.68

  -5  -1   2    1.79    3.54

  -5  -1   2    1.61    2.29

  -5  -1   2    0.68    3.84

  -5  -1   2    4.29    3.09

  -5  -1   3 1635.04   17.25

  -5  -1   3 1695.57   13.48

  -5  -1   3 1692.51   26.22

  -5  -1   4   45.86    4.21

  -5  -1   4   43.45    6.47

  -5  -1   5  516.49   10.11

  -5  -1   5  532.12   20.63

  -5  -1   6   67.02    4.49

  -5  -1   6   67.80   10.06

  -5  -1   7  150.06   15.25

  -5  -1   7  151.43    5.82

  -5  -1   8   46.29   11.56

  -4  -1 -17  116.97   12.60

  -4  -1 -16   30.59    8.98

  -4  -1 -15  107.45   11.17

  -4  -1 -14   14.44    8.37

  -4  -1 -14   15.23    6.98

  -4  -1 -13  114.41   10.40

  -4  -1 -13  113.93    9.66

  -4  -1 -12   37.37    7.84

  -4  -1 -12   35.71    7.36

  -4  -1 -11   78.61    8.49

  -4  -1 -11   88.54    8.22

  -4  -1 -10  114.63    8.74

  -4  -1 -10  126.82    8.75

  -4  -1  -9  365.14   11.97

  -4  -1  -9  334.39   11.60

  -4  -1  -9  361.32    8.86

  -4  -1  -8   54.21    6.54

  -4  -1  -8   54.50    6.04

  -4  -1  -8   52.16    3.96

  -4  -1  -7  233.53    9.14

  -4  -1  -7  239.46    8.57

  -4  -1  -7  241.58    6.32

  -4  -1  -6  198.49    5.61

  -4  -1  -6  197.36    7.95

  -4  -1  -6  203.35    7.20

  -4  -1  -6  197.42    5.26

  -4  -1  -5  922.41   11.53

  -4  -1  -5  896.82   12.57

  -4  -1  -5  901.17    9.68

  -4  -1  -5  907.93   14.30

  -4  -1  -4    0.58    2.59

  -4  -1  -4    0.93    1.61

  -4  -1  -4    1.05    2.39

  -4  -1  -3 1747.02   15.91

  -4  -1  -3 1754.28   13.34

  -4  -1  -2   43.66    3.83

  -4  -1   0  731.53   10.15

  -4  -1   0  755.14    8.45

  -4  -1   0  757.92   13.38

  -4  -1   1   36.64    3.05

  -4  -1   1   30.27    4.64

  -4  -1   1   39.63    3.41

  -4  -1   2  408.11    8.05

  -4  -1   2  450.65    6.63

  -4  -1   2  433.71    7.49

  -4  -1   3 1018.52   12.26

  -4  -1   3 1012.36   21.50

  -4  -1   4  224.38    6.16

  -4  -1   4  230.59   12.78

  -4  -1   5  234.65    6.27

  -4  -1   5  287.15   15.88

  -4  -1   6    4.90    2.48

  -4  -1   6    4.27    7.16

  -4  -1   7  415.18    7.78

  -4  -1   7  404.92   22.72

  -4  -1   8   29.55   10.13

  -3  -1 -17   93.75   12.05

  -3  -1 -16    1.41    8.35

  -3  -1 -15  107.45   11.05

  -3  -1 -14   10.84    6.31

  -3  -1 -14    9.96    7.71

  -3  -1 -13  154.52   11.49

  -3  -1 -13  174.28   10.62

  -3  -1 -12    0.20    6.93

  -3  -1 -12    0.90    5.89

  -3  -1 -11  225.89   10.67

  -3  -1 -11  216.37   11.47

  -3  -1 -10   13.24    6.69

  -3  -1 -10   10.67    5.51

  -3  -1  -9  385.13   11.76

  -3  -1  -9  399.03   12.44

  -3  -1  -8    3.76    4.56

  -3  -1  -8    4.90    4.71

  -3  -1  -7  569.03   12.28

  -3  -1  -7  551.02   12.01

  -3  -1  -6  392.82    9.48

  -3  -1  -6  360.10    9.57

  -3  -1  -5  641.10    8.32

  -3  -1  -5  612.63   11.22

  -3  -1  -5  583.25   10.23

  -3  -1  -5  600.49    8.33

  -3  -1  -4   32.69    2.70

  -3  -1  -4   30.59    3.20

  -3  -1  -4   29.24    2.43

  -3  -1  -3  432.59    7.16

  -3  -1  -3  432.27    6.90

  -3  -1  -2  191.61    5.17

  -3  -1  -1 1492.90   20.73

  -3  -1   0  245.75    5.40

  -3  -1   1  533.97   13.06

  -3  -1   1  540.74    7.27

  -3  -1   1  533.82    7.17

  -3  -1   2  422.41    7.12

  -3  -1   2  411.48   12.07

  -3  -1   2  430.13    6.28

  -3  -1   3 2832.33   69.30

  -3  -1   3 2821.75   36.75

  -3  -1   4   15.36    2.35

  -3  -1   4    9.79    6.18

  -3  -1   5  437.62    7.02

  -3  -1   5  399.82   18.96

  -3  -1   6   50.02    9.79

  -3  -1   6   55.13    2.92

  -3  -1   7  391.92   22.65

  -3  -1   8   22.08    9.99

  -2  -1 -17    3.34    8.13

  -2  -1 -16   19.98    9.31

  -2  -1 -15   28.83    9.84

  -2  -1 -14   61.90    7.78

  -2  -1 -14   47.89   10.05

  -2  -1 -13  109.66   11.07

  -2  -1 -13  112.75    8.90

  -2  -1 -12    9.91    8.05

  -2  -1 -12    9.79    5.80

  -2  -1 -11  282.31   12.77

  -2  -1 -10  119.30    8.97

  -2  -1  -9   52.88    6.93

  -2  -1  -9   47.95    3.91

  -2  -1  -8   44.62    6.22

  -2  -1  -8   51.57    3.77

  -2  -1  -7  449.33   11.14

  -2  -1  -7  446.75    7.99

  -2  -1  -6   59.01    4.69

  -2  -1  -6   58.12    3.19

  -2  -1  -5    9.66    1.96

  -2  -1  -5   10.86    3.07

  -2  -1  -4  129.73    4.82

  -2  -1  -3   50.53    3.23

  -2  -1  -3   50.63    3.11

  -2  -1  -1  507.93   12.63

  -2  -1   2 2182.52   27.87

  -2  -1   3  788.23   20.39

  -2  -1   4  261.61   14.15

  -2  -1   5  231.38   15.32

  -2  -1   6    4.26    8.19

  -2  -1   7  222.12   17.81

  -2  -1   8   14.83    9.62

  -1  -1 -17  101.83   11.73

  -1  -1 -16   22.03    9.57

  -1  -1 -15  125.62   12.61

  -1  -1 -14   22.77    9.21

  -1  -1 -13  305.89   14.94

  -1  -1 -12   10.22    8.21

  -1  -1 -11  347.97   13.88

  -1  -1 -11  333.90   10.02

  -1  -1 -10   25.23    4.31

  -1  -1 -10   32.75    7.00

  -1  -1  -9   40.29    4.30

  -1  -1  -9   44.70    6.81

  -1  -1  -8    5.70    5.34

  -1  -1  -8    2.83    2.89

  -1  -1  -7 1119.81   13.30

  -1  -1  -7 1101.43   16.65

  -1  -1  -6  205.91    5.60

  -1  -1  -6  205.39    7.14

  -1  -1  -5 1218.08   11.63

  -1  -1  -5 1184.02   14.15

  -1  -1  -4 1117.93   12.34

  -1  -1  -4 1105.12    9.90

  -1  -1  -3 4223.92   81.28

  -1  -1   3   25.00    3.10

  -1  -1   4   33.39    3.57

  -1  -1   5 1083.53   13.15

  -1  -1   6  131.87    6.01

  -1  -1   6  137.65   13.15

  -1  -1   7 1006.15   35.85

  -1  -1   8   73.46   13.51

   0  -1 -17  134.91   13.58

   0  -1 -16    3.60    8.33

   0  -1 -15   23.98    8.41

   0  -1 -14   30.94    8.93

   0  -1 -13  118.52   10.87

   0  -1 -12   62.60    6.14

   0  -1 -12   63.40    8.94

   0  -1 -11   66.01    5.94

   0  -1 -11   54.63    8.61

   0  -1 -10    6.48    4.19

   0  -1 -10   11.44    7.23

   0  -1  -9  105.17    6.08

   0  -1  -9  111.55    8.24

   0  -1  -8  126.95    5.97

   0  -1  -8  113.80    7.33

   0  -1  -7  894.18   12.80

   0  -1  -7  923.54   15.17

   0  -1  -6   98.17    4.66

   0  -1  -6  102.71    5.69

   0  -1  -5 1307.35   13.03

   0  -1  -5 1333.62   14.91

   0  -1  -4    0.48    2.36

   0  -1  -4    2.70    3.25

   0  -1  -3  278.76    5.20

   0  -1  -3  260.24    5.67

   0  -1   3  253.20    5.22

   0  -1   4    1.27    2.90

   0  -1   5 1258.87   14.03

   0  -1   6  104.51    5.45

   0  -1   7  900.90   14.38

   0  -1   7  890.97   33.40

   0  -1   8  116.53    6.86

   0  -1   8  120.31   14.59

   0  -1   9  108.72    7.73

   0  -1  10    5.86    5.82

   1  -1 -17  108.63   11.61

   1  -1 -16   53.50   10.14

   1  -1 -15   52.30   10.37

   1  -1 -14    8.14    8.68

   1  -1 -13  343.49   12.58

   1  -1 -13  332.74   15.21

   1  -1 -12    4.18    5.14

   1  -1 -12    6.46    7.39

   1  -1 -11  472.82   13.00

   1  -1 -11  486.29   15.64

   1  -1 -10  522.33   13.00

   1  -1 -10  539.54   15.23

   1  -1  -9  865.57   15.29

   1  -1  -9  844.76   17.22

   1  -1  -8   67.65    5.40

   1  -1  -8   71.77    6.72

   1  -1  -7 1017.15   14.55

   1  -1  -7 1040.08   15.94

   1  -1  -6  132.95    5.60

   1  -1  -6  126.23    6.32

   1  -1  -5 1162.82   13.23

   1  -1  -5 1118.22   13.71

   1  -1  -4   31.78    3.03

   1  -1  -4   31.11    3.37

   1  -1  -3   24.06    2.88

   1  -1  -3   21.51    2.59

   1  -1  -1 3083.73   28.62

   1  -1   3 4122.11   79.79

   1  -1   4 1128.11   12.12

   1  -1   5 1206.46   13.85

   1  -1   6  215.67    7.16

   1  -1   7 1118.72   16.02

   1  -1   7 1057.39   36.76

   1  -1   8    8.63    4.92

   1  -1   8    1.89    8.20

   1  -1   9   40.87    6.06

   1  -1  10   20.92    6.33

   1  -1  11  292.59   12.11

   2  -1 -17   42.16    9.47

   2  -1 -16  152.89   12.71

   2  -1 -15   95.12   11.03

   2  -1 -15   98.53    9.04

   2  -1 -14    0.87    5.73

   2  -1 -14   -0.37    7.68

   2  -1 -13  109.40    8.62

   2  -1 -13  111.96   10.37

   2  -1 -12   56.67    7.26

   2  -1 -12   46.31    8.50

   2  -1 -11  190.98    9.59

   2  -1 -11  190.65   10.98

   2  -1 -10   92.56    7.27

   2  -1 -10   99.93    8.63

   2  -1  -9  129.69    7.57

   2  -1  -9  128.69    8.14

   2  -1  -8   28.24    5.59

   2  -1  -8   26.65    4.81

   2  -1  -7  227.76    7.95

   2  -1  -7  224.73    8.06

   2  -1  -6    5.91    3.74

   2  -1  -6    4.69    3.30

   2  -1  -5  211.18    6.60

   2  -1  -5  224.54    6.62

   2  -1  -4  289.89    6.86

   2  -1  -4  288.46    6.71

   2  -1  -3  729.77    9.57

   2  -1  -3  758.11    8.92

   2  -1  -2 2250.73   58.08

   2  -1  -1 1219.74   17.89

   2  -1   2  257.42   11.99

   2  -1   3   37.64    7.69

   2  -1   4  138.02   11.95

   2  -1   4  130.40    4.99

   2  -1   5    6.41    7.71

   2  -1   5    8.49    3.06

   2  -1   6   54.39    4.80

   2  -1   6   49.86    9.67

   2  -1   7  422.11   10.51

   2  -1   7  473.54   25.09

   2  -1   8   42.62    5.58

   2  -1   8   47.41   13.05

   2  -1   9   52.27    6.47

   2  -1  10  112.53    8.46

   2  -1  11  281.45   12.06

   2  -1  12    6.77    7.24

   2  -1  13  100.12    9.65

   3  -1 -17  104.32   12.05

   3  -1 -16   86.70   11.13

   3  -1 -15  228.09   12.46

   3  -1 -15  229.36   14.22

   3  -1 -14    2.44    6.34

   3  -1 -14    4.11    8.11

   3  -1 -13   50.45    7.55

   3  -1 -13   53.81    9.09

   3  -1 -12   10.52    6.13

   3  -1 -12    8.73    6.84

   3  -1 -11  143.24    9.47

   3  -1 -11  144.73    9.92

   3  -1 -10   16.22    6.53

   3  -1 -10    7.58    5.64

   3  -1  -9  106.60    7.62

   3  -1  -9  114.47    8.01

   3  -1  -8   14.66    5.31

   3  -1  -8   13.68    4.73

   3  -1  -7  389.98   10.76

   3  -1  -7  377.73   10.04

   3  -1  -6   46.55    4.97

   3  -1  -6   54.29    4.79

   3  -1  -5  425.26    9.55

   3  -1  -5  423.32    8.65

   3  -1  -4   17.56    3.50

   3  -1  -4   17.69    3.02

   3  -1  -3 2799.19   19.89

   3  -1  -3 2809.04   66.29

   3  -1  -2  386.82    7.06

   3  -1  -2  394.22    6.25

   3  -1  -1  519.34    7.09

   3  -1   0  244.22    6.86

   3  -1   1 1450.12   18.17

   3  -1   2  167.09   10.12

   3  -1   3  411.19   16.55

   3  -1   4   29.96    8.18

   3  -1   5  592.34   23.99

   3  -1   5  591.67   10.69

   3  -1   6  395.51   21.82

   3  -1   6  370.84    9.56

   3  -1   7  535.37   27.38

   3  -1   7  526.88   11.92

   3  -1   8    3.75    4.78

   3  -1   9  361.64   12.02

   3  -1  10    9.94    6.29

   3  -1  11  214.15   11.36

   3  -1  12   -0.24    6.78

   3  -1  13  166.79   11.20

   3  -1  14   16.01    8.06

   4  -1 -17   81.76   11.26

   4  -1 -16    8.26    6.72

   4  -1 -16    7.75    8.38

   4  -1 -15   85.45    9.44

   4  -1 -15   89.70   10.84

   4  -1 -14   47.94    8.34

   4  -1 -14   51.71    9.37

   4  -1 -13   58.56    8.25

   4  -1 -13   54.92    8.44

   4  -1 -12    3.98    7.07

   4  -1 -12    4.73    7.02

   4  -1 -11  266.71   12.08

   4  -1 -11  253.88   11.57

   4  -1 -10   62.14    7.84

   4  -1 -10   67.51    7.28

   4  -1  -9  597.06   15.18

   4  -1  -9  595.23   14.43

   4  -1  -8   21.76    5.76

   4  -1  -8   24.69    5.01

   4  -1  -7  424.98   11.66

   4  -1  -7  419.57   10.43

   4  -1  -6    3.43    4.68

   4  -1  -6    2.31    3.20

   4  -1  -5  234.21    7.87

   4  -1  -5  249.35    6.79

   4  -1  -4  216.61    7.22

   4  -1  -4  224.41    5.77

   4  -1  -3 1062.56   10.34

   4  -1  -3 1025.96   13.07

   4  -1  -2  428.99    7.97

   4  -1  -2  401.01    6.63

   4  -1  -1   31.96    2.90

   4  -1  -1   32.30    2.37

   4  -1   0  739.01    8.16

   4  -1   0  733.32    7.96

   4  -1   0  732.03    9.45

   4  -1   1 1297.55   15.65

   4  -1   3 1629.79   31.99

   4  -1   4    0.27    6.47

   4  -1   5  883.56   29.31

   4  -1   5  875.22   13.69

   4  -1   6  184.31    7.79

   4  -1   6  192.26   16.22

   4  -1   7  227.43   19.33

   4  -1   7  217.42    8.93

   4  -1   8   51.47    6.33

   4  -1   9  338.03   11.80

   4  -1  10  118.45    8.99

   4  -1  11   89.87    9.06

   4  -1  12   36.27    8.09

   4  -1  13  117.32   10.56

   4  -1  14   13.64    7.42

   4  -1  15  111.53   10.70

   5  -1 -17   99.83   11.00

   5  -1 -17  111.21   10.72

   5  -1 -16   29.88    8.25

   5  -1 -16   26.76    8.68

   5  -1 -15   85.49   10.10

   5  -1 -15   89.06   10.37

   5  -1 -14    6.24    7.20

   5  -1 -14    7.98    6.90

   5  -1 -13  101.18    9.95

   5  -1 -13  131.01   10.65

   5  -1 -12   62.80    9.19

   5  -1 -12   61.10    8.11

   5  -1 -11   67.38    8.62

   5  -1 -11   82.80    8.03

   5  -1 -10   12.19    7.33

   5  -1 -10    9.68    5.70

   5  -1  -9  443.73   14.38

   5  -1  -9  450.24   12.55

   5  -1  -8   42.34    7.24

   5  -1  -8   44.90    5.35

   5  -1  -7  149.71    8.89

   5  -1  -7  159.67    6.97

   5  -1  -6   71.89    6.31

   5  -1  -6   72.47    4.83

   5  -1  -5  539.57   12.04

   5  -1  -5  546.14    9.62

   5  -1  -4   42.84    4.77

   5  -1  -4   47.50    3.21

   5  -1  -3 1591.31   17.30

   5  -1  -2    1.23    3.02

   5  -1  -2    5.12    1.99

   5  -1  -1  680.77    8.20

   5  -1  -1  661.45    9.62

   5  -1   0   48.21    3.03

   5  -1   0   44.35    2.63

   5  -1   1  238.25    4.54

   5  -1   1  241.04    5.34

   5  -1   2  751.46   14.88

   5  -1   4   49.37    8.23

   5  -1   5  226.62   15.76

   5  -1   6   -1.20    7.91

   5  -1   6    5.18    4.56

   5  -1   7  295.70   21.05

   5  -1   7  284.68   10.12

   5  -1   8   77.36    7.40

   5  -1   9  512.12   14.49

   5  -1  10   10.10    6.83

   5  -1  11  297.13   12.83

   5  -1  12   -2.15    6.69

   5  -1  13   60.51    9.02

   5  -1  14    0.79    7.41

   5  -1  15  107.23   10.68

   6  -1 -16    5.45    7.48

   6  -1 -15  139.31   11.89

   6  -1 -15  140.34   11.42

   6  -1 -14   18.28    7.54

   6  -1 -14   15.55    7.03

   6  -1 -13  157.60   12.27

   6  -1 -13  176.62   11.12

   6  -1 -12   34.93    8.42

   6  -1 -12   33.53    7.21

   6  -1 -11   94.47   10.16

   6  -1 -11   93.42    8.04

   6  -1 -10    3.41    7.52

   6  -1 -10    2.08    5.24

   6  -1  -9  463.40   15.14

   6  -1  -9  470.30   12.79

   6  -1  -8    4.30    7.00

   6  -1  -8    1.49    4.00

   6  -1  -7  263.55   11.14

   6  -1  -7  287.33    8.67

   6  -1  -6  143.66    8.24

   6  -1  -6  155.76    6.11

   6  -1  -5  537.71   12.80

   6  -1  -5  572.16    9.65

   6  -1  -4   27.18    5.01

   6  -1  -3  991.75   14.68

   6  -1  -2  172.70    6.33

   6  -1  -1  667.87   10.38

   6  -1  -1  668.85    8.58

   6  -1   0   22.35    2.70

   6  -1   0   19.14    2.28

   6  -1   1  340.70    5.96

   6  -1   1  331.90    6.42

   6  -1   2  118.31    5.12

   6  -1   5  364.74   19.57

   6  -1   6   36.24    9.58

   6  -1   7  322.56   11.53

   6  -1   7  350.97   22.95

   6  -1   8   -3.19    5.64

   6  -1   9  204.90   10.63

   6  -1  10   23.68    7.18

   6  -1  11  192.70   11.21

   6  -1  12   10.24    7.42

   6  -1  13   12.32    7.96

   6  -1  14    6.44    7.86

   6  -1  15  217.18   13.72

   6  -1  16   10.88    8.15

   7  -1 -16   27.11    9.30

   7  -1 -15   12.89    8.76

   7  -1 -14   31.47    8.72

   7  -1 -13   66.32   10.22

   7  -1 -12  123.89   11.18

   7  -1 -11  117.42   11.21

   7  -1 -10   87.86   10.08

   7  -1  -9  196.94   11.85

   7  -1  -9  207.90    8.90

   7  -1  -8    4.32    7.32

   7  -1  -8    2.04    3.72

   7  -1  -7  206.90   10.68

   7  -1  -6    4.99    6.11

   7  -1  -5   41.35    6.18

   7  -1  -4   12.42    4.95

   7  -1  -3   73.78    5.59

   7  -1  -2  413.69    9.66

   7  -1  -1   47.44    4.01

   7  -1  -1   45.91    2.89

   7  -1   0  352.98    7.62

   7  -1   0  360.57    6.56

   7  -1   1  274.54    5.99

   7  -1   1  279.05    6.10

   7  -1   2   -0.30    2.21

   7  -1   3  466.10   11.99

   7  -1   6   14.68    7.79

   7  -1   7   49.39    6.86

   7  -1   8   42.78    7.41

   7  -1   9   35.32    7.52

   7  -1  10    4.71    7.00

   7  -1  11   62.76    8.96

   7  -1  12  119.92   10.29

   7  -1  13    9.67    7.64

   7  -1  14   -1.63    8.10

   7  -1  15  138.25   12.14

   7  -1  16   10.80    6.99

   8  -1 -15   69.82   10.69

   8  -1 -14    0.37    7.83

   8  -1 -13  251.22   15.28

   8  -1 -12   38.34    9.24

   8  -1 -11  202.57   12.95

   8  -1 -10  112.60   10.53

   8  -1  -9   73.30    9.11

   8  -1  -8   70.58    9.22

   8  -1  -7  260.53   11.87

   8  -1  -6   43.70    7.24

   8  -1  -5  178.99    9.32

   8  -1  -4  169.30    8.36

   8  -1  -3  609.70   13.13

   8  -1  -2  212.32    7.88

   8  -1  -1  602.67   11.36

   8  -1   0    0.91    2.68

   8  -1   7  126.01    9.23

   8  -1   8    0.38    6.74

   8  -1   9  335.64   13.81

   8  -1  10  258.41   13.14

   8  -1  11  277.76   13.74

   8  -1  12   12.58    7.21

   8  -1  13  160.57   12.32

   8  -1  14   39.17    9.02

   8  -1  15   89.94   10.33

   9  -1 -15   39.83    9.39

   9  -1 -14   57.17   11.17

   9  -1 -13  106.77   11.33

   9  -1 -12   20.09    8.73

   9  -1 -11    4.04    8.23

   9  -1 -10  158.66   11.91

   9  -1  -9    3.62    7.53

   9  -1  -8   -0.52    7.73

   9  -1  -7  138.78   10.21

   9  -1  -6   62.05    7.58

   9  -1  -5  278.21   11.24

   9  -1  -4   -1.33    5.14

   9  -1  -3  238.31    9.33

   9  -1  -2   64.41    5.55

   9  -1  -1  221.67    7.80

   9  -1   0   14.20    3.38

   9  -1   8   11.99    6.86

   9  -1   9  123.57   10.09

   9  -1  10   55.01    8.65

   9  -1  11   65.17    9.14

   9  -1  12   25.70    8.53

   9  -1  13   54.11    8.98

   9  -1  14    1.99    7.77

   9  -1  15   18.44    8.10

  10  -1 -14   -0.22    9.35

  10  -1 -13  151.19   12.96

  10  -1 -12   15.04    8.65

  10  -1 -11   94.67   10.85

  10  -1 -10   64.27    9.58

  10  -1  -9  306.40   15.16

  10  -1  -8   -1.28    7.16

  10  -1  -7  341.59   14.04

  10  -1  -6   51.21    7.65

  10  -1  -5  416.38   13.81

  10  -1  -4   24.07    5.88

  10  -1  -3   39.12    5.77

  10  -1  -2    3.97    4.20

  10  -1   8   19.91    7.57

  10  -1   9   50.56    8.47

  10  -1  10   -1.36    7.01

  10  -1  11  112.34   10.92

  10  -1  12    9.50    7.64

  10  -1  13   96.41   10.43

  10  -1  14    3.12    7.96

  11  -1 -13   92.39   11.75

  11  -1 -12   -0.68    8.59

  11  -1 -11   97.48   11.93

  11  -1 -10   41.52    9.76

  11  -1  -9  134.55   11.54

  11  -1  -8   19.24    7.68

  11  -1  -7   87.96    9.31

  11  -1  -6   40.66    7.43

  11  -1  -5  107.54    8.91

  11  -1  -4   49.42    7.00

  11  -1  -3   12.16    5.31

  11  -1   8    5.15    7.47

  11  -1   9    5.18    7.43

  11  -1  10   68.35    9.76

  11  -1  11   89.12    9.96

  11  -1  12    3.55    7.80

  11  -1  13   39.06    8.59

  12  -1 -12   -2.90    7.89

  12  -1 -11   43.15    9.32

  12  -1 -10    5.98    8.90

  12  -1  -9   16.82    8.01

  12  -1  -8   41.66    8.41

  12  -1  -7   34.07    7.94

  12  -1  -6   50.00    8.25

  12  -1  -5  112.85    9.17

  12  -1  -4   94.42    8.26

  12  -1   8   14.83    7.81

  12  -1   9   57.10    9.55

  12  -1  10   22.41    8.00

  12  -1  11   79.61    9.99

  12  -1  12   -0.09    7.72

  13  -1 -11   81.64   10.31

  13  -1 -10   39.16    9.69

  13  -1  -9  113.80   11.51

  13  -1  -8    7.92    7.93

  13  -1  -7   64.27    9.25

  13  -1  -6   48.30    8.03

  13  -1   8    4.65    7.70

  13  -1   9   93.14   10.45

  13  -1  10    4.29    8.06

  13  -1  11   14.93    7.48

  14  -1  -9   97.73   10.71

  14  -1  -8   -1.58    6.91

  14  -1  -7   14.77    7.69

  14  -1   7   23.94    8.96

  14  -1   8    2.33    7.22

  14  -1   9  129.50   12.03

  15  -1   7   52.07    9.22

 -16  -2  -3    1.19    9.33

 -16  -2  -2   18.52   10.27

 -16  -2  -1    3.08    9.93

 -16  -2   0  183.84   14.46

 -16  -2   1    1.49    9.64

 -16  -2   2  106.73   13.20

 -16  -2   3    1.01    8.63

 -16  -2   4   55.40   11.26

 -15  -2  -6   69.95   12.02

 -15  -2  -6   66.66    9.92

 -15  -2  -6   59.00   10.86

 -15  -2  -5    3.13    9.10

 -15  -2  -5    0.74    7.96

 -15  -2  -5    3.43    9.78

 -15  -2  -4  126.30   12.49

 -15  -2  -4  116.85   11.98

 -15  -2  -4  135.09   12.93

 -15  -2  -3    3.13    9.47

 -15  -2  -3    3.61    8.94

 -15  -2  -2   19.44    9.04

 -15  -2  -1    3.42    8.82

 -15  -2   0   46.60   11.23

 -15  -2   1   51.30   11.18

 -15  -2   2   -1.39    9.50

 -15  -2   3   12.92    9.88

 -15  -2   4    3.80    9.16

 -15  -2   5   17.78    9.49

 -15  -2   6   15.16    9.11

 -15  -2   7    5.40    8.30

 -14  -2  -9   -0.18    9.00

 -14  -2  -9   -0.59   10.06

 -14  -2  -8   60.83   11.69

 -14  -2  -8   71.42   11.47

 -14  -2  -7    2.79    8.81

 -14  -2  -7    4.79    7.11

 -14  -2  -7    2.30    9.36

 -14  -2  -6   43.53   10.23

 -14  -2  -6   48.06    9.38

 -14  -2  -6   56.79   10.79

 -14  -2  -5   26.40    9.49

 -14  -2  -5   23.61   10.32

 -14  -2  -5   27.79    8.60

 -14  -2  -4   73.32   10.36

 -14  -2  -4   60.82   10.97

 -14  -2  -4   62.10   11.12

 -14  -2  -3   49.72   10.48

 -14  -2  -3   49.71   10.17

 -14  -2  -3   40.32   10.61

 -14  -2  -2   20.35    8.61

 -14  -2  -2    9.41    8.32

 -14  -2  -2   12.50    8.70

 -14  -2  -1   89.95   11.05

 -14  -2  -1   91.91   10.61

 -14  -2   0   57.34   11.16

 -14  -2   0   62.39   10.00

 -14  -2   1    7.19    8.95

 -14  -2   1    7.57    7.25

 -14  -2   2   78.85   11.03

 -14  -2   2   80.51    9.15

 -14  -2   3   43.09   10.76

 -14  -2   4  231.39   14.82

 -14  -2   5    7.04    8.53

 -14  -2   6  137.40   12.69

 -14  -2   7   35.40    9.37

 -13  -2 -10  105.28   12.53

 -13  -2 -10   95.58   12.35

 -13  -2  -9   27.79   10.26

 -13  -2  -9   23.68   10.24

 -13  -2  -8  139.55   12.77

 -13  -2  -8  120.82   12.83

 -13  -2  -7   60.53   11.41

 -13  -2  -7   58.05    8.56

 -13  -2  -7   46.86   10.98

 -13  -2  -6   30.14    9.38

 -13  -2  -6   31.69    8.02

 -13  -2  -6   29.88    9.58

 -13  -2  -5   16.99    8.05

 -13  -2  -5   16.96    9.67

 -13  -2  -5   16.97    9.88

 -13  -2  -4   43.91    9.60

 -13  -2  -4   47.12    9.78

 -13  -2  -4   50.95   10.80

 -13  -2  -3   92.57   11.20

 -13  -2  -3   85.40   11.02

 -13  -2  -3   95.77   11.37

 -13  -2  -2  161.86   12.71

 -13  -2  -2  146.33   11.48

 -13  -2  -2  135.42   12.49

 -13  -2  -1    2.81    8.50

 -13  -2  -1    0.32    7.51

 -13  -2  -1    0.67    7.98

 -13  -2  -1    1.20    8.58

 -13  -2   0  255.69   13.34

 -13  -2   0  240.06   14.89

 -13  -2   0  242.30   12.69

 -13  -2   1   14.67    8.99

 -13  -2   1   13.13    7.33

 -13  -2   2   50.14   10.21

 -13  -2   2   44.86    8.23

 -13  -2   3   17.99    9.40

 -13  -2   3   13.89    7.23

 -13  -2   4  188.84   13.35

 -13  -2   4  190.68   11.46

 -13  -2   5   -3.01    8.33

 -13  -2   6  102.56   10.75

 -13  -2   7   66.56    9.71

 -12  -2 -12   34.87   10.13

 -12  -2 -11   42.12    9.98

 -12  -2 -11   42.84   10.42

 -12  -2 -10  112.24   12.71

 -12  -2 -10   92.44   12.04

 -12  -2  -9   49.92   10.99

 -12  -2  -9   41.42   10.35

 -12  -2  -8   98.46   12.34

 -12  -2  -8   98.85   12.48

 -12  -2  -7   68.78    8.83

 -12  -2  -7   73.96   10.53

 -12  -2  -7   76.40   11.70

 -12  -2  -6   95.11    9.85

 -12  -2  -6  102.06   11.61

 -12  -2  -6   92.32   11.59

 -12  -2  -5    5.93    7.21

 -12  -2  -5   10.74    9.24

 -12  -2  -5    9.17    9.57

 -12  -2  -4  105.79   10.39

 -12  -2  -4  105.19   10.87

 -12  -2  -4  109.90   11.84

 -12  -2  -3    0.50    7.59

 -12  -2  -3   -1.27    7.69

 -12  -2  -3   -0.06    8.25

 -12  -2  -2  210.82   12.42

 -12  -2  -2  205.67   12.81

 -12  -2  -2  210.73   13.07

 -12  -2  -2  197.03   13.07

 -12  -2  -1   29.58    9.55

 -12  -2  -1   31.89    7.77

 -12  -2  -1   29.43    8.33

 -12  -2  -1   32.07    8.43

 -12  -2   0  395.34   16.40

 -12  -2   0  401.27   14.60

 -12  -2   0  401.51   15.36

 -12  -2   0  411.26   15.72

 -12  -2   1   70.51   10.54

 -12  -2   1   70.41    7.95

 -12  -2   1   64.43    8.50

 -12  -2   2   79.98   10.87

 -12  -2   2   69.75    8.82

 -12  -2   3   28.50    8.64

 -12  -2   3   34.74    7.25

 -12  -2   4  126.78   11.61

 -12  -2   4  132.93    9.95

 -12  -2   5   -1.12    7.82

 -12  -2   5    4.21    6.03

 -12  -2   6  134.52   11.05

 -12  -2   7    1.83    6.89

 -12  -2   8  104.75   10.04

 -11  -2 -13    4.88    7.84

 -11  -2 -13    1.99    8.60

 -11  -2 -12   42.82   10.03

 -11  -2 -12   51.78   10.48

 -11  -2 -11    4.66    8.47

 -11  -2 -11    0.08    9.13

 -11  -2 -10  130.42   12.81

 -11  -2 -10  122.40   13.03

 -11  -2  -9   31.66    9.73

 -11  -2  -9   31.14    9.66

 -11  -2  -8   85.41   11.09

 -11  -2  -8   93.92   11.98

 -11  -2  -7   17.92    9.44

 -11  -2  -7   18.94    9.51

 -11  -2  -7   10.76    6.30

 -11  -2  -6  322.78   13.79

 -11  -2  -6  328.24   16.13

 -11  -2  -6  326.25   15.68

 -11  -2  -5   84.03    8.91

 -11  -2  -5   84.51   10.28

 -11  -2  -5  101.01   11.18

 -11  -2  -4  421.80   15.99

 -11  -2  -4  396.70   15.99

 -11  -2  -4  423.79   16.77

 -11  -2  -3  114.04   10.34

 -11  -2  -3  103.14   10.02

 -11  -2  -3  100.39   10.39

 -11  -2  -3   93.89   10.14

 -11  -2  -2  133.29   10.86

 -11  -2  -2  152.06   11.03

 -11  -2  -2  141.05   10.43

 -11  -2  -2  134.63   10.84

 -11  -2  -1   13.48    7.76

 -11  -2  -1   13.14    6.70

 -11  -2  -1   12.27    7.09

 -11  -2  -1   16.63    8.09

 -11  -2   0  142.75   11.41

 -11  -2   0  140.88    9.46

 -11  -2   0  154.63   10.51

 -11  -2   0  134.07   10.42

 -11  -2   1    6.93    7.78

 -11  -2   1    7.64    5.58

 -11  -2   1    8.92    6.54

 -11  -2   1   11.09    7.13

 -11  -2   2   60.98    9.20

 -11  -2   2   60.08    6.62

 -11  -2   2   61.04    7.82

 -11  -2   3   16.03    8.49

 -11  -2   3   13.61    6.33

 -11  -2   4  142.76   10.82

 -11  -2   5   12.41    7.76

 -11  -2   6  114.85    9.80

 -11  -2   7   35.34    7.43

 -11  -2   8  275.26   12.88

 -10  -2 -14   22.93    8.61

 -10  -2 -14   20.08    8.61

 -10  -2 -13    1.93    7.81

 -10  -2 -13    0.98    8.89

 -10  -2 -12   38.25    9.59

 -10  -2 -12   34.44    9.56

 -10  -2 -11    4.70    8.74

 -10  -2 -11    8.90    9.34

 -10  -2 -10  246.05   14.65

 -10  -2 -10  236.06   15.00

 -10  -2  -9    4.33    8.92

 -10  -2  -9    2.36    9.28

 -10  -2  -8   11.44    9.31

 -10  -2  -8    3.30    8.49

 -10  -2  -7   29.23    6.51

 -10  -2  -7   18.14    8.95

 -10  -2  -7   17.23    8.76

 -10  -2  -6    9.80    6.03

 -10  -2  -6    3.54    8.00

 -10  -2  -6    4.54    8.30

 -10  -2  -5    1.90    6.27

 -10  -2  -5    3.30    7.78

 -10  -2  -5    7.94    7.86

 -10  -2  -4   84.77    8.74

 -10  -2  -4   78.46    9.36

 -10  -2  -4   77.27    9.35

 -10  -2  -3    7.32    7.24

 -10  -2  -3    5.99    7.11

 -10  -2  -3    5.05    7.04

 -10  -2  -3    4.49    7.12

 -10  -2  -2   33.72    7.67

 -10  -2  -2   36.25    7.60

 -10  -2  -2   37.15    7.91

 -10  -2  -2   31.35    7.28

 -10  -2  -1   24.32    7.61

 -10  -2  -1   27.86    6.77

 -10  -2  -1   17.96    6.96

 -10  -2  -1   16.79    6.72

 -10  -2   0   68.40    8.75

 -10  -2   0   74.59    7.40

 -10  -2   0   74.28    8.22

 -10  -2   0   62.21    7.74

 -10  -2   1   43.50    8.47

 -10  -2   1   46.95    7.52

 -10  -2   1   48.37    6.37

 -10  -2   1   45.46    7.06

 -10  -2   2  265.32   12.62

 -10  -2   2  269.07   10.15

 -10  -2   2  272.60   11.48

 -10  -2   3    1.67    6.95

 -10  -2   3    0.17    4.20

 -10  -2   4  311.07   13.06

 -10  -2   5   26.04    7.32

 -10  -2   6    4.04    6.15

 -10  -2   7   55.44    7.51

 -10  -2   8   17.39    6.05

  -9  -2 -14   42.79    9.59

  -9  -2 -13   27.81    9.17

  -9  -2 -13   46.48   10.70

  -9  -2 -12   13.55    8.08

  -9  -2 -12   24.87    9.43

  -9  -2 -11   15.19    8.42

  -9  -2 -11   15.22    8.66

  -9  -2 -10  268.33   14.41

  -9  -2 -10  287.18   15.20

  -9  -2  -9   11.19    8.70

  -9  -2  -9   10.18    8.66

  -9  -2  -8  115.30   11.63

  -9  -2  -8  118.26   10.88

  -9  -2  -7    0.29    7.54

  -9  -2  -7    2.46    5.06

  -9  -2  -7   -0.50    8.13

  -9  -2  -6  163.29    9.30

  -9  -2  -6  160.78   11.66

  -9  -2  -6  174.61   11.89

  -9  -2  -5   28.69    7.90

  -9  -2  -5   30.40    6.41

  -9  -2  -5   28.60    8.18

  -9  -2  -4  329.86   12.26

  -9  -2  -4  349.68   13.54

  -9  -2  -4  366.88   13.64

  -9  -2  -4  348.46   13.73

  -9  -2  -3   76.78    7.94

  -9  -2  -3   72.51    8.61

  -9  -2  -3   72.64    8.21

  -9  -2  -3   71.52    8.26

  -9  -2  -2  321.03   12.45

  -9  -2  -2  315.88   12.33

  -9  -2  -2  314.89   11.98

  -9  -2  -2  325.34   12.38

  -9  -2  -1   11.12    6.27

  -9  -2  -1    8.68    6.02

  -9  -2  -1   13.92    6.41

  -9  -2  -1   14.17    6.15

  -9  -2   0   39.49    6.98

  -9  -2   0   45.62    7.27

  -9  -2   0   43.92    6.81

  -9  -2   0   43.30    6.06

  -9  -2   1  150.98    9.57

  -9  -2   1  156.65    8.13

  -9  -2   1  146.02    8.91

  -9  -2   1  151.16    8.54

  -9  -2   2   99.78    8.81

  -9  -2   2   98.75    6.56

  -9  -2   2  102.15    7.46

  -9  -2   3   56.31    7.76

  -9  -2   3   57.01    5.18

  -9  -2   4  527.18   15.00

  -9  -2   5   30.65    6.89

  -9  -2   6  133.06    9.00

  -9  -2   7   85.81    7.57

  -9  -2   8  327.79   11.91

  -8  -2 -15   40.10    9.79

  -8  -2 -14   85.72   11.06

  -8  -2 -13   32.04    8.26

  -8  -2 -13   44.75   10.22

  -8  -2 -12   19.69    8.00

  -8  -2 -12   24.63    9.55

  -8  -2 -11   25.52    8.31

  -8  -2 -11   26.53    9.28

  -8  -2 -10   80.69   10.42

  -8  -2 -10   79.12    9.72

  -8  -2  -9   25.85    8.07

  -8  -2  -9   28.89    8.87

  -8  -2  -8   74.63    9.97

  -8  -2  -7   12.90    4.81

  -8  -2  -7    7.66    7.91

  -8  -2  -6  177.13    8.83

  -8  -2  -6  196.63   11.43

  -8  -2  -5   41.33    6.04

  -8  -2  -5   44.90    7.95

  -8  -2  -4  148.05    8.49

  -8  -2  -4  139.27    9.38

  -8  -2  -4  158.56    9.60

  -8  -2  -3   84.49    7.43

  -8  -2  -3   80.24    7.65

  -8  -2  -3   91.11    7.78

  -8  -2  -2  463.15   13.11

  -8  -2  -2  456.25   13.17

  -8  -2  -2  474.41   13.45

  -8  -2  -1   31.21    6.38

  -8  -2  -1   37.35    6.56

  -8  -2  -1   39.81    6.29

  -8  -2   0  429.91   12.83

  -8  -2   0  441.97   11.62

  -8  -2   0  435.45   12.50

  -8  -2   0  447.10   12.16

  -8  -2   1    2.52    5.08

  -8  -2   1    0.79    4.15

  -8  -2   1    2.77    4.56

  -8  -2   2  197.55    6.28

  -8  -2   2  188.26    9.48

  -8  -2   2  187.62    7.57

  -8  -2   2  188.53    8.32

  -8  -2   3  358.25   11.93

  -8  -2   3  342.39    9.07

  -8  -2   4  407.51   12.42

  -8  -2   5    3.07    5.14

  -8  -2   6   91.24    7.25

  -8  -2   7    3.61    4.78

  -7  -2 -16   36.87    9.14

  -7  -2 -15   11.51    8.35

  -7  -2 -15    9.48    7.09

  -7  -2 -14  140.37   12.71

  -7  -2 -14  141.03   11.34

  -7  -2 -13    3.20    8.13

  -7  -2 -13    8.65    7.12

  -7  -2 -13    0.41    6.52

  -7  -2 -12  344.14   15.70

  -7  -2 -12  317.35   13.59

  -7  -2 -12  325.86   14.80

  -7  -2 -11   95.20    9.57

  -7  -2 -11  103.27    8.57

  -7  -2 -11   87.95   10.13

  -7  -2 -10  333.44   12.26

  -7  -2 -10  321.35   14.90

  -7  -2  -9   43.22    5.89

  -7  -2  -9   40.79    8.68

  -7  -2  -8  355.43   10.88

  -7  -2  -8  365.90   14.46

  -7  -2  -7   15.35    4.52

  -7  -2  -7   15.39    4.12

  -7  -2  -7   13.73    6.90

  -7  -2  -6  858.71   15.68

  -7  -2  -6  882.01   13.82

  -7  -2  -6  859.38   18.58

  -7  -2  -5  156.85    7.75

  -7  -2  -5  146.51    8.86

  -7  -2  -4  137.64    7.47

  -7  -2  -4  128.51    8.00

  -7  -2  -4  128.46    8.20

  -7  -2  -3  114.71    7.10

  -7  -2  -3  113.67    7.55

  -7  -2  -3  116.49    4.46

  -7  -2  -3  118.82    7.72

  -7  -2  -2  270.53    9.54

  -7  -2  -2  265.88    9.55

  -7  -2  -2  276.53    6.65

  -7  -2  -2  272.21    9.85

  -7  -2  -1  183.68    8.43

  -7  -2  -1  169.18    8.40

  -7  -2  -1  176.30    5.75

  -7  -2  -1  170.28    7.90

  -7  -2   0 1191.93   18.40

  -7  -2   0 1256.39   14.79

  -7  -2   0 1208.56   17.47

  -7  -2   0 1242.09   21.33

  -7  -2   1   -0.17    3.21

  -7  -2   1    1.60    4.19

  -7  -2   1    1.41    1.94

  -7  -2   1    2.52    3.70

  -7  -2   1    4.49    4.12

  -7  -2   2  831.25   15.57

  -7  -2   2  850.23   13.15

  -7  -2   2  826.22   14.07

  -7  -2   3  181.08    8.48

  -7  -2   3  166.85   11.26

  -7  -2   3  176.35    6.17

  -7  -2   4  762.68   14.94

  -7  -2   4  801.13   11.16

  -7  -2   4  798.90   26.20

  -7  -2   5   -0.43    4.64

  -7  -2   5    1.32    6.18

  -7  -2   6  513.08   12.46

  -7  -2   7  110.28    6.73

  -6  -2 -16   57.28    9.34

  -6  -2 -15   12.94    7.68

  -6  -2 -15   13.95    8.09

  -6  -2 -14  107.28   11.02

  -6  -2 -14  115.37   10.79

  -6  -2 -13    3.11    8.08

  -6  -2 -13    4.67    6.81

  -6  -2 -12  287.43   13.21

  -6  -2 -12  273.42   13.92

  -6  -2 -12  270.99   13.11

  -6  -2 -11   50.68    8.60

  -6  -2 -11   60.00    7.90

  -6  -2 -10   67.00    7.35

  -6  -2 -10   67.56    9.40

  -6  -2  -9   74.12    6.83

  -6  -2  -9   62.49    8.46

  -6  -2  -8    3.84    6.64

  -6  -2  -8    9.32    4.77

  -6  -2  -7   61.40    5.02

  -6  -2  -7   58.62    5.31

  -6  -2  -7   53.18    7.72

  -6  -2  -6  701.65   13.13

  -6  -2  -6  692.95   12.53

  -6  -2  -6  735.44   16.29

  -6  -2  -5   66.80    4.40

  -6  -2  -5   74.52    3.80

  -6  -2  -5   69.29    5.51

  -6  -2  -5   60.78    6.23

  -6  -2  -4  479.91   11.18

  -6  -2  -4  461.20   12.06

  -6  -2  -4  474.89    8.45

  -6  -2  -4  478.01    8.15

  -6  -2  -4  460.08   11.82

  -6  -2  -3  106.56    6.38

  -6  -2  -3   91.25    6.04

  -6  -2  -3   96.66    4.12

  -6  -2  -3   97.70    6.36

  -6  -2  -2  585.07   12.07

  -6  -2  -2  585.22   12.40

  -6  -2  -2  601.17    9.19

  -6  -2  -2  585.23   12.22

  -6  -2  -1   71.51    5.41

  -6  -2  -1   73.51    4.03

  -6  -2  -1   72.82    5.32

  -6  -2  -1   78.84    6.84

  -6  -2   0  861.67   14.34

  -6  -2   0  858.55   11.74

  -6  -2   0  854.59   19.39

  -6  -2   0  846.30   13.58

  -6  -2   1  234.70    8.44

  -6  -2   1  234.43    6.91

  -6  -2   1  244.17    7.58

  -6  -2   2  227.46    8.31

  -6  -2   2  210.32   11.72

  -6  -2   2  239.45    7.30

  -6  -2   3   52.77    5.36

  -6  -2   3   42.62    7.13

  -6  -2   3   54.05    3.61

  -6  -2   4    1.90    4.00

  -6  -2   4    1.73    6.14

  -6  -2   4    2.09    1.93

  -6  -2   5  260.26    8.61

  -6  -2   6   30.57    4.43

  -6  -2   6   29.28    7.91

  -6  -2   7  173.69   15.35

  -6  -2   7  159.37    6.90

  -5  -2 -16   88.34   10.66

  -5  -2 -15   13.91    8.43

  -5  -2 -15   18.99    7.68

  -5  -2 -14   26.38    8.59

  -5  -2 -14   29.54    8.13

  -5  -2 -13   80.88    9.54

  -5  -2 -13   75.53    9.38

  -5  -2 -12  110.94    9.80

  -5  -2 -12  115.86   10.40

  -5  -2 -11    4.57    6.44

  -5  -2 -11    7.90    7.16

  -5  -2 -10  123.32    8.72

  -5  -2 -10  136.13    9.84

  -5  -2  -9   -0.90    6.80

  -5  -2  -9    0.55    5.32

  -5  -2  -8  104.85    7.24

  -5  -2  -8   97.40    8.40

  -5  -2  -7    5.78    4.11

  -5  -2  -7    4.31    2.65

  -5  -2  -7    0.06    6.07

  -5  -2  -6  643.47   11.42

  -5  -2  -6  651.56   12.28

  -5  -2  -6  648.34   10.13

  -5  -2  -6  635.33   14.16

  -5  -2  -5    0.67    3.27

  -5  -2  -5   -0.45    4.37

  -5  -2  -5   -0.25    2.20

  -5  -2  -5   -0.25    2.99

  -5  -2  -4  306.36    8.32

  -5  -2  -4  313.00    9.34

  -5  -2  -4  293.95    6.93

  -5  -2  -4  298.00    6.47

  -5  -2  -4  298.78    8.98

  -5  -2  -3    3.68    3.52

  -5  -2  -3    5.35    3.77

  -5  -2  -3    3.23    2.17

  -5  -2  -3    4.66    3.31

  -5  -2  -2  271.76    7.83

  -5  -2  -2  281.92    6.25

  -5  -2  -2  265.90    7.85

  -5  -2  -1  241.05    7.20

  -5  -2  -1  242.63    5.99

  -5  -2  -1  233.99   11.07

  -5  -2   0   97.46    4.54

  -5  -2   0  108.06    7.97

  -5  -2   0   99.90    5.05

  -5  -2   1   18.78    3.95

  -5  -2   1   14.44    3.14

  -5  -2   1   16.60    3.32

  -5  -2   2  362.00    8.92

  -5  -2   2  397.58   15.68

  -5  -2   2  371.42    8.41

  -5  -2   2  363.58    7.75

  -5  -2   3  233.97    7.35

  -5  -2   3  237.38    5.40

  -5  -2   3  232.27   13.52

  -5  -2   4  530.89   10.65

  -5  -2   4  572.03    7.11

  -5  -2   5   11.59    6.30

  -5  -2   5    7.50    3.32

  -5  -2   6  414.40    9.35

  -5  -2   6  434.31   21.77

  -5  -2   7   11.52    3.21

  -5  -2   7    1.48    7.31

  -5  -2   8  436.92   25.72

  -4  -2 -17    4.44    8.02

  -4  -2 -16   87.91   10.94

  -4  -2 -15   65.64    9.13

  -4  -2 -15   66.99   10.00

  -4  -2 -14   32.46    8.68

  -4  -2 -14   29.21    8.30

  -4  -2 -13   20.98    8.25

  -4  -2 -13   10.15    7.58

  -4  -2 -12   62.25    8.85

  -4  -2 -12   56.96    8.77

  -4  -2 -11    5.28    6.54

  -4  -2 -11    3.95    6.59

  -4  -2 -10  225.73   10.86

  -4  -2 -10  221.52    8.33

  -4  -2 -10  239.13   11.37

  -4  -2  -9   33.53    6.40

  -4  -2  -9   26.83    4.14

  -4  -2  -9   30.67    6.78

  -4  -2  -8  399.61   12.47

  -4  -2  -8  406.46   11.87

  -4  -2  -8  415.88    9.63

  -4  -2  -7  154.80    7.37

  -4  -2  -7  161.46    6.07

  -4  -2  -7  166.13    8.35

  -4  -2  -6  432.08   11.38

  -4  -2  -6  437.36   10.14

  -4  -2  -6  435.25    8.57

  -4  -2  -5   40.27    3.63

  -4  -2  -5   40.71    4.07

  -4  -2  -5   39.10    3.24

  -4  -2  -5   38.37    4.53

  -4  -2  -4   62.64    4.07

  -4  -2  -4   64.07    4.88

  -4  -2  -4   58.78    3.88

  -4  -2  -4   64.05    3.54

  -4  -2  -3  277.46    7.10

  -4  -2  -3  240.52    7.47

  -4  -2  -3  265.58    5.94

  -4  -2  -3  284.78    6.04

  -4  -2  -2  698.78   10.81

  -4  -2  -2  680.37    8.98

  -4  -2  -2  681.24   20.00

  -4  -2  -1    9.67    4.82

  -4  -2  -1   10.38    2.52

  -4  -2  -1    9.97    3.18

  -4  -2   0  362.52    7.40

  -4  -2   0  361.75    7.07

  -4  -2   0  392.87   14.02

  -4  -2   1   61.78    3.51

  -4  -2   1   63.27    4.12

  -4  -2   1   59.53    6.99

  -4  -2   2  466.41    9.10

  -4  -2   2  457.67    7.38

  -4  -2   2  453.12   16.83

  -4  -2   2  454.58    8.67

  -4  -2   3   26.81    3.59

  -4  -2   4 1111.52   13.36

  -4  -2   4 1110.79   28.10

  -4  -2   5    7.27    6.82

  -4  -2   5    5.92    2.74

  -4  -2   6  579.59    9.61

  -4  -2   6  616.15   26.10

  -4  -2   7  355.32   21.74

  -4  -2   7  324.05    7.18

  -4  -2   8  163.13   16.66

  -3  -2 -17    7.11    8.19

  -3  -2 -16   72.41   10.36

  -3  -2 -15    0.50    8.21

  -3  -2 -15   -0.32    7.08

  -3  -2 -14  151.18   12.57

  -3  -2 -14  154.09   11.11

  -3  -2 -13   41.87    8.74

  -3  -2 -13   46.18    8.16

  -3  -2 -12  200.24   11.58

  -3  -2 -12  195.70   12.18

  -3  -2 -12  216.16    9.56

  -3  -2 -11   28.99    7.58

  -3  -2 -11   23.40    7.12

  -3  -2 -11   25.50    5.16

  -3  -2 -10  233.50   11.11

  -3  -2 -10  233.95    8.95

  -3  -2  -9   93.33    7.91

  -3  -2  -9   98.08    6.03

  -3  -2  -8  465.29   12.50

  -3  -2  -8  459.80   10.37

  -3  -2  -7  625.70   13.13

  -3  -2  -7  625.02   11.20

  -3  -2  -6  328.53    9.20

  -3  -2  -6  330.41    7.82

  -3  -2  -5  203.66    6.78

  -3  -2  -5  187.51    5.69

  -3  -2  -4    3.11    2.41

  -3  -2  -4    3.22    2.95

  -3  -2  -4    2.75    2.76

  -3  -2  -3   76.10    3.95

  -3  -2  -3   70.03    4.56

  -3  -2  -3   63.28    3.66

  -3  -2  -3   62.37    3.42

  -3  -2  -2 2175.31   16.88

  -3  -2  -2 2139.51   34.68

  -3  -2  -2 2160.47   59.18

  -3  -2  -1  239.83    5.44

  -3  -2  -1  208.21   11.26

  -3  -2  -1  232.95    5.74

  -3  -2   0 3014.64   72.01

  -3  -2   0 2971.21   68.80

  -3  -2   1 1159.36   24.20

  -3  -2   1 1204.67   12.30

  -3  -2   1 1192.56   10.25

  -3  -2   2  944.14   11.15

  -3  -2   2  964.24   24.14

  -3  -2   2  975.13   11.70

  -3  -2   3  521.88    8.44

  -3  -2   3  545.85    9.51

  -3  -2   4  844.92   10.33

  -3  -2   4  862.36   25.35

  -3  -2   5   64.58    3.44

  -3  -2   5   66.17    9.91

  -3  -2   6  712.90   28.15

  -3  -2   7  235.49   18.54

  -3  -2   8  289.00   22.19

  -2  -2 -17   -1.38    8.43

  -2  -2 -16  249.77   15.57

  -2  -2 -15   37.21    8.17

  -2  -2 -15   34.41    9.52

  -2  -2 -14  211.51   12.28

  -2  -2 -14  233.41   14.00

  -2  -2 -13   16.11    8.65

  -2  -2 -12  233.62   12.61

  -2  -2 -11   17.13    7.60

  -2  -2 -10  123.33    9.31

  -2  -2 -10  121.77    6.26

  -2  -2  -9   49.67    6.82

  -2  -2  -9   57.07    4.52

  -2  -2  -8  504.50    9.98

  -2  -2  -8  488.70   12.73

  -2  -2  -7   50.57    5.48

  -2  -2  -6 1844.74   19.83

  -2  -2  -5  341.69    8.38

  -2  -2  -5  353.11    7.65

  -2  -2  -4 2197.40   17.39

  -2  -2  -4 2196.27   18.09

  -2  -2  -4 2245.34   16.80

  -2  -2  -3 1024.02   11.31

  -2  -2  -3 1029.81   11.23

  -2  -2  -3 1011.47   10.63

  -2  -2  -2 4120.02   48.20

  -2  -2  -2 4604.08   82.92

  -2  -2  -1  489.04    6.98

  -2  -2  -1  450.94   15.62

  -2  -2   0 1336.14   11.51

  -2  -2   1 1855.17   13.58

  -2  -2   1 1750.13   29.45

  -2  -2   1 1762.31   53.83

  -2  -2   2  911.38    9.55

  -2  -2   2  880.39   10.59

  -2  -2   3  812.81   10.71

  -2  -2   4  400.13   18.14

  -2  -2   5   73.03    9.90

  -2  -2   6  980.11   33.04

  -2  -2   7   24.91    9.38

  -2  -2   8 1192.69   42.27

  -1  -2 -17   -4.83    9.16

  -1  -2 -16  128.56   13.05

  -1  -2 -15   37.37    9.76

  -1  -2 -14   35.90    9.10

  -1  -2 -13   28.18    9.04

  -1  -2 -12  232.17   12.74

  -1  -2 -11    0.82    7.46

  -1  -2 -11    2.68    4.11

  -1  -2 -10  307.56   12.46

  -1  -2 -10  319.90    9.74

  -1  -2  -9   -1.06    3.53

  -1  -2  -9    5.32    5.68

  -1  -2  -8  179.25    8.71

  -1  -2  -8  184.67    6.83

  -1  -2  -7   92.23    6.23

  -1  -2  -7   92.67    4.94

  -1  -2  -6  120.05    6.16

  -1  -2  -6  126.78    5.13

  -1  -2  -5   68.21    4.80

  -1  -2  -5   67.82    3.94

  -1  -2  -4  328.10    7.55

  -1  -2  -4  335.54    6.66

  -1  -2  -3  296.74    5.50

  -1  -2  -3  310.47    6.63

  -1  -2  -3  300.43    6.16

  -1  -2  -2  487.25    7.02

  -1  -2  -1    2.43    1.91

  -1  -2   0   48.74    3.17

  -1  -2   1  249.18    5.17

  -1  -2   2 3401.97   64.16

  -1  -2   2 3365.43   73.12

  -1  -2   3  763.09    9.34

  -1  -2   3  756.78    9.72

  -1  -2   4  738.55   10.39

  -1  -2   5   15.33    8.74

  -1  -2   5   17.71    3.63

  -1  -2   6   70.69   11.51

  -1  -2   6   58.05    5.06

  -1  -2   7   11.82    8.02

  -1  -2   7    4.74    4.20

  -1  -2   8  165.39   16.96

   0  -2 -17   16.45    8.91

   0  -2 -16  179.28   13.65

   0  -2 -15    2.17    8.05

   0  -2 -14   13.15    9.10

   0  -2 -13    2.98    5.11

   0  -2 -13    2.99    8.29

   0  -2 -12  129.48    8.08

   0  -2 -12  147.06   11.45

   0  -2 -11  104.92    9.61

   0  -2 -11  123.75    7.66

   0  -2 -10  537.74   15.67

   0  -2 -10  541.66   12.78

   0  -2  -9    4.33    4.13

   0  -2  -9    2.30    6.20

   0  -2  -8  582.61   11.75

   0  -2  -8  594.82   13.85

   0  -2  -7  168.68    6.61

   0  -2  -7  167.85    7.79

   0  -2  -6  299.88    8.72

   0  -2  -6  298.47    7.62

   0  -2  -5  194.77    6.76

   0  -2  -5  201.78    6.09

   0  -2  -4 1442.57   14.75

   0  -2  -4 1448.96   13.71

   0  -2  -3  360.05    6.67

   0  -2  -3  366.45    7.35

   0  -2  -2 1335.92   11.38

   0  -2  -1  263.35    5.17

   0  -2   2 1366.74   10.39

   0  -2   2 1368.28   10.89

   0  -2   3  339.39    6.56

   0  -2   3  355.14    6.36

   0  -2   4 1424.11   14.00

   0  -2   5  190.99    6.25

   0  -2   6  287.19    8.13

   0  -2   7  172.90    7.57

   0  -2   7  174.25   16.96

   0  -2   8  564.27   13.06

   0  -2   9    1.72    5.65

   0  -2  10  511.25   14.64

   1  -2 -17    4.13    9.05

   1  -2 -16  173.85   13.97

   1  -2 -15   28.15    9.08

   1  -2 -14   46.53    9.00

   1  -2 -14   50.13    7.09

   1  -2 -13   37.87    6.67

   1  -2 -13   46.94    9.57

   1  -2 -12   34.29    6.30

   1  -2 -12   36.65    8.34

   1  -2 -11   27.88    5.70

   1  -2 -11   21.65    7.52

   1  -2 -10   44.49    5.91

   1  -2 -10   45.24    7.68

   1  -2  -9   49.72    5.56

   1  -2  -9   55.22    7.17

   1  -2  -8  171.53    7.52

   1  -2  -8  174.73    8.73

   1  -2  -7    8.10    3.74

   1  -2  -7    6.04    4.20

   1  -2  -6   61.09    4.71

   1  -2  -6   59.17    5.21

   1  -2  -5   18.66    3.65

   1  -2  -5   18.83    4.12

   1  -2  -4  738.97   10.94

   1  -2  -4  754.90   10.55

   1  -2  -3  838.52   10.20

   1  -2  -3  760.97    9.91

   1  -2  -2 3193.64   41.67

   1  -2  -2 3394.77   73.35

   1  -2  -1  249.52    4.97

   1  -2  -1  232.73   12.12

   1  -2  -1  227.80    4.76

   1  -2   1    2.11    5.34

   1  -2   2  482.20    6.97

   1  -2   3  306.56    6.40

   1  -2   3  293.79    5.17

   1  -2   4  327.66    7.45

   1  -2   5   73.78    4.87

   1  -2   6  125.89    6.03

   1  -2   6  138.50   14.13

   1  -2   7   93.19   13.11

   1  -2   7   90.15    6.13

   1  -2   8  178.90    8.50

   1  -2   9    0.46    6.10

   1  -2  10  316.07   12.23

   1  -2  11    3.34    6.99

   1  -2  12  240.37   12.51

   2  -2 -17   -2.90    8.88

   2  -2 -16   59.83   10.47

   2  -2 -15   25.89    8.69

   2  -2 -15   26.00    7.22

   2  -2 -14   96.34   10.91

   2  -2 -14   84.68    8.61

   2  -2 -13    9.92    5.93

   2  -2 -13    7.46    7.63

   2  -2 -12  343.25   12.78

   2  -2 -12  361.57   15.07

   2  -2 -11  107.68    8.17

   2  -2 -11  113.16   10.01

   2  -2 -10  337.22   11.56

   2  -2 -10  347.56   12.73

   2  -2  -9  453.21   12.32

   2  -2  -9  459.95   13.42

   2  -2  -8 1127.68   17.59

   2  -2  -8 1152.96   18.68

   2  -2  -7   28.69    4.76

   2  -2  -7   30.03    4.71

   2  -2  -6  944.98   14.32

   2  -2  -6  899.31   14.27

   2  -2  -5   71.89    5.06

   2  -2  -5   64.87    4.71

   2  -2  -4  399.51    8.42

   2  -2  -4  386.40    8.11

   2  -2  -3  796.33   10.73

   2  -2  -3  803.45   10.29

   2  -2  -2  859.41   10.13

   2  -2  -2  869.87   10.22

   2  -2  -2  834.39   21.59

   2  -2  -1 1715.86   13.36

   2  -2  -1 1810.32   51.67

   2  -2   0 1285.34   11.36

   2  -2   1  424.65   14.50

   2  -2   3 1015.31   11.71

   2  -2   4 2084.22   42.30

   2  -2   4 2147.82   18.31

   2  -2   5  329.30    8.46

   2  -2   5  328.52   19.66

   2  -2   6 1778.46   19.60

   2  -2   6 1826.11   46.18

   2  -2   7   57.48    5.90

   2  -2   7   60.76   10.95

   2  -2   8  492.52   12.62

   2  -2   9   54.01    7.07

   2  -2  10  110.99    9.16

   2  -2  11   18.27    7.09

   2  -2  12  248.77   12.62

   2  -2  13   26.85    8.61

   3  -2 -17   -2.93    7.24

   3  -2 -16   37.11    7.87

   3  -2 -16   50.12    9.71

   3  -2 -15   -0.76    6.60

   3  -2 -15    0.63    8.50

   3  -2 -14  156.16   11.73

   3  -2 -14  147.22   10.66

   3  -2 -13   17.81    6.94

   3  -2 -13   14.44    8.34

   3  -2 -12  614.78   17.16

   3  -2 -12  613.13   18.22

   3  -2 -11   44.36    7.12

   3  -2 -11   34.86    7.80

   3  -2 -10  104.76    8.36

   3  -2 -10   92.05    8.06

   3  -2  -9   18.35    6.26

   3  -2  -9   14.49    5.99

   3  -2  -8  268.70    9.92

   3  -2  -8  281.22   10.01

   3  -2  -7  199.04    8.37

   3  -2  -7  209.08    8.19

   3  -2  -6  751.11   13.62

   3  -2  -6  750.27   12.98

   3  -2  -5   67.19    4.93

   3  -2  -5   57.05    4.38

   3  -2  -4  833.44   12.43

   3  -2  -4  807.20   11.26

   3  -2  -3  510.26    9.24

   3  -2  -2  939.61   11.31

   3  -2  -2  911.17   10.99

   3  -2  -1 1172.05   11.26

   3  -2  -1 1151.49   11.63

   3  -2  -1 1164.13   22.52

   3  -2   0 2970.72   72.25

   3  -2   0 2925.34   33.79

   3  -2   0 2958.72   63.05

   3  -2   1  236.58   10.84

   3  -2   2 2108.74   32.63

   3  -2   4    9.47    7.81

   3  -2   5  185.38    6.86

   3  -2   5  175.16   14.96

   3  -2   6  315.63    9.24

   3  -2   6  359.45   21.84

   3  -2   7  605.83   13.47

   3  -2   7  681.10   31.31

   3  -2   8  447.56   12.61

   3  -2   9   88.02    8.14

   3  -2  10  230.87   11.26

   3  -2  11   18.08    7.61

   3  -2  12  196.42   11.71

   3  -2  13   38.67    8.59

   3  -2  14  136.56   11.42

   4  -2 -17    4.96    7.67

   4  -2 -16   82.11   10.29

   4  -2 -16   81.92    9.72

   4  -2 -15    0.34    6.91

   4  -2 -15   -1.52    7.78

   4  -2 -14   94.74    9.90

   4  -2 -14   87.34    9.91

   4  -2 -13   57.82    8.47

   4  -2 -13   49.99    8.86

   4  -2 -12  322.24   13.96

   4  -2 -12  356.75   14.59

   4  -2 -11   31.24    7.67

   4  -2 -11   31.03    7.12

   4  -2 -10   59.71    8.12

   4  -2 -10   66.51    7.70

   4  -2  -9   25.84    6.81

   4  -2  -9   26.69    5.85

   4  -2  -8  132.02    8.34

   4  -2  -8  145.00    7.77

   4  -2  -7  308.02   10.42

   4  -2  -7  310.32    9.61

   4  -2  -6  597.79   12.93

   4  -2  -6  574.13   11.51

   4  -2  -5    4.00    4.25

   4  -2  -5    7.37    3.26

   4  -2  -4 1052.54   14.62

   4  -2  -3   25.70    3.75

   4  -2  -2  430.35    8.34

   4  -2  -2  425.26    8.02

   4  -2  -1   57.44    3.50

   4  -2  -1   61.55    3.62

   4  -2  -1   60.77    6.44

   4  -2   0  354.26    6.18

   4  -2   0  362.55    7.11

   4  -2   0  355.55   11.78

   4  -2   1    8.54    2.67

   4  -2   2  683.04   18.41

   4  -2   5   39.59    5.02

   4  -2   5   40.08    9.51

   4  -2   6  413.67   11.11

   4  -2   6  412.03   23.38

   4  -2   7  154.05    8.22

   4  -2   7  158.91   16.71

   4  -2   8  388.65   12.39

   4  -2   9   25.62    6.80

   4  -2  10  217.49   11.43

   4  -2  11    6.63    7.42

   4  -2  12   53.63    9.14

   4  -2  13   15.44    8.17

   4  -2  14   24.14    8.20

   4  -2  15   68.10   10.29

   5  -2 -17   19.01    7.81

   5  -2 -17   18.81    8.09

   5  -2 -16   76.04   10.68

   5  -2 -16   80.35   10.42

   5  -2 -15   39.13    9.00

   5  -2 -15   36.84    8.52

   5  -2 -14   28.24    7.97

   5  -2 -14   33.72    8.52

   5  -2 -13    1.41    7.73

   5  -2 -13    3.31    6.71

   5  -2 -12   58.09    9.06

   5  -2 -12   55.45    8.40

   5  -2 -11   46.56    8.15

   5  -2 -11   44.65    6.98

   5  -2 -10   50.65    8.19

   5  -2 -10   57.00    7.09

   5  -2  -9   -1.28    6.95

   5  -2  -9    0.92    4.91

   5  -2  -8  384.06   12.88

   5  -2  -8  402.40   11.54

   5  -2  -7   12.24    5.64

   5  -2  -7   11.01    4.25

   5  -2  -6  382.76   11.26

   5  -2  -6  406.84    9.89

   5  -2  -5   12.43    4.97

   5  -2  -4  526.70   11.41

   5  -2  -3  224.89    7.31

   5  -2  -2  348.73    8.09

   5  -2  -2  349.33    7.45

   5  -2  -1   16.27    2.85

   5  -2  -1   15.73    2.71

   5  -2   0   99.50    3.90

   5  -2   0   99.32    4.32

   5  -2   0  100.75    6.35

   5  -2   1  235.21    6.21

   5  -2   1  229.68    4.79

   5  -2   2  275.68   11.62

   5  -2   3    6.96    4.85

   5  -2   6  562.77   27.60

   5  -2   6  624.80   13.91

   5  -2   7    2.24    9.51

   5  -2   7    3.49    5.44

   5  -2   8   92.51    8.17

   5  -2   9    2.15    6.43

   5  -2  10  129.31    9.75

   5  -2  11   10.80    7.27

   5  -2  12  106.42   10.07

   5  -2  13   82.20   10.13

   5  -2  14   19.04    8.27

   5  -2  15   12.58    7.67

   5  -2  16   90.73   10.47

   6  -2 -16    7.52    8.08

   6  -2 -15    6.31    7.88

   6  -2 -15    4.06    7.31

   6  -2 -14   63.19    9.33

   6  -2 -14   66.90    9.18

   6  -2 -13   32.49    8.83

   6  -2 -13   18.23    7.26

   6  -2 -12  126.81   11.33

   6  -2 -12  124.14    9.60

   6  -2 -11    0.65    7.89

   6  -2 -11    1.42    6.02

   6  -2 -10  149.92   11.05

   6  -2 -10  152.95    9.10

   6  -2  -9   31.54    7.83

   6  -2  -9   32.18    5.71

   6  -2  -8  538.98   15.92

   6  -2  -8  559.58   13.32

   6  -2  -7  159.98    9.66

   6  -2  -6   28.65    6.42

   6  -2  -5  237.40    9.18

   6  -2  -4    1.68    4.05

   6  -2  -3   51.63    5.03

   6  -2  -2  211.01    6.96

   6  -2  -2  218.52    6.31

   6  -2  -1  220.83    6.46

   6  -2  -1  235.28    6.32

   6  -2   0  829.55   10.72

   6  -2   0  836.35   11.39

   6  -2   1   74.59    4.22

   6  -2   1   72.91    4.90

   6  -2   1   71.39    3.28

   6  -2   3  103.49    8.34

   6  -2   7   66.08    7.69

   6  -2   8    4.19    6.28

   6  -2   9   61.52    7.99

   6  -2  10   57.78    8.55

   6  -2  11   60.08    8.94

   6  -2  12  281.79   14.17

   6  -2  13    9.95    8.45

   6  -2  14  112.00   11.26

   6  -2  15   11.78    8.37

   6  -2  16   53.29   10.09

   7  -2 -16   92.21   10.81

   7  -2 -15    1.89    8.00

   7  -2 -14  268.80   15.43

   7  -2 -13   11.81    9.05

   7  -2 -12  166.57   12.34

   7  -2 -11    7.17    8.30

   7  -2 -11    9.66    5.66

   7  -2 -10   49.66    9.20

   7  -2  -9   22.46    7.81

   7  -2  -8  442.99   15.20

   7  -2  -7  117.34    9.40

   7  -2  -6  486.55   13.92

   7  -2  -5    2.90    5.05

   7  -2  -4  745.49   14.62

   7  -2  -3  168.39    7.33

   7  -2  -2  826.06   13.47

   7  -2  -2  836.13   12.01

   7  -2  -1    0.22    2.95

   7  -2  -1    2.26    2.65

   7  -2   0 1182.49   13.57

   7  -2   0 1192.06   14.10

   7  -2   1  162.62    4.83

   7  -2   1  167.01    5.90

   7  -2   2  269.68    7.50

   7  -2   7   16.56    6.74

   7  -2   8  351.81   13.54

   7  -2   9   36.14    8.17

   7  -2  10  306.59   13.94

   7  -2  11   99.81   10.03

   7  -2  12  321.60   15.05

   7  -2  13    2.49    8.34

   7  -2  14  140.61   12.37

   7  -2  15   18.49    8.66

   7  -2  16   26.13    8.29

   8  -2 -15   40.85    9.36

   8  -2 -14  139.37   12.79

   8  -2 -13   10.36    9.01

   8  -2 -12  139.84   12.54

   8  -2 -11    7.87    8.96

   8  -2 -10   91.95   10.30

   8  -2  -9    3.65    7.57

   8  -2  -8  118.55    9.81

   8  -2  -7   -0.78    6.48

   8  -2  -6  101.57    8.44

   8  -2  -5    5.44    5.33

   8  -2  -4  384.16   11.57

   8  -2  -3  332.87   10.30

   8  -2  -2  186.61    7.58

   8  -2  -2  190.11    6.32

   8  -2  -1    3.42    3.16

   8  -2  -1    1.65    2.46

   8  -2   0  422.14    8.89

   8  -2   0  432.33    8.87

   8  -2   1   36.33    3.80

   8  -2   2  468.47    9.82

   8  -2   3   80.45    5.10

   8  -2   7   12.80    7.13

   8  -2   8   63.81    8.98

   8  -2   9   25.76    8.36

   8  -2  10   73.25    9.43

   8  -2  11   24.32    7.77

   8  -2  12   22.20    8.51

   8  -2  13   32.31    9.33

   8  -2  14   81.05   10.06

   8  -2  15   32.19    8.49

   9  -2 -14   33.44    8.98

   9  -2 -13    3.07    7.88

   9  -2 -12   70.99   10.23

   9  -2 -11   10.38    8.08

   9  -2 -10  342.24   16.04

   9  -2  -9   -0.65    7.33

   9  -2  -8  329.83   14.20

   9  -2  -7   77.99    8.81

   9  -2  -6  135.69    9.46

   9  -2  -5   27.33    6.28

   9  -2  -4  494.51   13.54

   9  -2  -3   51.77    5.95

   9  -2  -2   93.39    6.27

   9  -2  -1  153.37    6.82

   9  -2   8  107.83   10.01

   9  -2   9   14.08    7.53

   9  -2  10  253.04   13.63

   9  -2  11   17.35    8.62

   9  -2  12   12.03    7.93

   9  -2  13   30.06    8.69

   9  -2  14   33.15    9.52

  10  -2 -14   59.61   10.42

  10  -2 -13   17.82    9.22

  10  -2 -12    3.58    8.41

  10  -2 -11   29.27    8.85

  10  -2 -10   44.34    9.95

  10  -2  -9   23.88    8.28

  10  -2  -8   23.17    7.55

  10  -2  -7   57.57    8.44

  10  -2  -6   14.15    6.68

  10  -2  -5   27.96    6.68

  10  -2  -4  309.77   11.74

  10  -2  -3    2.04    4.64

  10  -2  -2  258.76    9.48

  10  -2   8    4.78    7.81

  10  -2   9    4.91    7.42

  10  -2  10  221.58   13.46

  10  -2  11    3.70    8.39

  10  -2  12   24.48    8.63

  10  -2  13    4.95    7.67

  10  -2  14   14.64    8.44

  11  -2 -13   26.58    9.27

  11  -2 -12   20.72    8.50

  11  -2 -11   60.51   10.29

  11  -2 -10  126.11   11.40

  11  -2  -9   86.69   10.43

  11  -2  -8  279.77   14.17

  11  -2  -7   38.35    7.82

  11  -2  -6  114.38    9.82

  11  -2  -5    9.27    6.20

  11  -2  -4  147.45    9.12

  11  -2  -3   16.12    5.15

  11  -2   8   84.04    9.97

  11  -2   9   26.16    8.95

  11  -2  10  114.48   11.44

  11  -2  11    5.13    8.48

  11  -2  12   37.01    8.86

  11  -2  13    0.00    8.07

  12  -2 -12  102.35   11.95

  12  -2 -11    3.32    7.61

  12  -2 -10   98.26   11.70

  12  -2  -9    8.64    8.38

  12  -2  -8  110.58   10.94

  12  -2  -7    4.08    6.76

  12  -2  -6  131.13   10.11

  12  -2  -5    2.04    5.89

  12  -2  -4  136.14    9.24

  12  -2   8  106.01   10.88

  12  -2   9   36.27    9.64

  12  -2  10   70.72   10.03

  12  -2  11   39.03    9.65

  12  -2  12   32.50    8.39

  13  -2 -11   -0.53    7.54

  13  -2 -10   75.53   10.99

  13  -2  -9    7.94    7.97

  13  -2  -8   20.62    7.64

  13  -2  -7   61.76    9.09

  13  -2  -6   85.98    9.34

  13  -2   8  106.07   11.62

  13  -2   9   19.68    7.90

  13  -2  10   94.37   11.01

  14  -2  -9    2.42    7.25

  14  -2  -8   18.34    7.96

  14  -2   7    7.81    7.66

  14  -2   8   46.75    9.31

  14  -2   9    2.81    8.30

  15  -2   7   12.16    7.97

 -16  -3  -2    3.51    8.67

 -16  -3  -1   80.91   11.18

 -16  -3   0    3.57    9.93

 -16  -3   1   74.06   11.57

 -16  -3   2    7.87    9.10

 -15  -3  -6    1.58    9.36

 -15  -3  -6    0.48    8.69

 -15  -3  -5   65.37   11.60

 -15  -3  -5   57.30   11.42

 -15  -3  -5   49.48    9.93

 -15  -3  -4   10.37    8.39

 -15  -3  -4   14.28    8.84

 -15  -3  -4   15.40    9.64

 -15  -3  -3    6.42    8.24

 -15  -3  -3    1.72    8.78

 -15  -3  -3   -0.27    9.66

 -15  -3  -2   17.05    8.27

 -15  -3  -2   20.68    8.99

 -15  -3  -2   12.76    8.51

 -15  -3  -1  102.17   11.64

 -15  -3   0    4.42    7.86

 -15  -3   0   -0.36    9.93

 -15  -3   1   53.08   10.99

 -15  -3   1   58.19   10.03

 -15  -3   2   11.58    8.03

 -15  -3   2   15.82    9.91

 -15  -3   3   38.23   10.74

 -15  -3   4   26.36    9.87

 -15  -3   5   22.97    9.34

 -15  -3   6    3.79    8.42

 -15  -3   7  130.59   12.09

 -14  -3  -8   17.13    8.93

 -14  -3  -8   14.43    9.68

 -14  -3  -7   44.48   10.97

 -14  -3  -7   40.58   11.15

 -14  -3  -6    9.83    9.77

 -14  -3  -6   12.96    8.46

 -14  -3  -6   13.57    9.10

 -14  -3  -5   19.89   10.20

 -14  -3  -5   16.71    8.20

 -14  -3  -5   20.86   10.28

 -14  -3  -4   37.26    9.02

 -14  -3  -4   36.98    9.40

 -14  -3  -4   39.65   10.38

 -14  -3  -3   66.75    9.99

 -14  -3  -3   65.29   11.20

 -14  -3  -3   58.33   10.83

 -14  -3  -2    5.17    9.04

 -14  -3  -2    2.09    7.70

 -14  -3  -2    3.06    8.16

 -14  -3  -1  247.06   15.48

 -14  -3  -1  208.43   13.19

 -14  -3  -1  253.22   15.16

 -14  -3  -1  234.82   14.07

 -14  -3   0   -0.33    6.55

 -14  -3   0   -2.97    7.91

 -14  -3   0    0.09    8.96

 -14  -3   1  118.34   12.87

 -14  -3   1  121.73   11.63

 -14  -3   2   56.65    9.42

 -14  -3   2   52.57   10.95

 -14  -3   3    0.05    7.37

 -14  -3   3   -0.76    8.32

 -14  -3   4    4.90    9.26

 -14  -3   4    2.81    7.40

 -14  -3   5   13.60    9.12

 -14  -3   6   10.17    8.11

 -14  -3   7   97.49   10.64

 -13  -3 -10   -1.63    9.76

 -13  -3 -10   -1.14    9.68

 -13  -3  -9   24.51   10.20

 -13  -3  -9   24.22    9.92

 -13  -3  -8    5.79   10.00

 -13  -3  -8    5.04   10.15

 -13  -3  -7  197.66   14.43

 -13  -3  -7  174.56   14.71

 -13  -3  -6   81.12    9.83

 -13  -3  -6   99.28   12.47

 -13  -3  -6   88.69   12.24

 -13  -3  -5   37.39    8.91

 -13  -3  -5   43.63   10.46

 -13  -3  -5   41.54   10.34

 -13  -3  -4   24.53    9.10

 -13  -3  -4   24.89    9.35

 -13  -3  -4   18.52    8.75

 -13  -3  -3  145.45   12.14

 -13  -3  -3  157.88   12.40

 -13  -3  -3  156.78   13.14

 -13  -3  -2   -2.91    7.45

 -13  -3  -2    0.34    8.68

 -13  -3  -2   -0.80    8.04

 -13  -3  -2   -0.51    8.23

 -13  -3  -1   22.20    9.13

 -13  -3  -1   31.28    8.12

 -13  -3  -1   27.04    8.68

 -13  -3  -1   36.15    9.16

 -13  -3   0    0.17    8.47

 -13  -3   0   -3.91    6.78

 -13  -3   0    0.21    8.02

 -13  -3   0    0.23    7.19

 -13  -3   1  126.11   11.93

 -13  -3   1  150.99   10.45

 -13  -3   1  149.52   11.89

 -13  -3   2    0.77    8.35

 -13  -3   2    2.38    7.40

 -13  -3   3  104.02   11.61

 -13  -3   3  107.58   10.41

 -13  -3   4   -0.54    7.98

 -13  -3   4    3.02    7.33

 -13  -3   5  226.63   13.85

 -13  -3   5  234.88   12.76

 -13  -3   6   84.91   10.70

 -13  -3   7  327.96   15.80

 -12  -3 -11   78.51   11.97

 -12  -3 -11   76.21   12.51

 -12  -3 -10   16.14    9.09

 -12  -3 -10    8.68   10.20

 -12  -3  -9  271.30   16.60

 -12  -3  -9  256.64   16.29

 -12  -3  -8   69.87   11.56

 -12  -3  -8   80.54   12.05

 -12  -3  -7  282.38   15.87

 -12  -3  -7  295.16   16.29

 -12  -3  -6   -0.39    9.16

 -12  -3  -6    0.83    7.09

 -12  -3  -6    0.03    9.20

 -12  -3  -5  150.52   11.55

 -12  -3  -5  155.00   12.95

 -12  -3  -5  150.84   12.46

 -12  -3  -4   14.46    8.55

 -12  -3  -4   15.71    8.39

 -12  -3  -4   12.17    8.40

 -12  -3  -3  371.71   15.86

 -12  -3  -3  381.47   16.70

 -12  -3  -3  392.73   16.56

 -12  -3  -3  389.51   16.88

 -12  -3  -2    8.31    8.70

 -12  -3  -2    9.36    7.60

 -12  -3  -2    7.25    8.02

 -12  -3  -2    6.01    8.06

 -12  -3  -1   14.56    9.02

 -12  -3  -1   25.87    7.66

 -12  -3  -1   13.86    7.95

 -12  -3  -1   17.77    8.07

 -12  -3   0    1.70    8.20

 -12  -3   0    0.49    7.35

 -12  -3   0    3.70    6.72

 -12  -3   0    2.68    8.14

 -12  -3   1   63.40   10.53

 -12  -3   1   77.23    7.90

 -12  -3   1   71.24    9.66

 -12  -3   1   69.03    8.75

 -12  -3   2    1.47    8.78

 -12  -3   2    6.23    7.16

 -12  -3   3  216.93   13.45

 -12  -3   3  227.35   12.59

 -12  -3   4   77.76   10.23

 -12  -3   4   83.44    9.24

 -12  -3   5  249.07   13.60

 -12  -3   6   34.03    8.59

 -12  -3   7  267.91   13.83

 -11  -3 -12   26.85    9.35

 -11  -3 -12   17.14    9.73

 -11  -3 -11   70.94   10.86

 -11  -3 -11   68.48   11.76

 -11  -3 -10   12.07    9.83

 -11  -3 -10   17.67    9.42

 -11  -3  -9  297.04   16.30

 -11  -3  -9  311.07   17.02

 -11  -3  -8   -2.61    8.54

 -11  -3  -8   -1.13    8.61

 -11  -3  -7   20.94    9.21

 -11  -3  -7   24.49    9.47

 -11  -3  -6    7.35    6.64

 -11  -3  -6    9.55    8.75

 -11  -3  -6    7.12    8.42

 -11  -3  -5   15.45    7.30

 -11  -3  -5    8.16    8.81

 -11  -3  -5   18.08    9.05

 -11  -3  -4   71.02    9.10

 -11  -3  -4   73.56    9.73

 -11  -3  -4   85.18   10.79

 -11  -3  -4   81.61   10.47

 -11  -3  -3  349.54   14.77

 -11  -3  -3  354.99   15.17

 -11  -3  -3  357.83   15.21

 -11  -3  -3  386.62   15.74

 -11  -3  -2    5.80    7.58

 -11  -3  -2   -0.69    7.64

 -11  -3  -2   -0.03    8.03

 -11  -3  -2    0.41    7.61

 -11  -3  -1  179.21   12.34

 -11  -3  -1  184.64   10.85

 -11  -3  -1  192.79   12.35

 -11  -3  -1  193.71   11.45

 -11  -3   0   -1.51    6.01

 -11  -3   0    4.32    7.85

 -11  -3   0    1.09    6.55

 -11  -3   0   -0.15    7.41

 -11  -3   1  164.97   12.04

 -11  -3   1  185.43    9.93

 -11  -3   1  170.32   11.41

 -11  -3   1  169.74   10.53

 -11  -3   2   29.22    9.12

 -11  -3   2   28.06    5.91

 -11  -3   2   35.56    8.27

 -11  -3   3  463.71   16.65

 -11  -3   4   48.96    8.94

 -11  -3   5   17.31    7.37

 -11  -3   6    7.91    7.35

 -11  -3   7    4.83    6.58

 -10  -3 -13   64.05   10.36

 -10  -3 -13   53.08   11.08

 -10  -3 -12    6.81    8.16

 -10  -3 -12    9.19   10.05

 -10  -3 -11   50.28   10.27

 -10  -3 -11   44.45   10.17

 -10  -3 -10    4.96    9.28

 -10  -3 -10    4.13    8.30

 -10  -3  -9  213.55   14.47

 -10  -3  -9  208.35   14.14

 -10  -3  -8   -4.78    8.69

 -10  -3  -8   -3.82    9.07

 -10  -3  -7   28.48    9.59

 -10  -3  -7   25.78    9.01

 -10  -3  -6    6.03    8.35

 -10  -3  -6    1.26    6.38

 -10  -3  -6    5.45    8.58

 -10  -3  -5   10.87    6.54

 -10  -3  -5   16.95    8.44

 -10  -3  -5   18.00    8.15

 -10  -3  -4   13.72    7.43

 -10  -3  -4    4.08    8.04

 -10  -3  -4    7.48    8.03

 -10  -3  -4   12.54    7.91

 -10  -3  -3  339.62   14.06

 -10  -3  -3  353.96   14.50

 -10  -3  -3  321.48   13.77

 -10  -3  -3  333.28   13.85

 -10  -3  -2    0.37    7.05

 -10  -3  -2    0.23    6.64

 -10  -3  -2   -0.23    7.04

 -10  -3  -2   -3.05    6.70

 -10  -3  -1   53.05    8.47

 -10  -3  -1   49.43    8.31

 -10  -3  -1   55.69    7.74

 -10  -3  -1   59.55    7.91

 -10  -3   0   24.71    7.82

 -10  -3   0   30.01    6.70

 -10  -3   0   29.07    7.93

 -10  -3   0   27.17    6.73

 -10  -3   1   35.55    8.16

 -10  -3   1   38.65    6.27

 -10  -3   1   39.09    8.18

 -10  -3   1   32.45    6.42

 -10  -3   2   23.87    8.07

 -10  -3   2   28.61    5.53

 -10  -3   2   24.27    5.91

 -10  -3   3  413.45   15.00

 -10  -3   4    0.12    6.81

 -10  -3   5   30.91    7.58

 -10  -3   6   34.58    7.32

 -10  -3   7   80.45    8.34

  -9  -3 -14    5.19    7.87

  -9  -3 -14    5.11    8.77

  -9  -3 -13   17.95    8.79

  -9  -3 -13   13.96    8.64

  -9  -3 -12    0.09    8.30

  -9  -3 -12   -0.19    8.54

  -9  -3 -11   39.32    9.81

  -9  -3 -11   42.02   10.79

  -9  -3 -10   13.02    9.36

  -9  -3 -10   10.38    8.77

  -9  -3  -9   58.44   10.28

  -9  -3  -8   -4.93    8.90

  -9  -3  -7   95.98   10.71

  -9  -3  -6    0.95    5.57

  -9  -3  -6    3.75    8.17

  -9  -3  -5   22.64    6.30

  -9  -3  -5   26.95    8.13

  -9  -3  -5   20.30    7.62

  -9  -3  -4   99.57    8.86

  -9  -3  -4   95.66    9.58

  -9  -3  -4   93.57    9.40

  -9  -3  -3  439.17   14.46

  -9  -3  -3  435.09   14.82

  -9  -3  -3  452.74   14.79

  -9  -3  -2    4.79    6.79

  -9  -3  -2    1.87    6.60

  -9  -3  -2    4.56    6.79

  -9  -3  -1    7.73    6.81

  -9  -3  -1    9.60    6.32

  -9  -3  -1    7.75    6.64

  -9  -3  -1    6.81    3.60

  -9  -3   0   -1.30    6.69

  -9  -3   0    0.92    5.24

  -9  -3   0   -0.66    5.49

  -9  -3   0    1.45    6.96

  -9  -3   1  101.80    8.97

  -9  -3   1   92.86    7.02

  -9  -3   1   97.60    7.35

  -9  -3   2   21.39    7.60

  -9  -3   2   18.26    4.68

  -9  -3   2   22.17    5.50

  -9  -3   3  173.91   10.24

  -9  -3   3  184.10    7.75

  -9  -3   4   -1.73    6.25

  -9  -3   5   51.43    7.30

  -9  -3   6    0.13    5.69

  -9  -3   7   68.29    7.31

  -8  -3 -15   34.59   10.16

  -8  -3 -14   10.04    8.49

  -8  -3 -13  134.10   11.73

  -8  -3 -13  149.96   13.37

  -8  -3 -12   -3.07    8.02

  -8  -3 -12   -0.40    9.19

  -8  -3 -11   90.85   10.46

  -8  -3 -11   78.70   10.54

  -8  -3 -10   33.59    9.76

  -8  -3  -9   58.10   10.05

  -8  -3  -8   29.41    9.11

  -8  -3  -7  263.66   13.33

  -8  -3  -6   40.66    6.13

  -8  -3  -6   43.13    8.55

  -8  -3  -5  247.09   10.29

  -8  -3  -5  255.13   11.94

  -8  -3  -5  242.13   11.64

  -8  -3  -4    4.29    6.46

  -8  -3  -4    6.05    6.89

  -8  -3  -4    4.53    5.38

  -8  -3  -3 1002.71   18.95

  -8  -3  -3  984.59   19.74

  -8  -3  -3  995.03   19.32

  -8  -3  -2   34.23    6.60

  -8  -3  -2   31.35    6.81

  -8  -3  -2   32.81    3.97

  -8  -3  -2   36.47    6.75

  -8  -3  -1  183.01    9.51

  -8  -3  -1  187.67    8.97

  -8  -3  -1  185.03    9.87

  -8  -3  -1  171.47    6.82

  -8  -3   0   15.54    5.81

  -8  -3   0   11.18    3.78

  -8  -3   0    8.70    5.02

  -8  -3   1  630.72   15.61

  -8  -3   1  639.70   13.90

  -8  -3   2   -1.39    6.36

  -8  -3   2   -1.35    3.83

  -8  -3   2   -0.18    4.12

  -8  -3   3  235.15   10.34

  -8  -3   3  235.31    7.81

  -8  -3   4  193.18    9.59

  -8  -3   5  300.11   11.24

  -8  -3   6    0.42    5.06

  -8  -3   7  150.30    8.46

  -7  -3 -15   15.33    9.36

  -7  -3 -14   25.94    9.22

  -7  -3 -14   21.32    7.48

  -7  -3 -13  356.58   15.21

  -7  -3 -13  377.09   16.27

  -7  -3 -13  343.78   16.89

  -7  -3 -12    3.94    6.53

  -7  -3 -12    8.92    8.44

  -7  -3 -11  112.91    8.86

  -7  -3 -11  104.63   10.92

  -7  -3 -10   13.12    8.87

  -7  -3 -10   12.40    5.76

  -7  -3  -9  166.64    8.95

  -7  -3  -9  172.11   12.05

  -7  -3  -8   -0.78    7.65

  -7  -3  -8    3.01    4.50

  -7  -3  -7  313.49   13.29

  -7  -3  -6    0.06    6.48

  -7  -3  -5  385.09   11.53

  -7  -3  -5  404.90   13.24

  -7  -3  -5  383.31   12.86

  -7  -3  -4    5.16    5.83

  -7  -3  -4    7.01    5.91

  -7  -3  -4    6.11    2.86

  -7  -3  -4   11.21    5.37

  -7  -3  -3  387.08   11.57

  -7  -3  -3  378.49   11.95

  -7  -3  -3  405.41    9.04

  -7  -3  -3  394.20   12.17

  -7  -3  -2   19.98    5.31

  -7  -3  -2   30.07    6.06

  -7  -3  -2   29.67    3.80

  -7  -3  -2   29.75    5.34

  -7  -3  -1  331.47   10.91

  -7  -3  -1  328.20    8.64

  -7  -3  -1  340.88   10.34

  -7  -3  -1  349.16   15.77

  -7  -3   0   63.39    6.43

  -7  -3   0   62.46    5.71

  -7  -3   0   62.47    4.90

  -7  -3   0   61.80    7.35

  -7  -3   1  733.07   15.21

  -7  -3   1  756.36   13.32

  -7  -3   1  737.94   13.54

  -7  -3   1  711.49   22.48

  -7  -3   2   64.63    6.75

  -7  -3   2   63.54    5.10

  -7  -3   3  336.39   10.82

  -7  -3   3  300.67   17.19

  -7  -3   3  335.36    8.37

  -7  -3   3  324.57    8.81

  -7  -3   4    1.24    4.76

  -7  -3   4    1.22    6.18

  -7  -3   5  659.18   14.41

  -7  -3   5  693.62   28.85

  -7  -3   6    5.07    4.50

  -7  -3   7  313.45   10.27

  -6  -3 -16   20.86    7.88

  -6  -3 -16   18.92    9.36

  -6  -3 -15    4.36    8.00

  -6  -3 -15   -0.33    8.66

  -6  -3 -14   10.67    7.30

  -6  -3 -14    2.67    8.87

  -6  -3 -13  330.29   15.94

  -6  -3 -13  327.82   14.69

  -6  -3 -12   21.30    8.96

  -6  -3 -12   33.13    7.42

  -6  -3 -11  102.03    9.02

  -6  -3 -11   96.63   10.69

  -6  -3 -10   20.87    8.64

  -6  -3 -10   16.72    6.30

  -6  -3  -9  458.69   13.54

  -6  -3  -9  457.02   15.97

  -6  -3  -8  137.57    7.82

  -6  -3  -8  138.01   10.00

  -6  -3  -7  791.98   15.12

  -6  -3  -7  795.15   18.16

  -6  -3  -6    0.49    2.86

  -6  -3  -6    1.37    3.42

  -6  -3  -6   -0.64    5.62

  -6  -3  -5  606.62   12.87

  -6  -3  -5  602.49   14.50

  -6  -3  -5  600.04   14.44

  -6  -3  -5  585.34   10.76

  -6  -3  -4  100.39    6.47

  -6  -3  -4  104.21    7.54

  -6  -3  -4  113.08    5.22

  -6  -3  -4  108.26    7.34

  -6  -3  -3    2.40    4.17

  -6  -3  -3    0.78    4.36

  -6  -3  -3    7.33    2.98

  -6  -3  -3   -0.48    4.48

  -6  -3  -2   70.26    5.79

  -6  -3  -2   71.80    6.01

  -6  -3  -2   77.20    4.71

  -6  -3  -2   74.04    5.84

  -6  -3  -2   57.00    8.04

  -6  -3  -1  255.02    8.85

  -6  -3  -1  248.18    8.22

  -6  -3  -1  245.66    7.32

  -6  -3  -1  254.86   14.00

  -6  -3   0    1.38    4.94

  -6  -3   0    1.18    4.12

  -6  -3   0    0.97    3.30

  -6  -3   0    0.87    3.41

  -6  -3   1  499.17   11.82

  -6  -3   1  480.00   10.40

  -6  -3   1  502.13   10.33

  -6  -3   2   36.14    5.07

  -6  -3   2   27.00    4.45

  -6  -3   2   32.25    3.85

  -6  -3   3  294.24    9.46

  -6  -3   3  299.39   17.33

  -6  -3   3  300.13    7.63

  -6  -3   4  160.17    7.45

  -6  -3   4  155.58    4.83

  -6  -3   4  135.17   13.36

  -6  -3   5  831.62   14.79

  -6  -3   5  822.99   31.88

  -6  -3   6    4.20    4.03

  -6  -3   7  577.16   12.29

  -5  -3 -16    1.85    8.34

  -5  -3 -16    2.96    8.38

  -5  -3 -15   16.96    8.46

  -5  -3 -15   20.46    8.56

  -5  -3 -14    3.39    7.62

  -5  -3 -14    3.53    7.91

  -5  -3 -13  325.12   14.78

  -5  -3 -13  329.78   15.53

  -5  -3 -12    5.91    8.08

  -5  -3 -12    2.12    6.80

  -5  -3 -11   58.90    8.20

  -5  -3 -11   53.62    9.10

  -5  -3 -10   18.43    7.80

  -5  -3 -10   20.35    6.54

  -5  -3  -9    4.60    5.67

  -5  -3  -9    2.47    7.48

  -5  -3  -8    2.10    6.54

  -5  -3  -8   -0.86    4.95

  -5  -3  -8    1.25    3.38

  -5  -3  -7  131.48    7.09

  -5  -3  -7  122.36    5.96

  -5  -3  -7  133.89    8.73

  -5  -3  -6  191.70    9.17

  -5  -3  -6  189.15    7.50

  -5  -3  -6  194.34    6.75

  -5  -3  -5  160.07    7.86

  -5  -3  -5  172.65    6.18

  -5  -3  -5  162.25    8.22

  -5  -3  -4   81.19    5.59

  -5  -3  -4   66.22    5.98

  -5  -3  -4   68.26    4.39

  -5  -3  -4   65.98    5.82

  -5  -3  -3   63.69    5.27

  -5  -3  -3   51.44    5.35

  -5  -3  -3   59.06    4.15

  -5  -3  -3   54.03    5.07

  -5  -3  -2  118.16    6.08

  -5  -3  -2  124.04   11.18

  -5  -3  -2  135.90    5.43

  -5  -3  -2  127.50    6.23

  -5  -3  -1 1328.65   16.85

  -5  -3  -1 1323.62   15.31

  -5  -3  -1 1329.17   16.02

  -5  -3  -1 1338.84   30.92

  -5  -3   0    5.18    5.73

  -5  -3   0    1.85    2.99

  -5  -3   0    3.02    3.10

  -5  -3   0    4.32    3.06

  -5  -3   1 1501.80   18.12

  -5  -3   1 1526.06   17.15

  -5  -3   1 1490.08   15.52

  -5  -3   2  104.21    5.89

  -5  -3   2   94.35   10.21

  -5  -3   2   87.39    5.44

  -5  -3   2  102.61    4.49

  -5  -3   3   44.61    4.87

  -5  -3   3   46.44    5.20

  -5  -3   3   53.81    9.53

  -5  -3   3   46.00    3.19

  -5  -3   4    1.15    3.54

  -5  -3   4   -0.90    7.20

  -5  -3   5   30.53    4.22

  -5  -3   6   80.88    5.18

  -4  -3 -16    5.61    8.20

  -4  -3 -16    0.93    7.79

  -4  -3 -15   69.25   10.60

  -4  -3 -15   74.02    9.71

  -4  -3 -14   24.49    8.56

  -4  -3 -14   12.51    7.74

  -4  -3 -13  231.56   13.20

  -4  -3 -13  236.89   13.55

  -4  -3 -12    7.24    7.45

  -4  -3 -12    0.15    6.91

  -4  -3 -11  114.85    9.43

  -4  -3 -11  120.55    7.57

  -4  -3 -11  108.33    9.98

  -4  -3 -10    1.12    4.19

  -4  -3 -10   -0.94    7.20

  -4  -3 -10   -0.55    6.12

  -4  -3  -9   11.87    7.05

  -4  -3  -9    8.90    5.57

  -4  -3  -9    8.83    4.08

  -4  -3  -8  116.91    7.89

  -4  -3  -8  122.31    6.48

  -4  -3  -7  143.09    7.41

  -4  -3  -7  131.35    6.27

  -4  -3  -6  217.58    7.98

  -4  -3  -6  213.25    7.12

  -4  -3  -5  162.03    7.40

  -4  -3  -5  145.60    6.29

  -4  -3  -5  152.43    7.09

  -4  -3  -5  158.80    6.09

  -4  -3  -4   46.18    4.81

  -4  -3  -4   42.26    4.87

  -4  -3  -4   43.86    3.89

  -4  -3  -3  192.21   13.83

  -4  -3  -3  229.14    7.60

  -4  -3  -3  201.37    7.58

  -4  -3  -3  205.86    6.23

  -4  -3  -2   55.22    4.67

  -4  -3  -2   58.27    8.49

  -4  -3  -2   50.21    3.87

  -4  -3  -2   53.83    4.41

  -4  -3  -1  658.17   10.54

  -4  -3  -1  636.46   21.90

  -4  -3  -1  701.12   10.78

  -4  -3   0   55.31    4.25

  -4  -3   0   54.61    8.32

  -4  -3   0   52.40    3.67

  -4  -3   1 2122.18   19.52

  -4  -3   1 2120.86   19.09

  -4  -3   1 2133.89   16.24

  -4  -3   2   43.57    4.21

  -4  -3   2   45.33    4.48

  -4  -3   2   50.54    8.57

  -4  -3   2   45.97    2.96

  -4  -3   3   21.17    3.60

  -4  -3   3   16.46    6.87

  -4  -3   3   19.86    3.87

  -4  -3   3   18.61    2.05

  -4  -3   4   -1.90    7.62

  -4  -3   4   -0.11    2.99

  -4  -3   7  454.71   25.35

  -3  -3 -17  117.96   12.17

  -3  -3 -16   24.95    8.54

  -3  -3 -16   38.59    9.17

  -3  -3 -15   87.61   10.10

  -3  -3 -15   86.30   11.54

  -3  -3 -14   12.06    8.01

  -3  -3 -14    7.47    7.87

  -3  -3 -13   49.11    8.73

  -3  -3 -13   58.41    8.88

  -3  -3 -12    4.12    7.27

  -3  -3 -12    4.90    5.11

  -3  -3 -11   44.27    6.24

  -3  -3 -11   47.34    8.05

  -3  -3 -10   62.98    7.94

  -3  -3 -10   71.27    6.45

  -3  -3  -9  441.36   13.51

  -3  -3  -9  452.64   11.80

  -3  -3  -8   63.00    6.75

  -3  -3  -8   68.06    5.59

  -3  -3  -7  857.04   15.72

  -3  -3  -7  847.02   13.96

  -3  -3  -6   17.23    3.82

  -3  -3  -6   16.03    4.55

  -3  -3  -5 1818.59   19.14

  -3  -3  -5 1829.81   19.22

  -3  -3  -5 1820.90   18.07

  -3  -3  -4  263.95    7.57

  -3  -3  -4  293.84    7.36

  -3  -3  -3 1290.47   15.16

  -3  -3  -3 1306.41   14.16

  -3  -3  -3 1320.19   33.61

  -3  -3  -2   21.88    7.15

  -3  -3  -2   20.83    3.31

  -3  -3  -1  186.31    5.70

  -3  -3  -1  193.98    6.00

  -3  -3  -1  187.80   12.48

  -3  -3   0    2.40    2.26

  -3  -3   0    0.86    3.12

  -3  -3   1  717.88   10.86

  -3  -3   1  699.79   22.67

  -3  -3   1  770.02    8.55

  -3  -3   2    5.99    5.80

  -3  -3   2    6.00    3.56

  -3  -3   3   42.24    4.51

  -3  -3   3   37.41    9.26

  -3  -3   4  466.34   10.08

  -3  -3   6    9.63    8.11

  -3  -3   7 1173.52   40.31

  -2  -3 -17  150.78   13.77

  -2  -3 -16    6.66    7.24

  -2  -3 -16   -1.65    8.67

  -2  -3 -15  150.20   11.72

  -2  -3 -15  137.75   12.18

  -2  -3 -14   22.42    9.03

  -2  -3 -14   23.41    6.60

  -2  -3 -13  103.41   11.17

  -2  -3 -13   95.20    8.48

  -2  -3 -12  103.15   10.58

  -2  -3 -12  109.73    8.32

  -2  -3 -11  111.21    9.93

  -2  -3 -11  118.97    8.12

  -2  -3 -10    1.44    6.84

  -2  -3 -10   -0.11    4.87

  -2  -3  -9 1095.81   20.21

  -2  -3  -9 1099.55   18.01

  -2  -3  -8   -0.11    5.44

  -2  -3  -8    1.09    4.15

  -2  -3  -7  177.20    8.18

  -2  -3  -7  197.58    7.63

  -2  -3  -6    1.06    4.12

  -2  -3  -6   -0.41    3.46

  -2  -3  -5  923.06   13.85

  -2  -3  -5  900.60   12.37

  -2  -3  -5  928.53   13.18

  -2  -3  -4  199.67    6.77

  -2  -3  -4  189.74    5.91

  -2  -3  -4  192.41    6.34

  -2  -3  -3 1138.30   12.84

  -2  -3  -3 1184.73   31.92

  -2  -3  -3 1183.39   13.25

  -2  -3  -2   72.50    4.26

  -2  -3  -2   64.79    9.10

  -2  -3  -1 1301.15   11.10

  -2  -3  -1 1301.71   13.18

  -2  -3  -1 1312.63   30.46

  -2  -3   0   99.52    3.45

  -2  -3   0  100.09    4.45

  -2  -3   1 1766.40   12.85

  -2  -3   1 1773.76   35.31

  -2  -3   1 1807.51   16.02

  -2  -3   2  525.57   20.89

  -2  -3   2  541.40    9.40

  -2  -3   3 1600.39   36.83

  -2  -3   3 1685.04   16.75

  -2  -3   4    9.26    3.33

  -2  -3   6   23.14    8.30

  -2  -3   7  114.55   14.50

  -1  -3 -17   81.47   12.30

  -1  -3 -16   36.83    8.31

  -1  -3 -16   37.04   10.27

  -1  -3 -15  283.80   15.76

  -1  -3 -15  297.83   13.74

  -1  -3 -14   17.54    9.33

  -1  -3 -14   17.42    6.82

  -1  -3 -13  137.77   12.02

  -1  -3 -12   -0.65    8.05

  -1  -3 -11  209.54   12.06

  -1  -3 -11  195.04    8.83

  -1  -3 -10    2.98    4.35

  -1  -3 -10    6.16    7.02

  -1  -3  -9 1227.79   18.05

  -1  -3  -9 1242.58   21.53

  -1  -3  -8    2.34    3.71

  -1  -3  -8    2.80    5.63

  -1  -3  -7   20.36    5.19

  -1  -3  -7   19.43    3.88

  -1  -3  -6    8.41    4.43

  -1  -3  -6   11.37    3.93

  -1  -3  -5  435.93    9.97

  -1  -3  -5  425.34    9.31

  -1  -3  -4  656.83   11.15

  -1  -3  -4  687.70    9.03

  -1  -3  -4  660.57   10.74

  -1  -3  -3 1020.89   10.50

  -1  -3  -3 1029.42   12.33

  -1  -3  -2    2.83    2.47

  -1  -3  -2    1.73    2.54

  -1  -3  -1  943.84   10.18

  -1  -3  -1  922.33   10.86

  -1  -3   0   57.86    3.36

  -1  -3   0   59.96    3.99

  -1  -3   1  528.04    7.71

  -1  -3   1  541.84    8.61

  -1  -3   2  145.78    3.99

  -1  -3   2  160.30    5.59

  -1  -3   3 2263.83   16.26

  -1  -3   3 2196.54   18.08

  -1  -3   4    0.58    2.61

  -1  -3   4    1.32    3.37

  -1  -3   5  631.60   10.91

  -1  -3   6   14.19    8.95

  -1  -3   6    8.82    4.03

  -1  -3   7   87.82    6.35

  -1  -3   7   86.45   13.76

  -1  -3   8   10.05    5.49

   0  -3 -17    1.54    8.87

   0  -3 -16   -3.18    7.03

   0  -3 -16    4.51    7.84

   0  -3 -15  167.27   13.59

   0  -3 -14    4.54    8.09

   0  -3 -13    8.04    5.23

   0  -3 -13    8.34    8.46

   0  -3 -12    3.78    5.13

   0  -3 -12   11.27    7.96

   0  -3 -11  102.78    9.84

   0  -3 -11  105.82    7.58

   0  -3 -10   49.77    8.34

   0  -3 -10   48.36    5.92

   0  -3  -9  537.31   14.91

   0  -3  -9  557.28   12.94

   0  -3  -8   58.32    6.88

   0  -3  -8   62.36    5.53

   0  -3  -7    5.22    3.98

   0  -3  -7    8.95    5.27

   0  -3  -6   27.54    4.19

   0  -3  -6   31.57    5.12

   0  -3  -5  163.54    6.90

   0  -3  -5  161.96    6.16

   0  -3  -4   96.19    3.21

   0  -3  -4   93.58    5.03

   0  -3  -4   96.83    4.78

   0  -3  -3  644.53   10.00

   0  -3  -2   60.15    4.01

   0  -3  -1   12.25    2.54

   0  -3   0    0.88    2.93

   0  -3   1   10.43    2.55

   0  -3   2   59.03    3.04

   0  -3   2   53.52    3.65

   0  -3   3  674.08    9.22

   0  -3   3  667.68    9.61

   0  -3   4   88.46    4.74

   0  -3   4   95.59    4.57

   0  -3   5  156.32    6.27

   0  -3   6   20.98    8.66

   0  -3   6   27.65    4.39

   0  -3   7    5.54    8.97

   0  -3   7    6.09    4.26

   0  -3   8   60.05    6.68

   0  -3   9  500.42   13.96

   0  -3  10   47.10    8.09

   1  -3 -17   22.07    9.92

   1  -3 -17   18.11    8.16

   1  -3 -16    9.50    9.21

   1  -3 -15  161.07   12.79

   1  -3 -14   49.66   10.05

   1  -3 -14   56.81    7.66

   1  -3 -13   24.34    6.47

   1  -3 -13   27.70    9.09

   1  -3 -12    2.60    5.77

   1  -3 -12    0.90    8.27

   1  -3 -11  126.40   10.11

   1  -3 -11  130.31    8.58

   1  -3 -10    3.23    5.26

   1  -3 -10    2.33    7.05

   1  -3  -9  215.33   10.54

   1  -3  -9  214.81    9.27

   1  -3  -8   12.12    6.04

   1  -3  -8   10.74    4.55

   1  -3  -7   94.91    7.01

   1  -3  -7   94.33    6.14

   1  -3  -6    5.92    3.77

   1  -3  -6    6.78    4.39

   1  -3  -5  631.02   11.75

   1  -3  -5  681.24   11.72

   1  -3  -4    2.15    3.00

   1  -3  -3 2140.29   42.22

   1  -3  -3 2246.51   18.40

   1  -3  -2  141.44    5.30

   1  -3  -2  171.18   13.30

   1  -3  -1  515.20    8.05

   1  -3  -1  553.19   20.00

   1  -3   0   54.03    3.27

   1  -3   1  846.00   24.35

   1  -3   1  907.69    9.74

   1  -3   2   -0.87    7.34

   1  -3   2    3.84    2.26

   1  -3   2    2.70    2.31

   1  -3   3  996.93   28.88

   1  -3   3  969.87   11.44

   1  -3   3 1004.08   10.86

   1  -3   4  658.83   10.47

   1  -3   4  665.57    9.32

   1  -3   5  436.48    9.54

   1  -3   6    8.83    6.47

   1  -3   6   11.05    4.21

   1  -3   7   21.48    8.42

   1  -3   7   20.63    5.18

   1  -3   8    4.28    5.39

   1  -3   9 1177.99   20.41

   1  -3  10    3.49    6.64

   1  -3  11  189.47   11.24

   1  -3  12    0.36    7.24

   2  -3 -17   75.77   11.65

   2  -3 -16   17.89    9.15

   2  -3 -15  169.42   13.24

   2  -3 -15  158.11   11.14

   2  -3 -14    2.03    6.21

   2  -3 -14   -0.14    7.86

   2  -3 -13  229.78   13.33

   2  -3 -13  247.51   12.01

   2  -3 -12    0.42    5.89

   2  -3 -12   -0.11    7.30

   2  -3 -11  193.27   11.53

   2  -3 -11  196.82   10.40

   2  -3 -10   48.07    7.68

   2  -3 -10   49.60    6.82

   2  -3  -9  185.28   10.05

   2  -3  -9  165.07    8.75

   2  -3  -8   59.09    6.34

   2  -3  -8   62.85    6.65

   2  -3  -7  109.65    6.72

   2  -3  -7  118.54    7.46

   2  -3  -6   23.82    4.81

   2  -3  -6   24.72    4.47

   2  -3  -5 1037.35   14.87

   2  -3  -5 1025.60   14.80

   2  -3  -4    7.42    3.78

   2  -3  -3 1685.17   16.63

   2  -3  -3 1616.23   36.48

   2  -3  -2  536.79    8.85

   2  -3  -2  527.61   20.01

   2  -3  -2  528.72    9.06

   2  -3  -1 1746.54   14.19

   2  -3  -1 1726.92   33.74

   2  -3   0   93.14    3.71

   2  -3   1 1280.60   29.17

   2  -3   1 1224.38   10.66

   2  -3   2   80.56   10.13

   2  -3   2   76.88    3.22

   2  -3   3 1197.84   31.18

   2  -3   3 1155.18   13.40

   2  -3   3 1161.43   10.58

   2  -3   4  189.63    6.48

   2  -3   4  203.35    4.97

   2  -3   5  908.58   13.70

   2  -3   6   -0.17    9.82

   2  -3   6   -1.02    4.11

   2  -3   7  188.44   18.90

   2  -3   7  167.54    8.12

   2  -3   8    1.87    5.65

   2  -3   9 1054.59   19.83

   2  -3  10    0.30    6.66

   2  -3  11  111.81   10.05

   2  -3  12  113.90   10.37

   2  -3  13   97.43   10.22

   3  -3 -17   85.43   10.97

   3  -3 -16    3.64    7.13

   3  -3 -16    1.97    7.71

   3  -3 -15   28.63    7.58

   3  -3 -15   32.11    9.53

   3  -3 -14    7.21    8.46

   3  -3 -14    8.76    7.23

   3  -3 -13  171.58   12.40

   3  -3 -13  172.31   11.20

   3  -3 -12    2.87    6.79

   3  -3 -12    3.62    7.58

   3  -3 -11  190.74   10.74

   3  -3 -11  187.85   11.19

   3  -3 -10   16.57    6.50

   3  -3 -10   24.75    6.72

   3  -3  -9  759.12   16.90

   3  -3  -9  727.28   16.91

   3  -3  -8  158.12    8.71

   3  -3  -8  147.17    8.50

   3  -3  -7 1113.90   18.05

   3  -3  -7 1166.27   18.12

   3  -3  -6    6.01    4.29

   3  -3  -6    7.73    4.32

   3  -3  -5 2101.42   21.74

   3  -3  -4  468.11    9.96

   3  -3  -3   43.32    3.96

   3  -3  -3   42.36    4.38

   3  -3  -2    4.09    6.25

   3  -3  -2    8.18    3.35

   3  -3  -2    7.17    3.39

   3  -3  -1  705.74   10.76

   3  -3  -1  694.04    9.19

   3  -3  -1  738.55   22.28

   3  -3  -1  691.91   10.04

   3  -3   0    1.52    3.17

   3  -3   0    0.42    6.18

   3  -3   0    1.43    2.07

   3  -3   1  170.38    5.91

   3  -3   1  178.27    4.19

   3  -3   2   18.91    6.89

   3  -3   3 1316.24   32.36

   3  -3   4  280.74    8.02

   3  -3   5 1773.03   19.68

   3  -3   6   16.69    4.84

   3  -3   7  829.96   15.89

   3  -3   8   64.07    7.40

   3  -3   9  451.83   14.25

   3  -3  10   66.40    8.80

   3  -3  11   45.94    8.17

   3  -3  12    2.84    7.68

   3  -3  13   55.90    9.39

   3  -3  14    7.69    8.55

   4  -3 -17   22.63    7.54

   4  -3 -16    2.42    7.41

   4  -3 -15   43.70    8.34

   4  -3 -15   49.00   10.23

   4  -3 -14   10.61    7.82

   4  -3 -14   11.68    7.91

   4  -3 -13  212.64   13.04

   4  -3 -13  204.12   12.51

   4  -3 -12    1.08    7.33

   4  -3 -12    5.14    7.04

   4  -3 -11  171.44   10.80

   4  -3 -11  186.52   11.33

   4  -3 -10   -3.15    6.63

   4  -3 -10   -2.55    6.23

   4  -3  -9  108.45    8.73

   4  -3  -9  103.84    7.93

   4  -3  -8    2.73    5.77

   4  -3  -8    3.60    5.16

   4  -3  -7  445.96   12.76

   4  -3  -7  471.25   12.08

   4  -3  -6  366.60   11.09

   4  -3  -5  781.92   14.18

   4  -3  -4    0.41    3.56

   4  -3  -3   21.14    3.78

   4  -3  -3   17.21    3.68

   4  -3  -2   37.46    7.30

   4  -3  -2   40.18    4.03

   4  -3  -2   40.90    4.15

   4  -3  -1 2076.68   18.66

   4  -3  -1 2089.96   36.05

   4  -3  -1 2033.31   17.32

   4  -3   0   49.07    3.33

   4  -3   0   50.14    4.24

   4  -3   0   53.28    7.29

   4  -3   0   51.03    2.95

   4  -3   1  670.60   10.99

   4  -3   1  663.30    7.35

   4  -3   2   45.21    7.59

   4  -3   3  199.27   13.31

   4  -3   5  158.35    7.54

   4  -3   6  198.02    8.90

   4  -3   7  136.62    8.32

   4  -3   8  104.02    8.60

   4  -3   9   10.56    6.90

   4  -3  10   -2.21    7.35

   4  -3  11  110.23   10.24

   4  -3  12    3.38    7.41

   4  -3  13  217.37   13.04

   4  -3  14   13.73    9.01

   4  -3  15   68.43   10.00

   5  -3 -16    1.95    7.26

   5  -3 -15   91.07   10.93

   5  -3 -14   79.85    9.64

   5  -3 -14   71.93    9.76

   5  -3 -13  270.39   13.88

   5  -3 -13  231.33   13.32

   5  -3 -12   15.76    7.40

   5  -3 -12   16.00    7.47

   5  -3 -11  349.84   14.69

   5  -3 -11  379.60   14.26

   5  -3 -10    5.08    6.98

   5  -3 -10    3.95    5.90

   5  -3  -9    6.78    7.18

   5  -3  -9    5.95    5.65

   5  -3  -8   98.26    8.94

   5  -3  -7   88.69    7.85

   5  -3  -6   80.70    7.06

   5  -3  -5   32.46    5.31

   5  -3  -4    0.59    3.88

   5  -3  -3   39.82    4.49

   5  -3  -3   40.95    4.44

   5  -3  -2   93.45    5.14

   5  -3  -2   91.08    5.06

   5  -3  -1 1488.42   16.51

   5  -3  -1 1463.13   29.75

   5  -3  -1 1465.13   15.43

   5  -3   0    1.17    4.65

   5  -3   0    2.78    2.39

   5  -3   0    0.95    2.93

   5  -3   0    3.61    1.86

   5  -3   1 1272.00   15.56

   5  -3   1 1279.61    9.90

   5  -3   2  116.46    9.71

   5  -3   3   60.64    8.53

   5  -3   4   75.88   10.03

   5  -3   6  197.22    9.31

   5  -3   7  118.26    8.61

   5  -3   8    1.00    6.76

   5  -3   9    7.76    7.35

   5  -3  10   27.60    7.99

   5  -3  11   57.03    8.89

   5  -3  12    5.90    7.46

   5  -3  13  336.95   15.51

   5  -3  14    6.74    8.37

   5  -3  15   25.44    9.38

   5  -3  16    2.41    8.12

   6  -3 -16   30.74    8.39

   6  -3 -15  115.59   11.83

   6  -3 -14    3.47    7.57

   6  -3 -13   41.17    8.85

   6  -3 -12   23.22    8.10

   6  -3 -11   90.44   10.34

   6  -3 -10   23.53    7.88

   6  -3  -9    4.89    7.27

   6  -3  -8   15.21    7.16

   6  -3  -7  557.38   15.23

   6  -3  -6    5.74    5.58

   6  -3  -5  754.51   15.38

   6  -3  -4  139.56    7.28

   6  -3  -3  274.12    8.84

   6  -3  -3  281.80    8.36

   6  -3  -2   29.63    4.09

   6  -3  -2   31.29    3.97

   6  -3  -1  554.96   17.64

   6  -3  -1  489.35   10.12

   6  -3  -1  477.13    9.58

   6  -3   0   -0.41    4.08

   6  -3   0   -1.02    3.20

   6  -3   0   -0.04    2.60

   6  -3   0   -0.60    1.81

   6  -3   1  254.42    7.65

   6  -3   1  278.56   12.48

   6  -3   1  245.28    5.91

   6  -3   2   66.32    4.91

   6  -3   3    3.38    4.93

   6  -3   4  125.24   11.57

   6  -3   5  592.45   25.20

   6  -3   6    0.73    6.00

   6  -3   7  791.66   18.06

   6  -3   8  129.50   10.03

   6  -3   9  443.68   15.37

   6  -3  10   20.83    7.60

   6  -3  11   90.58    9.96

   6  -3  12   20.79    8.93

   6  -3  13  313.93   15.74

   6  -3  14    9.90    8.77

   6  -3  15   -1.17    8.34

   6  -3  16   19.14    8.22

   7  -3 -15   99.57   11.11

   7  -3 -14   -0.64    8.73

   7  -3 -13   14.94    8.97

   7  -3 -12   29.89    9.03

   7  -3 -11   89.31   10.15

   7  -3 -10    2.68    7.99

   7  -3  -9  185.39   11.85

   7  -3  -8   -2.41    7.40

   7  -3  -7  302.73   12.41

   7  -3  -6    4.03    6.09

   7  -3  -5  619.66   14.68

   7  -3  -4    3.19    4.90

   7  -3  -3  326.61    9.81

   7  -3  -3  313.21    9.04

   7  -3  -2   55.09    5.03

   7  -3  -2   58.96    4.79

   7  -3  -1  687.72   11.91

   7  -3  -1  687.06   12.31

   7  -3   0   57.73    4.67

   7  -3   0   61.63    4.11

   7  -3   1  316.21    8.83

   7  -3   1  317.79    7.00

   7  -3   2   35.01    4.43

   7  -3   3  386.53   10.24

   7  -3   7  316.83   13.04

   7  -3   8    3.81    7.06

   7  -3   9  157.24   10.99

   7  -3  10    8.94    7.97

   7  -3  11   90.34   10.03

   7  -3  12    6.28    7.78

   7  -3  13  355.14   16.60

   7  -3  14   14.90    8.59

   7  -3  15   14.77    8.81

   8  -3 -15  181.93   14.14

   8  -3 -14    3.08    8.74

   8  -3 -13   50.26   10.47

   8  -3 -12    0.05    8.79

   8  -3 -11  252.61   14.11

   8  -3 -10    5.29    8.28

   8  -3  -9  475.42   17.03

   8  -3  -8   34.05    8.19

   8  -3  -7  149.13   10.03

   8  -3  -6    1.61    5.97

   8  -3  -5  272.05   10.92

   8  -3  -4  190.92    8.85

   8  -3  -3  227.66    8.94

   8  -3  -2   -0.46    3.89

   8  -3  -2   -0.12    3.33

   8  -3  -1  612.00   11.90

   8  -3  -1  630.32   12.11

   8  -3   0   15.38    3.30

   8  -3   0   15.49    3.68

   8  -3   1  181.89    7.21

   8  -3   2   28.94    4.36

   8  -3   3  990.58   16.32

   8  -3   7  256.35   12.63

   8  -3   8   22.22    7.82

   8  -3   9   49.38    8.66

   8  -3  10   21.94    8.86

   8  -3  11   85.42   10.27

   8  -3  12    0.97    8.18

   8  -3  13  123.62   12.21

   8  -3  14    8.48    8.88

   8  -3  15   28.55    9.28

   9  -3 -14   -2.12    8.62

   9  -3 -13    4.43    8.27

   9  -3 -12    9.94    8.28

   9  -3 -11  183.23   13.54

   9  -3 -10   29.83    8.82

   9  -3  -9  239.48   13.23

   9  -3  -8   10.52    7.60

   9  -3  -7   65.02    8.54

   9  -3  -6   -2.25    6.40

   9  -3  -5   48.23    6.85

   9  -3  -4    1.82    5.25

   9  -3  -3  178.18    8.56

   9  -3  -2   21.30    4.56

   9  -3  -1   94.60    5.77

   9  -3   3  451.53   11.56

   9  -3   4  105.23    6.70

   9  -3   5   22.50    4.97

   9  -3   7   95.59    9.79

   9  -3   8   -0.11    7.32

   9  -3   9   64.98    9.86

   9  -3  10   11.15    7.95

   9  -3  11   33.59    9.57

   9  -3  12    7.99    7.64

   9  -3  13   15.26    8.03

   9  -3  14    2.14    8.48

  10  -3 -13    6.83    9.04

  10  -3 -12    2.92    8.38

  10  -3 -11  101.60   11.56

  10  -3 -10   20.35    8.09

  10  -3  -9   63.12    9.26

  10  -3  -8    0.94    7.30

  10  -3  -7   80.40    8.94

  10  -3  -6   26.28    7.02

  10  -3  -5   37.27    6.75

  10  -3  -4   -1.90    5.14

  10  -3  -3  396.74   12.26

  10  -3  -2   21.91    4.73

  10  -3   7   27.47    8.73

  10  -3   8   -2.93    7.45

  10  -3   9  201.14   13.33

  10  -3  10   -1.45    7.80

  10  -3  11   50.98   10.17

  10  -3  12    3.14    7.77

  10  -3  13   49.88    9.45

  11  -3 -12    3.05    8.04

  11  -3 -11  124.32   12.29

  11  -3 -10    3.64    8.17

  11  -3  -9    4.36    8.10

  11  -3  -8   92.34   10.25

  11  -3  -7   -0.97    6.91

  11  -3  -6    4.63    6.44

  11  -3  -5   14.30    6.29

  11  -3  -4   41.54    6.68

  11  -3  -3  461.75   13.56

  11  -3   8    1.13    8.39

  11  -3   9  266.15   14.68

  11  -3  10   18.03    9.07

  11  -3  11   59.64    9.58

  11  -3  12   29.63    9.16

  12  -3 -11   74.85   10.35

  12  -3 -10    3.68    7.72

  12  -3  -9  113.60   11.09

  12  -3  -8    8.85    7.87

  12  -3  -7  252.43   13.37

  12  -3  -6   39.70    7.36

  12  -3  -5  238.80   11.82

  12  -3   7  256.64   14.73

  12  -3   8   64.58   10.58

  12  -3   9  196.93   13.56

  12  -3  10    0.46    8.70

  12  -3  11   71.40   10.78

  13  -3 -10    4.32    7.82

  13  -3  -9   60.85    9.40

  13  -3  -8    7.01    7.52

  13  -3  -7  323.85   15.06

  13  -3   7  162.60   13.01

  13  -3   8    1.20    7.30

  13  -3   9   17.44    9.06

  13  -3  10    0.94    7.94

  14  -3  -9    4.55    6.68

  14  -3   7   35.50    9.97

  14  -3   8    6.92    8.14

 -16  -4   1   14.01    8.24

 -15  -4  -5    6.32    9.28

 -15  -4  -5    6.47    8.54

 -15  -4  -4   14.75    8.57

 -15  -4  -4   19.79    8.84

 -15  -4  -3    0.54    7.64

 -15  -4  -3    4.02    8.31

 -15  -4  -2   37.07    9.66

 -15  -4  -2   37.55    8.81

 -15  -4  -2   50.61   10.25

 -15  -4  -1   29.41    7.84

 -15  -4  -1   28.46    9.99

 -15  -4  -1   25.35    9.05

 -15  -4   0   82.35   10.82

 -15  -4   0   70.20   11.89

 -15  -4   1   -1.30    9.40

 -15  -4   1    4.20    7.92

 -15  -4   2    5.46    9.27

 -15  -4   2   12.88    8.00

 -15  -4   3   -3.60    9.15

 -15  -4   3    0.68    7.64

 -15  -4   4   42.56   10.49

 -15  -4   4   35.91    8.74

 -15  -4   5   22.12    9.48

 -14  -4  -7    4.61    9.62

 -14  -4  -7    3.77    9.08

 -14  -4  -6  258.28   16.33

 -14  -4  -6  232.32   15.83

 -14  -4  -5    0.32    9.38

 -14  -4  -5    1.14    9.08

 -14  -4  -4   28.73    8.99

 -14  -4  -4   25.51    9.98

 -14  -4  -3   24.65    9.15

 -14  -4  -3   28.28    9.65

 -14  -4  -3   28.65    8.85

 -14  -4  -2   69.37   11.32

 -14  -4  -2   80.98   10.28

 -14  -4  -2   89.72   11.41

 -14  -4  -2   82.39   11.16

 -14  -4  -1   22.52    8.44

 -14  -4  -1   11.23    8.68

 -14  -4  -1   11.47    9.70

 -14  -4  -1   16.54    8.40

 -14  -4   0  104.57   11.64

 -14  -4   0  103.01   11.73

 -14  -4   1    0.61    8.84

 -14  -4   1    3.17    8.07

 -14  -4   2  102.33   11.69

 -14  -4   2   95.07   11.34

 -14  -4   3   -3.62    8.79

 -14  -4   3   -0.97    8.37

 -14  -4   4    2.29    8.21

 -14  -4   4    3.60    8.21

 -14  -4   5    3.77    7.92

 -14  -4   5   -0.50    7.20

 -14  -4   6  158.56   13.16

 -13  -4  -9    8.23    9.70

 -13  -4  -9   10.08    9.42

 -13  -4  -8   34.49   10.70

 -13  -4  -8   27.56   10.08

 -13  -4  -7  213.01   15.30

 -13  -4  -7  225.35   15.79

 -13  -4  -6   41.36   10.69

 -13  -4  -6   45.39   10.09

 -13  -4  -5  134.44   12.95

 -13  -4  -5  115.78   12.78

 -13  -4  -4   39.66   10.10

 -13  -4  -4   30.67    9.09

 -13  -4  -4   30.47   10.21

 -13  -4  -3   17.69    9.49

 -13  -4  -3   22.60    9.07

 -13  -4  -3   18.72    9.32

 -13  -4  -3   19.67    8.88

 -13  -4  -2    8.24    8.87

 -13  -4  -2   15.51    8.40

 -13  -4  -2   16.69    9.52

 -13  -4  -2    6.43    8.42

 -13  -4  -1    7.97    9.48

 -13  -4  -1   17.02    7.44

 -13  -4  -1    6.09    7.57

 -13  -4  -1   16.94    9.45

 -13  -4   0  160.33   13.05

 -13  -4   0  149.50   10.66

 -13  -4   0  150.26   12.95

 -13  -4   0  151.06   11.61

 -13  -4   1    0.33    8.00

 -13  -4   1    8.75    9.41

 -13  -4   2  350.22   17.27

 -13  -4   2  362.05   16.70

 -13  -4   3   24.68    8.98

 -13  -4   3   32.47    8.72

 -13  -4   4   65.05   10.53

 -13  -4   4   67.55    9.88

 -13  -4   5  109.87   10.72

 -13  -4   5   89.58   10.81

 -13  -4   6   97.63   10.84

 -12  -4 -11    8.03    9.61

 -12  -4 -11    6.08    9.35

 -12  -4 -10   91.04   12.05

 -12  -4 -10   92.30   12.76

 -12  -4  -9   46.50   11.31

 -12  -4  -9   53.48   10.59

 -12  -4  -8   93.03   12.36

 -12  -4  -8   89.81   12.36

 -12  -4  -7    2.47    9.54

 -12  -4  -7   -2.14    9.10

 -12  -4  -6   24.74    9.63

 -12  -4  -6   22.75    9.84

 -12  -4  -5   17.49    8.75

 -12  -4  -5   14.26    8.77

 -12  -4  -4  423.29   17.17

 -12  -4  -4  465.96   18.24

 -12  -4  -4  435.63   18.26

 -12  -4  -4  435.79   17.77

 -12  -4  -3   79.74   10.42

 -12  -4  -3   79.45   10.10

 -12  -4  -3   69.64   10.45

 -12  -4  -3   73.60   10.33

 -12  -4  -2   80.99   10.61

 -12  -4  -2  111.55   10.35

 -12  -4  -2   91.75   11.05

 -12  -4  -2  115.29   11.04

 -12  -4  -1   34.92    9.59

 -12  -4  -1   36.97    8.22

 -12  -4  -1   37.63    9.28

 -12  -4  -1   41.78    8.13

 -12  -4   0   44.75    7.84

 -12  -4   0   59.68    9.70

 -12  -4   0   46.11    9.41

 -12  -4   0   59.52    8.65

 -12  -4   1    7.20    5.93

 -12  -4   1    4.08    7.93

 -12  -4   1    4.16    9.14

 -12  -4   1    9.27    6.79

 -12  -4   2   45.18   10.12

 -12  -4   2   41.05    8.89

 -12  -4   3   17.40    8.31

 -12  -4   3   19.21    8.46

 -12  -4   4   69.59    9.86

 -12  -4   5  115.99   10.79

 -12  -4   6   20.79    8.42

 -12  -4   7   43.63    8.35

 -11  -4 -12    0.65    8.87

 -11  -4 -12   11.28    9.10

 -11  -4 -11   13.19    9.33

 -11  -4 -11    1.00    9.97

 -11  -4 -10  105.68   11.97

 -11  -4 -10  110.30   12.64

 -11  -4  -9   18.31   10.09

 -11  -4  -9   15.92   10.21

 -11  -4  -8  127.62   12.85

 -11  -4  -8  133.45   12.54

 -11  -4  -7    0.65    9.25

 -11  -4  -7    5.13    9.07

 -11  -4  -6    2.47    8.30

 -11  -4  -6    9.18    8.81

 -11  -4  -5   13.58    8.48

 -11  -4  -5   16.56    9.08

 -11  -4  -5   18.36    9.37

 -11  -4  -4  248.31   13.16

 -11  -4  -4  243.34   13.63

 -11  -4  -4  262.80   14.35

 -11  -4  -4  258.36   14.37

 -11  -4  -3    8.64    8.07

 -11  -4  -3    8.12    8.07

 -11  -4  -3   13.50    8.40

 -11  -4  -3   10.20    7.82

 -11  -4  -2  240.80   13.24

 -11  -4  -2  257.80   13.10

 -11  -4  -2  259.89   14.09

 -11  -4  -2  250.98   13.00

 -11  -4  -1   15.13    7.22

 -11  -4  -1   16.09    8.73

 -11  -4  -1   20.60    8.18

 -11  -4  -1   16.89    7.21

 -11  -4   0   77.00    9.99

 -11  -4   0   81.24    8.45

 -11  -4   0   82.38   10.14

 -11  -4   0   89.43    8.75

 -11  -4   1   -0.33    7.89

 -11  -4   1   -0.21    5.52

 -11  -4   1   -0.18    7.72

 -11  -4   1    2.49    6.09

 -11  -4   2   90.20   10.29

 -11  -4   2   93.58    8.13

 -11  -4   3    5.87    8.30

 -11  -4   4  253.12   13.36

 -11  -4   5    8.13    7.70

 -11  -4   6   21.09    7.44

 -11  -4   7    5.34    6.46

 -10  -4 -13   55.46   10.39

 -10  -4 -13   49.70   11.14

 -10  -4 -12   11.41    9.55

 -10  -4 -12    9.76   10.03

 -10  -4 -11    7.94    9.28

 -10  -4 -11   14.85    9.62

 -10  -4 -10  179.84   14.27

 -10  -4 -10  170.23   14.11

 -10  -4  -9   18.77    9.51

 -10  -4  -8  204.58   13.90

 -10  -4  -7    0.25    8.32

 -10  -4  -6  118.05   11.14

 -10  -4  -5   16.86    8.82

 -10  -4  -5   22.87    8.54

 -10  -4  -4   55.93    9.75

 -10  -4  -4   43.57    7.94

 -10  -4  -4   50.93    8.77

 -10  -4  -3   -0.90    7.08

 -10  -4  -3    0.88    8.15

 -10  -4  -3    2.12    7.51

 -10  -4  -2  281.74   13.42

 -10  -4  -2  271.35   12.72

 -10  -4  -2  255.57   13.33

 -10  -4  -1    2.28    7.70

 -10  -4  -1   -0.80    7.70

 -10  -4  -1    3.91    6.49

 -10  -4   0   20.86    7.99

 -10  -4   0   31.65    6.80

 -10  -4   0   22.51    8.64

 -10  -4   0   30.50    6.61

 -10  -4   1  195.87   12.11

 -10  -4   1  183.29    9.47

 -10  -4   1  183.60    9.74

 -10  -4   2  192.61   12.01

 -10  -4   2  212.00    9.54

 -10  -4   2  193.02    9.53

 -10  -4   3   11.55    7.38

 -10  -4   4  265.99   12.79

 -10  -4   5    9.67    6.86

 -10  -4   6  204.35   11.30

 -10  -4   7   11.19    6.38

  -9  -4 -14  115.24   12.10

  -9  -4 -14  111.13   12.72

  -9  -4 -13   22.56    9.38

  -9  -4 -13   16.31    9.11

  -9  -4 -12   59.22   10.05

  -9  -4 -12   76.33   11.13

  -9  -4 -11    7.46    9.72

  -9  -4 -10   89.77   11.08

  -9  -4  -9    7.34    8.66

  -9  -4  -8   91.57   11.05

  -9  -4  -7   17.04    8.46

  -9  -4  -6  191.08   12.30

  -9  -4  -5    5.98    7.81

  -9  -4  -5    7.04    7.85

  -9  -4  -4   91.93    9.05

  -9  -4  -4   84.63    9.54

  -9  -4  -4   86.06    9.13

  -9  -4  -3   62.23    8.66

  -9  -4  -3   62.45    9.28

  -9  -4  -3   63.43    8.52

  -9  -4  -2  306.70   12.83

  -9  -4  -2  319.76   13.61

  -9  -4  -2  331.96    9.92

  -9  -4  -2  319.84   12.52

  -9  -4  -1   57.44    8.17

  -9  -4  -1   46.13    8.24

  -9  -4  -1   42.91    5.15

  -9  -4  -1   44.07    6.72

  -9  -4   0   83.76    8.95

  -9  -4   0   89.07    6.29

  -9  -4   0   87.01    7.68

  -9  -4   1    3.01    6.80

  -9  -4   1    3.51    4.89

  -9  -4   2  347.44   13.53

  -9  -4   2  347.13   10.90

  -9  -4   2  361.30   11.37

  -9  -4   3  111.72    9.63

  -9  -4   4   66.96    8.27

  -9  -4   5    7.82    6.42

  -9  -4   6  131.09    9.31

  -8  -4 -14   17.39    8.89

  -8  -4 -14   14.91    8.79

  -8  -4 -13    0.41    8.38

  -8  -4 -13    6.97    9.66

  -8  -4 -12  159.68   13.73

  -8  -4 -11   29.76    9.81

  -8  -4 -10   53.13   10.11

  -8  -4  -9    9.49    8.50

  -8  -4  -8  199.28   12.90

  -8  -4  -7   19.77    8.09

  -8  -4  -6  187.54   11.50

  -8  -4  -6  177.77   11.23

  -8  -4  -5    0.55    7.22

  -8  -4  -5    1.17    7.09

  -8  -4  -4  355.20   12.82

  -8  -4  -4  329.62   13.18

  -8  -4  -4  340.82   13.28

  -8  -4  -3  171.17   10.12

  -8  -4  -3  185.54   10.71

  -8  -4  -3  192.23    7.65

  -8  -4  -3  183.66    9.90

  -8  -4  -2  152.76    9.38

  -8  -4  -2  165.00   10.12

  -8  -4  -2  161.09    7.36

  -8  -4  -2  171.69    9.47

  -8  -4  -1    9.21    6.43

  -8  -4  -1    7.81    4.09

  -8  -4  -1    9.53    5.37

  -8  -4   0  168.84    9.71

  -8  -4   0  169.83    7.77

  -8  -4   0  165.92    8.30

  -8  -4   1    7.72    6.74

  -8  -4   1    5.19    4.38

  -8  -4   1    5.23    4.43

  -8  -4   2  324.55   12.52

  -8  -4   2  336.98   11.04

  -8  -4   2  321.51    9.91

  -8  -4   3  115.90    8.56

  -8  -4   3  118.65    6.40

  -8  -4   4  317.66   11.80

  -8  -4   5    2.26    5.75

  -8  -4   6  115.10    8.20

  -7  -4 -15    2.30    9.26

  -7  -4 -14   55.64   10.73

  -7  -4 -13   31.54    9.73

  -7  -4 -12  249.86   14.95

  -7  -4 -11   11.84    8.65

  -7  -4 -10   69.30   10.60

  -7  -4  -9   10.40    8.10

  -7  -4  -8  179.33   11.76

  -7  -4  -7   -0.19    7.62

  -7  -4  -6   16.93    6.76

  -7  -4  -6   21.39    7.44

  -7  -4  -5   73.31    8.27

  -7  -4  -5   59.93    5.08

  -7  -4  -5   60.51    8.04

  -7  -4  -4  277.31   11.57

  -7  -4  -4  288.69    8.88

  -7  -4  -4  294.20   11.71

  -7  -4  -3    7.53    5.44

  -7  -4  -3   -0.33    6.29

  -7  -4  -3    2.02    3.66

  -7  -4  -3    0.15    5.51

  -7  -4  -2  224.86   10.02

  -7  -4  -2  223.28   10.17

  -7  -4  -2  231.82    8.22

  -7  -4  -2  239.57    9.58

  -7  -4  -2  220.27   15.71

  -7  -4  -1  248.45   10.04

  -7  -4  -1  273.06    8.92

  -7  -4  -1  258.28    9.34

  -7  -4  -1  267.95   16.71

  -7  -4   0  609.16   14.62

  -7  -4   0  614.51   13.01

  -7  -4   0  614.39   24.44

  -7  -4   0  635.12   13.24

  -7  -4   1   58.22    9.12

  -7  -4   1   41.73    6.38

  -7  -4   1   56.90    5.64

  -7  -4   1   56.61    5.25

  -7  -4   2  248.17   10.21

  -7  -4   2  247.89    8.10

  -7  -4   2  247.43    9.26

  -7  -4   3  160.20    8.90

  -7  -4   3  163.30    8.50

  -7  -4   3  163.32    6.48

  -7  -4   4  566.78   14.02

  -7  -4   4  611.95   28.19

  -7  -4   5   23.20    5.69

  -7  -4   5    6.40    7.95

  -6  -4 -16   23.60    9.43

  -6  -4 -15   11.66    8.84

  -6  -4 -14  142.32   13.14

  -6  -4 -13   -2.02    8.66

  -6  -4 -12  117.08   11.73

  -6  -4 -11    6.00    8.25

  -6  -4 -10   98.82   10.80

  -6  -4  -9   10.17    7.99

  -6  -4  -8  277.82   13.35

  -6  -4  -7    8.82    4.09

  -6  -4  -7   11.55    7.23

  -6  -4  -6  362.75   12.63

  -6  -4  -6  374.54   10.21

  -6  -4  -6  367.16   12.95

  -6  -4  -5   22.89    6.58

  -6  -4  -5   26.23    4.33

  -6  -4  -5   25.09    6.56

  -6  -4  -4  142.11    8.34

  -6  -4  -4  146.17    8.90

  -6  -4  -4  145.72    6.66

  -6  -4  -3   88.78    7.46

  -6  -4  -3   85.15    5.60

  -6  -4  -3   87.09    6.84

  -6  -4  -2  387.65   11.33

  -6  -4  -2  385.47   20.34

  -6  -4  -2  379.65    9.77

  -6  -4  -2  381.65   10.66

  -6  -4  -1   15.42    6.87

  -6  -4  -1   23.97    5.24

  -6  -4  -1   24.41    4.53

  -6  -4  -1   20.55    4.14

  -6  -4   0  530.43   12.92

  -6  -4   0  562.86   11.97

  -6  -4   0  571.24   23.84

  -6  -4   0  557.51   11.41

  -6  -4   1    4.82    4.72

  -6  -4   1    4.06    4.29

  -6  -4   1    4.34    3.22

  -6  -4   2   47.90    6.02

  -6  -4   2   45.04    5.59

  -6  -4   2   44.34    3.96

  -6  -4   3   29.33    5.24

  -6  -4   3   40.20    8.72

  -6  -4   3   39.25    5.71

  -6  -4   3   40.81    3.56

  -6  -4   4  340.30   10.49

  -6  -4   4  367.16   22.23

  -6  -4   5  182.72   17.05

  -5  -4 -16   25.02    9.61

  -5  -4 -15   16.51    8.31

  -5  -4 -14  174.72   13.07

  -5  -4 -13    1.91    8.36

  -5  -4 -13   -1.85    7.41

  -5  -4 -12   47.30    9.86

  -5  -4 -12   49.94    8.48

  -5  -4 -11   14.70    7.05

  -5  -4 -11    3.93    8.03

  -5  -4 -10   22.12    6.71

  -5  -4 -10   20.24    8.57

  -5  -4  -9  251.76   12.84

  -5  -4  -9  242.99   11.08

  -5  -4  -9  242.79    9.41

  -5  -4  -8  118.33    6.96

  -5  -4  -8  107.82    9.63

  -5  -4  -7  156.33    9.93

  -5  -4  -7  157.66    7.31

  -5  -4  -6 1134.09   19.02

  -5  -4  -6 1114.81   16.55

  -5  -4  -6 1131.91   20.03

  -5  -4  -5  197.99    8.77

  -5  -4  -5  210.63    7.64

  -5  -4  -5  210.82    9.46

  -5  -4  -4  207.69    8.74

  -5  -4  -4  229.41    7.76

  -5  -4  -4  200.96    8.82

  -5  -4  -3    6.44    7.10

  -5  -4  -3    6.59    4.72

  -5  -4  -3    8.01    4.62

  -5  -4  -3    8.93    3.70

  -5  -4  -2  624.99   11.87

  -5  -4  -2  645.59   12.40

  -5  -4  -2  648.48   26.02

  -5  -4  -1    2.20    6.97

  -5  -4  -1    1.66    3.85

  -5  -4  -1   -1.25    3.49

  -5  -4   0  715.86   12.87

  -5  -4   0  771.02   27.41

  -5  -4   0  731.06   11.87

  -5  -4   1   -0.97    4.23

  -5  -4   1    0.11    2.76

  -5  -4   2  163.15    7.33

  -5  -4   2  168.44    5.45

  -5  -4   3   15.98    4.74

  -5  -4   3   23.98    9.28

  -5  -4   3   20.77    2.56

  -5  -4   4    7.38    8.41

  -5  -4   4    5.09    5.10

  -5  -4   5  240.33   19.40

  -4  -4 -16   19.37    9.10

  -4  -4 -15   19.89    8.38

  -4  -4 -15   11.94    7.78

  -4  -4 -14   53.96    9.66

  -4  -4 -14   64.52   10.27

  -4  -4 -13   15.83    7.73

  -4  -4 -13   19.80    9.06

  -4  -4 -12  357.83   15.82

  -4  -4 -12  339.00   15.02

  -4  -4 -11    1.70    7.72

  -4  -4 -11   -0.12    5.09

  -4  -4 -11    0.98    6.77

  -4  -4 -10  214.29   11.21

  -4  -4 -10  218.81    9.67

  -4  -4  -9    4.63    4.71

  -4  -4  -9    4.43    5.85

  -4  -4  -8  144.98    8.52

  -4  -4  -8  164.86    7.83

  -4  -4  -7  685.02   13.63

  -4  -4  -6  562.79   12.82

  -4  -4  -6  583.62   12.19

  -4  -4  -5  291.68    9.44

  -4  -4  -5  311.97    8.95

  -4  -4  -4   60.84    5.35

  -4  -4  -4   61.32    4.99

  -4  -4  -3   63.41   10.62

  -4  -4  -3   47.70    4.46

  -4  -4  -3   45.50    5.01

  -4  -4  -2   14.59    7.73

  -4  -4  -2   17.93    3.96

  -4  -4  -2   18.35    3.78

  -4  -4  -1   17.60    7.33

  -4  -4  -1   17.82    3.55

  -4  -4  -1   20.75    4.07

  -4  -4   0 1160.91   10.50

  -4  -4   0 1181.02   13.58

  -4  -4   0 1119.16   15.32

  -4  -4   0 1146.78   33.03

  -4  -4   1   30.96    2.32

  -4  -4   1   33.13    3.01

  -4  -4   1   33.33    4.72

  -4  -4   2 1630.28   13.28

  -4  -4   2 1594.88   40.38

  -4  -4   2 1549.59   18.82

  -4  -4   2 1648.65   13.45

  -4  -4   3   11.06    1.72

  -4  -4   3    9.73    4.71

  -4  -4   3    5.40    6.27

  -4  -4   4  222.20   17.86

  -4  -4   4  232.59    8.80

  -4  -4   5  373.41   23.15

  -4  -4   6 1018.05   39.27

  -3  -4 -17    7.87    8.33

  -3  -4 -16  138.91   12.66

  -3  -4 -15   43.33    9.49

  -3  -4 -15   42.46    9.11

  -3  -4 -14    8.34    7.96

  -3  -4 -14   15.35    8.84

  -3  -4 -13   46.07    8.89

  -3  -4 -13   37.81    7.00

  -3  -4 -12  304.45   14.47

  -3  -4 -12  276.96   11.85

  -3  -4 -11   -0.46    6.82

  -3  -4 -11    1.99    5.29

  -3  -4 -10  255.68   12.08

  -3  -4 -10  259.32   10.44

  -3  -4  -9   32.46    7.21

  -3  -4  -9   18.91    5.28

  -3  -4  -8  207.49    9.82

  -3  -4  -8  213.35    8.84

  -3  -4  -7  129.72    8.02

  -3  -4  -7  136.66    7.16

  -3  -4  -6  219.95    7.88

  -3  -4  -6  230.53    8.23

  -3  -4  -5    0.60    3.51

  -3  -4  -5    0.77    3.62

  -3  -4  -4 1302.83   39.16

  -3  -4  -4 1275.30   16.22

  -3  -4  -4 1251.21   16.11

  -3  -4  -3   72.80   11.23

  -3  -4  -3   57.47    4.76

  -3  -4  -2  129.61    5.98

  -3  -4  -2  119.60   12.91

  -3  -4  -1   -0.57    7.29

  -3  -4  -1    1.81    3.11

  -3  -4  -1    0.58    2.12

  -3  -4   0  868.66   10.00

  -3  -4   0  827.41   12.80

  -3  -4   0  891.42   10.89

  -3  -4   1  388.64    6.89

  -3  -4   1  384.57    9.26

  -3  -4   1  403.38    6.65

  -3  -4   2  653.48    9.26

  -3  -4   2  622.38   25.33

  -3  -4   2  661.72   12.02

  -3  -4   3  119.21   12.99

  -3  -4   3  113.33    6.07

  -3  -4   4  287.62   19.73

  -3  -4   4  258.99    8.65

  -3  -4   5   19.02    4.89

  -3  -4   5   13.38    9.89

  -2  -4 -17    1.60    7.50

  -2  -4 -16  254.78   14.97

  -2  -4 -15    8.70    9.32

  -2  -4 -15    6.00    7.87

  -2  -4 -14   80.54   11.02

  -2  -4 -14   80.17    8.52

  -2  -4 -13  134.22   12.09

  -2  -4 -13  137.95    9.77

  -2  -4 -12   67.66    9.33

  -2  -4 -12   61.69    7.61

  -2  -4 -11   20.32    8.18

  -2  -4 -11   21.97    6.11

  -2  -4 -10  263.72   12.53

  -2  -4 -10  264.06   10.82

  -2  -4  -9    1.65    6.15

  -2  -4  -9    3.39    5.20

  -2  -4  -8  188.25    9.66

  -2  -4  -8  190.09    8.85

  -2  -4  -7    5.20    5.07

  -2  -4  -7    9.64    4.50

  -2  -4  -6   13.67    4.35

  -2  -4  -5   83.91    4.67

  -2  -4  -5   82.05    5.60

  -2  -4  -4 1439.04   15.75

  -2  -4  -4 1414.53   16.95

  -2  -4  -4 1510.88   42.13

  -2  -4  -3   69.95   10.99

  -2  -4  -3   66.17    4.99

  -2  -4  -2  929.00   11.73

  -2  -4  -2  931.30   13.13

  -2  -4  -2  935.57   30.39

  -2  -4  -1   25.39    9.17

  -2  -4  -1   14.75    2.79

  -2  -4  -1   15.67    3.90

  -2  -4   0  819.97   10.44

  -2  -4   0  796.04   12.11

  -2  -4   1  735.34    9.98

  -2  -4   1  732.03   11.75

  -2  -4   2  502.49   22.96

  -2  -4   2  493.05   10.07

  -2  -4   3   31.01    4.50

  -2  -4   3   21.61    8.51

  -2  -4   4  736.43   29.63

  -2  -4   4  745.47   12.95

  -2  -4   5    1.66    4.14

  -1  -4 -16  126.64   12.49

  -1  -4 -16  134.95   11.23

  -1  -4 -15   16.26    9.48

  -1  -4 -15   17.04    7.26

  -1  -4 -14  192.13   13.94

  -1  -4 -14  198.42   11.96

  -1  -4 -13    3.07    8.83

  -1  -4 -13    0.82    6.20

  -1  -4 -12   -2.36    7.89

  -1  -4 -12    4.72    6.20

  -1  -4 -11   81.45   10.04

  -1  -4 -11   99.41    8.80

  -1  -4 -10  416.76   15.01

  -1  -4 -10  431.52   13.53

  -1  -4  -9   33.10    7.15

  -1  -4  -9   41.03    6.62

  -1  -4  -8  402.47   12.82

  -1  -4  -8  424.23   12.17

  -1  -4  -7    8.74    5.35

  -1  -4  -7    8.49    4.75

  -1  -4  -6  244.92    8.57

  -1  -4  -5  149.70    5.10

  -1  -4  -5  149.99    6.68

  -1  -4  -4  775.68   10.27

  -1  -4  -4  798.15   12.91

  -1  -4  -4  713.14   28.79

  -1  -4  -3   28.79    3.92

  -1  -4  -3   27.25    4.00

  -1  -4  -2 1259.29   14.06

  -1  -4  -2 1234.05   14.70

  -1  -4  -1  183.05    5.79

  -1  -4  -1  184.52    6.19

  -1  -4   0   49.68    3.69

  -1  -4   0   49.54    4.23

  -1  -4   1  153.58    5.32

  -1  -4   1  152.34    5.82

  -1  -4   2  557.58    7.52

  -1  -4   2  559.17   10.13

  -1  -4   3 1058.37   11.81

  -1  -4   3 1065.85   14.10

  -1  -4   4 1017.87   12.93

  -1  -4   4 1037.76   14.33

  -1  -4   5   23.22    3.83

  -1  -4   5   24.04    4.07

  -1  -4   6  559.20   11.75

  -1  -4   7    7.57    4.74

  -1  -4   8  391.59   11.94

   0  -4 -17    2.43    7.27

   0  -4 -16   47.38    8.71

   0  -4 -15    2.80    8.84

   0  -4 -15    6.32    7.63

   0  -4 -14  245.72   14.95

   0  -4 -14  245.55   13.02

   0  -4 -13   10.59    8.54

   0  -4 -13   12.35    7.53

   0  -4 -12   45.08    9.14

   0  -4 -12   34.65    7.91

   0  -4 -11   90.98    9.69

   0  -4 -10  313.09   13.45

   0  -4 -10  338.06   11.76

   0  -4  -9   18.10    7.56

   0  -4  -9   16.71    5.26

   0  -4  -8  262.17   11.25

   0  -4  -8  267.38    9.85

   0  -4  -7    2.87    5.47

   0  -4  -7    3.73    4.81

   0  -4  -6  373.04   10.39

   0  -4  -5   86.87    5.83

   0  -4  -4  321.59    5.78

   0  -4  -4  314.80    8.70

   0  -4  -3   54.42    4.69

   0  -4  -3   57.81    4.78

   0  -4  -2 1317.70   15.09

   0  -4  -2 1375.60   15.21

   0  -4  -1   10.49    3.21

   0  -4  -1    9.00    3.39

   0  -4   0  203.65    6.30

   0  -4   0  205.33    6.31

   0  -4   1   10.20    3.27

   0  -4   1   10.98    1.76

   0  -4   1   11.69    3.36

   0  -4   2 1384.36   12.12

   0  -4   2 1359.59   14.72

   0  -4   3   53.71    3.67

   0  -4   3   57.97    4.29

   0  -4   4  308.45    7.61

   0  -4   4  328.82    8.20

   0  -4   5   90.50    5.29

   0  -4   5   88.43    5.28

   0  -4   6  351.97    9.79

   0  -4   7    3.16    4.59

   0  -4   8  233.47    9.93

   0  -4   9   13.11    6.18

   0  -4  10  303.02   12.77

   1  -4 -17   23.14    7.93

   1  -4 -16   71.75   10.18

   1  -4 -15   39.29   10.38

   1  -4 -15   46.62    9.03

   1  -4 -14   62.92   10.68

   1  -4 -13   29.50    9.58

   1  -4 -13   25.67    6.71

   1  -4 -12  130.94   11.18

   1  -4 -12  130.45    9.36

   1  -4 -11    2.90    5.79

   1  -4 -11    5.41    7.90

   1  -4 -10  156.76   10.61

   1  -4 -10  171.30    9.36

   1  -4  -9   81.64    8.95

   1  -4  -9   71.89    6.99

   1  -4  -8  405.92   13.09

   1  -4  -8  400.14   11.82

   1  -4  -7    7.61    4.90

   1  -4  -6  551.82   12.39

   1  -4  -5   24.97    4.66

   1  -4  -5   27.31    4.83

   1  -4  -4 1028.93   34.50

   1  -4  -4 1010.79   14.59

   1  -4  -3 1060.95   14.16

   1  -4  -3 1023.37   32.67

   1  -4  -2  542.49    9.81

   1  -4  -2  535.38   23.33

   1  -4  -1  153.08    5.51

   1  -4  -1  139.55   13.44

   1  -4   0   44.49    3.59

   1  -4   1  189.48    4.65

   1  -4   1  177.18    5.73

   1  -4   2 1229.11   12.19

   1  -4   2 1184.38   33.60

   1  -4   2 1200.18   13.31

   1  -4   3   28.12    3.24

   1  -4   3   27.15    3.34

   1  -4   3   22.76    8.08

   1  -4   4  740.82   29.61

   1  -4   4  760.67   11.73

   1  -4   4  773.51   11.40

   1  -4   5  145.93    6.40

   1  -4   5  141.32    5.60

   1  -4   6  237.78    8.61

   1  -4   7    8.45    4.71

   1  -4   8  398.16   12.18

   1  -4   9   40.98    6.96

   1  -4  10  426.44   14.30

   1  -4  11   82.39    9.07

   1  -4  12    2.11    7.34

   2  -4 -17    7.38    8.23

   2  -4 -16  101.01   11.53

   2  -4 -15   -0.95    6.77

   2  -4 -14   53.44   10.29

   2  -4 -14   65.15    8.66

   2  -4 -13   11.52    7.19

   2  -4 -13    3.38    8.43

   2  -4 -12  287.66   14.14

   2  -4 -12  276.78   12.71

   2  -4 -11    0.83    6.27

   2  -4 -11    4.33    7.16

   2  -4 -10  167.38   10.76

   2  -4 -10  161.93    9.70

   2  -4  -9  185.20   10.33

   2  -4  -9  182.25    9.58

   2  -4  -8  319.04   11.27

   2  -4  -7    3.80    5.03

   2  -4  -6   55.38    5.69

   2  -4  -5    1.75    4.53

   2  -4  -4  759.48   29.71

   2  -4  -4  752.98   13.19

   2  -4  -4  719.43   12.77

   2  -4  -4  756.64   13.02

   2  -4  -3   34.68    9.30

   2  -4  -3   31.70    3.92

   2  -4  -3   28.68    4.45

   2  -4  -2  448.10    9.04

   2  -4  -2  487.59   22.30

   2  -4  -1  699.44   10.51

   2  -4  -1  694.02   25.39

   2  -4   0  768.98   10.57

   2  -4   1   11.64    2.78

   2  -4   2  914.52   29.39

   2  -4   2  894.18   10.97

   2  -4   3   67.57    4.46

   2  -4   3   63.53    3.67

   2  -4   3   69.53   11.47

   2  -4   4 1480.69   40.46

   2  -4   4 1472.46   16.81

   2  -4   4 1408.25   14.31

   2  -4   5   79.07    5.56

   2  -4   5   80.52    4.24

   2  -4   6   10.74    4.68

   2  -4   7    7.15    5.33

   2  -4   8  192.23    9.51

   2  -4   9    3.93    6.26

   2  -4  10  259.56   12.16

   2  -4  11   22.80    8.39

   2  -4  12   63.24    9.39

   2  -4  13  125.78   11.04

   3  -4 -16   22.83    7.81

   3  -4 -15    0.04    6.68

   3  -4 -14  127.54   10.64

   3  -4 -13    1.89    6.75

   3  -4 -12  211.27   12.45

   3  -4 -12  191.69   11.66

   3  -4 -11    1.34    6.43

   3  -4 -11    0.89    7.23

   3  -4 -10  250.78   11.81

   3  -4  -9  189.26   10.28

   3  -4  -8  449.57   13.48

   3  -4  -7    6.67    5.44

   3  -4  -6  194.03    8.81

   3  -4  -5   19.13    4.74

   3  -4  -4  248.92    8.59

   3  -4  -4  252.47    8.38

   3  -4  -3  108.50    6.10

   3  -4  -3  110.04    5.68

   3  -4  -3  135.15   13.18

   3  -4  -3  114.55    5.82

   3  -4  -2  599.09   11.45

   3  -4  -2  588.84   10.32

   3  -4  -2  631.74   24.65

   3  -4  -2  627.78   11.13

   3  -4  -1  374.21    9.16

   3  -4  -1  371.76    7.89

   3  -4  -1  381.76   19.20

   3  -4   0  822.42   12.97

   3  -4   0  812.04   26.81

   3  -4   0  795.33   10.48

   3  -4   1    0.99    3.92

   3  -4   1    0.40    2.23

   3  -4   2  124.09   12.43

   3  -4   2  123.91    4.33

   3  -4   3   61.09    3.30

   3  -4   3   74.46   11.14

   3  -4   4 1313.62   38.20

   3  -4   4 1246.02   16.56

   3  -4   4 1302.78   12.60

   3  -4   5    6.18    8.47

   3  -4   5   -0.63    3.90

   3  -4   6  212.85    8.75

   3  -4   7  133.39    8.14

   3  -4   8  209.89   10.20

   3  -4   9   23.63    6.93

   3  -4  10  226.03   11.83

   3  -4  11   -0.13    7.65

   3  -4  12  275.95   13.83

   3  -4  13   44.90    9.14

   3  -4  14   13.52    8.98

   4  -4 -16   41.28    8.61

   4  -4 -15    9.94    7.13

   4  -4 -14  274.16   14.34

   4  -4 -13    4.86    7.23

   4  -4 -12   44.18    8.64

   4  -4 -11    9.44    7.12

   4  -4 -10    6.92    6.76

   4  -4  -9   33.35    7.44

   4  -4  -8   97.59    8.88

   4  -4  -7  955.69   18.60

   4  -4  -6  928.41   17.32

   4  -4  -5  375.67   10.93

   4  -4  -4  221.11    8.44

   4  -4  -4  226.45    8.43

   4  -4  -3   12.18    4.35

   4  -4  -3   13.24    7.30

   4  -4  -3    9.44    4.16

   4  -4  -2 1505.73   18.28

   4  -4  -2 1498.50   16.33

   4  -4  -2 1591.37   38.31

   4  -4  -2 1494.29   17.36

   4  -4  -1   39.88    8.04

   4  -4  -1   26.56    4.48

   4  -4  -1   28.85    3.28

   4  -4   0 1106.42   15.57

   4  -4   0 1103.09   30.50

   4  -4   0 1099.90   12.25

   4  -4   1   16.48    4.31

   4  -4   1   16.40    2.42

   4  -4   2   15.19    4.43

   4  -4   2   17.18    2.38

   4  -4   3   45.35    2.72

   4  -4   3   46.92    8.60

   4  -4   4   65.14    3.01

   4  -4   4   56.05   10.53

   4  -4   5  305.75   20.25

   4  -4   5  297.99    9.91

   4  -4   6  560.30   13.53

   4  -4   7  627.95   15.19

   4  -4   8  153.37    9.85

   4  -4   9    4.04    6.65

   4  -4  10  210.94   11.76

   4  -4  11    3.07    7.80

   4  -4  12  316.97   15.25

   4  -4  13   14.83    8.16

   4  -4  14   60.22   10.62

   4  -4  15    7.41    8.36

   5  -4 -16    6.59    7.95

   5  -4 -15   -1.19    7.94

   5  -4 -14   95.88   10.85

   5  -4 -13    8.53    8.32

   5  -4 -12  193.86   12.28

   5  -4 -11   20.54    8.44

   5  -4 -10  103.48   10.18

   5  -4  -9    4.77    7.58

   5  -4  -8  165.73   10.41

   5  -4  -7    5.59    6.31

   5  -4  -6  942.09   18.08

   5  -4  -5  263.12    9.95

   5  -4  -4    2.71    4.83

   5  -4  -4    7.94    4.47

   5  -4  -3   16.05    4.21

   5  -4  -3   10.99    4.18

   5  -4  -2  155.26    7.07

   5  -4  -2  157.65    6.11

   5  -4  -2  171.87   13.56

   5  -4  -2  168.32    6.90

   5  -4  -1   -0.52    5.94

   5  -4  -1    0.65    3.28

   5  -4  -1    1.80    3.48

   5  -4  -1    0.62    2.65

   5  -4   0  687.53   12.91

   5  -4   0  707.54    9.87

   5  -4   0  715.86   24.48

   5  -4   1   -0.27    3.64

   5  -4   1    0.56    1.91

   5  -4   2  647.80   12.98

   5  -4   2  635.34    7.85

   5  -4   3    4.70    6.46

   5  -4   4  221.32   16.75

   5  -4   5  202.12   17.25

   5  -4   5  202.37    9.23

   5  -4   6 1144.78   39.90

   5  -4   6 1086.86   19.34

   5  -4   7  157.51    9.52

   5  -4   8   92.99    8.84

   5  -4   9  242.41   12.23

   5  -4  10   20.05    8.30

   5  -4  11    4.69    8.20

   5  -4  12   44.64    9.53

   5  -4  13    2.56    7.84

   5  -4  14  143.41   12.10

   5  -4  15   22.53    9.64

   5  -4  16   25.85    9.06

   6  -4 -16   37.14    9.43

   6  -4 -15   10.99    8.47

   6  -4 -14    6.08    8.19

   6  -4 -13    3.15    8.45

   6  -4 -12  294.85   14.80

   6  -4 -11   44.62    9.43

   6  -4 -10  153.43   11.50

   6  -4  -9    8.21    7.85

   6  -4  -8  241.92   12.05

   6  -4  -7   47.22    7.47

   6  -4  -6  506.30   14.31

   6  -4  -5  187.88    9.18

   6  -4  -4  333.54   10.35

   6  -4  -4  334.86   10.63

   6  -4  -3   31.53    5.13

   6  -4  -3   35.93    4.99

   6  -4  -2   44.59    5.14

   6  -4  -2   43.53    4.12

   6  -4  -2   41.68    4.91

   6  -4  -1    1.75    5.83

   6  -4  -1    5.71    3.50

   6  -4  -1    6.24    4.02

   6  -4  -1    3.00    2.57

   6  -4   0  528.60   11.82

   6  -4   0  527.06    8.64

   6  -4   0  540.14   20.76

   6  -4   1   24.05    6.71

   6  -4   1   21.31    4.40

   6  -4   2  376.68   10.50

   6  -4   3   93.86    6.58

   6  -4   4  169.26   14.89

   6  -4   5   32.12    8.84

   6  -4   6  382.40   23.66

   6  -4   6  343.77   12.46

   6  -4   7   10.42    6.63

   6  -4   8  267.17   12.55

   6  -4   9    8.23    7.40

   6  -4  10  102.71   10.58

   6  -4  11    8.26    8.32

   6  -4  12  105.92   11.01

   6  -4  13    0.11    8.25

   6  -4  14  126.80   12.48

   6  -4  15    3.47    8.52

   7  -4 -15    4.57    8.62

   7  -4 -14   36.53    9.88

   7  -4 -13   70.22   10.24

   7  -4 -12  169.54   12.75

   7  -4 -11   43.60    8.97

   7  -4 -10  144.84   11.58

   7  -4  -9   27.80    7.94

   7  -4  -8   69.67    9.26

   7  -4  -7   14.62    7.03

   7  -4  -6   25.93    6.92

   7  -4  -5   17.92    5.66

   7  -4  -4  541.84   13.66

   7  -4  -3  169.74    7.80

   7  -4  -3  143.70    7.66

   7  -4  -2  227.59    8.56

   7  -4  -2  236.58    8.52

   7  -4  -1   53.77    5.38

   7  -4  -1   46.48    3.84

   7  -4  -1   49.53    4.62

   7  -4   0  623.01   13.12

   7  -4   0  597.66   11.15

   7  -4   1  256.71    9.11

   7  -4   2  228.79    8.84

   7  -4   3    0.76    4.29

   7  -4   6   15.47    7.37

   7  -4   7    5.39    7.58

   7  -4   8  170.62   11.27

   7  -4   9   10.82    7.70

   7  -4  10   72.16    9.95

   7  -4  11   13.74    8.85

   7  -4  12  232.88   14.46

   7  -4  13   33.06    9.70

   7  -4  14   52.18   10.40

   7  -4  15   12.34    9.09

   8  -4 -14   89.82   11.78

   8  -4 -13   12.52    9.13

   8  -4 -12   17.11    8.36

   8  -4 -11    2.80    7.98

   8  -4 -10  208.85   13.19

   8  -4  -9    3.37    7.26

   8  -4  -8  143.10   10.84

   8  -4  -7   24.42    7.26

   8  -4  -6  111.49    9.17

   8  -4  -5    0.58    5.58

   8  -4  -4  292.19   10.88

   8  -4  -3  110.03    6.89

   8  -4  -3  118.47    7.43

   8  -4  -2  309.87   10.01

   8  -4  -2  310.43    9.82

   8  -4  -1    7.19    3.59

   8  -4  -1    6.70    3.95

   8  -4   0  157.56    7.58

   8  -4   0  155.32    6.44

   8  -4   1    8.99    4.46

   8  -4   2  163.20    8.10

   8  -4   3  184.71    8.72

   8  -4   4  358.96   11.73

   8  -4   7   19.36    8.00

   8  -4   8  189.45   12.33

   8  -4   9    7.00    7.77

   8  -4  10   43.94    9.46

   8  -4  11   22.12    9.29

   8  -4  12  147.02   12.56

   8  -4  13    4.77    8.22

   8  -4  14   25.97    8.70

   9  -4 -14  127.84   12.94

   9  -4 -13   21.64    8.78

   9  -4 -12   18.02    9.36

   9  -4 -11   35.97    8.96

   9  -4 -10  209.61   13.30

   9  -4  -9    4.20    7.66

   9  -4  -8   84.55    9.70

   9  -4  -7   17.26    7.63

   9  -4  -6  123.25    9.28

   9  -4  -5    4.05    6.12

   9  -4  -4   74.95    7.09

   9  -4  -3  121.64    7.69

   9  -4  -2  346.76   10.76

   9  -4  -2  344.27   10.75

   9  -4  -1    2.05    3.69

   9  -4  -1    2.13    4.21

   9  -4   0   81.80    6.30

   9  -4   1   42.02    5.42

   9  -4   2  343.34   11.03

   9  -4   3   62.35    6.22

   9  -4   4   82.18    6.95

   9  -4   5    7.35    5.15

   9  -4   7   11.91    8.33

   9  -4   8   91.85   10.26

   9  -4   9    5.86    8.60

   9  -4  10   66.58    9.92

   9  -4  11    2.53    8.28

   9  -4  12   68.69   10.94

   9  -4  13   15.71    9.15

   9  -4  14  102.26   11.99

  10  -4 -13    0.59    8.74

  10  -4 -12   27.43    8.79

  10  -4 -11    5.17    8.80

  10  -4 -10   90.51   11.01

  10  -4  -9    2.46    7.41

  10  -4  -8  111.46   10.74

  10  -4  -7   16.17    7.52

  10  -4  -6  203.98   11.34

  10  -4  -5   11.44    6.45

  10  -4  -4  250.50   10.93

  10  -4  -3   13.05    5.21

  10  -4   7   -3.01    8.17

  10  -4   8  209.04   13.39

  10  -4   9   24.55    9.26

  10  -4  10  159.36   12.57

  10  -4  11   12.71    8.66

  10  -4  12    1.51    9.00

  10  -4  13   42.52   10.00

  11  -4 -12   67.83   10.39

  11  -4 -11    5.29    8.65

  11  -4 -10   59.96   10.24

  11  -4  -9   12.01    7.80

  11  -4  -8   91.45   10.33

  11  -4  -7    0.89    7.31

  11  -4  -6   17.17    6.80

  11  -4  -5    2.33    5.73

  11  -4  -4  252.36   11.32

  11  -4   7   -1.37    9.00

  11  -4   8  117.13   11.34

  11  -4   9   16.61    8.34

  11  -4  10  102.23   11.86

  11  -4  11   11.14    9.15

  11  -4  12    7.50    8.29

  12  -4 -11    5.75    7.67

  12  -4 -10  152.75   12.64

  12  -4  -9   75.36   10.61

  12  -4  -8  206.38   13.02

  12  -4  -7   41.13    8.21

  12  -4  -6    7.97    6.54

  12  -4  -5   96.84    9.03

  12  -4   7    1.75    9.01

  12  -4   8   68.51   10.22

  12  -4   9   43.31    9.57

  12  -4  10   76.60   10.64

  12  -4  11    4.71    8.94

  13  -4 -10   13.24    7.41

  13  -4  -9    2.64    7.48

  13  -4  -8   32.22    8.02

  13  -4  -7  172.34   11.78

  13  -4   7  189.07   13.69

  13  -4   8   32.88    9.33

  13  -4   9    6.59    8.75

  14  -4   7    2.20    7.97

 -15  -5  -4   -1.49    8.73

 -15  -5  -4    2.73    8.13

 -15  -5  -3   66.56   10.77

 -15  -5  -3   64.00   10.14

 -15  -5  -2    8.76    8.34

 -15  -5  -2    9.78    8.90

 -15  -5  -2    5.04    7.56

 -15  -5  -1   90.45   12.02

 -15  -5   0   19.94    8.72

 -15  -5   1   85.51   11.27

 -15  -5   2   20.62    9.22

 -15  -5   3   77.48   10.39

 -15  -5   4   10.97    8.40

 -15  -5   5   66.16    9.82

 -14  -5  -7   55.12   10.54

 -14  -5  -6   -3.79    8.68

 -14  -5  -6   -0.34    8.90

 -14  -5  -5  171.19   13.48

 -14  -5  -5  157.27   13.74

 -14  -5  -4   35.96    9.58

 -14  -5  -4   42.87   10.32

 -14  -5  -3   72.75   10.34

 -14  -5  -3   94.38   12.14

 -14  -5  -3   90.77   10.82

 -14  -5  -2    5.43    7.60

 -14  -5  -2    5.09    8.79

 -14  -5  -2    3.84    8.20

 -14  -5  -1   40.81    9.00

 -14  -5  -1   41.45    9.96

 -14  -5  -1   34.82    8.64

 -14  -5   0  125.17   12.76

 -14  -5   1  115.68   12.02

 -14  -5   2   31.75    9.86

 -14  -5   3  155.68   13.29

 -14  -5   4   26.08    9.35

 -14  -5   5  202.39   13.72

 -14  -5   6    6.25    8.37

 -13  -5  -8   13.35   10.11

 -13  -5  -8    6.06    9.95

 -13  -5  -7   37.55   10.33

 -13  -5  -7   24.68   10.55

 -13  -5  -6   39.13   10.62

 -13  -5  -6   41.92   10.81

 -13  -5  -5  130.44   13.03

 -13  -5  -5  141.76   12.85

 -13  -5  -4   41.42   10.16

 -13  -5  -4   37.17    9.88

 -13  -5  -4   35.75    9.31

 -13  -5  -3  109.41   11.66

 -13  -5  -3  112.13   12.39

 -13  -5  -3  122.02   11.98

 -13  -5  -2    4.99    7.53

 -13  -5  -2    0.90    9.40

 -13  -5  -2    3.72    7.94

 -13  -5  -1   46.95    8.70

 -13  -5  -1   44.75   10.72

 -13  -5  -1   44.83    8.75

 -13  -5   0   11.45    7.11

 -13  -5   0   10.58    9.62

 -13  -5   0   11.09    7.10

 -13  -5   1   85.00   10.85

 -13  -5   2   25.52    9.55

 -13  -5   3    6.83    8.36

 -13  -5   4  133.31   12.13

 -12  -5 -10   21.58    9.51

 -12  -5 -10   30.83   10.71

 -12  -5  -9   51.19   11.08

 -12  -5  -9   40.55   11.37

 -12  -5  -8   -0.59    9.87

 -12  -5  -8    3.15    8.44

 -12  -5  -7   11.02    9.15

 -12  -5  -7    4.41    8.73

 -12  -5  -6  129.40   12.91

 -12  -5  -6  135.21   12.56

 -12  -5  -5   46.73    9.98

 -12  -5  -5   32.89    9.94

 -12  -5  -4   60.30   10.01

 -12  -5  -4   64.21   10.82

 -12  -5  -4   57.22   10.35

 -12  -5  -3    4.90    8.33

 -12  -5  -3   -4.06    9.14

 -12  -5  -3    0.82    7.69

 -12  -5  -2    3.33    8.07

 -12  -5  -2    5.73    8.93

 -12  -5  -2    7.03    7.44

 -12  -5  -1   59.40    8.62

 -12  -5  -1   50.20    9.82

 -12  -5  -1   55.60    8.86

 -12  -5   0   54.47    7.97

 -12  -5   0   75.86   10.39

 -12  -5   0   53.65   10.06

 -12  -5   0   62.93    8.49

 -12  -5   1  185.89   13.67

 -12  -5   1  190.30   13.42

 -12  -5   2    2.11    8.27

 -12  -5   2    4.66    9.27

 -11  -5 -11   22.40    9.53

 -11  -5 -11   42.00   10.32

 -11  -5 -10   -2.60    9.50

 -11  -5 -10   -1.16    9.05

 -11  -5  -9   63.19   11.08

 -11  -5  -9   57.79   10.61

 -11  -5  -8    3.05    9.56

 -11  -5  -7   34.60    9.63

 -11  -5  -6   26.78    9.49

 -11  -5  -5  385.96   16.78

 -11  -5  -5  372.15   17.25

 -11  -5  -4    6.42    9.03

 -11  -5  -4    7.63    7.91

 -11  -5  -3   34.47    9.19

 -11  -5  -3   31.77    8.73

 -11  -5  -2  215.26   13.59

 -11  -5  -2  223.36   12.64

 -11  -5  -1  201.09   13.55

 -11  -5  -1  195.00   11.43

 -11  -5   0   -0.19    8.72

 -11  -5   0   -1.14    6.31

 -11  -5   0    5.61    8.16

 -11  -5   0    2.57    6.17

 -11  -5   1   87.11   10.44

 -11  -5   1   76.93    7.79

 -11  -5   1   82.87    7.83

 -11  -5   2    2.84    8.29

 -11  -5   3   66.74    9.99

 -10  -5 -12   11.44    9.45

 -10  -5 -12    7.75    9.32

 -10  -5 -11   54.79   11.06

 -10  -5 -11   58.54   11.72

 -10  -5 -10   18.74    9.89

 -10  -5  -9   70.81   11.24

 -10  -5  -8    9.89    9.59

 -10  -5  -7   65.60   10.68

 -10  -5  -6   39.19    9.85

 -10  -5  -6   33.73    9.76

 -10  -5  -5  301.82   15.37

 -10  -5  -5  310.37   14.83

 -10  -5  -4   21.11    8.76

 -10  -5  -4   23.10    8.24

 -10  -5  -3   69.00    9.95

 -10  -5  -3   75.84    9.27

 -10  -5  -2   -1.68    7.92

 -10  -5  -2    1.24    6.61

 -10  -5  -1  365.55   13.72

 -10  -5  -1  366.42   15.55

 -10  -5  -1  361.83   11.66

 -10  -5   0   -0.96    8.33

 -10  -5   0    3.11    5.74

 -10  -5   0    1.45    4.95

 -10  -5   1  122.45   10.82

 -10  -5   1  125.58    8.45

 -10  -5   2    6.33    8.14

  -9  -5 -13   63.45   11.15

  -9  -5 -13   59.37   11.78

  -9  -5 -12   71.51   12.13

  -9  -5 -11  173.10   13.85

  -9  -5 -10   11.08    9.90

  -9  -5  -9  220.55   14.63

  -9  -5  -8    0.38    8.83

  -9  -5  -7  371.51   16.40

  -9  -5  -6   12.92    8.11

  -9  -5  -6   20.68    8.86

  -9  -5  -5  235.30   12.93

  -9  -5  -5  238.46   13.58

  -9  -5  -4    1.44    7.90

  -9  -5  -4    0.38    7.06

  -9  -5  -3  166.81   11.88

  -9  -5  -3  163.51   10.55

  -9  -5  -2   50.74    8.92

  -9  -5  -2   47.55    5.82

  -9  -5  -2   51.97    7.44

  -9  -5  -1  346.39   12.59

  -9  -5  -1  331.60   11.23

  -9  -5   0    0.95    4.90

  -9  -5   0    1.49    5.22

  -9  -5   1  142.71   10.39

  -9  -5   1  149.93    8.82

  -9  -5   1  157.19    8.53

  -8  -5 -14   20.27    9.03

  -8  -5 -14   14.28   10.11

  -8  -5 -13   28.25    9.42

  -8  -5 -12   12.79    9.00

  -8  -5 -11   96.02   12.03

  -8  -5 -10   23.07    9.57

  -8  -5  -9   72.20   10.82

  -8  -5  -8    0.71    8.62

  -8  -5  -7  128.69   11.02

  -8  -5  -6    6.81    7.91

  -8  -5  -6   10.30    7.89

  -8  -5  -5    4.17    7.77

  -8  -5  -5    8.64    7.65

  -8  -5  -4    3.81    7.56

  -8  -5  -4   -0.18    4.30

  -8  -5  -4   -2.21    6.96

  -8  -5  -3   66.77    9.02

  -8  -5  -3   61.70    5.97

  -8  -5  -3   58.43    7.65

  -8  -5  -2   25.94    7.75

  -8  -5  -2   26.53    5.10

  -8  -5  -2   28.05    6.30

  -8  -5  -1  362.00   11.38

  -8  -5  -1  369.63   12.03

  -8  -5   0    5.66    5.04

  -8  -5   0    3.73    4.76

  -8  -5   1  100.56    7.70

  -8  -5   1   98.30    6.78

  -8  -5   2   82.76    7.67

  -8  -5   2   95.37    6.28

  -8  -5   3   75.57    7.73

  -7  -5 -14   -0.33    9.15

  -7  -5 -13   32.66   10.07

  -7  -5 -12   15.74    9.96

  -7  -5 -11   33.69   10.19

  -7  -5 -10   40.98    9.59

  -7  -5  -9   83.45   10.84

  -7  -5  -8    3.03    8.25

  -7  -5  -7  166.28   11.49

  -7  -5  -6   25.75    7.65

  -7  -5  -6   35.20    5.22

  -7  -5  -6   21.56    7.95

  -7  -5  -5  148.85   10.23

  -7  -5  -5  156.19   10.11

  -7  -5  -5  160.70    7.94

  -7  -5  -4   80.02    8.26

  -7  -5  -4   76.48    8.84

  -7  -5  -4   90.99    6.51

  -7  -5  -3   96.77    8.78

  -7  -5  -3   80.45    6.39

  -7  -5  -3   84.55    7.44

  -7  -5  -2    2.15    5.16

  -7  -5  -2    2.23    4.59

  -7  -5  -1  395.03   22.49

  -7  -5  -1  432.47   11.89

  -7  -5  -1  423.11   11.91

  -7  -5   0   39.58    9.70

  -7  -5   0   39.80    5.99

  -7  -5   0   44.38    5.34

  -7  -5   1   21.65    8.49

  -7  -5   1   30.05    5.99

  -7  -5   1   30.79    4.55

  -7  -5   2   23.62    5.85

  -7  -5   2   31.87    4.31

  -7  -5   3  172.25    9.30

  -6  -5 -15   72.82   10.77

  -6  -5 -14   43.61    9.98

  -6  -5 -13   59.18   11.10

  -6  -5 -12   62.18   10.14

  -6  -5 -11  104.13   11.62

  -6  -5 -10   43.54    9.42

  -6  -5  -9   51.36    9.28

  -6  -5  -8    2.48    7.43

  -6  -5  -8    3.46    4.63

  -6  -5  -7   38.52    7.92

  -6  -5  -7   42.13    5.66

  -6  -5  -6   20.73    6.58

  -6  -5  -6   20.87    4.92

  -6  -5  -6   21.53    7.54

  -6  -5  -5  285.40   11.50

  -6  -5  -5  293.25   10.11

  -6  -5  -5  286.52   11.98

  -6  -5  -4  159.70    9.40

  -6  -5  -4  175.91    8.18

  -6  -5  -4  148.61    8.70

  -6  -5  -3  198.83    9.92

  -6  -5  -3  211.16    8.62

  -6  -5  -3  207.13    9.31

  -6  -5  -3  196.48   17.92

  -6  -5  -2    7.96    8.40

  -6  -5  -2   17.94    4.85

  -6  -5  -2   17.30    5.05

  -6  -5  -1  704.75   14.37

  -6  -5  -1  726.82   30.27

  -6  -5  -1  700.96   13.76

  -6  -5   0  295.40   10.08

  -6  -5   0  299.73   19.97

  -6  -5   0  288.35    8.82

  -6  -5   1   55.95    6.55

  -6  -5   1   58.90   11.68

  -6  -5   1   52.38    4.64

  -6  -5   2  245.87    9.91

  -6  -5   2  247.01    7.17

  -6  -5   3  425.26   12.61

  -6  -5   4    9.92    5.87

  -6  -5   4   19.86    9.10

  -5  -5 -15  110.80   12.41

  -5  -5 -14    5.45    9.12

  -5  -5 -13   22.12    9.18

  -5  -5 -12    0.63    8.46

  -5  -5 -11  434.52   17.55

  -5  -5 -10   26.19    9.30

  -5  -5 -10   25.20    5.73

  -5  -5  -9  282.99   10.83

  -5  -5  -9  309.66   14.19

  -5  -5  -8   47.49    8.55

  -5  -5  -8   39.58    5.84

  -5  -5  -7  327.43   10.82

  -5  -5  -7  348.76   13.42

  -5  -5  -6    5.91    5.41

  -5  -5  -6    6.77    6.22

  -5  -5  -6    1.16    4.60

  -5  -5  -5  441.77   13.15

  -5  -5  -5  439.41   12.61

  -5  -5  -5  432.20   11.66

  -5  -5  -4   63.91   12.68

  -5  -5  -4   58.64    6.54

  -5  -5  -4   63.12    5.82

  -5  -5  -4   64.10    6.60

  -5  -5  -3  355.97   10.61

  -5  -5  -3  350.95   10.43

  -5  -5  -3  360.56   22.73

  -5  -5  -2    1.51    7.61

  -5  -5  -2   -0.27    3.94

  -5  -5  -2    0.27    4.47

  -5  -5  -1  451.30   11.46

  -5  -5  -1  477.50   24.95

  -5  -5  -1  467.39   10.66

  -5  -5   0   45.13    9.19

  -5  -5   0   49.80    4.37

  -5  -5   0   49.18    5.60

  -5  -5   1  270.32    9.61

  -5  -5   1  282.56    7.47

  -5  -5   2   59.75    3.70

  -5  -5   2   52.54    6.47

  -5  -5   3 1586.44   21.99

  -5  -5   3 1642.77   47.42

  -5  -5   4  581.94   30.15

  -5  -5   4  560.99   14.17

  -5  -5   5  507.88   14.08

  -4  -5 -16  130.23   12.34

  -4  -5 -15  220.21   15.20

  -4  -5 -14    7.23    9.30

  -4  -5 -13   22.72    9.59

  -4  -5 -12   20.35    9.46

  -4  -5 -12   13.17    5.80

  -4  -5 -11  367.11   13.28

  -4  -5 -10    0.82    5.44

  -4  -5  -9   93.68    7.54

  -4  -5  -8    2.09    4.97

  -4  -5  -7  471.91   12.77

  -4  -5  -6   24.98    5.26

  -4  -5  -6   25.20    5.20

  -4  -5  -5  498.14   12.28

  -4  -5  -5  516.87   12.30

  -4  -5  -4  512.27   12.37

  -4  -5  -4  501.89   11.86

  -4  -5  -4  488.75   26.87

  -4  -5  -3 1038.70   16.31

  -4  -5  -3 1074.61   38.00

  -4  -5  -2   10.88    7.34

  -4  -5  -2   11.93    4.12

  -4  -5  -2    7.84    4.69

  -4  -5  -1  438.04    8.08

  -4  -5  -1  448.70   11.23

  -4  -5  -1  458.48   24.57

  -4  -5  -1  425.28    9.61

  -4  -5   0   65.22   11.34

  -4  -5   0   56.56    3.41

  -4  -5   0   62.11    5.90

  -4  -5   0   61.66    4.23

  -4  -5   1  249.67    6.17

  -4  -5   1  247.90    6.32

  -4  -5   1  242.11    8.86

  -4  -5   2   19.61    2.75

  -4  -5   2   20.55    5.59

  -4  -5   2   17.64    2.30

  -4  -5   3  543.70    9.67

  -4  -5   3  505.38   27.19

  -4  -5   3  524.37   12.92

  -4  -5   4   46.04    6.29

  -4  -5   4   43.29   11.65

  -4  -5   5  188.99    9.44

  -3  -5 -16   -0.65    8.90

  -3  -5 -15   55.56   10.83

  -3  -5 -14   38.99    9.49

  -3  -5 -13   57.60    8.08

  -3  -5 -12   73.72    8.12

  -3  -5 -11  337.81   12.92

  -3  -5 -10  118.19    8.57

  -3  -5  -9   58.23    6.93

  -3  -5  -8   73.77    7.15

  -3  -5  -7  210.39    9.34

  -3  -5  -6  440.67   10.88

  -3  -5  -6  452.73   11.95

  -3  -5  -5   60.15    5.27

  -3  -5  -5   62.14    6.03

  -3  -5  -4   43.98    9.36

  -3  -5  -4   52.04    5.12

  -3  -5  -4   49.09    5.34

  -3  -5  -3  145.46    7.06

  -3  -5  -3  145.57   15.57

  -3  -5  -2  236.75    6.85

  -3  -5  -2  234.81    8.49

  -3  -5  -2  224.73   17.56

  -3  -5  -1  238.55    6.58

  -3  -5  -1  232.73    8.19

  -3  -5  -1  229.06   17.97

  -3  -5   0  702.48   10.65

  -3  -5   0  700.41   13.35

  -3  -5   0  696.23   29.41

  -3  -5   1  577.46    9.85

  -3  -5   1  563.05   12.29

  -3  -5   1  582.01    8.67

  -3  -5   2   19.54    3.16

  -3  -5   2   17.25    5.16

  -3  -5   2   19.91    1.96

  -3  -5   3  592.89   28.44

  -3  -5   3  562.49   12.83

  -3  -5   4  470.52   26.62

  -3  -5   4  436.23   11.80

  -3  -5   5   80.10    7.20

  -2  -5 -16   -2.05    9.03

  -2  -5 -15   17.18    7.21

  -2  -5 -14   36.44    7.84

  -2  -5 -13  112.74    9.69

  -2  -5 -12   26.85    7.32

  -2  -5 -11  168.45   10.23

  -2  -5 -10   37.77    7.03

  -2  -5  -9   39.55    6.64

  -2  -5  -8   34.08    6.48

  -2  -5  -7  259.42   10.09

  -2  -5  -6   38.04    4.16

  -2  -5  -6   41.08    5.91

  -2  -5  -5  430.11    9.64

  -2  -5  -5  407.44   11.00

  -2  -5  -4   16.57    9.09

  -2  -5  -4   29.42    3.98

  -2  -5  -4   27.26    4.88

  -2  -5  -3  169.56    7.25

  -2  -5  -3  126.81   14.09

  -2  -5  -2  523.88   10.20

  -2  -5  -2  537.88   11.44

  -2  -5  -2  485.44   25.28

  -2  -5  -1  324.80    8.00

  -2  -5  -1  327.31    9.24

  -2  -5  -1  334.59   20.80

  -2  -5   0    6.08    2.90

  -2  -5   0    3.86    4.41

  -2  -5   1  303.09    7.65

  -2  -5   1  316.18    9.08

  -2  -5   2   48.56    4.10

  -2  -5   2   51.32    5.30

  -2  -5   2   50.02   11.15

  -2  -5   3  446.97   25.21

  -2  -5   3  457.82   11.14

  -2  -5   4    3.23    8.07

  -2  -5   4    4.06    4.55

  -2  -5   5   41.51    5.66

  -2  -5   5   33.26    9.82

  -2  -5   6   36.81    5.93

  -1  -5 -16    1.53    6.50

  -1  -5 -15   26.87    8.27

  -1  -5 -14   30.03    7.69

  -1  -5 -13  132.06   10.39

  -1  -5 -12    2.18    6.87

  -1  -5 -11  116.04    9.32

  -1  -5 -10   14.73    6.61

  -1  -5  -9   19.46    6.70

  -1  -5  -8    6.89    6.01

  -1  -5  -7  202.12    9.55

  -1  -5  -6    3.32    5.17

  -1  -5  -5  462.10    8.81

  -1  -5  -5  448.69   11.56

  -1  -5  -4    2.56    8.46

  -1  -5  -4    1.93    2.55

  -1  -5  -4    0.12    4.59

  -1  -5  -3  367.79    9.26

  -1  -5  -3  360.74    9.87

  -1  -5  -3  372.41   22.70

  -1  -5  -2  109.73    5.54

  -1  -5  -2  116.73    6.38

  -1  -5  -2   90.79   11.65

  -1  -5  -1  724.35   12.01

  -1  -5  -1  765.57   12.89

  -1  -5   0    2.27    3.34

  -1  -5   0    2.00    3.78

  -1  -5   1  575.63   10.74

  -1  -5   1  581.65   11.36

  -1  -5   2   84.77    3.44

  -1  -5   2   82.50    5.11

  -1  -5   2   84.02    5.68

  -1  -5   2   83.32   12.22

  -1  -5   3  652.28    9.81

  -1  -5   3  635.61   28.94

  -1  -5   3  672.30   12.62

  -1  -5   4   56.62    4.23

  -1  -5   4   52.40    5.36

  -1  -5   4   58.52   11.31

  -1  -5   5   13.88    3.77

  -1  -5   5   22.04    8.12

  -1  -5   5   16.96    4.80

  -1  -5   6    5.43    4.03

  -1  -5   6    5.55    4.72

  -1  -5   7  718.58   14.77

   0  -5 -16    9.69    7.10

   0  -5 -15  130.01   11.35

   0  -5 -14    5.62    7.12

   0  -5 -13  122.73   10.59

   0  -5 -12   60.43    8.56

   0  -5 -11  280.12   13.05

   0  -5 -10   11.34    7.25

   0  -5  -9  223.72   10.95

   0  -5  -8   -2.14    5.91

   0  -5  -7 1182.71   19.81

   0  -5  -6    0.46    5.26

   0  -5  -5  704.42   14.13

   0  -5  -4    2.97    8.89

   0  -5  -4   -0.52    1.97

   0  -5  -4    0.80    4.29

   0  -5  -3 1191.65   16.34

   0  -5  -3 1191.14   16.53

   0  -5  -3 1132.97   38.05

   0  -5  -2   30.93    8.11

   0  -5  -2   35.90    4.15

   0  -5  -2   36.27    4.86

   0  -5  -1  783.47   12.72

   0  -5  -1  832.91   13.13

   0  -5   0   -0.27    3.48

   0  -5   0    0.06    3.60

   0  -5   1  808.79    8.51

   0  -5   1  819.52   13.00

   0  -5   1  773.46   12.50

   0  -5   2   36.27    2.86

   0  -5   2   37.64    4.63

   0  -5   2   32.50    9.26

   0  -5   2   35.85    4.20

   0  -5   3 1182.95   13.34

   0  -5   3 1270.45   40.04

   0  -5   3 1181.62   15.74

   0  -5   4    1.38    2.89

   0  -5   4   -1.90    9.02

   0  -5   4    0.51    3.58

   0  -5   5  692.39   12.51

   0  -5   5  755.80   33.74

   0  -5   5  701.27   13.10

   0  -5   6   -0.46    3.95

   0  -5   6    1.45    4.00

   0  -5   7 1098.54   17.94

   0  -5   8    2.82    5.49

   0  -5   9  213.80   10.48

   0  -5  10   16.77    6.75

   1  -5 -16    2.62    7.81

   1  -5 -15  117.72   11.69

   1  -5 -14   10.47    7.71

   1  -5 -13  140.55   11.13

   1  -5 -12   57.79    9.09

   1  -5 -11  268.41   13.10

   1  -5 -10   17.41    7.74

   1  -5  -9  183.78   10.60

   1  -5  -8    2.77    6.76

   1  -5  -7  749.29   16.38

   1  -5  -6    5.85    5.82

   1  -5  -5   14.83    4.91

   1  -5  -4   51.78   12.10

   1  -5  -4   57.37    5.48

   1  -5  -4   56.21    5.81

   1  -5  -3  640.01   12.64

   1  -5  -3  679.18   29.81

   1  -5  -3  657.43   12.52

   1  -5  -2   69.61   11.51

   1  -5  -2   84.95    5.15

   1  -5  -2   78.16    5.20

   1  -5  -1  566.94   11.26

   1  -5  -1  587.55   10.96

   1  -5  -1  586.76   26.34

   1  -5   0    2.37    3.21

   1  -5   0    2.64    1.65

   1  -5   0    1.57    3.13

   1  -5   1  729.64   12.75

   1  -5   1  721.90    9.03

   1  -5   1  762.38   12.11

   1  -5   2  113.90    6.22

   1  -5   2  115.74    4.50

   1  -5   2  116.86   13.56

   1  -5   2  117.60    5.52

   1  -5   3  365.86    8.10

   1  -5   3  360.88   22.14

   1  -5   3  371.49    8.88

   1  -5   4    0.51    3.15

   1  -5   4   -2.52    8.37

   1  -5   4    3.12    3.43

   1  -5   5  470.01   10.66

   1  -5   5  462.74   26.54

   1  -5   5  457.02   10.17

   1  -5   6    3.84    3.52

   1  -5   6    3.92    4.32

   1  -5   7  191.73    8.74

   1  -5   8    2.85    5.28

   1  -5   9   14.13    6.22

   1  -5  10   17.26    6.91

   1  -5  11  131.35   10.38

   1  -5  12   -1.34    7.91

   2  -5 -16   17.16    7.89

   2  -5 -15   61.34   10.21

   2  -5 -14    8.18    7.73

   2  -5 -13  144.36   11.46

   2  -5 -12   38.47    8.45

   2  -5 -12   48.67    8.06

   2  -5 -11   77.55    9.74

   2  -5 -11   78.45    8.80

   2  -5 -10  150.99    9.99

   2  -5  -9  214.67   10.80

   2  -5  -8    2.00    5.84

   2  -5  -8    6.51    7.10

   2  -5  -7  648.94   15.60

   2  -5  -7  622.87   15.27

   2  -5  -6   39.63    6.48

   2  -5  -6   36.40    6.15

   2  -5  -5   48.87    6.05

   2  -5  -4    3.92    9.03

   2  -5  -4    5.69    3.88

   2  -5  -4    2.28    4.17

   2  -5  -3  442.98   10.90

   2  -5  -3  436.80   10.53

   2  -5  -3  446.15   24.11

   2  -5  -2   54.78   11.28

   2  -5  -2   46.19    4.40

   2  -5  -2   45.15    4.51

   2  -5  -1  311.39    8.97

   2  -5  -1  303.37    8.14

   2  -5  -1  296.77   19.78

   2  -5   0    5.58    8.99

   2  -5   0    9.20    3.48

   2  -5   1  328.27    9.14

   2  -5   1  311.16    7.90

   2  -5   2  505.55   11.26

   2  -5   2  537.64    9.51

   2  -5   2  540.50    9.95

   2  -5   3  152.86    5.98

   2  -5   3  158.95   15.16

   2  -5   3  158.19    5.89

   2  -5   4   32.47    3.78

   2  -5   4   22.27    4.08

   2  -5   4   25.33    8.55

   2  -5   5  428.90   10.68

   2  -5   5  384.77   24.30

   2  -5   5  415.48    9.31

   2  -5   6   36.64    5.34

   2  -5   7  242.78    9.82

   2  -5   8   24.29    6.47

   2  -5   9   45.07    7.23

   2  -5  10   33.81    7.62

   2  -5  11  162.19   11.28

   2  -5  12   27.23    8.53

   2  -5  13  102.69   11.21

   3  -5 -16   28.71    9.72

   3  -5 -15   43.16    9.42

   3  -5 -14   44.03    9.84

   3  -5 -13  185.24   12.51

   3  -5 -12   60.30    8.74

   3  -5 -11   13.73    7.18

   3  -5 -10   44.57    8.32

   3  -5  -9   51.08    8.04

   3  -5  -8   43.89    7.35

   3  -5  -7   70.76    8.08

   3  -5  -6   65.97    7.03

   3  -5  -6   69.28    7.35

   3  -5  -5   94.84    6.88

   3  -5  -5   88.59    7.01

   3  -5  -4  437.18   11.67

   3  -5  -4  427.61   11.04

   3  -5  -4  448.68   25.01

   3  -5  -3  545.99   12.64

   3  -5  -3  585.33   27.76

   3  -5  -3  574.84   11.93

   3  -5  -2   15.57    7.37

   3  -5  -2   16.30    4.51

   3  -5  -2   18.48    4.02

   3  -5  -1  550.96   12.16

   3  -5  -1  560.84   10.67

   3  -5  -1  549.28   25.11

   3  -5   0  696.47   13.38

   3  -5   0  722.59   28.82

   3  -5   0  667.22   11.10

   3  -5   1  239.49    8.52

   3  -5   1  237.76    6.85

   3  -5   2  231.05    8.48

   3  -5   2  230.36    6.64

   3  -5   3  140.37    6.31

   3  -5   3  151.28   14.72

   3  -5   3  137.83    5.33

   3  -5   4   53.21    5.19

   3  -5   4   59.84    4.01

   3  -5   4   42.19   10.42

   3  -5   5   57.30    5.73

   3  -5   5   65.96    4.22

   3  -5   5   65.44   13.13

   3  -5   6  417.80   11.83

   3  -5   7  203.53    9.82

   3  -5   8   81.54    8.11

   3  -5   9   55.62    7.87

   3  -5  10  105.79    9.78

   3  -5  11  323.79   14.36

   3  -5  12   68.69   10.08

   3  -5  13   42.03    8.98

   3  -5  14   48.12    9.40

   4  -5 -16   33.35    9.08

   4  -5 -15   17.53    9.48

   4  -5 -15   13.37    7.60

   4  -5 -14   -1.48    7.24

   4  -5 -13   90.41   10.58

   4  -5 -12    8.99    7.45

   4  -5 -11  140.85   10.88

   4  -5 -10    1.44    7.14

   4  -5  -9  353.85   13.95

   4  -5  -8   26.98    7.46

   4  -5  -7  266.63   11.76

   4  -5  -6   20.46    6.25

   4  -5  -5  186.92    8.64

   4  -5  -5  183.93    9.22

   4  -5  -4   44.27    5.98

   4  -5  -4   40.43    5.27

   4  -5  -4   50.34    6.25

   4  -5  -3  512.13   12.69

   4  -5  -3  498.31   11.25

   4  -5  -3  486.03   25.43

   4  -5  -2   20.29    8.62

   4  -5  -2   18.57    4.71

   4  -5  -2   16.57    3.84

   4  -5  -1  241.50    8.92

   4  -5  -1  229.53    7.22

   4  -5  -1  289.12   19.00

   4  -5   0   52.31    9.91

   4  -5   0   59.53    6.11

   4  -5   0   58.85    4.21

   4  -5   1  396.98   10.86

   4  -5   1  411.31    8.41

   4  -5   2   10.89    4.94

   4  -5   2   11.95    2.84

   4  -5   3 1035.12   36.04

   4  -5   3 1027.03   12.30

   4  -5   4  502.02   11.91

   4  -5   4  528.46   27.43

   4  -5   4  516.33    8.77

   4  -5   5  510.08   12.81

   4  -5   5  496.99   27.58

   4  -5   6   25.00    5.97

   4  -5   7  448.76   13.46

   4  -5   8   -1.70    6.15

   4  -5   9   87.65    8.93

   4  -5  10    0.29    6.96

   4  -5  11  366.97   15.63

   4  -5  12    8.70    7.95

   4  -5  13   25.63    9.26

   4  -5  14    5.47    7.76

   4  -5  15  222.10   15.11

   5  -5 -15  128.68   13.01

   5  -5 -15  114.76   11.85

   5  -5 -14    8.64    8.61

   5  -5 -13   80.02   10.07

   5  -5 -12    0.44    8.28

   5  -5 -11  180.58   12.65

   5  -5 -10   17.20    8.41

   5  -5  -9  220.55   12.26

   5  -5  -8   47.75    8.26

   5  -5  -7  462.33   14.76

   5  -5  -6    0.96    6.02

   5  -5  -5  470.10   13.34

   5  -5  -4  538.36   13.63

   5  -5  -4  544.38   12.64

   5  -5  -4  551.27   13.49

   5  -5  -3 1503.85   21.12

   5  -5  -3 1473.16   18.99

   5  -5  -3 1517.74   20.38

   5  -5  -3 1605.86   44.71

   5  -5  -2   63.23   11.05

   5  -5  -2   50.01    5.68

   5  -5  -2   55.31    4.81

   5  -5  -1  269.23    9.77

   5  -5  -1  275.21    7.75

   5  -5  -1  279.33   18.31

   5  -5   0   51.50   10.09

   5  -5   0   52.72    5.75

   5  -5   0   46.44    3.90

   5  -5   1  449.07   11.82

   5  -5   1  464.79   23.26

   5  -5   1  452.94    8.55

   5  -5   2    0.59    5.01

   5  -5   2    1.36    2.39

   5  -5   3  349.82   11.42

   5  -5   4   39.97    9.26

   5  -5   5  441.91   12.73

   5  -5   5  451.30   26.19

   5  -5   6    4.51    6.03

   5  -5   7  326.79   12.42

   5  -5   8   46.40    8.11

   5  -5   9  272.44   13.21

   5  -5  10   22.61    8.39

   5  -5  11  397.31   16.51

   5  -5  12    4.56    7.79

   5  -5  13   18.05    8.31

   5  -5  14    8.77    8.95

   5  -5  15   92.42   11.14

   6  -5 -15   45.41    9.18

   6  -5 -14   44.73    9.88

   6  -5 -13  109.73   11.52

   6  -5 -12   85.97   10.84

   6  -5 -11  192.17   12.96

   6  -5 -10   38.89    9.36

   6  -5  -9  194.75   12.04

   6  -5  -8   25.32    7.84

   6  -5  -7  193.65   10.97

   6  -5  -6  128.13    9.44

   6  -5  -5   61.77    7.16

   6  -5  -4    9.41    5.74

   6  -5  -4   17.45    5.64

   6  -5  -4   10.75    4.72

   6  -5  -3  419.32   12.25

   6  -5  -3  431.41   10.95

   6  -5  -3  424.94   11.69

   6  -5  -2  233.13    9.51

   6  -5  -2  220.88    7.64

   6  -5  -2  223.39    8.67

   6  -5  -2  238.47   17.21

   6  -5  -1   55.17    9.87

   6  -5  -1   53.43    6.17

   6  -5  -1   48.65    4.30

   6  -5   0  278.54   10.05

   6  -5   0  279.20    7.29

   6  -5   0  264.67   17.69

   6  -5   1  712.73   15.20

   6  -5   1  712.92   27.76

   6  -5   2   17.94    5.39

   6  -5   3  194.83    9.41

   6  -5   4  151.74    9.03

   6  -5   4  188.89   16.57

   6  -5   5  262.06   10.97

   6  -5   6   21.59    6.74

   6  -5   7   30.86    7.28

   6  -5   8   -2.81    7.36

   6  -5   9   58.22    8.96

   6  -5  10   53.43    9.21

   6  -5  11   83.93   10.33

   6  -5  12   61.48   10.13

   6  -5  13   34.44    9.90

   6  -5  14   36.15    9.12

   6  -5  15   63.74   10.18

   7  -5 -15    4.78    8.66

   7  -5 -14    3.83    8.79

   7  -5 -13  140.46   12.24

   7  -5 -12   65.97   10.46

   7  -5 -11   60.92   10.11

   7  -5 -10  109.82   10.85

   7  -5  -9  175.68   12.11

   7  -5  -8   36.78    8.22

   7  -5  -7  135.83   10.17

   7  -5  -6   65.36    7.79

   7  -5  -5  218.77   10.52

   7  -5  -4    4.90    5.46

   7  -5  -4    7.21    5.24

   7  -5  -4   12.88    4.82

   7  -5  -3  149.13    8.31

   7  -5  -3  152.89    7.38

   7  -5  -3  142.23    7.89

   7  -5  -2   28.65    5.09

   7  -5  -2   24.62    5.62

   7  -5  -2   25.97    4.30

   7  -5  -1   25.79    5.42

   7  -5  -1   28.71    3.83

   7  -5   0   40.36    5.92

   7  -5   1  426.72   12.54

   7  -5   2    4.27    5.21

   7  -5   3   87.87    7.34

   7  -5   4   78.53    7.34

   7  -5   6   24.17    7.14

   7  -5   7  136.62   10.64

   7  -5   8   -0.71    6.92

   7  -5   9   81.33    9.85

   7  -5  10   27.57    9.02

   7  -5  11   41.50    9.69

   7  -5  12    5.21    8.81

   7  -5  13   35.39    9.87

   7  -5  14    3.61    8.33

   8  -5 -14   32.18   10.02

   8  -5 -13  140.55   12.45

   8  -5 -12   18.26    9.60

   8  -5 -11   16.64    9.31

   8  -5 -10    6.17    8.62

   8  -5  -9   42.79    8.71

   8  -5  -8    1.06    6.98

   8  -5  -7    1.64    6.68

   8  -5  -6    1.76    6.88

   8  -5  -5  144.03    9.45

   8  -5  -4    0.33    5.48

   8  -5  -4    3.32    4.57

   8  -5  -3   63.82    6.79

   8  -5  -3   60.81    5.41

   8  -5  -3   61.02    6.50

   8  -5  -2   84.73    7.02

   8  -5  -2   85.45    6.55

   8  -5  -1   84.97    7.16

   8  -5   0    6.02    5.06

   8  -5   1  358.20   11.76

   8  -5   2   25.96    5.69

   8  -5   3   60.35    6.99

   8  -5   4   -0.90    5.65

   8  -5   5    4.60    6.03

   8  -5   6   12.37    7.42

   8  -5   7  125.43   10.59

   8  -5   8    0.06    7.37

   8  -5   9   79.44   10.41

   8  -5  10   24.44    8.83

   8  -5  11   94.81   11.28

   8  -5  12   18.26    9.22

   8  -5  13   33.15    9.83

   8  -5  14   10.24    9.00

   9  -5 -13   86.65   11.01

   9  -5 -12   -0.03    9.05

   9  -5 -11   41.33   10.00

   9  -5 -10    0.81    8.04

   9  -5  -9  128.75   11.37

   9  -5  -8    0.51    7.12

   9  -5  -7  178.80   11.48

   9  -5  -6    2.86    6.47

   9  -5  -5  453.36   14.84

   9  -5  -4    0.35    5.72

   9  -5  -3  325.16   11.62

   9  -5  -3  307.43   11.34

   9  -5  -2   -0.07    4.32

   9  -5  -2    0.33    4.85

   9  -5  -1  139.22    8.26

   9  -5   0    5.46    4.92

   9  -5   1  336.38   11.91

   9  -5   2   49.74    6.44

   9  -5   3  152.63    9.17

   9  -5   4    2.27    5.37

   9  -5   5  235.35   11.42

   9  -5   6   16.30    6.35

   9  -5   7  370.59   14.54

   9  -5   7  361.11   15.82

   9  -5   8    5.47    8.09

   9  -5   9  206.53   13.06

   9  -5  10    7.61    8.55

   9  -5  11  180.11   13.88

   9  -5  12   66.06   11.00

   9  -5  13   53.01   10.56

  10  -5 -12   46.50    9.36

  10  -5 -11   59.28    9.74

  10  -5 -10    2.14    8.31

  10  -5  -9  139.35   11.58

  10  -5  -8    5.87    7.67

  10  -5  -7  140.02   10.50

  10  -5  -6   -2.46    6.95

  10  -5  -5  105.54    9.15

  10  -5  -4   20.29    6.10

  10  -5  -3  195.75    9.85

  10  -5   2    1.90    4.95

  10  -5   3   69.88    7.35

  10  -5   4   22.90    6.09

  10  -5   5  299.41   12.61

  10  -5   6   34.04    7.11

  10  -5   7   54.01    7.95

  10  -5   7   63.65   10.09

  10  -5   8   11.19    6.73

  10  -5   8   12.00    8.01

  10  -5   9   77.65    9.34

  10  -5   9   76.92   10.16

  10  -5  10   25.84    9.50

  10  -5  11   52.29   10.46

  10  -5  12   12.26    9.36

  11  -5 -11   40.61    9.26

  11  -5 -10   95.17   11.08

  11  -5  -9  239.21   14.19

  11  -5  -8   25.54    8.16

  11  -5  -7  208.26   12.52

  11  -5  -6   -0.72    6.78

  11  -5  -5   61.10    7.87

  11  -5  -4   10.12    5.97

  11  -5   7   34.16    9.47

  11  -5   8   -3.02    8.85

  11  -5   9   57.28   10.78

  11  -5  10   -2.53    8.73

  11  -5  11   32.77    9.66

  12  -5 -10    2.29    8.39

  12  -5  -9   44.59    8.62

  12  -5  -8   18.77    7.58

  12  -5  -7    4.53    7.37

  12  -5  -6   55.64    8.28

  12  -5   7   18.35    9.33

  12  -5   8    5.34    9.23

  12  -5   9   48.62   10.40

  12  -5  10   24.14    9.49

  13  -5  -9  107.50   10.77

  13  -5  -8   -2.77    6.79

  13  -5   7   29.47    9.45

  13  -5   8   15.75    9.30

  14  -5   6    0.74    8.98

 -15  -6   0   51.32   10.93

 -15  -6   1   27.74   10.45

 -14  -6  -5    4.70    9.35

 -14  -6  -5    4.32    8.43

 -14  -6  -4  100.59   11.62

 -14  -6  -4  100.68   11.13

 -14  -6  -3    4.94    8.52

 -14  -6  -3    1.19    9.67

 -14  -6  -3    1.16    8.22

 -14  -6  -2  129.01   11.82

 -14  -6  -2  114.23   12.95

 -14  -6  -1    3.48    9.72

 -14  -6   0    5.52    8.79

 -14  -6   1   37.72   10.70

 -14  -6   2  116.16   12.14

 -14  -6   3   19.29    8.92

 -14  -6   4  143.32   13.23

 -14  -6   5    1.63    8.61

 -14  -6   6   11.74    8.70

 -13  -6  -7    6.13    9.24

 -13  -6  -7   -1.48    9.80

 -13  -6  -6   84.58   11.75

 -13  -6  -6   94.83   11.77

 -13  -6  -5    4.85    8.39

 -13  -6  -5    3.31    9.07

 -13  -6  -4  149.16   12.99

 -13  -6  -4  155.31   14.11

 -13  -6  -4  130.18   12.46

 -13  -6  -3    2.09    8.18

 -13  -6  -3    5.11    9.31

 -13  -6  -3    5.28    7.63

 -13  -6  -2  200.68   13.43

 -13  -6  -2  203.67   14.54

 -13  -6  -2  200.18   13.12

 -13  -6  -1    4.28    7.07

 -13  -6  -1    2.84    8.88

 -13  -6   0   18.31    9.29

 -13  -6   1    1.77    9.49

 -13  -6   2    8.44    8.72

 -13  -6   3    2.80    8.67

 -12  -6  -9   13.47   10.32

 -12  -6  -9   -1.87    9.83

 -12  -6  -8   51.41   11.23

 -12  -6  -8   54.47   10.56

 -12  -6  -7   -0.94   10.05

 -12  -6  -7    3.57    8.83

 -12  -6  -6  105.12   11.60

 -12  -6  -5   23.81   10.40

 -12  -6  -5   17.99    8.81

 -12  -6  -4    4.86    8.91

 -12  -6  -4    8.04    8.27

 -12  -6  -3    1.76    9.14

 -12  -6  -3    0.54    7.47

 -12  -6  -2   32.35    8.66

 -12  -6  -2   44.31   10.08

 -12  -6  -2   29.65    7.85

 -12  -6  -1   30.64    7.91

 -12  -6  -1   28.77   10.23

 -12  -6  -1   34.50    7.67

 -12  -6   0  119.63    9.91

 -12  -6   0  115.50   12.59

 -12  -6   1   20.87    9.84

 -11  -6 -10    4.60    8.88

 -11  -6  -9   -2.28    8.74

 -11  -6  -8   71.57   11.62

 -11  -6  -7   -2.53    8.68

 -11  -6  -6  216.80   14.58

 -11  -6  -5   36.26    9.54

 -11  -6  -5   32.38    8.81

 -11  -6  -4    3.96    8.66

 -11  -6  -4    5.50    7.58

 -11  -6  -3   76.63   11.43

 -11  -6  -3   77.14    9.86

 -11  -6  -2    3.97    9.06

 -11  -6  -2    7.20    7.19

 -11  -6  -1   13.66    8.87

 -11  -6  -1   20.25    6.98

 -11  -6   0   90.32   10.89

 -10  -6 -12  244.86   15.67

 -10  -6 -11    7.49   10.08

 -10  -6 -10   50.43   11.07

 -10  -6  -9   46.64   10.51

 -10  -6  -8   82.39   11.72

 -10  -6  -7    7.66    9.00

 -10  -6  -6  229.66   14.01

 -10  -6  -6  247.23   14.61

 -10  -6  -5   62.57    9.95

 -10  -6  -5   65.01    9.60

 -10  -6  -4  225.86   14.32

 -10  -6  -4  242.41   13.21

 -10  -6  -3   45.14   10.09

 -10  -6  -3   51.63    8.55

 -10  -6  -2  234.29   12.21

 -10  -6  -2  236.15   14.31

 -10  -6  -1   67.46   10.25

 -10  -6  -1   64.27    7.10

 -10  -6  -1   67.86    7.96

 -10  -6   0  517.46   15.28

 -10  -6   0  512.50   15.23

 -10  -6   1    7.77    6.26

  -9  -6 -12  105.36   13.13

  -9  -6 -11    9.45    9.12

  -9  -6 -10   22.74   10.39

  -9  -6  -9   12.85    9.73

  -9  -6  -8   84.23   11.27

  -9  -6  -7   81.83   10.85

  -9  -6  -6   45.61    9.42

  -9  -6  -6   41.23    9.27

  -9  -6  -5   27.90    8.79

  -9  -6  -5   31.96    8.55

  -9  -6  -4  109.97   10.99

  -9  -6  -4  102.88    9.87

  -9  -6  -3   -1.68    8.01

  -9  -6  -3    3.30    5.14

  -9  -6  -3    1.78    6.47

  -9  -6  -2  201.67   12.98

  -9  -6  -2  221.55   10.36

  -9  -6  -2  220.99   11.18

  -9  -6  -1    0.19    5.52

  -9  -6  -1    3.41    5.60

  -9  -6   0  258.23   11.16

  -9  -6   0  253.90   10.71

  -9  -6   1    5.43    6.17

  -9  -6   2   88.56    8.30

  -8  -6 -13    6.32    9.15

  -8  -6 -12   58.49   10.54

  -8  -6 -11    0.01    9.37

  -8  -6 -10   66.41   11.09

  -8  -6  -9    2.00    8.87

  -8  -6  -8  363.09   16.73

  -8  -6  -7   64.68    9.82

  -8  -6  -6  149.52   11.33

  -8  -6  -6  150.58   11.12

  -8  -6  -5   21.41    7.83

  -8  -6  -5   20.38    5.70

  -8  -6  -5   24.68    7.86

  -8  -6  -4  154.92   11.14

  -8  -6  -4  178.93    9.27

  -8  -6  -4  153.27   10.27

  -8  -6  -3    6.49    6.52

  -8  -6  -3    7.05    7.51

  -8  -6  -3    5.22    5.35

  -8  -6  -2  266.51   10.84

  -8  -6  -2  254.19   11.01

  -8  -6  -1   14.95    5.88

  -8  -6  -1   17.83    5.56

  -8  -6   0  190.52    9.83

  -8  -6   0  178.50    8.73

  -8  -6   1    2.86    5.69

  -8  -6   2   62.55    7.57

  -8  -6   3   -0.93    6.30

  -7  -6 -14   30.29   10.40

  -7  -6 -13   24.24    9.25

  -7  -6 -12    2.07    9.43

  -7  -6 -11   41.67   10.47

  -7  -6 -10   24.39    9.09

  -7  -6  -9    2.39    8.89

  -7  -6  -8  181.46   12.79

  -7  -6  -7   13.46    7.07

  -7  -6  -7   15.82    5.45

  -7  -6  -7   16.60    8.42

  -7  -6  -6   78.33    8.97

  -7  -6  -6   74.89    7.18

  -7  -6  -6   74.44    9.31

  -7  -6  -5    3.20    6.78

  -7  -6  -5    3.67    5.22

  -7  -6  -5    5.98    7.09

  -7  -6  -4   95.95    9.15

  -7  -6  -4  104.95    7.59

  -7  -6  -4  102.94    8.64

  -7  -6  -3   18.87    7.79

  -7  -6  -3   20.44    5.80

  -7  -6  -3   19.61    6.33

  -7  -6  -2   46.69    6.68

  -7  -6  -2   45.51    6.31

  -7  -6  -1   36.54    6.54

  -7  -6  -1   39.15    5.70

  -7  -6   0   18.94    6.01

  -7  -6   0   15.88    4.58

  -7  -6   1   26.70    6.44

  -7  -6   1   26.14    4.45

  -7  -6   2   24.79    6.94

  -7  -6   3   38.96    7.21

  -7  -6   4   33.68    7.87

  -6  -6 -14   65.78   11.00

  -6  -6 -13   51.19   10.83

  -6  -6 -12   53.73   10.18

  -6  -6 -11   -0.60    8.59

  -6  -6 -10  179.96   12.95

  -6  -6  -9  101.35    8.21

  -6  -6  -9  102.89   11.02

  -6  -6  -8  127.62    8.58

  -6  -6  -8  143.88   11.31

  -6  -6  -7    8.05    7.49

  -6  -6  -7    9.06    6.34

  -6  -6  -7    6.64    5.38

  -6  -6  -6   25.58    6.83

  -6  -6  -6   20.67    5.62

  -6  -6  -6   27.32    7.87

  -6  -6  -5    4.84    6.60

  -6  -6  -5    1.69    6.27

  -6  -6  -5   -0.10    5.18

  -6  -6  -4  400.96   13.46

  -6  -6  -4  404.75   12.59

  -6  -6  -4  442.12   13.46

  -6  -6  -3   -0.67    5.50

  -6  -6  -3    1.01    5.09

  -6  -6  -2  293.69   10.86

  -6  -6  -2  288.64   10.26

  -6  -6  -1  173.05    7.87

  -6  -6  -1  170.48    9.04

  -6  -6   0  320.19   11.44

  -6  -6   0  339.62    9.77

  -6  -6   1  128.05    8.81

  -6  -6   1  116.99    5.85

  -6  -6   2  921.85   18.96

  -6  -6   3   43.77    7.59

  -6  -6   4  417.50   14.00

  -6  -6   5   81.38    8.72

  -5  -6 -15   -1.44    8.35

  -5  -6 -14   64.29   10.84

  -5  -6 -13   28.24    9.53

  -5  -6 -12  117.94   12.55

  -5  -6 -11   56.30   10.11

  -5  -6 -11   46.71    7.13

  -5  -6 -10  566.23   16.32

  -5  -6 -10  581.77   19.48

  -5  -6  -9    1.03    8.02

  -5  -6  -9   -0.12    5.60

  -5  -6  -8  268.37   11.18

  -5  -6  -8  269.41   13.72

  -5  -6  -7   26.90    7.75

  -5  -6  -7   23.00    6.06

  -5  -6  -7   22.16    5.83

  -5  -6  -6    1.79    5.23

  -5  -6  -6    4.04    6.91

  -5  -6  -6    4.89    5.19

  -5  -6  -5   59.18    7.12

  -5  -6  -5   65.37    6.90

  -5  -6  -5   60.29    7.37

  -5  -6  -4  500.32   13.80

  -5  -6  -4  490.13   13.35

  -5  -6  -4  499.95   13.80

  -5  -6  -3   38.43    5.79

  -5  -6  -3   35.30    6.08

  -5  -6  -2  285.13   10.55

  -5  -6  -2  277.75    9.57

  -5  -6  -1   72.72   13.42

  -5  -6  -1   83.55    7.14

  -5  -6  -1   90.75    5.97

  -5  -6   0  101.46   14.83

  -5  -6   0  100.35    7.54

  -5  -6   0   98.36    5.60

  -5  -6   1  142.91    8.85

  -5  -6   1  122.89   15.73

  -5  -6   1  144.57    5.77

  -5  -6   2  810.16   17.31

  -5  -6   3   18.84    6.33

  -5  -6   4  737.60   17.29

  -5  -6   5    5.61    6.99

  -4  -6 -15   -4.79    8.56

  -4  -6 -14  107.37   12.67

  -4  -6 -13    4.62    9.63

  -4  -6 -12   21.50    9.46

  -4  -6 -12   15.20    6.32

  -4  -6 -11    0.51    6.03

  -4  -6 -10  177.99   10.33

  -4  -6  -9    4.19    5.69

  -4  -6  -8  229.43   10.81

  -4  -6  -7    0.94    4.74

  -4  -6  -7    0.79    5.75

  -4  -6  -6   83.60    6.76

  -4  -6  -6   78.23    7.26

  -4  -6  -5   31.23    5.50

  -4  -6  -5   34.13    6.04

  -4  -6  -4 1141.04   18.62

  -4  -6  -4 1136.83   19.14

  -4  -6  -3   33.39    5.96

  -4  -6  -2  891.22   16.81

  -4  -6  -2  943.88   38.07

  -4  -6  -1   48.87   11.12

  -4  -6  -1   45.09    3.97

  -4  -6  -1   46.89    6.14

  -4  -6  -1   42.60    4.62

  -4  -6   0  121.82    5.30

  -4  -6   0  115.18    8.01

  -4  -6   0  116.31   15.08

  -4  -6   0  116.81    5.56

  -4  -6   1   76.61    4.48

  -4  -6   1   75.65    6.94

  -4  -6   1   70.66    4.03

  -4  -6   2  138.10    5.78

  -4  -6   2  133.84    8.35

  -4  -6   3    1.07    2.99

  -4  -6   3    1.13    6.24

  -4  -6   4  293.16    8.67

  -4  -6   4  300.55   11.66

  -4  -6   5    3.30    6.27

  -4  -6   6   45.95    7.72

  -3  -6 -15    9.04    8.59

  -3  -6 -14  238.22   13.15

  -3  -6 -14  252.40   16.07

  -3  -6 -13   98.56    9.45

  -3  -6 -12   93.12    9.51

  -3  -6 -11   10.12    6.95

  -3  -6 -10   70.68    8.12

  -3  -6  -9    4.87    5.98

  -3  -6  -8  164.12    9.64

  -3  -6  -7    5.18    5.88

  -3  -6  -6  167.68    7.65

  -3  -6  -6  155.99    8.66

  -3  -6  -5   55.09    5.51

  -3  -6  -5   54.74    6.60

  -3  -6  -4  380.81   11.74

  -3  -6  -3  207.63    9.06

  -3  -6  -2  389.30    9.52

  -3  -6  -2  386.10   11.36

  -3  -6  -1   81.30   13.70

  -3  -6  -1   71.49    4.89

  -3  -6  -1   77.37    6.86

  -3  -6   0  417.75    9.58

  -3  -6   0  414.29   11.68

  -3  -6   0  478.09   27.31

  -3  -6   1   27.10    3.79

  -3  -6   1   27.61    5.61

  -3  -6   1   24.87    2.78

  -3  -6   2  233.64    7.55

  -3  -6   2  258.31   10.15

  -3  -6   3   11.12    3.60

  -3  -6   3    9.14    5.99

  -3  -6   4  319.19   11.44

  -3  -6   5   52.07    7.22

  -3  -6   6  219.53   10.71

  -2  -6 -16   10.54    8.41

  -2  -6 -15   18.68    7.71

  -2  -6 -14   22.05    7.93

  -2  -6 -13    3.08    7.25

  -2  -6 -12  100.28    9.81

  -2  -6 -11   26.15    7.29

  -2  -6 -10   26.96    7.49

  -2  -6  -9   68.73    8.25

  -2  -6  -8  153.21    9.55

  -2  -6  -7    4.17    6.19

  -2  -6  -6  476.51   10.67

  -2  -6  -6  470.89   13.47

  -2  -6  -5    7.93    3.63

  -2  -6  -5    5.01    5.23

  -2  -6  -4   50.51    6.45

  -2  -6  -3   36.76    4.73

  -2  -6  -3   39.70    5.68

  -2  -6  -2   52.70   12.64

  -2  -6  -2   44.88    4.76

  -2  -6  -2   47.40    5.80

  -2  -6  -1  258.15    8.09

  -2  -6  -1  263.57    9.63

  -2  -6  -1  268.83   20.42

  -2  -6   0  221.34    7.54

  -2  -6   0  225.29    8.99

  -2  -6   0  235.90   19.97

  -2  -6   1  146.62    6.59

  -2  -6   1  144.24    7.86

  -2  -6   2  177.37    7.05

  -2  -6   2  166.54    8.07

  -2  -6   3   66.65    5.26

  -2  -6   3   60.14    6.55

  -2  -6   4  188.60    9.09

  -2  -6   5    9.82    5.64

  -2  -6   6  457.87   13.05

  -1  -6 -16    1.64    7.66

  -1  -6 -15   -2.69    7.27

  -1  -6 -14   77.16    9.54

  -1  -6 -13   -0.82    6.84

  -1  -6 -12  326.94   14.81

  -1  -6 -11    6.92    7.57

  -1  -6 -10  140.71   10.26

  -1  -6  -9    3.90    7.08

  -1  -6  -8  182.94   10.56

  -1  -6  -7    9.71    6.43

  -1  -6  -6  801.11   17.13

  -1  -6  -5  217.73    6.78

  -1  -6  -5  224.06   10.08

  -1  -6  -4  414.23   11.83

  -1  -6  -3   96.20   14.28

  -1  -6  -3   91.51    6.40

  -1  -6  -3   89.27    7.21

  -1  -6  -2  127.75    6.65

  -1  -6  -2  124.43    7.56

  -1  -6  -2  140.67   15.51

  -1  -6  -1   -1.33    8.68

  -1  -6  -1    2.47    4.02

  -1  -6  -1    2.96    4.92

  -1  -6   0 1549.75   18.92

  -1  -6   0 1535.84   19.91

  -1  -6   0 1606.83   47.53

  -1  -6   1    0.36    3.66

  -1  -6   1    0.53    4.72

  -1  -6   2  761.32   13.75

  -1  -6   2  753.59   14.42

  -1  -6   3    4.25    2.49

  -1  -6   3    6.33    4.40

  -1  -6   3    2.71    4.44

  -1  -6   3    3.63    9.21

  -1  -6   4  307.14    8.02

  -1  -6   4  318.59   10.37

  -1  -6   5   12.21    3.83

  -1  -6   5   12.48    5.33

  -1  -6   6  431.14   11.02

  -1  -6   6  423.14   12.13

   0  -6 -16   24.49    8.88

   0  -6 -15    3.22    7.41

   0  -6 -14  121.43   10.98

   0  -6 -13    7.76    7.27

   0  -6 -12  215.18   13.15

   0  -6 -11   14.08    7.69

   0  -6 -10  138.89   10.76

   0  -6  -9    3.26    6.65

   0  -6  -8   55.74    8.05

   0  -6  -7   24.05    7.28

   0  -6  -6  236.48   10.56

   0  -6  -5  191.01    9.52

   0  -6  -4  276.18    9.84

   0  -6  -4  280.66   10.10

   0  -6  -3   71.73   13.16

   0  -6  -3   75.54    6.30

   0  -6  -3   78.09    6.72

   0  -6  -2  327.66    9.82

   0  -6  -2  312.94   10.09

   0  -6  -2  330.38   22.56

   0  -6  -1   -0.83    9.17

   0  -6  -1    3.55    4.16

   0  -6  -1    4.90    4.81

   0  -6   0 1572.35   19.66

   0  -6   0 1505.75   45.88

   0  -6   0 1586.37   19.69

   0  -6   1    5.69    4.54

   0  -6   1    5.82    1.74

   0  -6   1    5.48    4.61

   0  -6   2  345.77    6.93

   0  -6   2  310.21    9.63

   0  -6   2  328.88    9.69

   0  -6   3   70.44    4.13

   0  -6   3   74.55    6.28

   0  -6   3   82.23    6.03

   0  -6   3   84.29   13.56

   0  -6   4  274.01    7.85

   0  -6   4  282.45    9.42

   0  -6   5  179.58    7.22

   0  -6   5  179.08    8.10

   0  -6   6  244.52    8.86

   0  -6   6  241.38    9.22

   0  -6   7   20.74    5.14

   0  -6   8   62.97    6.90

   0  -6   9    4.15    5.82

   0  -6  10  146.15   10.12

   1  -6 -16  103.95   11.00

   1  -6 -15   14.48    9.05

   1  -6 -14  312.96   15.84

   1  -6 -13   10.29    8.49

   1  -6 -12  174.43   12.30

   1  -6 -11   79.55    9.99

   1  -6 -10  217.64   12.47

   1  -6  -9    7.24    7.02

   1  -6  -8  302.72   12.60

   1  -6  -7  104.55    9.01

   1  -6  -6  427.47   13.28

   1  -6  -5    9.67    5.55

   1  -6  -4  307.19   10.50

   1  -6  -4  301.26   10.53

   1  -6  -3    7.25    8.28

   1  -6  -3    4.63    4.82

   1  -6  -3    5.74    5.16

   1  -6  -2  758.37   14.66

   1  -6  -2  727.62   13.96

   1  -6  -2  754.41   33.49

   1  -6  -1    0.30    8.05

   1  -6  -1   -0.72    4.55

   1  -6  -1    2.27    4.14

   1  -6   0 1543.98   20.17

   1  -6   0 1613.41   12.40

   1  -6   0 1520.13   18.86

   1  -6   0 1494.31   45.74

   1  -6   1    3.61    4.65

   1  -6   1   -0.02    4.16

   1  -6   1    2.59    1.91

   1  -6   2  120.53    7.09

   1  -6   2  114.38    4.65

   1  -6   2  121.73    6.55

   1  -6   3   85.30    4.72

   1  -6   3   91.62    6.95

   1  -6   3  106.15   14.50

   1  -6   3   91.24    5.92

   1  -6   4  431.10    9.90

   1  -6   4  432.60   10.84

   1  -6   5  218.57    8.12

   1  -6   5  224.25    8.39

   1  -6   6  806.92   15.36

   1  -6   6  800.12   14.82

   1  -6   7    2.06    4.76

   1  -6   8  176.84    9.38

   1  -6   9    5.95    6.27

   1  -6  10  134.33    9.79

   1  -6  11   12.02    7.09

   1  -6  12  330.11   15.06

   2  -6 -16   55.72    9.66

   2  -6 -15   21.50    9.26

   2  -6 -14  115.21   11.43

   2  -6 -13  126.54   11.56

   2  -6 -12    3.51    8.38

   2  -6 -11   14.23    7.94

   2  -6 -10   47.15    8.61

   2  -6  -9   70.23    9.48

   2  -6  -8  223.95   11.88

   2  -6  -7    5.22    7.00

   2  -6  -6  457.75   13.94

   2  -6  -5   12.60    5.70

   2  -6  -4  181.96    8.94

   2  -6  -4  181.18    8.79

   2  -6  -3   52.04   12.36

   2  -6  -3   59.24    6.30

   2  -6  -3   60.77    6.30

   2  -6  -2  181.90    8.31

   2  -6  -2  161.55    7.74

   2  -6  -2  187.16   17.39

   2  -6  -1  139.53    7.23

   2  -6  -1  147.34    7.05

   2  -6  -1  153.74   17.18

   2  -6   0  233.82    8.94

   2  -6   0  217.18    7.77

   2  -6   0  259.79   20.29

   2  -6   1  261.59    9.35

   2  -6   1  255.43    6.56

   2  -6   1  245.21    8.04

   2  -6   2   39.27    5.41

   2  -6   2   43.80    3.87

   2  -6   2   44.71    4.64

   2  -6   3   40.45    4.18

   2  -6   3   40.32    5.79

   2  -6   3   46.26   12.04

   2  -6   3   41.67    4.46

   2  -6   4   52.66    4.80

   2  -6   4   44.52    4.69

   2  -6   5    7.40    4.23

   2  -6   5    8.66    3.85

   2  -6   6  449.11   12.03

   2  -6   6  483.49   11.22

   2  -6   7   14.13    5.36

   2  -6   8  170.54    9.68

   2  -6   9   72.28    8.41

   2  -6  10   21.12    7.62

   2  -6  11   18.63    7.93

   2  -6  12   90.32   10.46

   2  -6  13    1.95    8.18

   3  -6 -15    2.16    8.56

   3  -6 -14   63.25   10.93

   3  -6 -13    2.36    8.54

   3  -6 -12    8.77    8.45

   3  -6 -11   12.16    8.67

   3  -6 -10  113.06   10.51

   3  -6  -9   35.30    8.83

   3  -6  -8   80.52    8.98

   3  -6  -7   89.54    8.95

   3  -6  -6  209.49   10.23

   3  -6  -5   51.27    7.00

   3  -6  -4  325.49   11.35

   3  -6  -4  322.84   10.79

   3  -6  -3   14.15    9.81

   3  -6  -3    8.83    4.84

   3  -6  -3   11.28    4.76

   3  -6  -2  219.40    9.03

   3  -6  -2  233.88    8.48

   3  -6  -2  222.34   18.96

   3  -6  -1   22.20   10.28

   3  -6  -1   25.11    4.92

   3  -6  -1   26.26    4.39

   3  -6   0  414.05   11.62

   3  -6   0  446.93   10.41

   3  -6   0  429.35   24.84

   3  -6   1   78.06    6.70

   3  -6   1   74.79    5.24

   3  -6   2  372.04   11.42

   3  -6   2  398.94    9.42

   3  -6   2  403.09    9.54

   3  -6   3  204.47    9.50

   3  -6   3  194.73    7.38

   3  -6   3  211.08    7.30

   3  -6   4  363.75   10.09

   3  -6   4  366.44    9.10

   3  -6   5   55.37    5.74

   3  -6   5   61.66    4.65

   3  -6   6  155.74    8.42

   3  -6   6  170.85    6.81

   3  -6   7   -0.90    5.32

   3  -6   8  161.62    9.88

   3  -6   9    5.45    6.43

   3  -6  10   71.54    8.88

   3  -6  11    5.24    7.79

   3  -6  12   90.84   10.36

   3  -6  13   92.30   10.51

   3  -6  14  239.23   14.35

   4  -6 -15    6.10    9.22

   4  -6 -14   33.64    9.04

   4  -6 -13   16.09    8.26

   4  -6 -12   93.87   11.14

   4  -6 -11    1.74    7.57

   4  -6 -11    4.34    7.57

   4  -6 -10  753.50   20.78

   4  -6 -10  735.95   20.40

   4  -6  -9    0.46    7.32

   4  -6  -9    2.48    7.22

   4  -6  -8  193.50   11.56

   4  -6  -8  191.67   11.63

   4  -6  -7    1.84    6.84

   4  -6  -6   46.30    7.33

   4  -6  -5    1.80    5.71

   4  -6  -4  275.72   11.35

   4  -6  -4  283.60   10.25

   4  -6  -3   -2.23    8.42

   4  -6  -3   -0.22    5.38

   4  -6  -3    0.77    4.46

   4  -6  -2  132.56    8.36

   4  -6  -2  125.88   14.75

   4  -6  -2  126.67    6.80

   4  -6  -1   81.31   12.96

   4  -6  -1   68.02    7.10

   4  -6  -1   73.03    5.47

   4  -6   0  106.93    7.57

   4  -6   0  115.73    6.01

   4  -6   0  119.12   14.88

   4  -6   1   42.36    6.64

   4  -6   1   40.46   10.26

   4  -6   1   44.50    4.41

   4  -6   2  889.80   17.70

   4  -6   2  907.23   13.62

   4  -6   3   41.29    6.32

   4  -6   3   41.98    5.05

   4  -6   3   34.25    3.88

   4  -6   4 1168.12   20.85

   4  -6   4 1086.27   17.67

   4  -6   5   29.97    5.59

   4  -6   6   86.18    7.34

   4  -6   7    4.92    5.90

   4  -6   8  223.93   11.17

   4  -6   9    0.49    6.63

   4  -6  10  161.65   11.48

   4  -6  11   -0.28    7.40

   4  -6  12   23.33    8.95

   4  -6  13    0.12    7.81

   4  -6  14   94.69   11.02

   4  -6  15    5.50    9.10

   5  -6 -15   14.59    9.88

   5  -6 -14   49.56   10.19

   5  -6 -13   35.41    9.37

   5  -6 -12   14.00    9.16

   5  -6 -12   15.89    8.14

   5  -6 -11    2.82    8.07

   5  -6 -11   -2.18    7.74

   5  -6 -10  436.88   16.77

   5  -6 -10  436.23   17.04

   5  -6  -9    9.18    8.24

   5  -6  -9    8.30    7.13

   5  -6  -8  131.58   10.52

   5  -6  -8  129.84   10.92

   5  -6  -7    2.05    6.97

   5  -6  -7    1.25    6.88

   5  -6  -6   70.02    7.52

   5  -6  -6   66.13    8.15

   5  -6  -5    4.61    5.62

   5  -6  -4  716.63   16.82

   5  -6  -4  734.55   15.58

   5  -6  -3   30.13   11.31

   5  -6  -3   15.81    6.28

   5  -6  -3   20.62    5.07

   5  -6  -2  781.99   16.81

   5  -6  -2  768.13   14.36

   5  -6  -2  809.40   34.22

   5  -6  -1  122.35    8.29

   5  -6  -1  119.36    6.19

   5  -6  -1  116.84   14.30

   5  -6   0   90.52   13.51

   5  -6   0   85.20    7.57

   5  -6   0   94.02    5.50

   5  -6   1   92.13   13.38

   5  -6   1   83.76    7.33

   5  -6   1   93.90    5.22

   5  -6   2  261.87   10.98

   5  -6   3   31.88    6.53

   5  -6   4  504.61   15.00

   5  -6   4  512.12   13.28

   5  -6   5   61.13    6.94

   5  -6   6    3.91    5.56

   5  -6   7   23.36    7.02

   5  -6   8  240.02   12.29

   5  -6   9   -1.86    7.43

   5  -6  10  544.62   18.02

   5  -6  11   51.60    9.02

   5  -6  12  117.19   11.67

   5  -6  13   28.53    8.68

   5  -6  14   54.86   10.56

   5  -6  15    3.42    7.84

   6  -6 -14  222.32   15.54

   6  -6 -13   89.45   11.77

   6  -6 -13   57.10    9.93

   6  -6 -12   80.91   10.61

   6  -6 -12   88.28   10.66

   6  -6 -11    1.45    7.64

   6  -6 -11    2.55    8.28

   6  -6 -10  216.29   12.98

   6  -6 -10  212.60   13.58

   6  -6  -9   13.37    8.17

   6  -6  -9   10.84    7.49

   6  -6  -8   80.38    8.94

   6  -6  -8   75.20    9.49

   6  -6  -7   76.65    8.28

   6  -6  -7   74.74    8.94

   6  -6  -6  106.42    8.58

   6  -6  -6   93.55    9.05

   6  -6  -5   84.08    7.66

   6  -6  -5   80.76    8.07

   6  -6  -4  403.58   13.33

   6  -6  -4  389.57   12.04

   6  -6  -3   36.47    6.74

   6  -6  -3   42.55    5.55

   6  -6  -2  889.39   18.43

   6  -6  -2  878.79   15.54

   6  -6  -2  909.66   35.80

   6  -6  -1  104.22   13.88

   6  -6  -1  102.21    8.09

   6  -6  -1  108.51    6.05

   6  -6   0  317.13   11.57

   6  -6   0  296.71    8.41

   6  -6   0  313.16   21.29

   6  -6   1  166.24    9.28

   6  -6   1  160.52   16.26

   6  -6   2  279.31   11.42

   6  -6   2  287.04   20.68

   6  -6   3    4.14    6.40

   6  -6   4  398.50   13.67

   6  -6   5   -0.34    6.39

   6  -6   5    0.34    6.08

   6  -6   6   24.54    6.70

   6  -6   7    8.42    7.17

   6  -6   8  118.96   10.37

   6  -6   9   99.63   10.34

   6  -6  10  192.80   12.89

   6  -6  11   -2.85    8.31

   6  -6  12   59.43    9.83

   6  -6  13   41.89    9.95

   6  -6  14   48.18   10.02

   7  -6 -14   27.52    9.87

   7  -6 -14   34.06    9.80

   7  -6 -13   -1.22    8.94

   7  -6 -13    1.27    9.03

   7  -6 -12   38.98    9.44

   7  -6 -12   27.05    9.49

   7  -6 -11   13.47    9.09

   7  -6 -11   14.67    7.81

   7  -6 -10   37.17    9.35

   7  -6 -10   24.05    7.91

   7  -6  -9   67.30    9.14

   7  -6  -9   72.09   10.22

   7  -6  -8   61.92    9.66

   7  -6  -8   62.08    8.85

   7  -6  -7    4.17    6.87

   7  -6  -7    7.00    6.67

   7  -6  -6  237.69   11.07

   7  -6  -6  233.03   11.82

   7  -6  -5  138.27    8.66

   7  -6  -5  122.19    9.16

   7  -6  -4   26.99    6.71

   7  -6  -4   35.56    5.84

   7  -6  -3   33.92    5.18

   7  -6  -3   37.07    6.93

   7  -6  -2   25.54    6.57

   7  -6  -2   26.13    4.61

   7  -6  -1   21.22    6.26

   7  -6   0   17.71    6.29

   7  -6   1   45.53    7.00

   7  -6   2   45.20    7.10

   7  -6   3   23.44    6.84

   7  -6   4   95.27    8.61

   7  -6   5    4.77    6.44

   7  -6   5    6.09    6.34

   7  -6   6   71.93    8.88

   7  -6   6   70.99    8.92

   7  -6   7   16.51    7.25

   7  -6   8  168.36   11.41

   7  -6   9    0.65    7.91

   7  -6  10   22.24    8.40

   7  -6  11   34.60    8.73

   7  -6  12    2.46    7.95

   7  -6  13   19.02    9.14

   7  -6  14   38.92    9.96

   8  -6 -13    8.17    8.19

   8  -6 -13    9.30    8.93

   8  -6 -12  140.32   12.13

   8  -6 -12  142.36   12.44

   8  -6 -11    1.41    8.11

   8  -6 -11    2.91    8.18

   8  -6 -10   51.72   10.11

   8  -6 -10   51.06    8.63

   8  -6  -9    5.79    7.80

   8  -6  -9    5.37    7.23

   8  -6  -8  113.57    9.73

   8  -6  -8   95.68   10.30

   8  -6  -7   26.39    8.06

   8  -6  -7   24.93    6.77

   8  -6  -6  529.10   15.73

   8  -6  -6  586.71   17.66

   8  -6  -5   -0.58    6.12

   8  -6  -5    3.12    5.42

   8  -6  -4  127.55    9.07

   8  -6  -4  125.29    7.89

   8  -6  -4  134.43    9.13

   8  -6  -3    0.56    5.80

   8  -6  -2   57.19    7.29

   8  -6  -1    0.61    5.45

   8  -6   0  176.74    9.81

   8  -6   1    6.19    5.97

   8  -6   2  257.72   11.64

   8  -6   3    4.44    6.32

   8  -6   4  159.29   10.17

   8  -6   5   22.86    7.30

   8  -6   6  174.57   11.14

   8  -6   6  165.93   11.09

   8  -6   7   60.42    8.68

   8  -6   7   58.23    8.96

   8  -6   8  324.23   15.09

   8  -6   9   -1.52    8.12

   8  -6  10   84.85   10.61

   8  -6  11   -1.88    8.65

   8  -6  12   49.22    9.75

   8  -6  13    9.05    8.14

   9  -6 -13    2.49    8.12

   9  -6 -13    3.50    7.59

   9  -6 -12  164.77   13.25

   9  -6 -12  162.34   13.13

   9  -6 -11    3.00    8.05

   9  -6 -11    1.77    7.28

   9  -6 -10   47.69   10.12

   9  -6 -10   53.40    8.97

   9  -6  -9    2.88    8.18

   9  -6  -9    2.98    6.76

   9  -6  -8   25.83    8.64

   9  -6  -8   16.60    7.32

   9  -6  -7   14.33    7.56

   9  -6  -7    9.88    6.47

   9  -6  -6  152.52    9.59

   9  -6  -6  166.91   11.24

   9  -6  -5  101.78    8.95

   9  -6  -3    1.47    5.56

   9  -6  -2   95.55    8.26

   9  -6  -1    2.35    5.54

   9  -6   0  257.63   11.46

   9  -6   1    3.41    5.63

   9  -6   2  203.75   10.76

   9  -6   3    6.17    6.10

   9  -6   4   99.68    8.96

   9  -6   5   26.14    6.97

   9  -6   6   46.78    8.28

   9  -6   6   28.68    8.57

   9  -6   7   81.81    9.35

   9  -6   7   77.55    9.97

   9  -6   8   81.32   10.00

   9  -6   8   65.91    9.50

   9  -6   9   12.94    8.08

   9  -6   9   12.65    7.80

   9  -6  10   26.77    8.77

   9  -6  11    1.62    7.74

   9  -6  12   97.22   11.16

  10  -6 -12  259.86   15.31

  10  -6 -12  246.88   15.70

  10  -6 -11   61.40   10.78

  10  -6 -11   47.42    8.82

  10  -6 -10  128.09   11.08

  10  -6 -10  125.53   11.73

  10  -6  -9    3.58    7.93

  10  -6  -9    1.15    6.66

  10  -6  -8  103.10    9.60

  10  -6  -8  103.45   10.36

  10  -6  -7   10.07    7.46

  10  -6  -6  168.47   11.28

  10  -6  -5    8.23    6.45

  10  -6  -3    1.34    5.60

  10  -6  -2  324.30   12.87

  10  -6  -1    2.60    5.71

  10  -6   0  489.15   15.22

  10  -6   1   60.21    7.65

  10  -6   2  238.05   11.63

  10  -6   3   51.43    7.46

  10  -6   4  232.74   11.83

  10  -6   5   58.24    8.13

  10  -6   6  254.21   12.94

  10  -6   6  232.69   13.47

  10  -6   7    8.57    6.80

  10  -6   7    7.87    7.92

  10  -6   8   79.43    9.72

  10  -6   8   63.09    9.53

  10  -6   9   50.66    9.19

  10  -6   9   47.02    9.44

  10  -6  10   57.60    9.00

  10  -6  10   45.79    9.32

  10  -6  11   -1.45    7.69

  10  -6  11    2.61    8.14

  10  -6  12  217.84   14.21

  11  -6 -11    9.94    8.41

  11  -6 -10   11.72    8.32

  11  -6  -9   47.61    9.70

  11  -6  -8  111.17   11.14

  11  -6  -7    8.53    7.23

  11  -6  -6  228.71   12.80

  11  -6  -5   13.66    6.62

  11  -6   6  193.37   13.64

  11  -6   7    0.05    8.90

  11  -6   8   69.66   10.77

  11  -6   9    5.83    8.88

  11  -6  10    9.16    9.30

  12  -6 -10   -0.17    7.32

  12  -6  -9   -0.97    7.19

  12  -6  -8   24.50    8.00

  12  -6  -7   11.91    7.76

  12  -6   6   96.32   11.62

  12  -6   7   -4.78    8.89

  12  -6   8   51.47   10.35

  12  -6   9   -1.44    8.59

  13  -6   6   84.36   10.63

  13  -6   7   -1.09    8.14

 -14  -7  -3   79.66   10.78

 -14  -7  -3   82.97   12.42

 -14  -7  -2    2.34    9.78

 -14  -7  -1   40.25   10.90

 -14  -7   0    8.17    8.74

 -14  -7   1   26.70   10.60

 -14  -7   2    8.71    9.38

 -14  -7   3  108.04   12.74

 -14  -7   4   13.03    9.80

 -13  -7  -6   25.70   10.45

 -13  -7  -6   25.45    9.82

 -13  -7  -5   50.94   10.54

 -13  -7  -5   44.43    9.34

 -13  -7  -4    4.98    8.85

 -13  -7  -4    1.79    9.91

 -13  -7  -4    5.03    7.44

 -13  -7  -3   36.77    9.09

 -13  -7  -3   36.25   10.53

 -13  -7  -2   11.70    7.86

 -13  -7  -2   14.08    9.58

 -13  -7  -1   80.59   11.57

 -13  -7   0   51.15   11.14

 -13  -7   1   57.30   11.22

 -13  -7   2   -1.34    9.56

 -13  -7   3  219.75   15.21

 -12  -7  -8    6.50    9.44

 -12  -7  -7   53.76   10.99

 -12  -7  -6    1.78    8.38

 -12  -7  -5   69.88   11.66

 -12  -7  -5   52.00    9.87

 -12  -7  -4    3.45    8.60

 -12  -7  -4   10.47    8.22

 -12  -7  -3  151.32   13.92

 -12  -7  -3  149.16   11.65

 -12  -7  -2    1.35    8.75

 -12  -7  -1  185.68   14.22

 -12  -7   0   46.58   10.42

 -12  -7   1   48.07   10.32

 -11  -7  -9   46.94   11.38

 -11  -7  -8    4.69    8.81

 -11  -7  -7  238.96   15.24

 -11  -7  -6    6.16    8.49

 -11  -7  -6    1.24    8.12

 -11  -7  -5   46.40   10.04

 -11  -7  -5   30.55    9.23

 -11  -7  -4    5.44    9.14

 -11  -7  -4   -3.78    7.97

 -11  -7  -3   98.73   12.32

 -11  -7  -3  113.30   10.48

 -11  -7  -2    1.93    8.93

 -11  -7  -2    5.09    6.54

 -11  -7  -1  108.59   12.36

 -11  -7   0   12.31    9.22

 -11  -7   0   18.47    6.80

 -10  -7 -11   10.12    9.09

 -10  -7 -10    4.79    9.21

 -10  -7  -9    3.50    9.06

 -10  -7  -8   39.16    9.73

 -10  -7  -7  245.30   14.87

 -10  -7  -6    8.07    8.53

 -10  -7  -6    5.98    7.96

 -10  -7  -5   74.16   10.42

 -10  -7  -5   86.23   10.71

 -10  -7  -4    5.69    8.80

 -10  -7  -4   13.51    8.09

 -10  -7  -3   31.64    9.92

 -10  -7  -3   33.50    7.55

 -10  -7  -2   22.47    9.26

 -10  -7  -2   17.95    6.40

 -10  -7  -2    9.11    6.45

 -10  -7  -1   15.87    8.82

 -10  -7  -1   12.02    6.30

 -10  -7   0   72.81    8.46

 -10  -7   1   53.73    8.09

 -10  -7   2   24.85    7.45

  -9  -7 -11  102.74   12.96

  -9  -7 -10    2.47    8.68

  -9  -7  -9   61.25   10.08

  -9  -7  -8   36.39    9.64

  -9  -7  -7   77.46   10.74

  -9  -7  -6   73.69   10.39

  -9  -7  -6   93.74   10.55

  -9  -7  -5  156.96   12.22

  -9  -7  -5  160.41   11.62

  -9  -7  -4   -1.19    8.54

  -9  -7  -4   -0.92    5.71

  -9  -7  -4   -1.38    6.86

  -9  -7  -3   68.72   10.04

  -9  -7  -3   57.69    7.39

  -9  -7  -3   63.15    8.43

  -9  -7  -2   29.08    9.42

  -9  -7  -2   20.87    6.42

  -9  -7  -2   26.01    6.52

  -9  -7  -1  270.88   12.36

  -9  -7  -1  306.63   12.12

  -9  -7   0  133.61    9.98

  -9  -7   1  600.19   17.32

  -9  -7   2   -0.27    6.98

  -9  -7   3  127.68   10.07

  -8  -7 -12    8.33    9.72

  -8  -7 -11   74.97   10.95

  -8  -7 -10    5.76    9.41

  -8  -7  -9  114.40   11.65

  -8  -7  -8    6.24    8.18

  -8  -7  -7   30.00    9.46

  -8  -7  -7   31.07    8.08

  -8  -7  -6   15.55    7.78

  -8  -7  -6   15.15    6.00

  -8  -7  -6    6.75    8.21

  -8  -7  -5  177.57   11.70

  -8  -7  -5  165.89    9.93

  -8  -7  -5  194.84   11.93

  -8  -7  -4   82.98    9.89

  -8  -7  -4   84.72    8.02

  -8  -7  -4   78.50    8.96

  -8  -7  -3   15.26    8.43

  -8  -7  -3   12.15    6.24

  -8  -7  -3   10.85    6.26

  -8  -7  -2   12.64    6.36

  -8  -7  -2   16.49    5.89

  -8  -7  -1    7.57    6.02

  -8  -7  -1    2.89    5.16

  -8  -7   0  115.41    9.50

  -8  -7   1  113.09    9.61

  -8  -7   2    6.44    6.59

  -8  -7   3  165.45   10.90

  -8  -7   4    2.69    7.11

  -7  -7 -13   36.16   10.72

  -7  -7 -12    9.09    9.13

  -7  -7 -11  166.09   13.56

  -7  -7 -10   19.61    9.73

  -7  -7  -9  204.75   13.56

  -7  -7  -8    9.89    7.99

  -7  -7  -7   93.58    9.25

  -7  -7  -7   92.05    8.21

  -7  -7  -7   92.26   10.31

  -7  -7  -6    7.04    7.04

  -7  -7  -6   13.84    6.10

  -7  -7  -6    9.53    7.30

  -7  -7  -5  269.40   12.90

  -7  -7  -5  270.04   11.92

  -7  -7  -5  275.03   12.68

  -7  -7  -4   81.87    8.97

  -7  -7  -4   78.47    8.18

  -7  -7  -4   78.79    8.46

  -7  -7  -3  749.21   19.43

  -7  -7  -3  745.98   17.92

  -7  -7  -3  762.26   17.85

  -7  -7  -2   72.36    8.03

  -7  -7  -2   68.34    7.05

  -7  -7  -1  250.95   11.60

  -7  -7  -1  257.90   10.17

  -7  -7   0   83.08    8.47

  -7  -7   1  433.65   14.79

  -7  -7   2   17.95    7.16

  -7  -7   3  246.67   12.45

  -7  -7   4    8.80    7.76

  -7  -7   5   68.94    9.37

  -6  -7 -14    9.80    9.44

  -6  -7 -13   24.83    9.30

  -6  -7 -12   41.67   10.84

  -6  -7 -11   67.56   11.44

  -6  -7 -10   45.49   10.28

  -6  -7  -9  184.49   10.81

  -6  -7  -9  170.82   12.81

  -6  -7  -8   55.83    7.52

  -6  -7  -8   60.33   10.15

  -6  -7  -7   65.98    8.02

  -6  -7  -7   60.68    7.43

  -6  -7  -7   59.86    9.33

  -6  -7  -6   -0.12    6.90

  -6  -7  -6    2.91    5.98

  -6  -7  -6    2.07    6.34

  -6  -7  -5   16.91    6.89

  -6  -7  -5   19.17    6.27

  -6  -7  -5   12.09    6.73

  -6  -7  -4    7.14    6.32

  -6  -7  -4    4.60    5.88

  -6  -7  -4    1.23    6.11

  -6  -7  -3  445.10   14.27

  -6  -7  -3  454.60   13.66

  -6  -7  -2   39.76    7.22

  -6  -7  -2   40.85    5.85

  -6  -7  -1   26.14    6.89

  -6  -7  -1   22.96    4.85

  -6  -7   0   93.45    8.92

  -6  -7   1  214.26   10.97

  -6  -7   2    6.89    7.16

  -6  -7   3  133.67    9.95

  -6  -7   4   -0.31    7.63

  -6  -7   5  173.98   11.24

  -5  -7 -14   -2.15    9.83

  -5  -7 -13   73.48   11.43

  -5  -7 -12    5.23    8.90

  -5  -7 -11    9.96    8.72

  -5  -7 -11   12.11    6.85

  -5  -7 -10    8.34    9.09

  -5  -7 -10    1.65    6.08

  -5  -7  -9  232.26   13.84

  -5  -7  -9  226.13   11.66

  -5  -7  -8   61.76    8.13

  -5  -7  -8   84.85   10.32

  -5  -7  -7  123.49    8.58

  -5  -7  -7  126.92    9.43

  -5  -7  -7  139.34   10.76

  -5  -7  -6   41.37    6.57

  -5  -7  -6   49.58    7.14

  -5  -7  -6   43.75    7.94

  -5  -7  -5  154.27    9.18

  -5  -7  -5  137.48    9.32

  -5  -7  -5  152.94    9.91

  -5  -7  -4    9.03    5.70

  -5  -7  -4   12.52    5.78

  -5  -7  -4    5.86    6.02

  -5  -7  -3  487.63   14.68

  -5  -7  -3  486.27   13.56

  -5  -7  -2    7.75    6.53

  -5  -7  -2    5.71    4.70

  -5  -7  -1   70.41    8.03

  -5  -7  -1   68.82    5.74

  -5  -7   0   11.65    6.63

  -5  -7   0    9.11    3.68

  -5  -7   1  118.99    9.04

  -5  -7   2    5.10    7.25

  -5  -7   3  131.64   10.32

  -5  -7   4    4.37    7.52

  -5  -7   5  296.87   13.21

  -5  -7   6   14.21    7.53

  -4  -7 -14    3.85    9.71

  -4  -7 -13  122.46   13.34

  -4  -7 -12    7.01    9.13

  -4  -7 -12   13.23    6.93

  -4  -7 -11   26.79    7.48

  -4  -7 -10    0.31    6.37

  -4  -7  -9  441.71   15.30

  -4  -7  -8   49.37    7.85

  -4  -7  -7  144.93    8.38

  -4  -7  -7  151.73   10.00

  -4  -7  -6  105.82    7.56

  -4  -7  -6  115.59    8.91

  -4  -7  -5  184.46    9.16

  -4  -7  -5  172.50   10.17

  -4  -7  -4    3.31    5.10

  -4  -7  -4    1.58    5.83

  -4  -7  -3  109.91    8.81

  -4  -7  -2   64.44    7.55

  -4  -7  -1  124.69    6.20

  -4  -7  -1  130.72    9.18

  -4  -7  -1  135.36    6.78

  -4  -7   0  138.00    6.40

  -4  -7   0  154.24    9.50

  -4  -7   0  137.50    6.10

  -4  -7   1  216.44    7.68

  -4  -7   1  215.25   10.70

  -4  -7   2    9.76    3.70

  -4  -7   2    8.35    6.93

  -4  -7   3  576.51   12.29

  -4  -7   3  582.19   16.25

  -4  -7   4   52.48    5.21

  -4  -7   4   57.27    8.25

  -4  -7   5  220.72    8.80

  -4  -7   5  203.67   11.18

  -4  -7   6   66.13    8.48

  -3  -7 -15   46.87   10.58

  -3  -7 -14   20.41   10.42

  -3  -7 -14   19.50    7.47

  -3  -7 -13  124.17   10.56

  -3  -7 -12   26.26    7.14

  -3  -7 -11   33.02    7.68

  -3  -7 -10    5.49    7.09

  -3  -7  -9  113.15    9.85

  -3  -7  -8   12.76    6.67

  -3  -7  -7   44.49    7.44

  -3  -7  -6   86.32    6.39

  -3  -7  -6   95.88    8.56

  -3  -7  -5  201.84    8.60

  -3  -7  -5  186.55   10.05

  -3  -7  -4   -0.63    6.08

  -3  -7  -3  321.71   11.87

  -3  -7  -2    4.84    3.92

  -3  -7  -2    0.34    6.44

  -3  -7  -1  474.38   11.29

  -3  -7  -1  455.49   13.51

  -3  -7   0  386.76   10.30

  -3  -7   0  404.51   12.99

  -3  -7   1  218.10    8.11

  -3  -7   1  220.19   10.66

  -3  -7   2    6.42    4.07

  -3  -7   2    4.99    6.08

  -3  -7   3  400.14   10.93

  -3  -7   3  400.68   13.39

  -3  -7   4   18.92    4.67

  -3  -7   4   23.59    7.02

  -3  -7   5  121.28    7.40

  -3  -7   5  115.70    9.00

  -3  -7   6   41.40    7.83

  -2  -7 -15  148.92   11.69

  -2  -7 -14   49.46    8.38

  -2  -7 -13  265.55   14.31

  -2  -7 -12    9.48    7.04

  -2  -7 -11  258.23   13.29

  -2  -7 -10    0.81    7.48

  -2  -7  -9  232.96   12.41

  -2  -7  -8  131.97   10.01

  -2  -7  -7  280.63   12.49

  -2  -7  -6   17.10    6.69

  -2  -7  -5  151.52    7.01

  -2  -7  -5  148.13    9.75

  -2  -7  -4   20.18    6.37

  -2  -7  -3  457.10   12.17

  -2  -7  -3  436.64   13.30

  -2  -7  -2    1.24    4.34

  -2  -7  -2   -0.96    6.09

  -2  -7  -1  635.48   13.37

  -2  -7  -1  652.31   15.38

  -2  -7   0   36.24    4.92

  -2  -7   0   40.67    7.07

  -2  -7   1  580.99   12.94

  -2  -7   1  582.54   14.61

  -2  -7   2   15.45    4.75

  -2  -7   2   12.56    5.98

  -2  -7   3  394.30   11.29

  -2  -7   3  362.64   12.31

  -2  -7   4   40.05    5.72

  -2  -7   4   41.56    6.81

  -2  -7   5  675.97   16.35

  -2  -7   6   23.82    6.47

  -2  -7   7  119.29    8.83

  -1  -7 -15   27.53    8.97

  -1  -7 -14    7.62    8.23

  -1  -7 -13   43.42    8.67

  -1  -7 -12  150.26   11.95

  -1  -7 -11   11.95    7.90

  -1  -7 -10    5.75    7.22

  -1  -7  -9   37.27    8.13

  -1  -7  -8    1.09    6.83

  -1  -7  -7  427.04   14.63

  -1  -7  -6   47.88    7.62

  -1  -7  -5  262.85   11.62

  -1  -7  -4   52.04    7.27

  -1  -7  -3  165.30    8.39

  -1  -7  -3  167.24    9.32

  -1  -7  -2   14.77    4.82

  -1  -7  -2   14.97    6.47

  -1  -7  -1  163.62    7.83

  -1  -7  -1  157.82    9.07

  -1  -7   0  324.34   10.27

  -1  -7   0  347.34   11.42

  -1  -7   1   77.79    6.36

  -1  -7   1   93.43    7.43

  -1  -7   2  235.70    9.33

  -1  -7   2  240.23   10.02

  -1  -7   3   31.00    5.71

  -1  -7   3   27.34    6.05

  -1  -7   4    9.30    4.98

  -1  -7   4    5.91    5.69

  -1  -7   5  485.81   13.72

  -1  -7   6   36.61    6.29

  -1  -7   7  108.16    8.14

   0  -7 -15   48.53    9.66

   0  -7 -14    9.79    8.49

   0  -7 -13  313.24   15.53

   0  -7 -12   40.02    9.47

   0  -7 -11  100.48   10.71

   0  -7 -10    2.38    7.07

   0  -7  -9   90.22    9.99

   0  -7  -8   40.58    8.34

   0  -7  -7  200.99   11.39

   0  -7  -6    4.31    7.19

   0  -7  -5  433.18   13.78

   0  -7  -4  138.34    8.45

   0  -7  -4  156.15    9.64

   0  -7  -3  103.18    7.66

   0  -7  -3  103.58    8.14

   0  -7  -2   13.22    5.08

   0  -7  -2   15.90    5.62

   0  -7  -1  985.01   17.48

   0  -7  -1  954.18   17.42

   0  -7   0    0.77    4.79

   0  -7   0    1.69    5.01

   0  -7   1  946.07   17.37

   0  -7   1 1010.02   17.60

   0  -7   2   15.15    5.46

   0  -7   2   13.90    5.18

   0  -7   3  112.02    5.02

   0  -7   3  102.72    7.76

   0  -7   3  104.05    7.36

   0  -7   4  146.81    6.30

   0  -7   4  154.61    9.05

   0  -7   4  149.29    8.28

   0  -7   5  460.74   11.01

   0  -7   5  449.42   12.75

   0  -7   6    6.28    4.22

   0  -7   6    6.88    5.36

   0  -7   7  192.88    9.06

   0  -7   7  204.57    9.63

   0  -7   8   43.10    6.55

   0  -7   9   76.96    7.97

   1  -7 -15    1.82    8.26

   1  -7 -14   12.27    8.94

   1  -7 -13   76.85   10.97

   1  -7 -12   26.95    8.23

   1  -7 -11   84.49   10.08

   1  -7 -10    8.88    8.00

   1  -7  -9  137.18   10.76

   1  -7  -8    6.85    7.29

   1  -7  -7  114.11   10.03

   1  -7  -6   28.61    7.93

   1  -7  -5  465.61   14.21

   1  -7  -4    5.40    5.82

   1  -7  -4   10.87    6.34

   1  -7  -3   24.34    5.88

   1  -7  -3   23.42    6.25

   1  -7  -2  215.77    9.79

   1  -7  -2  224.25    9.51

   1  -7  -1   91.26    7.51

   1  -7  -1   87.53    6.98

   1  -7   0  312.00   10.89

   1  -7   0  352.23   10.93

   1  -7   1  154.81    8.70

   1  -7   1  155.38    7.83

   1  -7   2   13.44    5.58

   1  -7   2   13.25    2.65

   1  -7   2   11.70    4.73

   1  -7   3  168.57    6.33

   1  -7   3  168.18    9.25

   1  -7   3  169.99    8.18

   1  -7   4   55.16    4.87

   1  -7   4   51.59    7.41

   1  -7   4   55.28    6.01

   1  -7   5  280.46    9.23

   1  -7   5  275.47   10.01

   1  -7   6   53.71    5.86

   1  -7   6   50.80    5.95

   1  -7   7  438.22   12.81

   1  -7   7  451.23   12.79

   1  -7   8    1.79    5.40

   1  -7   9   40.53    7.19

   1  -7  10    0.19    6.38

   1  -7  11   10.59    7.33

   2  -7 -15  102.12   11.94

   2  -7 -14    2.26    8.36

   2  -7 -13   56.06   10.79

   2  -7 -12    3.92    7.75

   2  -7 -11  272.41   14.51

   2  -7 -10    5.93    7.78

   2  -7  -9  211.97   12.85

   2  -7  -8    7.17    7.98

   2  -7  -7  109.54    9.55

   2  -7  -6   26.97    7.23

   2  -7  -5  625.60   16.27

   2  -7  -4   30.74    6.32

   2  -7  -4   39.10    6.99

   2  -7  -3  358.78   12.19

   2  -7  -3  346.25   11.71

   2  -7  -2   15.32    5.96

   2  -7  -2   16.46    5.44

   2  -7  -1  541.76   14.10

   2  -7  -1  577.76   13.54

   2  -7   0   37.52    6.24

   2  -7   0   40.57    5.49

   2  -7   1  615.59   15.15

   2  -7   1  666.73   10.44

   2  -7   1  639.84   13.60

   2  -7   2    2.24    5.09

   2  -7   2    0.28    2.93

   2  -7   2   -0.10    4.31

   2  -7   3  444.91   13.61

   2  -7   3  435.32   10.08

   2  -7   3  450.37   11.62

   2  -7   4   13.72    5.99

   2  -7   4   18.00    4.26

   2  -7   4   18.43    4.62

   2  -7   5  151.36    7.47

   2  -7   5  153.25    7.58

   2  -7   6   17.64    5.09

   2  -7   6   19.59    4.70

   2  -7   7  288.85   11.12

   2  -7   8  122.71    8.79

   2  -7   9  231.83   11.49

   2  -7  10    1.83    6.89

   2  -7  11  270.15   13.61

   2  -7  12   12.46    7.43

   3  -7 -15  178.08   14.09

   3  -7 -14   37.75   10.09

   3  -7 -13   20.50    9.21

   3  -7 -12   17.18    9.01

   3  -7 -11  248.90   14.07

   3  -7 -10   43.40    8.73

   3  -7  -9  190.08   12.50

   3  -7  -8   30.39    8.61

   3  -7  -7   56.52    8.31

   3  -7  -6   34.44    7.51

   3  -7  -5  133.44    9.30

   3  -7  -4   18.28    6.87

   3  -7  -4   19.02    6.46

   3  -7  -3  382.40   13.03

   3  -7  -3  387.58   12.01

   3  -7  -2    3.48    5.39

   3  -7  -2    5.13    4.83

   3  -7  -1  212.65    9.93

   3  -7  -1  214.16    8.93

   3  -7   0  377.47   12.42

   3  -7   0  380.77   10.87

   3  -7   1  457.96   13.60

   3  -7   1  470.22    9.93

   3  -7   1  468.55   11.54

   3  -7   2    1.40    6.06

   3  -7   2    1.07    3.37

   3  -7   2    3.52    3.98

   3  -7   3  299.69   12.15

   3  -7   3  300.65    9.18

   3  -7   3  306.96    9.56

   3  -7   4   -0.34    6.01

   3  -7   4    1.42    4.01

   3  -7   4    0.13    3.65

   3  -7   5  177.53    8.46

   3  -7   5  190.03    7.87

   3  -7   6   84.18    6.98

   3  -7   7   42.70    6.70

   3  -7   8    8.49    5.97

   3  -7   9  108.22    9.26

   3  -7  10    7.09    7.43

   3  -7  11   36.22    8.49

   3  -7  12   24.92    8.72

   3  -7  13  117.57   11.86

   3  -7  14   20.98    9.16

   4  -7 -14   27.70    9.76

   4  -7 -13   30.23   10.09

   4  -7 -12    3.08    7.95

   4  -7 -11   55.32   10.38

   4  -7 -10   -1.32    7.96

   4  -7  -9  141.06   11.23

   4  -7  -8  120.02   10.31

   4  -7  -7   57.23    8.75

   4  -7  -6   64.01    8.08

   4  -7  -5  207.72   10.54

   4  -7  -4   48.34    7.67

   4  -7  -4   50.17    6.79

   4  -7  -3  555.39   15.64

   4  -7  -3  537.57   13.87

   4  -7  -2   11.83    6.50

   4  -7  -2    8.54    4.95

   4  -7  -1  207.85   10.45

   4  -7  -1  188.66    8.42

   4  -7   0  131.23    9.24

   4  -7   0  139.84    7.18

   4  -7   1  118.76    8.63

   4  -7   1  125.10    6.68

   4  -7   2   51.10    7.66

   4  -7   2   50.70    5.19

   4  -7   2   54.18    5.02

   4  -7   3  104.01    8.84

   4  -7   3  106.34    6.63

   4  -7   3  105.28    6.00

   4  -7   4    7.44    6.86

   4  -7   4    3.85    4.41

   4  -7   5  182.61   11.32

   4  -7   5  183.83    9.05

   4  -7   6  104.79    8.16

   4  -7   7  150.82    9.53

   4  -7   8   49.37    7.56

   4  -7   9  429.77   15.46

   4  -7  10    1.10    7.26

   4  -7  11   25.21    7.96

   4  -7  12    5.80    8.05

   4  -7  13  119.34   11.83

   4  -7  14   -1.38    7.90

   5  -7 -14   32.95   10.26

   5  -7 -13   36.27   10.59

   5  -7 -12    6.94    7.91

   5  -7 -11   59.55   10.22

   5  -7 -10    3.51    7.97

   5  -7  -9  398.15   16.00

   5  -7  -8   20.09    7.49

   5  -7  -7  140.72   10.16

   5  -7  -6   14.47    6.59

   5  -7  -5  257.56   11.38

   5  -7  -4    4.47    7.08

   5  -7  -4    3.28    5.72

   5  -7  -3  125.18    9.35

   5  -7  -3  127.63    8.14

   5  -7  -2    3.23    6.30

   5  -7  -2    3.09    4.44

   5  -7  -1  108.93    9.18

   5  -7  -1  112.52    6.87

   5  -7   0   17.87    6.98

   5  -7   0   12.46    4.19

   5  -7   1   58.83    7.88

   5  -7   1   70.33    5.46

   5  -7   2    4.43    6.39

   5  -7   3  466.06   15.27

   5  -7   3  461.30   12.60

   5  -7   4    8.65    7.17

   5  -7   4   10.09    5.07

   5  -7   5  144.73   11.04

   5  -7   5  142.61    8.84

   5  -7   6   45.54    8.67

   5  -7   6   44.68    7.18

   5  -7   7  110.42    9.29

   5  -7   8   69.26    8.64

   5  -7   9  216.41   12.26

   5  -7  10    0.11    7.80

   5  -7  11    7.82    7.26

   5  -7  12    3.02    8.23

   5  -7  13   60.37   10.01

   5  -7  14    2.54    7.61

   6  -7 -14    6.80    7.97

   6  -7 -13   16.28    8.09

   6  -7 -12   48.08   10.33

   6  -7 -11   15.98    7.84

   6  -7 -10   23.61    8.23

   6  -7  -9  113.67   10.96

   6  -7  -8   22.02    7.90

   6  -7  -7   24.35    7.71

   6  -7  -6   72.82    8.37

   6  -7  -5  164.62    9.65

   6  -7  -4    0.93    7.15

   6  -7  -4    1.01    5.23

   6  -7  -3  132.59    9.60

   6  -7  -3  120.11    7.72

   6  -7  -2   -2.31    6.55

   6  -7  -2    2.51    4.27

   6  -7  -1  203.91   11.03

   6  -7  -1  198.73    8.24

   6  -7   0   91.49    8.67

   6  -7   1   24.07    6.98

   6  -7   2   35.59    7.57

   6  -7   3  442.68   15.37

   6  -7   4    5.45    7.40

   6  -7   4    4.66    5.47

   6  -7   5   23.87    8.25

   6  -7   5   12.43    6.14

   6  -7   6    2.85    8.04

   6  -7   6   -2.10    6.39

   6  -7   7   65.45    8.54

   6  -7   8   69.18    8.88

   6  -7   9  166.22   11.49

   6  -7  10   57.57    9.45

   6  -7  11   56.37    9.85

   6  -7  12   26.76    8.41

   6  -7  13   18.94    9.17

   6  -7  14   13.50    7.70

   7  -7 -13  157.14   12.99

   7  -7 -12  135.12   12.29

   7  -7 -11  304.05   15.58

   7  -7 -10   -0.97    7.59

   7  -7  -9  192.97   12.60

   7  -7  -8   19.33    7.17

   7  -7  -7  155.62   10.89

   7  -7  -6    4.07    6.03

   7  -7  -5   50.41    7.26

   7  -7  -4    8.77    6.89

   7  -7  -4    7.68    5.26

   7  -7  -3  248.77   12.19

   7  -7  -3  230.29    9.79

   7  -7  -2   17.66    6.85

   7  -7  -2   21.86    4.80

   7  -7  -1  407.97   14.65

   7  -7   0   99.27    9.08

   7  -7   1  239.04   11.83

   7  -7   2   69.34    8.72

   7  -7   3  736.23   19.13

   7  -7   4   79.29    8.96

   7  -7   4   73.33    8.08

   7  -7   5  265.52   13.38

   7  -7   5  256.61   12.16

   7  -7   6   12.32    7.48

   7  -7   6   10.07    6.76

   7  -7   7   73.61   10.09

   7  -7   7   79.73    8.80

   7  -7   8    8.91    8.32

   7  -7   8   12.04    7.61

   7  -7   9  177.44   12.39

   7  -7  10   18.41    8.72

   7  -7  11  154.32   12.36

   7  -7  12   12.65    8.38

   7  -7  13   48.67    9.89

   8  -7 -13   18.79    8.19

   8  -7 -12    5.12    8.53

   8  -7 -11   48.65    8.91

   8  -7 -10   30.21    8.28

   8  -7  -9   28.20    8.32

   8  -7  -8    4.64    7.21

   8  -7  -7  283.68   13.24

   8  -7  -6   21.50    6.69

   8  -7  -5   67.23    7.32

   8  -7  -4    3.07    6.84

   8  -7  -4    1.81    4.99

   8  -7  -3  169.06   10.68

   8  -7  -2    6.65    6.52

   8  -7  -1  116.55    9.61

   8  -7   0  100.54    9.44

   8  -7   1    5.23    6.71

   8  -7   2   12.77    6.85

   8  -7   3   20.15    7.50

   8  -7   4   92.55    9.49

   8  -7   5  172.15   11.53

   8  -7   5  163.34   10.85

   8  -7   6   14.13    7.61

   8  -7   6   12.41    7.10

   8  -7   7   35.81    9.01

   8  -7   7   32.28    7.95

   8  -7   8    5.44    7.86

   8  -7   8   -0.74    7.22

   8  -7   9  102.27   11.39

   8  -7   9   91.40   10.45

   8  -7  10   -2.54    8.57

   8  -7  11   73.95   10.78

   8  -7  12    4.35    7.71

   9  -7 -12   35.68    8.92

   9  -7 -11   90.43   10.70

   9  -7 -10   25.81    8.20

   9  -7  -9   14.94    7.22

   9  -7  -8   50.84    8.30

   9  -7  -7  178.26   11.20

   9  -7  -3  141.85   10.47

   9  -7  -2    1.72    6.74

   9  -7  -1  560.13   17.13

   9  -7   0  129.18   10.06

   9  -7   1  271.46   12.98

   9  -7   2   24.78    7.12

   9  -7   3   64.28    8.34

   9  -7   4   -0.18    6.70

   9  -7   5  164.94   11.73

   9  -7   5  142.95   11.20

   9  -7   6   91.68   10.21

   9  -7   6   84.68   10.03

   9  -7   7   85.98   10.04

   9  -7   7   68.84   10.02

   9  -7   8   42.03    9.45

   9  -7   8   28.99    9.24

   9  -7   9   58.28   10.18

   9  -7   9   43.40    9.89

   9  -7  10    1.09    8.09

   9  -7  10   -0.30    8.02

   9  -7  11  101.98   11.30

   9  -7  11   90.76   10.99

   9  -7  12    2.16    8.86

  10  -7 -11   33.27    8.65

  10  -7 -10    0.72    6.92

  10  -7  -9   18.38    7.60

  10  -7  -3   17.73    6.80

  10  -7  -2   21.96    7.05

  10  -7  -1   51.44    8.05

  10  -7   0   67.98    8.61

  10  -7   1   13.95    6.86

  10  -7   2   16.68    7.01

  10  -7   3   30.54    7.76

  10  -7   4   10.42    7.40

  10  -7   5   80.58    9.55

  10  -7   5   61.01    9.14

  10  -7   6    6.70    6.85

  10  -7   6    9.24    7.53

  10  -7   7  219.49   13.69

  10  -7   7  204.64   13.52

  10  -7   8   34.66    8.60

  10  -7   8   19.45    9.01

  10  -7   9    2.45    7.84

  10  -7   9    3.40    8.40

  10  -7  10    1.43    7.43

  10  -7  10   -0.81    8.27

  10  -7  11    9.97    8.27

  11  -7   5   31.34    9.10

  11  -7   6    7.20    8.95

  11  -7   7  224.37   14.44

  11  -7   8    5.97    7.98

  11  -7   9   24.95    8.63

  12  -7   5   47.92    9.63

  12  -7   6   -1.00    8.90

  12  -7   7   71.85   10.51

  12  -7   8    0.98    7.49

  13  -7   5   35.73    9.52

  13  -7   6   19.07    8.06

 -13  -8  -4   47.96    9.77

 -13  -8  -4   51.25   10.83

 -13  -8  -3    7.41    8.34

 -13  -8  -3   -0.48    8.82

 -13  -8  -2   36.40    8.33

 -13  -8  -2   43.70   10.23

 -13  -8  -1    1.21    8.72

 -13  -8   0  158.17   13.54

 -13  -8   1    4.96   10.09

 -13  -8   2   33.76   10.06

 -13  -8   3   15.01    9.22

 -12  -8  -7   14.68    9.26

 -12  -8  -6  165.28   12.91

 -12  -8  -5    5.93    8.47

 -12  -8  -5    2.96    8.04

 -12  -8  -4   72.76   12.05

 -12  -8  -3    9.00    8.89

 -12  -8  -2  200.19   15.36

 -12  -8  -1   -2.23   10.02

 -12  -8   0   97.73   12.91

 -12  -8   1   -1.41    9.37

 -11  -8  -8   27.92    9.38

 -11  -8  -7    6.83    8.00

 -11  -8  -6   22.48    9.80

 -11  -8  -6   33.11    9.14

 -11  -8  -5   11.86    9.40

 -11  -8  -5   10.29    8.28

 -11  -8  -4   51.57   10.08

 -11  -8  -4   34.32    8.48

 -11  -8  -3   13.74    8.70

 -11  -8  -2  194.93   14.92

 -11  -8  -1   45.71   10.81

 -11  -8   0   91.22   11.70

 -11  -8   0   94.19    9.60

 -10  -8  -9    0.23    8.55

 -10  -8  -8  102.65   11.69

 -10  -8  -7   -0.19    7.99

 -10  -8  -6   91.92   11.33

 -10  -8  -6   81.35   10.38

 -10  -8  -5    2.48    9.21

 -10  -8  -5    0.43    7.88

 -10  -8  -4  108.72   11.98

 -10  -8  -4  115.71   10.69

 -10  -8  -3   -0.09    9.23

 -10  -8  -3    2.93    6.73

 -10  -8  -2   40.54   10.43

 -10  -8  -2   41.15    7.34

 -10  -8  -1    2.24    8.66

 -10  -8  -1    3.76    6.76

 -10  -8   0  145.93   11.01

 -10  -8   1    2.01    7.19

 -10  -8   2    3.55    7.47

  -9  -8 -10   18.77    8.90

  -9  -8  -9    0.94    8.74

  -9  -8  -8    0.20    8.82

  -9  -8  -7   12.62    8.57

  -9  -8  -7   10.92    8.03

  -9  -8  -6   76.46   10.11

  -9  -8  -6   88.43   10.26

  -9  -8  -5   63.05   10.44

  -9  -8  -5   55.00    9.08

  -9  -8  -4   61.78    9.93

  -9  -8  -4   64.06    8.34

  -9  -8  -4   65.82    8.86

  -9  -8  -3  116.31   11.88

  -9  -8  -3  107.08    9.46

  -9  -8  -3  116.85    9.50

  -9  -8  -2   16.54    9.48

  -9  -8  -2   21.80    7.40

  -9  -8  -1    6.68    7.17

  -9  -8   0   77.21    9.24

  -9  -8   1   54.60    8.58

  -9  -8   2    6.73    7.27

  -9  -8   3   10.18    7.98

  -8  -8 -11    5.69    8.74

  -8  -8 -10  388.33   18.85

  -8  -8  -9   84.20   11.37

  -8  -8  -8    4.36    8.63

  -8  -8  -7   22.67    8.27

  -8  -8  -7   18.99    8.69

  -8  -8  -6  266.25   14.04

  -8  -8  -6  274.26   13.00

  -8  -8  -6  273.37   14.52

  -8  -8  -5   56.51    9.44

  -8  -8  -5   49.43    7.98

  -8  -8  -5   54.68    8.63

  -8  -8  -4  186.48   12.62

  -8  -8  -4  203.17   11.43

  -8  -8  -4  219.24   12.13

  -8  -8  -3    1.16    7.85

  -8  -8  -3   -0.61    6.66

  -8  -8  -3   -0.19    6.06

  -8  -8  -2  152.65   10.61

  -8  -8  -2  138.18    9.25

  -8  -8  -1   40.92    7.87

  -8  -8   0  348.45   14.54

  -8  -8   1    1.44    7.38

  -8  -8   2  595.35   18.53

  -8  -8   3  270.76   13.68

  -8  -8   4  242.12   13.62

  -7  -8 -12   47.45   11.14

  -7  -8 -11   -1.29    9.32

  -7  -8 -10  284.45   16.56

  -7  -8  -9   48.70   10.31

  -7  -8  -8    0.56    6.26

  -7  -8  -8    3.45    8.16

  -7  -8  -7    6.81    6.88

  -7  -8  -7    2.61    6.39

  -7  -8  -7   -2.65    8.28

  -7  -8  -6  244.48   12.72

  -7  -8  -6  221.81   11.85

  -7  -8  -6  218.47   12.65

  -7  -8  -5   21.34    7.71

  -7  -8  -5   21.39    6.75

  -7  -8  -5   22.82    7.39

  -7  -8  -4  133.62   10.97

  -7  -8  -4  151.62   10.34

  -7  -8  -4  158.52   10.27

  -7  -8  -3   19.04    8.43

  -7  -8  -3   16.75    7.05

  -7  -8  -3   11.05    5.89

  -7  -8  -2  258.07   12.47

  -7  -8  -2  266.27   11.12

  -7  -8  -1    4.17    7.15

  -7  -8   0   56.37    8.48

  -7  -8   1   32.72    8.34

  -7  -8   2  314.12   14.59

  -7  -8   3   10.58    8.23

  -7  -8   4   75.26   10.08

  -7  -8   5   -1.44    8.50

  -6  -8 -13    7.81    9.56

  -6  -8 -12   97.75   11.68

  -6  -8 -11    8.88    9.31

  -6  -8 -10  135.61   10.67

  -6  -8 -10  147.01   12.67

  -6  -8  -9    5.48    6.66

  -6  -8  -9    1.76    8.74

  -6  -8  -8  139.21   10.28

  -6  -8  -8  164.04   12.25

  -6  -8  -7    3.94    6.12

  -6  -8  -7    3.97    6.86

  -6  -8  -7   10.76    7.80

  -6  -8  -6  270.14   12.48

  -6  -8  -6  294.80   13.30

  -6  -8  -6  293.18   14.02

  -6  -8  -5   -1.13    6.31

  -6  -8  -5   -0.73    6.40

  -6  -8  -5    1.92    6.76

  -6  -8  -4  171.41   10.97

  -6  -8  -4  147.89   10.32

  -6  -8  -4  179.17   10.44

  -6  -8  -3   32.06    7.44

  -6  -8  -3   38.94    6.46

  -6  -8  -2  295.12   13.15

  -6  -8  -2  352.70   12.03

  -6  -8  -1   40.52    8.02

  -6  -8   0  116.31    9.85

  -6  -8   1    6.71    7.29

  -6  -8   2  150.41   10.89

  -6  -8   3    0.46    7.63

  -6  -8   4  195.60   12.58

  -6  -8   5   32.62    8.72

  -5  -8 -13    6.38    8.62

  -5  -8 -12   75.51   11.86

  -5  -8 -11   -0.70    6.51

  -5  -8 -11    1.88    8.91

  -5  -8 -10    2.06    8.26

  -5  -8 -10   -1.42    6.98

  -5  -8  -9    8.32    7.06

  -5  -8  -9   11.37    8.94

  -5  -8  -8  122.72    9.93

  -5  -8  -8  154.53   12.07

  -5  -8  -7   -1.42    6.94

  -5  -8  -7    1.07    8.12

  -5  -8  -6   98.30    8.32

  -5  -8  -6   98.40    9.15

  -5  -8  -6   98.44    9.82

  -5  -8  -5    8.78    5.96

  -5  -8  -5    7.85    7.11

  -5  -8  -5   10.33    6.63

  -5  -8  -4   17.59    6.48

  -5  -8  -4   22.18    7.40

  -5  -8  -4   19.96    6.49

  -5  -8  -3   25.25    7.74

  -5  -8  -3   23.60    5.99

  -5  -8  -2   70.37    8.43

  -5  -8  -2   72.88    6.60

  -5  -8  -1    5.72    7.08

  -5  -8   0  183.54   11.23

  -5  -8   1    0.08    7.15

  -5  -8   2    6.50    7.85

  -5  -8   3    0.00    7.46

  -5  -8   4   70.91    9.61

  -5  -8   5    1.70    7.82

  -5  -8   6   12.18    7.73

  -4  -8 -14   64.67   11.10

  -4  -8 -13   14.30    7.53

  -4  -8 -13   22.06    9.37

  -4  -8 -12   70.77   10.86

  -4  -8 -12   62.31    9.49

  -4  -8 -11   13.73    7.83

  -4  -8 -10    8.15    6.93

  -4  -8  -9   12.06    7.05

  -4  -8  -8   59.42    8.87

  -4  -8  -7    1.21    6.73

  -4  -8  -6  150.01   10.68

  -4  -8  -5    8.36    5.33

  -4  -8  -5   12.59    6.99

  -4  -8  -4   13.77    6.98

  -4  -8  -3   20.73    7.53

  -4  -8  -2  145.46   10.23

  -4  -8  -1    3.03    3.93

  -4  -8  -1    5.41    7.00

  -4  -8  -1    5.69    4.00

  -4  -8   0  223.16    8.65

  -4  -8   0  232.14   11.89

  -4  -8   1    3.38    3.95

  -4  -8   1    3.50    7.40

  -4  -8   2   99.98    6.52

  -4  -8   2  109.51   10.06

  -4  -8   3    3.02    4.06

  -4  -8   3    2.04    7.64

  -4  -8   4  247.19    9.56

  -4  -8   4  235.28   12.36

  -4  -8   5   -0.60    4.41

  -4  -8   5   -0.78    7.21

  -4  -8   6   70.97    6.71

  -4  -8   6   73.53    9.07

  -3  -8 -14   73.14    9.55

  -3  -8 -14   74.23   11.36

  -3  -8 -13    6.03    7.68

  -3  -8 -12   54.74    9.27

  -3  -8 -11    8.88    8.16

  -3  -8 -10  230.81   12.98

  -3  -8  -9    9.10    7.23

  -3  -8  -8  207.57   12.03

  -3  -8  -7   56.28    8.41

  -3  -8  -6  564.40   17.04

  -3  -8  -5   51.86    8.42

  -3  -8  -4  110.25    9.70

  -3  -8  -3   19.61    7.45

  -3  -8  -2  669.31   14.77

  -3  -8  -2  666.42   17.46

  -3  -8  -1   -0.37    4.35

  -3  -8  -1    1.58    7.19

  -3  -8   0  102.78    6.84

  -3  -8   0  101.79    9.31

  -3  -8   1   29.78    5.18

  -3  -8   1   25.70    7.94

  -3  -8   2  478.95   12.69

  -3  -8   2  497.38   15.70

  -3  -8   3   66.01    6.30

  -3  -8   3   66.74    8.85

  -3  -8   4  520.02   13.78

  -3  -8   4  508.37   15.92

  -3  -8   5   30.94    5.60

  -3  -8   5   31.14    7.58

  -3  -8   6  275.05   11.27

  -3  -8   6  262.00   12.74

  -3  -8   7   28.90    6.26

  -3  -8   7   28.78    8.20

  -2  -8 -14   92.41   10.88

  -2  -8 -13   12.74    7.49

  -2  -8 -12   85.19   10.47

  -2  -8 -11    3.64    7.53

  -2  -8 -10  171.72   12.25

  -2  -8  -9    8.00    7.52

  -2  -8  -8  139.71   11.12

  -2  -8  -7   -0.07    7.14

  -2  -8  -6  127.72   10.37

  -2  -8  -5    9.74    7.02

  -2  -8  -4   28.62    7.48

  -2  -8  -3   94.29    7.56

  -2  -8  -3  110.75    9.79

  -2  -8  -2 1061.24   18.86

  -2  -8  -2 1098.99   21.52

  -2  -8  -1   85.23    6.89

  -2  -8  -1   75.29    8.48

  -2  -8   0   89.39    7.10

  -2  -8   0  107.78    9.60

  -2  -8   1  111.43    7.46

  -2  -8   1  106.21    9.46

  -2  -8   2  361.30   11.63

  -2  -8   2  354.05   13.19

  -2  -8   3    9.29    5.33

  -2  -8   3    8.85    6.87

  -2  -8   4  239.62   10.45

  -2  -8   4  250.68   11.76

  -2  -8   5   27.97    6.08

  -2  -8   5   22.57    7.22

  -2  -8   6  179.21    9.99

  -2  -8   6  176.08   10.50

  -2  -8   7    0.47    6.89

  -1  -8 -14   84.07   10.46

  -1  -8 -13   18.46    8.61

  -1  -8 -12  273.55   15.16

  -1  -8 -11   38.03    9.46

  -1  -8 -10   98.00   10.27

  -1  -8  -9    2.86    7.22

  -1  -8  -8  367.45   15.03

  -1  -8  -7   -2.84    7.52

  -1  -8  -6  169.47   10.92

  -1  -8  -5   15.74    7.74

  -1  -8  -4  211.76   11.67

  -1  -8  -3  168.50    9.46

  -1  -8  -3  176.52   10.63

  -1  -8  -2  862.79   17.79

  -1  -8  -2  804.28   18.37

  -1  -8  -1    8.76    5.12

  -1  -8  -1    8.00    6.99

  -1  -8   0  250.80   10.21

  -1  -8   0  258.05   11.69

  -1  -8   1   69.07    6.92

  -1  -8   1   62.64    7.56

  -1  -8   2  116.70    8.05

  -1  -8   2  134.63    9.40

  -1  -8   3    6.11    5.36

  -1  -8   3   11.74    6.34

  -1  -8   4  252.58   10.94

  -1  -8   4  262.13   11.46

  -1  -8   5    0.89    5.85

  -1  -8   5    1.70    5.98

  -1  -8   6  259.36   11.82

  -1  -8   6  260.20   11.57

  -1  -8   7   10.31    6.29

   0  -8 -14    1.07    8.54

   0  -8 -13    5.89    7.88

   0  -8 -12   49.08    9.75

   0  -8 -11   24.72    8.93

   0  -8 -10   15.00    8.11

   0  -8  -9   72.25    9.44

   0  -8  -8  108.51   10.05

   0  -8  -7   21.54    8.24

   0  -8  -6   87.58    9.34

   0  -8  -5  141.40   10.43

   0  -8  -4   76.19    7.96

   0  -8  -4   82.35    9.14

   0  -8  -3  166.10    9.70

   0  -8  -3  153.01    9.90

   0  -8  -2    8.48    5.85

   0  -8  -2    7.23    6.29

   0  -8  -1   32.87    6.43

   0  -8  -1   31.76    7.12

   0  -8   0   24.52    6.32

   0  -8   0   19.92    6.35

   0  -8   1   29.85    6.64

   0  -8   1   28.57    6.73

   0  -8   2    9.42    5.74

   0  -8   2    8.06    6.07

   0  -8   3  162.31    9.45

   0  -8   3  162.54    9.40

   0  -8   4   78.90    7.95

   0  -8   4   88.03    7.82

   0  -8   5  131.82    9.39

   0  -8   5  122.28    8.62

   0  -8   6   91.75    6.43

   0  -8   6   94.91    9.30

   0  -8   6   87.31    7.87

   0  -8   7   23.63    5.51

   0  -8   7   20.24    6.24

   1  -8 -14    2.19    8.43

   1  -8 -13   42.49    9.90

   1  -8 -12  217.68   14.44

   1  -8 -11    5.87    8.54

   1  -8 -10  159.68   12.36

   1  -8  -9   34.33    9.33

   1  -8  -8   87.77   10.51

   1  -8  -7    8.97    7.64

   1  -8  -6  272.95   12.98

   1  -8  -5   -0.88    7.36

   1  -8  -4  245.07   11.97

   1  -8  -4  242.55   11.72

   1  -8  -3   12.98    6.89

   1  -8  -3   11.79    6.88

   1  -8  -2  135.56    9.13

   1  -8  -2  135.18    9.27

   1  -8  -1   59.03    7.37

   1  -8  -1   75.76    7.76

   1  -8   0  251.61   11.14

   1  -8   0  262.95   10.93

   1  -8   1    9.85    6.69

   1  -8   1   10.19    5.81

   1  -8   2  842.32   18.64

   1  -8   2  815.15   17.19

   1  -8   3  185.84   10.56

   1  -8   3  175.18    9.17

   1  -8   4  184.96   10.62

   1  -8   4  189.54    9.38

   1  -8   5   18.30    7.15

   1  -8   5   24.06    4.50

   1  -8   5   17.90    5.85

   1  -8   6  172.43    8.37

   1  -8   6  172.57   11.16

   1  -8   6  175.50    9.19

   1  -8   7    2.15    4.81

   1  -8   7    2.04    5.03

   1  -8   8  397.62   13.31

   1  -8   9    3.50    6.06

   1  -8  10  110.18    9.61

   2  -8 -14   20.31    9.24

   2  -8 -13   58.20   10.86

   2  -8 -12  184.20   13.75

   2  -8 -11    3.21    8.53

   2  -8 -10  223.86   14.08

   2  -8  -9  120.45   11.17

   2  -8  -8    8.20    8.27

   2  -8  -7    1.75    7.46

   2  -8  -6  172.32   10.96

   2  -8  -5   24.23    7.72

   2  -8  -4  253.52   12.15

   2  -8  -4  254.39   11.83

   2  -8  -3    6.38    6.76

   2  -8  -3    5.26    5.92

   2  -8  -2  327.95   12.63

   2  -8  -2  339.31   12.14

   2  -8  -1   98.50    8.64

   2  -8  -1  108.47    7.96

   2  -8   0  101.91    8.71

   2  -8   0   94.41    7.62

   2  -8   1   77.13    8.29

   2  -8   1   82.11    7.11

   2  -8   2 1035.09   20.98

   2  -8   2 1051.34   18.74

   2  -8   3   92.75    9.16

   2  -8   3   97.36    7.32

   2  -8   4   33.63    7.66

   2  -8   4   29.30    4.46

   2  -8   4   26.03    5.47

   2  -8   5   17.28    7.81

   2  -8   5   13.01    4.59

   2  -8   5   12.75    5.15

   2  -8   6  129.60    7.83

   2  -8   6  130.10   10.59

   2  -8   6  120.73    7.72

   2  -8   7    5.08    5.39

   2  -8   8  126.06    8.93

   2  -8   9    4.24    6.30

   2  -8  10  160.80   10.64

   2  -8  11    1.91    6.81

   2  -8  12   88.34   10.23

   3  -8 -14   61.14   11.03

   3  -8 -13    1.49    8.14

   3  -8 -12  203.67   14.58

   3  -8 -11   -0.69    9.02

   3  -8 -10  180.68   12.67

   3  -8  -9   13.30    8.72

   3  -8  -8  215.04   13.22

   3  -8  -7   21.73    7.79

   3  -8  -6  268.58   12.73

   3  -8  -5   29.82    7.72

   3  -8  -4  496.66   16.23

   3  -8  -4  478.98   14.93

   3  -8  -3   66.04    8.40

   3  -8  -3   70.44    7.58

   3  -8  -2  461.44   15.20

   3  -8  -2  486.00   14.07

   3  -8  -1   24.46    7.04

   3  -8  -1   28.43    6.10

   3  -8   0   96.96    9.11

   3  -8   0  102.81    7.38

   3  -8   1    1.80    6.98

   3  -8   1    0.19    4.98

   3  -8   2  660.78   17.85

   3  -8   2  667.56   14.97

   3  -8   3   15.63    7.05

   3  -8   3   19.19    4.23

   3  -8   3   24.45    5.00

   3  -8   4   97.77    6.53

   3  -8   4   99.84    9.53

   3  -8   4   94.07    6.81

   3  -8   5   40.08    5.69

   3  -8   5   53.60    8.89

   3  -8   6  562.43   14.68

   3  -8   6  515.53   17.43

   3  -8   7   63.62    7.15

   3  -8   8  219.11   11.19

   3  -8   9   11.76    6.45

   3  -8  10  216.02   12.34

   3  -8  11   10.55    6.96

   3  -8  12   55.78    8.77

   3  -8  13   -0.35    7.77

   4  -8 -14   52.07   10.57

   4  -8 -13    4.66    8.61

   4  -8 -12  159.60   13.55

   4  -8 -11    4.90    8.60

   4  -8 -10   10.62    8.85

   4  -8  -9    4.06    7.67

   4  -8  -8  337.17   14.96

   4  -8  -7   -2.17    7.59

   4  -8  -6   75.89    9.15

   4  -8  -5    1.72    6.29

   4  -8  -4  239.65   12.76

   4  -8  -4  232.54   11.01

   4  -8  -3    1.31    6.95

   4  -8  -3    1.73    5.80

   4  -8  -2   99.47    9.51

   4  -8  -2   96.08    7.59

   4  -8  -1    3.11    7.35

   4  -8  -1    2.14    5.06

   4  -8   0  208.71   11.63

   4  -8   0  213.47    9.29

   4  -8   1    5.92    7.03

   4  -8   1    8.11    4.59

   4  -8   2  149.84   11.00

   4  -8   2  159.16    7.36

   4  -8   2  142.20    7.70

   4  -8   3   18.12    7.63

   4  -8   3   18.13    4.54

   4  -8   4   10.17    7.49

   4  -8   4   11.72    4.74

   4  -8   5   12.58    8.24

   4  -8   5   10.06    5.16

   4  -8   6  142.69    9.01

   4  -8   6  142.55   11.73

   4  -8   7   -1.17    7.79

   4  -8   7    1.47    5.68

   4  -8   8   55.62    7.73

   4  -8   9   14.23    6.87

   4  -8  10   12.23    7.45

   4  -8  11   12.63    7.74

   4  -8  12   64.80    9.93

   4  -8  13   17.11    8.62

   4  -8  14   61.97   10.05

   5  -8 -13   12.95    8.03

   5  -8 -12   94.42   11.64

   5  -8 -11   22.27    9.47

   5  -8 -10    2.99    8.49

   5  -8  -9    7.18    7.98

   5  -8  -8  135.01   10.91

   5  -8  -7    3.70    7.51

   5  -8  -6    9.47    7.29

   5  -8  -5    0.20    6.16

   5  -8  -4   85.08    9.54

   5  -8  -4   84.41    8.05

   5  -8  -3    1.72    7.53

   5  -8  -3    2.46    5.38

   5  -8  -2    8.84    7.72

   5  -8  -2   12.99    5.52

   5  -8  -1   -0.44    7.23

   5  -8  -1    0.84    4.71

   5  -8   0  197.82   11.58

   5  -8   0  196.99    8.79

   5  -8   1   11.41    7.67

   5  -8   1   10.12    4.35

   5  -8   2   79.74    9.46

   5  -8   2   75.53    6.38

   5  -8   3   18.79    8.16

   5  -8   3   15.94    4.96

   5  -8   4   17.50    8.37

   5  -8   4   17.03    5.34

   5  -8   5    9.04    7.66

   5  -8   5    6.78    5.74

   5  -8   6   84.51    9.88

   5  -8   6   85.74    8.16

   5  -8   7    0.86    8.59

   5  -8   7    0.10    6.17

   5  -8   8  120.40    9.91

   5  -8   8  119.32   12.12

   5  -8   9   14.56    7.23

   5  -8  10    6.40    6.87

   5  -8  11    2.71    7.79

   5  -8  12   65.70    9.68

   5  -8  13    2.20    7.70

   6  -8 -13   -1.78    9.15

   6  -8 -12   41.83    9.32

   6  -8 -11    2.83    7.55

   6  -8 -10   55.19    9.27

   6  -8  -9   21.42    8.76

   6  -8  -8  227.50   13.23

   6  -8  -7   29.54    7.53

   6  -8  -6  183.85   11.16

   6  -8  -5   30.50    7.22

   6  -8  -4  214.21   12.51

   6  -8  -4  184.30   10.39

   6  -8  -3    1.08    7.65

   6  -8  -3    3.26    5.37

   6  -8  -2  156.19   11.37

   6  -8  -2  149.79    8.56

   6  -8  -1   -0.75    7.65

   6  -8  -1    2.42    4.46

   6  -8   0  118.39   10.61

   6  -8   1   47.23    8.56

   6  -8   2  302.43   14.24

   6  -8   3   31.84    8.46

   6  -8   3   40.23    6.15

   6  -8   4  166.30   12.26

   6  -8   4  170.96    9.63

   6  -8   5    0.17    7.85

   6  -8   5    2.02    5.67

   6  -8   6  272.06   14.45

   6  -8   6  279.82   12.56

   6  -8   7    2.00    8.86

   6  -8   7    6.30    6.61

   6  -8   8  130.08   10.76

   6  -8   8  166.98   13.53

   6  -8   9    2.29    9.03

   6  -8   9    8.49    7.13

   6  -8  10  122.19   11.24

   6  -8  11    7.51    7.79

   6  -8  12   77.60   10.48

   6  -8  13    6.95    8.13

   7  -8 -12   24.72    8.77

   7  -8 -11    4.19    8.28

   7  -8 -10   93.83   10.65

   7  -8  -9   29.14    8.79

   7  -8  -8  151.76   11.59

   7  -8  -7   25.04    7.39

   7  -8  -6   32.94    7.17

   7  -8  -5    0.33    5.95

   7  -8  -4   70.31    9.07

   7  -8  -4   66.63    7.60

   7  -8  -3   16.94    7.66

   7  -8  -3   11.39    5.33

   7  -8  -2  293.35   13.62

   7  -8  -1   25.70    7.63

   7  -8   0   54.62    8.80

   7  -8   1    6.44    7.74

   7  -8   2  237.87   13.25

   7  -8   3   14.36    8.39

   7  -8   3   12.16    6.05

   7  -8   4  137.82   11.46

   7  -8   4  137.98    9.51

   7  -8   5   32.19    9.13

   7  -8   5   23.73    7.02

   7  -8   6  241.04   14.30

   7  -8   6  232.31   12.35

   7  -8   7    3.18    7.91

   7  -8   7    5.53    7.18

   7  -8   8   -0.64    8.31

   7  -8   8   -0.92    7.11

   7  -8   9   66.52   10.49

   7  -8   9   49.31    9.32

   7  -8  10  238.15   14.13

   7  -8  10  270.17   16.19

   7  -8  11   -5.81    9.24

   7  -8  11   -4.07    8.08

   7  -8  12   34.95    8.68

   8  -8 -12  173.62   13.19

   8  -8 -11   28.13    8.67

   8  -8 -10  137.59   11.59

   8  -8  -9   17.14    8.13

   8  -8  -8  366.04   15.77

   8  -8  -7   44.57    7.88

   8  -8  -6   39.83    7.36

   8  -8  -5   44.25    7.00

   8  -8  -4  238.22   13.43

   8  -8  -3  276.30   13.98

   8  -8  -2  539.58   17.84

   8  -8  -1    3.13    7.19

   8  -8   0  340.74   15.06

   8  -8   1   45.02    8.43

   8  -8   2  129.39   10.85

   8  -8   3   -0.09    7.39

   8  -8   4  189.40   12.66

   8  -8   4  192.09   11.20

   8  -8   5   48.93    9.19

   8  -8   5   48.13    8.18

   8  -8   6  247.57   14.19

   8  -8   6  243.02   13.24

   8  -8   7   19.20    8.95

   8  -8   7   18.01    7.88

   8  -8   8    2.75    8.75

   8  -8   8    0.04    7.12

   8  -8   9   97.69   10.58

   8  -8   9  104.95   11.81

   8  -8  10  362.33   16.91

   8  -8  10  365.51   18.42

   8  -8  11    8.84    9.36

   8  -8  11    8.94    7.74

   9  -8 -11    0.02    8.14

   9  -8 -10    5.62    7.10

   9  -8  -9   59.60    9.35

   9  -8  -8  130.65   11.01

   9  -8  -3    9.70    7.17

   9  -8  -2   10.09    7.19

   9  -8  -1   57.30    8.99

   9  -8   0   76.16    9.10

   9  -8   1    9.82    7.59

   9  -8   2   20.24    8.13

   9  -8   3  113.71   10.81

   9  -8   4   65.66    9.42

   9  -8   4   62.88    9.03

   9  -8   5   58.36    9.29

   9  -8   5   57.81    9.14

   9  -8   6   80.34   10.20

   9  -8   6   70.22    9.32

   9  -8   7    8.29    8.53

   9  -8   7    6.65    7.09

   9  -8   8   -0.28    8.67

   9  -8   8   -1.75    7.71

   9  -8   9   -0.77    8.10

   9  -8   9   -2.69    7.83

   9  -8  10   24.88    9.74

   9  -8  10   19.11    7.95

   9  -8  11   18.95    9.23

  10  -8  -3    7.49    7.26

  10  -8  -2   -0.95    6.93

  10  -8  -1    0.37    6.52

  10  -8   0  142.13   10.92

  10  -8   1    2.43    7.14

  10  -8   2   41.56    8.60

  10  -8   3    1.44    6.95

  10  -8   4  107.12   10.90

  10  -8   4   90.66    9.79

  10  -8   5    3.34    7.55

  10  -8   5    2.90    7.73

  10  -8   6   98.78   11.18

  10  -8   6   78.91    9.93

  10  -8   7    3.46    7.36

  10  -8   7   -1.04    6.93

  10  -8   8  101.25   11.36

  10  -8   8   99.89   11.40

  10  -8   9   -0.11    7.86

  10  -8   9   -3.24    7.95

  10  -8  10   74.33   10.27

  11  -8  -1   86.27    9.71

  11  -8   0   94.43    9.68

  11  -8   1   36.04    7.91

  11  -8   2  203.81   12.33

  11  -8   3    9.73    7.52

  11  -8   4   32.18    8.22

  11  -8   4   34.89    9.10

  11  -8   5   16.02    7.68

  11  -8   5   18.10    7.81

  11  -8   6   33.03    8.37

  11  -8   6   23.92    8.53

  11  -8   7    2.24    7.64

  11  -8   7    4.65    8.13

  11  -8   8   19.93    8.13

  12  -8   4   86.91   10.76

  12  -8   5    1.18    7.58

  12  -8   6  131.35   12.03

  13  -8   4   55.94    9.41

 -12  -9  -4    6.75    9.65

 -12  -9  -3   59.34   10.57

 -12  -9  -2   13.22    9.11

 -12  -9  -1   71.75   11.67

 -12  -9   0    3.53    9.08

 -12  -9   1   32.51   10.02

 -11  -9  -7  117.45   12.36

 -11  -9  -6   14.47    8.57

 -11  -9  -6   18.34    8.26

 -11  -9  -5   95.16   11.40

 -11  -9  -4    1.03    8.81

 -11  -9  -3  199.44   15.15

 -11  -9  -2   -2.10    9.14

 -11  -9  -1   35.70   10.98

 -11  -9   0   10.22   10.03

 -11  -9   0    6.52    6.86

 -11  -9   1   71.02    9.72

 -10  -9  -8   -0.29    8.06

 -10  -9  -7   -2.77    8.74

 -10  -9  -6   23.05    8.53

 -10  -9  -6   23.27    8.82

 -10  -9  -5    5.92    9.02

 -10  -9  -5   12.08    7.48

 -10  -9  -4    1.55    9.10

 -10  -9  -3   74.86   11.73

 -10  -9  -3   63.65    8.88

 -10  -9  -2   13.03    8.89

 -10  -9  -2   11.11    6.91

 -10  -9  -1    8.28    9.87

 -10  -9  -1   19.26    7.95

 -10  -9   0    2.58    6.90

 -10  -9   1  155.44   11.46

 -10  -9   2   29.94    8.43

  -9  -9  -9  144.89   13.56

  -9  -9  -8   22.06    8.78

  -9  -9  -7   25.90    8.51

  -9  -9  -7   35.29    9.50

  -9  -9  -6    6.22    7.64

  -9  -9  -6    5.86    8.13

  -9  -9  -5  180.76   13.36

  -9  -9  -5  176.68   12.16

  -9  -9  -4    1.88    7.81

  -9  -9  -4    0.63    6.71

  -9  -9  -3  286.33   15.63

  -9  -9  -3  317.89   14.85

  -9  -9  -2   -2.94    8.65

  -9  -9  -2    1.24    7.11

  -9  -9  -1   80.06    9.46

  -9  -9   0   50.40    9.29

  -9  -9   1    8.40    7.76

  -9  -9   2   32.97    8.49

  -9  -9   3   99.76   10.50

  -8  -9 -10    7.67    8.61

  -8  -9  -9    4.42    8.33

  -8  -9  -8   44.22    9.51

  -8  -9  -7   11.33    7.66

  -8  -9  -7   13.26    8.56

  -8  -9  -6   32.25    8.78

  -8  -9  -6   22.58    7.24

  -8  -9  -6   31.24    8.68

  -8  -9  -5  134.57   11.74

  -8  -9  -5  135.41   10.82

  -8  -9  -5  136.68   11.22

  -8  -9  -4    9.17    7.86

  -8  -9  -4    1.93    6.68

  -8  -9  -4    6.70    6.95

  -8  -9  -3  155.59   12.57

  -8  -9  -3  166.49   11.87

  -8  -9  -2   46.64    8.83

  -8  -9  -1  160.02   11.74

  -8  -9   0  130.07   11.51

  -8  -9   1   17.71    8.29

  -8  -9   2    5.33    7.33

  -8  -9   3   38.29    9.56

  -8  -9   4   30.75    8.55

  -7  -9 -11  162.13   13.64

  -7  -9 -10    1.99    9.17

  -7  -9  -9  132.10   12.43

  -7  -9  -8   97.92    9.81

  -7  -9  -8  103.65   10.93

  -7  -9  -7  383.44   15.64

  -7  -9  -7  341.23   15.15

  -7  -9  -7  353.81   16.16

  -7  -9  -6    4.46    6.90

  -7  -9  -6   -2.01    6.75

  -7  -9  -6    1.75    7.08

  -7  -9  -5  158.51   11.33

  -7  -9  -5  165.67   11.46

  -7  -9  -5  159.65   11.08

  -7  -9  -4    9.42    7.33

  -7  -9  -4    9.70    7.53

  -7  -9  -4    8.16    6.58

  -7  -9  -3   10.10    7.51

  -7  -9  -3    4.69    7.01

  -7  -9  -2   29.12    7.99

  -7  -9  -1   46.39    8.80

  -7  -9   0   31.35    8.82

  -7  -9   1  348.44   15.47

  -7  -9   2    8.12    8.56

  -7  -9   3  346.00   15.75

  -7  -9   4   16.83    8.15

  -7  -9   5  373.97   16.42

  -6  -9 -12   11.69    9.75

  -6  -9 -11  131.95   13.30

  -6  -9 -10   35.72    7.94

  -6  -9 -10   36.40   10.23

  -6  -9  -9   13.04    7.33

  -6  -9  -9    2.31    8.15

  -6  -9  -8   90.23    9.55

  -6  -9  -8  102.53   10.90

  -6  -9  -7  154.10   11.63

  -6  -9  -7  166.33   12.06

  -6  -9  -6    1.82    6.27

  -6  -9  -6   -1.72    7.32

  -6  -9  -6   -0.42    7.35

  -6  -9  -5  119.96   10.06

  -6  -9  -5  113.89   10.05

  -6  -9  -5  124.34   10.89

  -6  -9  -4    7.92    6.71

  -6  -9  -4    9.85    7.26

  -6  -9  -4    8.63    6.22

  -6  -9  -3   53.65    8.73

  -6  -9  -3   55.98    7.03

  -6  -9  -2   23.03    7.76

  -6  -9  -1   58.27    9.04

  -6  -9   0    6.82    8.10

  -6  -9   1  316.34   14.92

  -6  -9   2   -1.59    8.05

  -6  -9   3    3.13    7.86

  -6  -9   4   15.92    8.40

  -6  -9   5   19.33    8.90

  -6  -9   6    0.62    8.61

  -5  -9 -12   54.36   10.76

  -5  -9 -11   83.98   11.64

  -5  -9 -11   74.76    9.48

  -5  -9 -10    9.04    7.55

  -5  -9 -10    6.43    8.75

  -5  -9  -9   23.03    7.65

  -5  -9  -9   27.19    9.33

  -5  -9  -8   24.27    8.25

  -5  -9  -8   20.52    8.63

  -5  -9  -7   82.37    9.45

  -5  -9  -7   71.44   10.11

  -5  -9  -6    6.87    7.17

  -5  -9  -6    4.43    7.22

  -5  -9  -5  124.48    9.19

  -5  -9  -5  113.05   10.44

  -5  -9  -5  117.13    9.80

  -5  -9  -4    1.22    6.08

  -5  -9  -4    0.42    7.47

  -5  -9  -4    2.00    6.14

  -5  -9  -3   88.36   10.13

  -5  -9  -3   86.66    7.65

  -5  -9  -2   60.54    8.88

  -5  -9  -1  188.36   12.40

  -5  -9   0   18.76    8.09

  -5  -9   1  336.52   14.78

  -5  -9   2    6.10    7.64

  -5  -9   3   56.25    9.75

  -5  -9   4    6.70    8.49

  -5  -9   5  123.56   10.96

  -5  -9   6    4.94    8.39

  -4  -9 -13  116.47   11.00

  -4  -9 -13  125.24   13.44

  -4  -9 -12    2.16    7.43

  -4  -9 -12    3.45    8.83

  -4  -9 -11   25.00    9.81

  -4  -9 -11   21.87    8.38

  -4  -9 -10   18.01    7.64

  -4  -9  -9  114.61   10.60

  -4  -9  -8    9.30    7.32

  -4  -9  -7   80.52    9.56

  -4  -9  -6   -3.14    7.19

  -4  -9  -5   88.66    9.79

  -4  -9  -4   47.70    6.72

  -4  -9  -4   41.75    8.40

  -4  -9  -3   70.93    9.28

  -4  -9  -2   -0.43    7.70

  -4  -9  -1  341.66   14.56

  -4  -9   0  198.56   12.23

  -4  -9   1  125.70   10.62

  -4  -9   2   15.89    8.15

  -4  -9   3   67.61    9.92

  -4  -9   4   35.11    8.88

  -4  -9   5  156.63   11.55

  -4  -9   6   -0.05    8.12

  -3  -9 -13   69.75   10.06

  -3  -9 -12    6.01    8.16

  -3  -9 -11   21.60    8.34

  -3  -9 -10    4.04    7.98

  -3  -9  -9  142.84   11.44

  -3  -9  -8    4.95    8.04

  -3  -9  -7  144.00   11.19

  -3  -9  -6    7.28    7.59

  -3  -9  -5   90.13   10.27

  -3  -9  -4   31.11    8.40

  -3  -9  -3   80.48    9.85

  -3  -9  -2   11.70    5.32

  -3  -9  -2    7.06    7.77

  -3  -9  -1  317.03   11.54

  -3  -9  -1  327.48   14.64

  -3  -9   0   11.94    5.23

  -3  -9   0   12.79    8.31

  -3  -9   1   68.51    6.74

  -3  -9   1   70.84    9.20

  -3  -9   2   12.82    5.35

  -3  -9   2    8.53    8.17

  -3  -9   3   63.24    6.87

  -3  -9   3   67.53    9.43

  -3  -9   4   12.91    5.60

  -3  -9   4    9.94    7.39

  -3  -9   5  255.74   11.31

  -3  -9   5  229.90   12.61

  -3  -9   6   40.97    6.84

  -3  -9   6   37.58    8.07

  -3  -9   7  300.83   12.88

  -3  -9   7  299.16   14.04

  -3  -9   8   97.99    8.97

  -3  -9   9   33.15    7.25

  -2  -9 -13   40.63    9.35

  -2  -9 -12    7.30    7.75

  -2  -9 -11   27.30    9.13

  -2  -9 -10   55.87    9.13

  -2  -9  -9  123.07   11.27

  -2  -9  -8    2.77    7.69

  -2  -9  -7  384.00   16.19

  -2  -9  -6    9.68    8.34

  -2  -9  -5  419.85   16.00

  -2  -9  -4    6.81    7.93

  -2  -9  -3  502.99   14.90

  -2  -9  -3  507.68   16.76

  -2  -9  -2   -0.31    5.50

  -2  -9  -2    2.72    7.99

  -2  -9  -1  219.15   10.32

  -2  -9  -1  202.43   12.14

  -2  -9   0   34.41    6.42

  -2  -9   0   34.24    8.10

  -2  -9   1  108.00    8.23

  -2  -9   1  121.68   10.30

  -2  -9   2    2.20    5.55

  -2  -9   2   -1.41    6.98

  -2  -9   3  100.19    8.30

  -2  -9   3   94.80    9.34

  -2  -9   4   27.30    6.37

  -2  -9   4   19.96    7.55

  -2  -9   5  319.24   12.78

  -2  -9   5  334.78   14.18

  -2  -9   6   59.40    7.67

  -2  -9   6   59.23    8.94

  -2  -9   7  330.96   13.74

  -2  -9   7  307.37   13.74

  -2  -9   8   17.21    7.47

  -2  -9   9  206.44   12.54

  -1  -9 -13   17.91    8.91

  -1  -9 -12   56.65    9.78

  -1  -9 -11  219.56   14.04

  -1  -9 -10    4.11    7.53

  -1  -9  -9  209.89   13.42

  -1  -9  -8   25.73    8.34

  -1  -9  -7   30.20    9.26

  -1  -9  -6   20.29    8.84

  -1  -9  -5    3.06    7.55

  -1  -9  -4  110.65   10.38

  -1  -9  -3   57.55    7.79

  -1  -9  -3   62.41    9.06

  -1  -9  -2   42.45    7.01

  -1  -9  -2   36.12    8.40

  -1  -9  -1   17.25    6.57

  -1  -9  -1   11.31    7.25

  -1  -9   0   61.82    7.38

  -1  -9   0   71.18    8.81

  -1  -9   1  391.15   13.39

  -1  -9   1  366.50   14.03

  -1  -9   2   15.31    6.51

  -1  -9   2    7.55    6.71

  -1  -9   3  514.61   15.45

  -1  -9   3  489.46   15.69

  -1  -9   4    7.32    6.52

  -1  -9   4   15.02    7.33

  -1  -9   5  195.51   11.23

  -1  -9   5  181.11   10.74

  -1  -9   6  106.94    9.34

  -1  -9   6  109.34    9.61

  -1  -9   7   11.34    6.88

  -1  -9   7   12.38    6.46

  -1  -9   8   99.24   10.14

   0  -9 -13   41.36    9.60

   0  -9 -12   20.81    9.18

   0  -9 -11  208.39   14.15

   0  -9 -10   37.65    9.07

   0  -9  -9  426.29   17.32

   0  -9  -8    3.87    8.10

   0  -9  -7   42.69    9.31

   0  -9  -6    2.92    7.85

   0  -9  -5  144.72   10.92

   0  -9  -4   39.94    7.69

   0  -9  -4   37.40    8.28

   0  -9  -3  385.26   14.31

   0  -9  -3  419.50   15.24

   0  -9  -2  110.47    9.02

   0  -9  -2  116.27    9.78

   0  -9  -1  105.75    9.07

   0  -9  -1  108.11    9.64

   0  -9   0    3.41    6.61

   0  -9   0   -0.31    6.57

   0  -9   1  109.41    8.98

   0  -9   1  101.00    8.90

   0  -9   2  113.24    9.30

   0  -9   2  106.84    8.86

   0  -9   3  403.75   14.50

   0  -9   3  397.17   13.97

   0  -9   4   35.93    7.98

   0  -9   4   49.30    7.67

   0  -9   5  157.81   10.79

   0  -9   5  157.61   10.04

   0  -9   6    9.38    7.54

   0  -9   6    4.11    6.06

   0  -9   7   39.78    8.55

   0  -9   7   29.81    6.80

   0  -9   8    0.29    7.59

   1  -9 -13   35.06   10.06

   1  -9 -12    5.13    8.93

   1  -9 -11    5.96    9.13

   1  -9 -10    1.69    7.85

   1  -9  -9   22.34    9.17

   1  -9  -8   98.66   10.57

   1  -9  -7   14.87    8.43

   1  -9  -6  106.49   10.68

   1  -9  -5  178.15   11.70

   1  -9  -4    1.11    7.17

   1  -9  -4    5.14    7.58

   1  -9  -3  531.42   16.49

   1  -9  -3  512.20   16.13

   1  -9  -2   12.31    7.41

   1  -9  -2    8.52    6.69

   1  -9  -1  363.26   14.22

   1  -9  -1  373.66   13.77

   1  -9   0   66.45    8.58

   1  -9   0   62.16    7.79

   1  -9   1   16.24    7.32

   1  -9   1   14.50    6.44

   1  -9   2   35.41    8.13

   1  -9   2   37.37    7.11

   1  -9   3   63.12    8.68

   1  -9   3   63.43    7.70

   1  -9   4  119.04   10.02

   1  -9   4  111.34    8.83

   1  -9   5    5.57    7.90

   1  -9   5    3.48    5.69

   1  -9   6    9.46    7.95

   1  -9   6   16.39    5.97

   1  -9   7   18.75    8.63

   1  -9   7   21.01    6.07

   1  -9   8   24.18    8.68

   1  -9   9  173.00   10.31

   2  -9 -13   62.71   10.85

   2  -9 -12   32.09   10.10

   2  -9 -11  113.11   12.30

   2  -9 -10    1.77    8.12

   2  -9  -9  196.05   13.40

   2  -9  -8   17.04    8.13

   2  -9  -7  303.32   14.80

   2  -9  -6   56.80    9.37

   2  -9  -5  302.83   13.85

   2  -9  -4   30.05    7.91

   2  -9  -4   19.49    7.66

   2  -9  -3   92.91    9.27

   2  -9  -3   83.21    8.74

   2  -9  -2   -2.22    6.92

   2  -9  -2   -0.07    6.24

   2  -9  -1  113.88    9.81

   2  -9  -1  116.24    9.14

   2  -9   0   29.77    7.82

   2  -9   0   36.85    7.14

   2  -9   1  200.70   11.59

   2  -9   1  211.64   10.40

   2  -9   2   -0.45    7.42

   2  -9   2   -2.07    5.77

   2  -9   3  503.51   16.78

   2  -9   3  511.13   14.71

   2  -9   4    2.49    7.43

   2  -9   4    6.74    5.43

   2  -9   5  415.11   16.11

   2  -9   5  422.01   13.48

   2  -9   6   11.91    8.32

   2  -9   6   11.58    5.45

   2  -9   7  402.11   16.76

   2  -9   8    4.99    8.07

   2  -9   8    8.11    5.62

   2  -9   9  135.46    9.75

   2  -9  10   59.86    8.25

   2  -9  11   27.74    7.93

   3  -9 -13   54.54   10.39

   3  -9 -12   21.21    8.62

   3  -9 -11  146.75   12.52

   3  -9 -10   23.23    9.36

   3  -9  -9   36.85    8.73

   3  -9  -8   96.69   10.59

   3  -9  -7  287.07   14.27

   3  -9  -6   34.32    8.71

   3  -9  -5  239.39   12.48

   3  -9  -4   14.97    8.12

   3  -9  -4    6.25    6.71

   3  -9  -3   64.40    9.57

   3  -9  -3   64.53    8.43

   3  -9  -2   15.30    8.12

   3  -9  -2   12.60    6.67

   3  -9  -1   62.71    9.14

   3  -9  -1   67.26    7.54

   3  -9   0   11.18    7.72

   3  -9   0   10.73    5.86

   3  -9   1  311.31   14.02

   3  -9   1  319.10   11.94

   3  -9   2   13.58    8.36

   3  -9   2   13.28    5.52

   3  -9   3   86.85   10.22

   3  -9   3   77.37    7.22

   3  -9   4   32.55    8.68

   3  -9   4   22.06    5.45

   3  -9   5  101.08   10.46

   3  -9   6   10.41    8.59

   3  -9   7  156.06    9.38

   3  -9   7  158.36   12.27

   3  -9   8   -1.03    8.65

   3  -9   8    0.56    5.54

   3  -9   9  143.61   10.48

   3  -9   9  145.30   12.39

   3  -9  10    2.16    6.36

   3  -9  11   25.38    7.49

   3  -9  12    2.90    7.51

   4  -9 -13  117.47   12.08

   4  -9 -12    9.50    8.89

   4  -9 -11  138.99   12.40

   4  -9 -10    3.42    8.23

   4  -9  -9   16.12    7.98

   4  -9  -8   58.83    9.47

   4  -9  -7  140.89   11.55

   4  -9  -6   -3.97    7.67

   4  -9  -5  156.01   10.68

   4  -9  -4   37.39    8.95

   4  -9  -4   33.06    7.20

   4  -9  -3   59.43    9.57

   4  -9  -3   59.05    7.96

   4  -9  -2   12.80    8.35

   4  -9  -2   10.15    6.12

   4  -9  -1  111.70   10.39

   4  -9  -1  109.13    8.39

   4  -9   0  176.52   11.75

   4  -9   0  168.96    9.53

   4  -9   1  358.38   15.36

   4  -9   1  334.48   11.98

   4  -9   2   -0.50    7.94

   4  -9   2   -0.01    4.90

   4  -9   3   77.77   10.07

   4  -9   4   43.65    9.38

   4  -9   5  109.73   11.26

   4  -9   6    2.09    8.69

   4  -9   6   -1.13    5.22

   4  -9   7   71.56    7.74

   4  -9   7   81.00   10.53

   4  -9   8    2.16    8.37

   4  -9   8    8.02    6.37

   4  -9   9  107.43    9.88

   4  -9   9   91.21   11.23

   4  -9  10   21.03    9.48

   4  -9  10   26.34    7.92

   4  -9  11   18.79    7.94

   4  -9  12    0.39    7.67

   4  -9  13  109.71   11.12

   5  -9 -12    8.31    7.97

   5  -9 -11   53.03    9.89

   5  -9 -10   -1.27    8.52

   5  -9  -9   54.00    9.47

   5  -9  -8    1.55    7.47

   5  -9  -7   73.46    9.87

   5  -9  -6   -1.39    7.27

   5  -9  -5  112.53    9.58

   5  -9  -4    2.23    7.84

   5  -9  -4    1.42    6.10

   5  -9  -3   39.94    8.63

   5  -9  -3   41.89    7.30

   5  -9  -2    5.84    7.45

   5  -9  -2   -0.31    5.42

   5  -9  -1  329.23   15.20

   5  -9  -1  318.02   12.10

   5  -9   0   15.97    7.79

   5  -9   0   26.38    5.78

   5  -9   1  191.78   12.78

   5  -9   2   61.76    9.77

   5  -9   3   83.12   10.69

   5  -9   4    0.68    7.81

   5  -9   5  114.85    8.47

   5  -9   5  119.85   11.70

   5  -9   6    5.19    7.80

   5  -9   6    4.49    5.63

   5  -9   7   75.45    8.20

   5  -9   7   79.84   11.30

   5  -9   8   17.64    9.44

   5  -9   8   20.71    6.91

   5  -9   9   24.95   10.02

   5  -9   9   23.71    7.37

   5  -9  10    8.92    9.48

   5  -9  10    8.19    7.56

   5  -9  11   77.94   10.16

   5  -9  11   82.98   11.93

   5  -9  12   53.15   11.22

   5  -9  12   49.63    9.32

   6  -9 -12   13.08    9.09

   6  -9 -11   40.42   10.13

   6  -9 -10    7.40    7.63

   6  -9  -9   70.66   10.49

   6  -9  -8    0.89    7.61

   6  -9  -7   62.94    8.82

   6  -9  -6    1.40    6.50

   6  -9  -5   22.70    7.13

   6  -9  -4   12.33    8.75

   6  -9  -4   11.31    6.40

   6  -9  -3    4.45    8.22

   6  -9  -3   11.84    6.17

   6  -9  -2    1.11    7.86

   6  -9  -2   -0.98    5.28

   6  -9  -1  307.10   15.07

   6  -9   0    4.33    7.78

   6  -9   1   60.19    9.77

   6  -9   2   32.56    9.33

   6  -9   3   53.93    9.41

   6  -9   4    6.36    8.87

   6  -9   4    6.74    5.39

   6  -9   5  136.53   12.26

   6  -9   5  118.90    8.97

   6  -9   6   -1.46    9.01

   6  -9   6    2.63    6.23

   6  -9   7  145.92   10.48

   6  -9   7  148.79   12.88

   6  -9   8   87.54    9.20

   6  -9   8   97.43   11.71

   6  -9   9   10.94    9.86

   6  -9   9    4.50    7.05

   6  -9  10   41.88    9.99

   6  -9  10   29.87    8.49

   6  -9  11  104.67   10.63

   6  -9  11  118.53   12.57

   6  -9  12   15.85   10.03

   6  -9  12    6.87    7.28

   7  -9 -11   11.53    8.82

   7  -9 -10   -0.39    7.64

   7  -9  -9   42.15    9.56

   7  -9  -8    2.52    7.83

   7  -9  -7  291.64   14.36

   7  -9  -6   22.68    7.20

   7  -9  -5  369.47   14.66

   7  -9  -4   22.24    9.05

   7  -9  -4   22.10    6.27

   7  -9  -3  359.34   16.05

   7  -9  -2    9.71    8.77

   7  -9  -1  340.75   15.61

   7  -9   0   27.14    9.27

   7  -9   1   46.14    9.89

   7  -9   2   34.64    9.59

   7  -9   3    5.05    8.07

   7  -9   3    6.07    5.48

   7  -9   4    3.55    8.82

   7  -9   4    4.71    5.79

   7  -9   5  166.25   13.24

   7  -9   5  165.51   10.60

   7  -9   6   -3.41    8.89

   7  -9   6    1.54    6.61

   7  -9   7  327.91   14.64

   7  -9   7  349.63   17.41

   7  -9   8   88.36    9.95

   7  -9   8   89.95   12.01

   7  -9   9  139.74   11.23

   7  -9   9  138.55   13.34

   7  -9  10    3.32    9.69

   7  -9  10   -0.34    7.37

   7  -9  11  156.10   12.70

   7  -9  11  165.63   14.47

   8  -9 -11   68.85   10.22

   8  -9 -10    4.55    7.28

   8  -9  -9   52.24    8.95

   8  -9  -8   -3.40    6.98

   8  -9  -7   75.91    9.57

   8  -9  -6   10.04    6.78

   8  -9  -4   26.68    8.38

   8  -9  -3   34.07    9.34

   8  -9  -2    5.72    7.73

   8  -9  -1   21.00    8.57

   8  -9   0  139.42   12.05

   8  -9   1  135.09   11.95

   8  -9   2   45.77    9.68

   8  -9   2   50.73    7.17

   8  -9   3  153.80   12.16

   8  -9   3  155.62   10.28

   8  -9   4    9.21    8.75

   8  -9   4    3.01    6.20

   8  -9   5  134.72   12.27

   8  -9   5  132.27   10.17

   8  -9   6   23.50    8.94

   8  -9   6   19.82    7.51

   8  -9   7   10.71    8.78

   8  -9   7   15.17    7.13

   8  -9   8   41.81    9.92

   8  -9   8   43.40    8.81

   8  -9   9   13.63    8.54

   8  -9   9   13.71    7.43

   8  -9  10    8.92    8.71

   8  -9  10    4.31    7.92

   9  -9 -10   38.69    8.19

   9  -9  -3  107.78   11.28

   9  -9  -2   30.80    8.51

   9  -9  -1   11.55    7.53

   9  -9   0   61.78    9.36

   9  -9   1   80.24   10.01

   9  -9   2    6.11    7.49

   9  -9   3  308.91   16.07

   9  -9   3  287.99   13.68

   9  -9   4    1.72    8.51

   9  -9   4    1.75    6.39

   9  -9   5  161.60   13.37

   9  -9   5  153.77   11.56

   9  -9   6   -2.95    8.01

   9  -9   6    1.39    6.60

   9  -9   7   29.28    9.65

   9  -9   7   30.85    8.46

   9  -9   8   21.02    9.76

   9  -9   8   26.70    8.27

   9  -9   9  125.04   11.96

   9  -9   9  142.70   12.93

  10  -9  -3  214.44   13.43

  10  -9  -2   25.50    8.53

  10  -9  -1  151.82   12.28

  10  -9   0   -2.46    8.11

  10  -9   1   13.80    8.32

  10  -9   2   12.00    7.67

  10  -9   3   54.98    9.77

  10  -9   3   51.66    8.43

  10  -9   4    5.55    7.96

  10  -9   4    0.84    6.70

  10  -9   5    4.17    8.02

  10  -9   5    0.20    7.54

  10  -9   6   20.71    8.55

  10  -9   6   23.72    7.78

  10  -9   7    0.46    8.57

  10  -9   7   -5.74    7.80

  10  -9   8    1.34    8.44

  10  -9   8    1.03    7.24

  11  -9  -2   -1.68    7.61

  11  -9  -1   79.03   10.31

  11  -9   0   15.32    8.37

  11  -9   1   39.78    8.70

  11  -9   2   -1.63    7.45

  11  -9   3  204.77   13.30

  11  -9   3  188.99   12.78

  11  -9   4    4.89    7.77

  11  -9   4    0.02    7.36

  11  -9   5   84.98   10.34

  11  -9   5   85.53    9.86

  11  -9   6   21.63    8.65

  11  -9   6   12.34    8.01

  11  -9   7  132.64   11.78

  12  -9   3   61.37    9.50

  12  -9   4    3.82    7.35

 -11 -10  -4   79.91   11.67

 -11 -10  -3   28.03    9.59

 -11 -10  -2   76.44   12.42

 -11 -10  -1   29.28   10.25

 -11 -10   0   41.75   11.29

 -11 -10   0   40.72    8.36

 -11 -10   1   18.36    7.79

 -10 -10  -6   39.22    9.60

 -10 -10  -5   11.27    8.89

 -10 -10  -4  245.84   15.40

 -10 -10  -3   -1.31    9.17

 -10 -10  -3    0.46    7.58

 -10 -10  -2  165.57   14.24

 -10 -10  -2  169.69   12.67

 -10 -10  -1   -1.95    9.42

 -10 -10  -1    0.45    7.01

 -10 -10   0   11.44    8.16

 -10 -10   1    5.23    6.91

 -10 -10   2  191.99   13.33

  -9 -10  -8  264.54   15.39

  -9 -10  -7    2.39    7.64

  -9 -10  -6   27.62    8.45

  -9 -10  -5    0.16    8.17

  -9 -10  -5   -4.71    7.15

  -9 -10  -4   52.39    9.80

  -9 -10  -4   67.80    9.87

  -9 -10  -3   93.64   11.04

  -9 -10  -3   67.46    9.98

  -9 -10  -2   72.27   10.67

  -9 -10  -2   78.11    9.91

  -9 -10  -1    0.73    8.25

  -9 -10   0    1.17    7.31

  -9 -10   1    2.77    7.85

  -9 -10   2  128.61   11.72

  -9 -10   3    5.78    7.69

  -8 -10  -9   19.76    8.67

  -8 -10  -8  175.68   13.19

  -8 -10  -7    6.09    8.07

  -8 -10  -6   20.56    7.78

  -8 -10  -6   19.33    7.76

  -8 -10  -6   17.52    8.01

  -8 -10  -5    8.60    7.92

  -8 -10  -5    2.53    7.51

  -8 -10  -4   58.99    9.62

  -8 -10  -4   57.26    9.31

  -8 -10  -3    3.60    8.43

  -8 -10  -3    5.47    7.35

  -8 -10  -2  227.64   14.43

  -8 -10  -2  234.29   14.24

  -8 -10  -1   -3.67    8.39

  -8 -10   0  152.66   12.49

  -8 -10   1    7.01    8.34

  -8 -10   2   96.13   11.51

  -8 -10   3   94.56   10.97

  -8 -10   4   78.19   10.67

  -7 -10 -10    7.12    9.20

  -7 -10  -9   63.91   10.50

  -7 -10  -8   23.10    8.45

  -7 -10  -8   33.94    9.21

  -7 -10  -7    4.64    7.53

  -7 -10  -7   11.42    8.55

  -7 -10  -6   10.68    8.22

  -7 -10  -6   12.17    7.46

  -7 -10  -5   18.19    7.50

  -7 -10  -5   15.01    8.10

  -7 -10  -5   13.97    7.03

  -7 -10  -4   24.40    8.03

  -7 -10  -4   20.18    8.56

  -7 -10  -3   -0.45    7.32

  -7 -10  -3    3.47    7.59

  -7 -10  -2   67.16   10.38

  -7 -10  -1   -2.41    8.54

  -7 -10   0  150.39   12.60

  -7 -10   1   60.04    9.97

  -7 -10   2   14.17    7.98

  -7 -10   3   34.01    9.88

  -7 -10   4    7.01    8.52

  -7 -10   5    1.73    7.98

  -6 -10 -10   20.23    7.61

  -6 -10 -10   17.29    9.11

  -6 -10  -9   54.14    9.03

  -6 -10  -9   63.76   10.97

  -6 -10  -8  156.41   12.10

  -6 -10  -8  140.62   12.27

  -6 -10  -7   59.19    9.82

  -6 -10  -7   63.38    9.92

  -6 -10  -6  257.91   14.24

  -6 -10  -6  279.65   14.10

  -6 -10  -5   38.39    8.68

  -6 -10  -5   40.12    7.96

  -6 -10  -4  161.30   11.11

  -6 -10  -4  140.20   11.98

  -6 -10  -3   12.34    7.86

  -6 -10  -2   15.31    8.68

  -6 -10  -1   -0.28    8.30

  -6 -10   0  117.25   11.19

  -6 -10   1    9.27    9.24

  -6 -10   2   79.47   10.48

  -6 -10   3    4.45    8.77

  -6 -10   4   98.95   11.60

  -6 -10   5  177.36   13.47

  -6 -10   6  345.20   16.92

  -5 -10 -11   41.64    9.34

  -5 -10 -11   36.74   10.31

  -5 -10 -10   78.59   10.06

  -5 -10 -10   65.24   11.18

  -5 -10  -9   54.49    9.60

  -5 -10  -9   49.68   10.45

  -5 -10  -8   79.41    9.81

  -5 -10  -8   65.04   10.22

  -5 -10  -7    2.56    8.17

  -5 -10  -7    5.04    7.38

  -5 -10  -6  110.17   10.93

  -5 -10  -6  125.60   10.96

  -5 -10  -5   18.42    8.15

  -5 -10  -5   12.16    6.37

  -5 -10  -4  216.00   13.73

  -5 -10  -4  235.85   11.87

  -5 -10  -3   42.29    8.99

  -5 -10  -2   98.14   10.53

  -5 -10  -1   22.27    8.83

  -5 -10   0  324.03   15.62

  -5 -10   1   75.74   10.63

  -5 -10   2  185.23   12.80

  -5 -10   3    2.89    8.05

  -5 -10   4   54.53    9.58

  -5 -10   5   19.21    8.60

  -5 -10   6  175.41   13.01

  -4 -10 -11    2.63    8.30

  -4 -10 -11    1.03    8.94

  -4 -10 -10  123.08   11.49

  -4 -10 -10  131.81   12.54

  -4 -10  -9   23.02    8.06

  -4 -10  -8  101.39   10.99

  -4 -10  -7    4.49    8.54

  -4 -10  -6   72.43   10.42

  -4 -10  -5   10.29    8.67

  -4 -10  -4  163.04   12.10

  -4 -10  -4  163.00   10.44

  -4 -10  -3    6.08    8.44

  -4 -10  -2   67.90   10.09

  -4 -10  -1  104.96   10.72

  -4 -10   0  291.92   15.01

  -4 -10   1    8.66    8.72

  -4 -10   2  129.67   11.92

  -4 -10   3    0.15    8.69

  -4 -10   4  102.46   10.67

  -4 -10   5    4.06    7.94

  -4 -10   6  278.86   15.09

  -3 -10 -12   48.61    9.42

  -3 -10 -11   -0.80    7.45

  -3 -10 -10   95.89   11.35

  -3 -10  -9   73.13   10.61

  -3 -10  -8  145.70   12.51

  -3 -10  -7   34.30    8.80

  -3 -10  -6  115.26   11.11

  -3 -10  -5   38.64    8.87

  -3 -10  -4  167.32   12.70

  -3 -10  -3    5.40    8.71

  -3 -10  -2   14.90    6.00

  -3 -10  -2   16.41    8.96

  -3 -10  -1   -0.21    5.51

  -3 -10  -1    2.91    7.69

  -3 -10   0  135.55    9.10

  -3 -10   0  141.97   11.54

  -3 -10   1    8.70    5.72

  -3 -10   1    2.53    8.08

  -3 -10   2   46.24    6.96

  -3 -10   2   42.01    8.79

  -3 -10   3   53.97    7.31

  -3 -10   3   39.44    9.11

  -3 -10   4   61.82    7.71

  -3 -10   4   62.19    9.56

  -3 -10   5   24.05    6.71

  -3 -10   5   28.91    9.07

  -3 -10   6  285.77   12.95

  -3 -10   6  275.52   14.20

  -3 -10   7   58.07    9.35

  -2 -10 -12   39.66    9.86

  -2 -10 -11   28.96    8.90

  -2 -10 -10   78.97   11.03

  -2 -10  -9    2.08    7.88

  -2 -10  -8   23.26    9.46

  -2 -10  -7    8.88    7.90

  -2 -10  -6   10.88    8.54

  -2 -10  -5   66.27    9.74

  -2 -10  -4  118.19   11.67

  -2 -10  -3   31.62    6.91

  -2 -10  -3   24.63    9.05

  -2 -10  -2   17.83    6.68

  -2 -10  -2   24.50    8.46

  -2 -10  -1   70.64    8.04

  -2 -10  -1   69.34   10.19

  -2 -10   0  302.31   12.68

  -2 -10   0  304.55   14.54

  -2 -10   1   -0.26    6.16

  -2 -10   1    1.76    8.29

  -2 -10   2  158.01    9.87

  -2 -10   2  151.69   11.36

  -2 -10   3   13.06    6.51

  -2 -10   3   14.87    8.24

  -2 -10   4   14.74    6.43

  -2 -10   4   10.91    7.40

  -2 -10   5   66.88    8.50

  -2 -10   5   64.84    8.98

  -2 -10   6    3.28    6.21

  -2 -10   6    5.95    7.19

  -2 -10   7   12.02    7.04

  -2 -10   7    6.15    7.23

  -2 -10   8   30.88    7.85

  -2 -10   9  186.47   12.52

  -2 -10  10   37.80    8.20

  -2 -10  11    3.91    7.06

  -2 -10  12   57.20    9.39

  -1 -10 -12   35.16    9.04

  -1 -10 -11    7.84    8.13

  -1 -10 -10  125.86   12.36

  -1 -10  -9    4.76    8.96

  -1 -10  -8   11.20    8.92

  -1 -10  -7   44.34    9.23

  -1 -10  -6   62.11    9.60

  -1 -10  -5   80.28   10.34

  -1 -10  -4  526.22   18.17

  -1 -10  -3   24.68    6.95

  -1 -10  -3   23.58    8.31

  -1 -10  -2  200.50   11.17

  -1 -10  -2  191.42   12.50

  -1 -10  -1    2.49    6.21

  -1 -10  -1    0.93    7.56

  -1 -10   0  185.58   10.85

  -1 -10   0  193.67   12.10

  -1 -10   1   -1.59    6.69

  -1 -10   1    0.81    7.80

  -1 -10   2  232.64   11.85

  -1 -10   2  254.44   12.97

  -1 -10   3   28.58    7.50

  -1 -10   3   27.71    7.91

  -1 -10   4  160.68   11.09

  -1 -10   4  170.86   11.60

  -1 -10   5   20.36    7.39

  -1 -10   5   17.16    7.30

  -1 -10   6   82.18    9.22

  -1 -10   6   90.17    9.30

  -1 -10   7   16.82    7.19

  -1 -10   7   20.87    7.18

  -1 -10   8  355.58   16.02

  -1 -10   9   16.44    7.80

  -1 -10  10  237.98   14.29

  -1 -10  11    2.38    7.61

  -1 -10  12    8.31    7.81

   0 -10 -12    0.66    8.84

   0 -10 -11   20.10    9.33

   0 -10 -10  236.88   14.74

   0 -10  -9   31.20    8.88

   0 -10  -8  177.64   12.95

   0 -10  -7    9.13    8.95

   0 -10  -6  102.68   11.41

   0 -10  -5    1.39    8.22

   0 -10  -4  363.29   15.92

   0 -10  -3  102.68    9.61

   0 -10  -3  106.29   10.98

   0 -10  -2   97.96    9.37

   0 -10  -2   86.29    9.67

   0 -10  -1    1.77    6.98

   0 -10  -1   -1.35    7.25

   0 -10   0    1.59    7.09

   0 -10   0    9.20    7.14

   0 -10   1   -3.39    6.67

   0 -10   1   -0.65    7.53

   0 -10   2   93.51    9.71

   0 -10   2   82.52    9.25

   0 -10   3  104.45   10.02

   0 -10   3  111.82    9.96

   0 -10   4  388.18   15.73

   0 -10   4  369.84   14.76

   0 -10   5    1.77    7.14

   0 -10   5    1.11    6.44

   0 -10   6   92.28    9.96

   0 -10   6   92.67    9.37

   0 -10   7    6.78    7.95

   0 -10   7   13.72    6.71

   0 -10   8  176.26   12.51

   0 -10   9   22.66    8.54

   0 -10  10  243.11   14.80

   0 -10  11   27.21    9.37

   0 -10  12   -0.50    7.70

   1 -10 -12   17.83    9.56

   1 -10 -11   10.94    9.51

   1 -10 -10  242.66   14.97

   1 -10  -9   19.19    8.92

   1 -10  -8  331.54   16.15

   1 -10  -7   15.14    8.97

   1 -10  -6  109.76   11.37

   1 -10  -5   14.63    8.50

   1 -10  -4  169.61   12.21

   1 -10  -4  169.09   12.04

   1 -10  -3   25.60    8.43

   1 -10  -3   27.54    8.80

   1 -10  -2  238.65   12.78

   1 -10  -2  216.53   12.26

   1 -10  -1    0.06    7.18

   1 -10  -1    2.70    6.98

   1 -10   0  189.22   12.22

   1 -10   0  191.64   11.67

   1 -10   1    3.76    7.33

   1 -10   1    1.78    6.56

   1 -10   2  183.77   12.04

   1 -10   2  189.64   11.12

   1 -10   3   23.08    8.15

   1 -10   3   16.52    7.13

   1 -10   4  511.14   17.78

   1 -10   4  526.18   16.41

   1 -10   5   73.43   10.06

   1 -10   5   70.83    8.53

   1 -10   6   51.08    9.39

   1 -10   6   49.97    7.71

   1 -10   7   50.97    9.39

   1 -10   8   19.41    8.47

   1 -10   9    2.31    8.16

   1 -10  10  128.41   12.43

   1 -10  11   12.95    9.17

   1 -10  12   29.58    9.13

   2 -10 -12   63.64   10.91

   2 -10 -11    7.60    8.88

   2 -10 -10   46.61    9.80

   2 -10  -9  165.26   12.93

   2 -10  -8   31.97    8.59

   2 -10  -7   14.53    9.01

   2 -10  -6    2.15    8.22

   2 -10  -5   66.59    9.40

   2 -10  -4   16.53    8.63

   2 -10  -4   10.66    7.92

   2 -10  -3   13.61    8.12

   2 -10  -3   21.35    7.74

   2 -10  -2  150.88   11.38

   2 -10  -2  152.69   11.13

   2 -10  -1   -2.65    8.00

   2 -10  -1    1.13    7.10

   2 -10   0  279.76   13.81

   2 -10   0  299.05   13.09

   2 -10   1   60.20    9.71

   2 -10   1   55.53    7.74

   2 -10   2   19.77    8.57

   2 -10   2   14.47    6.41

   2 -10   3   27.22    9.08

   2 -10   3   31.49    6.91

   2 -10   4  106.13   10.74

   2 -10   4  108.93    9.00

   2 -10   5   69.30   10.12

   2 -10   5   70.05    7.70

   2 -10   6    6.24    7.99

   2 -10   7    8.85    9.05

   2 -10   8   23.23    9.23

   2 -10   9    2.32    9.22

   2 -10  10   71.86   10.64

   2 -10  11   23.62    9.00

   2 -10  12   28.01    9.96

   3 -10 -12   37.02    9.24

   3 -10 -11    2.93    8.82

   3 -10 -10   31.61    9.63

   3 -10  -9    4.44    9.09

   3 -10  -8   52.05   10.05

   3 -10  -7   62.76    9.60

   3 -10  -6  284.10   14.39

   3 -10  -5   32.19    8.73

   3 -10  -4   70.67    9.70

   3 -10  -4   73.53    9.15

   3 -10  -3   31.08    8.78

   3 -10  -3   48.00    8.49

   3 -10  -2   47.97    9.31

   3 -10  -2   46.18    7.73

   3 -10  -1    5.06    7.64

   3 -10  -1   10.94    7.03

   3 -10   0  138.81   11.65

   3 -10   0  132.74    9.57

   3 -10   1    0.96    8.22

   3 -10   1   -1.23    5.94

   3 -10   2   17.19    8.73

   3 -10   2   10.46    5.97

   3 -10   3   -1.13    8.28

   3 -10   3   -2.44    5.60

   3 -10   4  147.14   12.17

   3 -10   5   36.50    9.11

   3 -10   6  105.06   11.65

   3 -10   7   38.67    9.39

   3 -10   8  144.56   12.53

   3 -10   9   74.19   11.15

   3 -10  10   93.62   11.73

   3 -10  11    0.94    8.80

   3 -10  12   37.22    9.65

   4 -10 -11   32.91    9.54

   4 -10 -10   64.54   10.91

   4 -10  -9   13.21    9.08

   4 -10  -8   22.04    9.13

   4 -10  -7   15.35    7.59

   4 -10  -6  257.12   13.87

   4 -10  -5   -3.41    7.74

   4 -10  -4  111.39   11.24

   4 -10  -4  118.66   10.17

   4 -10  -3    1.98    8.15

   4 -10  -3    2.11    6.78

   4 -10  -2  129.57   11.77

   4 -10  -2  131.54    9.95

   4 -10  -1    9.84    8.52

   4 -10  -1    8.06    6.07

   4 -10   0  244.06   13.87

   4 -10   0  281.24   12.41

   4 -10   1  105.78   10.75

   4 -10   1  108.44    8.55

   4 -10   2   62.75    9.80

   4 -10   3    4.91    8.83

   4 -10   4  170.69   12.83

   4 -10   5   14.55    8.67

   4 -10   6   80.76   11.11

   4 -10   7    0.43    8.32

   4 -10   8  104.83   11.64

   4 -10   9   30.16    9.76

   4 -10  10  125.41   12.63

   4 -10  11    0.18    8.51

   5 -10 -11   -2.56    9.01

   5 -10 -10  123.36   11.78

   5 -10  -9   62.59   10.24

   5 -10  -8   31.18    8.73

   5 -10  -7   39.45    9.19

   5 -10  -6  171.02   12.14

   5 -10  -5    9.92    7.26

   5 -10  -4   60.72    9.77

   5 -10  -4   75.28    9.23

   5 -10  -3    1.57    8.92

   5 -10  -3    2.02    6.20

   5 -10  -2  162.79   12.62

   5 -10  -2  170.99   10.49

   5 -10  -1   70.82   10.03

   5 -10  -1   76.74    8.08

   5 -10   0  298.00   15.38

   5 -10   1   27.34    9.23

   5 -10   2   95.68   10.80

   5 -10   3   40.62    9.92

   5 -10   4  208.33   13.76

   5 -10   5   10.79    8.60

   5 -10   6  146.37   13.28

   5 -10   7    3.44    8.60

   5 -10   8   51.37   10.52

   5 -10   9   61.04   11.47

   5 -10  10   62.68   11.22

   5 -10  11   43.02   10.49

   6 -10 -10  105.91   12.01

   6 -10  -9   41.51    9.56

   6 -10  -8  102.06   11.34

   6 -10  -7   16.78    7.42

   6 -10  -6  343.03   15.41

   6 -10  -5  172.99   11.71

   6 -10  -4   90.74   11.29

   6 -10  -4  100.09    9.55

   6 -10  -3    8.91    8.99

   6 -10  -3    0.66    5.99

   6 -10  -2   93.18   10.90

   6 -10  -1   14.34    8.70

   6 -10   0  124.89   11.94

   6 -10   1    1.08    8.31

   6 -10   2    9.16    8.03

   6 -10   3   15.38    9.24

   6 -10   4  175.07   13.90

   6 -10   5   41.22   10.35

   6 -10   6  282.34   15.83

   6 -10   7   57.29   10.83

   6 -10   8  132.61   12.69

   6 -10   9   60.90   11.20

   6 -10  10   19.52    8.88

   7 -10 -10   84.49   10.95

   7 -10  -9    6.14    7.66

   7 -10  -8   22.13    8.51

   7 -10  -7   12.90    7.19

   7 -10  -6   97.21    9.65

   7 -10  -5   -0.97    6.57

   7 -10  -4    3.95    8.47

   7 -10  -3   36.51   10.12

   7 -10  -2    8.68    8.67

   7 -10  -1   51.75    9.56

   7 -10   0  149.01   12.22

   7 -10   1    2.55    8.78

   7 -10   2   86.40   11.20

   7 -10   3   -1.12    9.13

   7 -10   4   21.72    9.67

   7 -10   5   19.51   10.01

   7 -10   6    8.53    8.56

   7 -10   7    9.02    9.49

   7 -10   8   24.46    9.39

   7 -10   9   59.01   10.88

   7 -10  10    0.34    6.47

   8 -10  -9    3.46    7.32

   8 -10  -8    2.76    6.73

   8 -10  -3   87.65   10.72

   8 -10  -2   98.58   11.24

   8 -10  -1    1.19    8.64

   8 -10   0  147.31   12.39

   8 -10   1    3.15    8.25

   8 -10   2  228.92   14.91

   8 -10   3    7.73    8.97

   8 -10   4   47.56   10.37

   8 -10   5    4.20    9.51

   8 -10   6   23.68    9.40

   8 -10   7    5.29    8.46

   8 -10   8  169.62   14.02

   8 -10   9   24.10   10.23

   8 -10   9   25.40    7.36

   9 -10  -3    5.35    8.13

   9 -10  -2  115.25   11.81

   9 -10  -1    1.27    8.07

   9 -10   0    2.16    7.64

   9 -10   1    4.10    8.47

   9 -10   2   68.59   10.14

   9 -10   3   85.67   11.24

   9 -10   4   54.11   10.24

   9 -10   5    2.17    8.37

   9 -10   6   24.47    9.94

   9 -10   7    2.24    9.05

   9 -10   8  236.30   16.18

  10 -10  -2  170.76   12.90

  10 -10  -1    0.51    7.86

  10 -10   0    5.41    8.74

  10 -10   1   -0.73    7.82

  10 -10   2  154.34   13.26

  10 -10   3   -0.48    8.48

  10 -10   4  247.54   15.62

  10 -10   5   15.93    8.05

  10 -10   6   42.22   10.18

  11 -10  -2  136.18   11.95

  11 -10  -1   20.51    8.35

  11 -10   0   29.07    9.07

  11 -10   1   29.81    8.70

  11 -10   2   80.92   10.92

  11 -10   3   19.05    8.86

  11 -10   4   71.02   10.75

 -10 -11  -3   23.98   10.00

 -10 -11  -3   22.90    8.35

 -10 -11  -2    2.52    8.63

 -10 -11  -2    1.88    7.72

 -10 -11  -1  148.30   14.12

 -10 -11  -1  163.95   12.59

 -10 -11   0   10.00   10.18

 -10 -11   0   18.88    7.85

 -10 -11   1   44.07    9.84

 -10 -11   2    0.98    8.27

  -9 -11  -5   48.20    9.91

  -9 -11  -5   47.43    9.49

  -9 -11  -4    3.54    7.95

  -9 -11  -4    4.33    7.13

  -9 -11  -3   86.64   11.08

  -9 -11  -3   77.82   10.14

  -9 -11  -2    2.14    8.89

  -9 -11  -2   -0.84    8.06

  -9 -11  -1  270.61   16.37

  -9 -11  -1  262.90   15.52

  -9 -11   0    5.95    7.50

  -9 -11   1  107.33   11.24

  -9 -11   2    3.88    8.61

  -9 -11   3   70.81   11.01

  -8 -11  -6   59.48    9.79

  -8 -11  -5   28.34    8.47

  -8 -11  -4    3.05    7.79

  -8 -11  -4    8.43    7.96

  -8 -11  -3   39.31    8.88

  -8 -11  -3   33.29    8.16

  -8 -11  -2   29.89    9.12

  -8 -11  -2   23.06    8.64

  -8 -11  -1   19.24    8.74

  -8 -11   0    4.34    8.92

  -8 -11   1   -3.14    8.74

  -8 -11   2    4.40    8.96

  -8 -11   3   39.75   10.06

  -8 -11   4   14.49    9.02

  -7 -11  -8    4.61    7.78

  -7 -11  -8    2.22    7.56

  -7 -11  -7   18.08    8.78

  -7 -11  -6    3.78    7.61

  -7 -11  -5    4.28    7.70

  -7 -11  -4   -1.59    8.39

  -7 -11  -3   43.18    9.11

  -7 -11  -3   40.53    9.32

  -7 -11  -2   11.17    8.98

  -7 -11  -1  196.40   13.62

  -7 -11   0   74.99   10.59

  -7 -11   1   11.40    8.57

  -7 -11   2    3.56    8.38

  -7 -11   3   90.51   11.80

  -7 -11   4    1.08    8.15

  -7 -11   5   70.33   11.45

  -6 -11  -9   68.93    9.92

  -6 -11  -9   72.94   10.44

  -6 -11  -8   20.53    8.24

  -6 -11  -8   18.61    8.15

  -6 -11  -7   21.68    8.98

  -6 -11  -7   12.57    7.79

  -6 -11  -6   84.92   10.74

  -6 -11  -5   20.79    8.73

  -6 -11  -4   21.26    8.23

  -6 -11  -3   36.41    8.31

  -6 -11  -3   29.83    9.30

  -6 -11  -2   61.28   10.14

  -6 -11  -1  344.41   17.11

  -6 -11   0   13.04    8.78

  -6 -11   1    3.05    8.16

  -6 -11   2    3.22    8.80

  -6 -11   3  119.33   12.26

  -6 -11   4    1.56    9.29

  -6 -11   5  109.84   11.43

  -6 -11   6   23.52    8.64

  -5 -11  -9   26.32    8.93

  -5 -11  -9   32.63    9.53

  -5 -11  -8    4.49    8.38

  -5 -11  -8    5.80    8.28

  -5 -11  -7  229.75   14.81

  -5 -11  -7  231.06   14.01

  -5 -11  -6   16.88    8.61

  -5 -11  -6    7.47    7.53

  -5 -11  -5  315.40   16.16

  -5 -11  -4   72.26   10.92

  -5 -11  -3  151.00   12.77

  -5 -11  -2   22.60    9.60

  -5 -11  -1  244.92   15.26

  -5 -11   0    0.30    9.14

  -5 -11   1   20.50    8.47

  -5 -11   2   46.93   10.73

  -5 -11   3  103.05   11.54

  -5 -11   4   10.70    8.56

  -5 -11   5  134.98   12.06

  -5 -11   6    5.95    7.66

  -4 -11 -10   -2.42    7.45

  -4 -11 -10    0.29    7.90

  -4 -11  -9   34.79    9.31

  -4 -11  -9   34.57    9.43

  -4 -11  -8   11.86    8.25

  -4 -11  -8   14.05    8.58

  -4 -11  -7  162.55   13.03

  -4 -11  -7  194.69   13.18

  -4 -11  -6    1.12    8.02

  -4 -11  -6    2.99    7.41

  -4 -11  -5  147.24   12.60

  -4 -11  -4   -0.84    8.08

  -4 -11  -3   38.85   10.15

  -4 -11  -2    5.73    8.91

  -4 -11  -1   29.50    9.94

  -4 -11   0   10.14    8.51

  -4 -11   1  307.89   16.08

  -4 -11   2   15.61    8.60

  -4 -11   3  275.58   14.98

  -4 -11   4    4.35    8.06

  -4 -11   5   99.98   10.91

  -4 -11   6    3.61    8.38

  -3 -11 -10   79.13   11.08

  -3 -11  -9   15.41    9.39

  -3 -11  -8   19.89    9.43

  -3 -11  -7   13.97    8.21

  -3 -11  -6   16.66    9.13

  -3 -11  -5  115.48   11.84

  -3 -11  -4    1.37    8.16

  -3 -11  -3  120.34   11.94

  -3 -11  -2    1.54    9.02

  -3 -11  -1   22.61    9.01

  -3 -11   0    5.28    8.57

  -3 -11   1  200.25   13.13

  -3 -11   2   67.57   10.25

  -3 -11   3   62.48    9.99

  -3 -11   4  109.86   11.11

  -3 -11   5    6.12    8.37

  -3 -11   6   15.62    8.20

  -3 -11   7   24.16    8.90

  -2 -11 -10    7.99    8.55

  -2 -11  -9   27.96    9.99

  -2 -11  -8    5.96    8.94

  -2 -11  -7    4.65    8.07

  -2 -11  -6   27.65    8.89

  -2 -11  -5  125.71   11.91

  -2 -11  -4   -0.78    8.93

  -2 -11  -3   92.18   10.83

  -2 -11  -2    8.64    6.45

  -2 -11  -2    3.34    8.01

  -2 -11  -1   39.64    7.64

  -2 -11  -1   26.81    9.58

  -2 -11   0   35.42    7.33

  -2 -11   0   18.71    8.42

  -2 -11   1   60.84    8.17

  -2 -11   1   65.00   10.07

  -2 -11   2    2.52    6.27

  -2 -11   2    8.13    8.06

  -2 -11   3  160.30   10.80

  -2 -11   3  164.14   12.15

  -2 -11   4    2.20    6.63

  -2 -11   4    1.90    8.33

  -2 -11   5   10.99    6.77

  -2 -11   5    4.70    7.60

  -2 -11   6  147.09   11.14

  -2 -11   6  136.81   11.65

  -2 -11   7  151.58   11.21

  -2 -11   7  159.15   12.15

  -2 -11   8    0.96    6.96

  -2 -11   9   91.53   10.10

  -1 -11 -11   22.05    9.83

  -1 -11 -10    2.95    7.95

  -1 -11  -9   94.04   11.18

  -1 -11  -8   12.65    8.57

  -1 -11  -7  156.48   13.33

  -1 -11  -6   25.73    9.55

  -1 -11  -5  151.47   13.02

  -1 -11  -4    9.25    8.05

  -1 -11  -3   72.41    8.99

  -1 -11  -3   72.75   10.52

  -1 -11  -2   11.95    7.55

  -1 -11  -2   10.64    8.48

  -1 -11  -1   81.38    9.09

  -1 -11  -1   85.55   10.41

  -1 -11   0    5.64    7.07

  -1 -11   0    2.92    7.69

  -1 -11   1   36.31    7.76

  -1 -11   1   37.49    8.79

  -1 -11   2    3.04    6.72

  -1 -11   2   -3.39    7.53

  -1 -11   3  212.51   12.29

  -1 -11   3  203.32   13.15

  -1 -11   4   33.77    8.38

  -1 -11   4   21.99    7.92

  -1 -11   5   60.97    9.07

  -1 -11   5   48.98    8.73

  -1 -11   6  113.51   10.81

  -1 -11   6  136.63   11.05

  -1 -11   7  430.94   17.63

  -1 -11   7  399.65   16.39

  -1 -11   8    2.84    8.00

  -1 -11   9   53.41    9.82

  -1 -11  10    6.89    7.53

  -1 -11  11   51.09    9.49

   0 -11 -11  131.93   13.15

   0 -11 -10    2.79    8.16

   0 -11  -9   52.08   10.76

   0 -11  -8   10.84    9.02

   0 -11  -7  199.60   13.99

   0 -11  -6    1.18    7.97

   0 -11  -5   44.25    9.61

   0 -11  -4    6.20    8.57

   0 -11  -3  204.74   12.68

   0 -11  -3  206.02   13.67

   0 -11  -2   14.92    7.85

   0 -11  -2   14.05    8.40

   0 -11  -1  353.66   15.26

   0 -11  -1  389.10   16.57

   0 -11   0    1.61    6.88

   0 -11   0   -0.57    7.47

   0 -11   1  364.56   15.55

   0 -11   1  385.44   16.16

   0 -11   2   14.78    8.06

   0 -11   2   11.97    7.75

   0 -11   3  232.27   13.09

   0 -11   3  220.87   13.03

   0 -11   4    6.92    7.88

   0 -11   4    4.09    7.30

   0 -11   5   43.73    8.91

   0 -11   5   35.89    7.94

   0 -11   6   -1.06    8.16

   0 -11   6   -2.48    7.07

   0 -11   7  199.04   13.29

   0 -11   7  193.85   12.27

   0 -11   8   10.75    7.99

   0 -11   9   54.51    9.65

   0 -11  10   -1.71    8.38

   0 -11  11  116.00   12.40

   1 -11 -11   56.65   10.93

   1 -11 -10    1.25    8.02

   1 -11  -9   57.56   10.35

   1 -11  -8    1.23    8.18

   1 -11  -7  358.97   17.32

   1 -11  -6  127.44   11.67

   1 -11  -5   49.89   10.08

   1 -11  -4   35.37    8.61

   1 -11  -3  215.49   13.29

   1 -11  -3  232.54   13.57

   1 -11  -2   -1.28    8.11

   1 -11  -2   -0.34    7.52

   1 -11  -1   33.86    8.54

   1 -11  -1   30.96    8.43

   1 -11   0    5.15    7.82

   1 -11   0    1.08    7.48

   1 -11   1   94.82   10.60

   1 -11   1   90.06    9.58

   1 -11   2    4.21    7.73

   1 -11   2   13.42    7.54

   1 -11   3   78.71    9.75

   1 -11   3   69.46    9.14

   1 -11   4    7.69    8.22

   1 -11   4    7.91    6.89

   1 -11   5  140.03   12.19

   1 -11   5  135.80   10.31

   1 -11   6   24.53    8.27

   1 -11   6   28.80    7.62

   1 -11   7  163.32   13.38

   1 -11   8    4.01    8.66

   1 -11   9   94.60   11.63

   1 -11  10    1.21    8.96

   1 -11  11   15.76    8.83

   2 -11 -10    2.89    8.98

   2 -11  -9   73.67   10.27

   2 -11  -8   -4.96    8.59

   2 -11  -7  145.77   12.55

   2 -11  -6  139.59   12.28

   2 -11  -5   11.64    8.21

   2 -11  -4   -0.82    8.39

   2 -11  -4   -1.80    8.22

   2 -11  -3  166.33   12.40

   2 -11  -3  152.11   11.94

   2 -11  -2    7.12    8.89

   2 -11  -2    7.51    7.61

   2 -11  -1   64.40    9.97

   2 -11  -1   55.65    9.18

   2 -11   0   24.68    8.44

   2 -11   0   30.73    7.95

   2 -11   1   39.38    8.95

   2 -11   1   31.86    7.64

   2 -11   2   10.70    8.64

   2 -11   2   10.67    6.66

   2 -11   3   91.72   10.86

   2 -11   3   93.96    9.24

   2 -11   4   -0.13    8.87

   2 -11   4    6.03    6.55

   2 -11   5  106.57   12.04

   2 -11   6   26.70    9.11

   2 -11   7    3.63    9.18

   2 -11   8    6.95    8.87

   2 -11   9   32.69    9.29

   2 -11  10    6.18    9.37

   2 -11  11   83.16   12.19

   3 -11 -10   -1.82    7.82

   3 -11  -9  145.31   12.94

   3 -11  -8    6.72    7.99

   3 -11  -7   28.09    9.49

   3 -11  -6   20.84    8.69

   3 -11  -5   13.21    8.91

   3 -11  -4  131.93   12.39

   3 -11  -4  106.95   10.50

   3 -11  -3   67.90   10.55

   3 -11  -3   64.47    9.53

   3 -11  -2   68.91   10.18

   3 -11  -2   82.76    9.48

   3 -11  -1  200.16   13.37

   3 -11  -1  198.72   12.22

   3 -11   0    0.53    8.15

   3 -11   0    4.57    6.58

   3 -11   1   12.97    8.42

   3 -11   1   19.21    7.15

   3 -11   2   -0.59    8.88

   3 -11   2   -1.69    6.15

   3 -11   3  111.83   11.51

   3 -11   4   -4.53    8.84

   3 -11   5  119.51   12.19

   3 -11   6    9.70    8.86

   3 -11   7   18.68    9.21

   3 -11   8   17.19    9.00

   3 -11   9    2.63    9.37

   3 -11  10   81.24   11.16

   4 -11 -10    0.50    8.15

   4 -11  -9   38.31    9.28

   4 -11  -8    0.69    7.55

   4 -11  -7  122.03   12.06

   4 -11  -6   -3.75    8.27

   4 -11  -5   83.43   10.43

   4 -11  -4    5.05    9.39

   4 -11  -4    0.89    7.67

   4 -11  -3  283.90   15.76

   4 -11  -3  252.87   13.83

   4 -11  -2   14.97    8.52

   4 -11  -2   12.84    6.66

   4 -11  -1  303.66   15.83

   4 -11  -1  289.19   13.57

   4 -11   0    7.30    8.29

   4 -11   0    9.24    6.59

   4 -11   1   29.50    9.83

   4 -11   2   14.39    8.93

   4 -11   3   43.43   10.08

   4 -11   4    3.02    8.80

   4 -11   5  127.65   12.89

   4 -11   6    3.68    8.60

   4 -11   7  172.69   14.11

   4 -11   8   13.42    9.16

   4 -11   9   37.52   10.29

   4 -11  10    4.18    8.66

   5 -11  -9   70.65   10.30

   5 -11  -8   30.70    9.56

   5 -11  -7  289.50   15.34

   5 -11  -6    7.05    7.15

   5 -11  -5  113.35   10.55

   5 -11  -4    5.07    9.06

   5 -11  -4    5.04    6.70

   5 -11  -3  102.31   12.16

   5 -11  -3  115.41   10.09

   5 -11  -2   48.85   10.65

   5 -11  -2   50.50    7.97

   5 -11  -1   24.18    9.80

   5 -11   0    5.61    9.05

   5 -11   1  246.94   14.88

   5 -11   2   41.29   10.47

   5 -11   3  129.79   12.67

   5 -11   4   71.11   11.03

   5 -11   5  310.36   17.28

   5 -11   6    6.13    8.91

   5 -11   7  232.75   15.49

   5 -11   8    5.87    8.60

   5 -11   9   30.67   10.70

   6 -11  -9   50.29    9.13

   6 -11  -8   11.06    7.61

   6 -11  -7   65.70    9.92

   6 -11  -6   29.12    8.23

   6 -11  -5   97.87    9.89

   6 -11  -4    3.29    9.36

   6 -11  -4   -1.74    6.49

   6 -11  -3  130.63   12.84

   6 -11  -2   10.09    9.17

   6 -11  -1    3.13    9.13

   6 -11   0    7.68    9.44

   6 -11   1  337.12   17.05

   6 -11   2   57.69   11.28

   6 -11   3   39.70   10.58

   6 -11   4   23.08   10.04

   6 -11   5   17.47    9.65

   6 -11   6   73.56   11.87

   6 -11   7   20.39    9.81

   6 -11   8   20.41   10.46

   7 -11  -8    5.70    7.42

   7 -11  -7    5.23    6.70

   7 -11  -3   87.02   11.66

   7 -11  -2   -0.24    9.43

   7 -11  -1   15.51    9.82

   7 -11   0   75.22   10.72

   7 -11   1  190.70   14.60

   7 -11   2    4.20    8.52

   7 -11   3   42.74    9.78

   7 -11   4    1.99    8.45

   7 -11   5    5.70    9.31

   7 -11   6    4.58    8.66

   7 -11   7   23.88    9.37

   7 -11   8    5.28    8.82

   8 -11  -3   42.47   10.28

   8 -11  -2    3.28    8.69

   8 -11  -1    1.54    8.39

   8 -11   0    1.40    9.41

   8 -11   1   24.16    9.17

   8 -11   2   29.64    9.58

   8 -11   3   25.44    9.47

   8 -11   4    5.49    8.61

   8 -11   5   38.07   10.75

   8 -11   6   69.81   11.16

   9 -11  -3   67.73   11.44

   9 -11  -2    9.62    9.21

   9 -11  -1  117.45   12.07

   9 -11   0    3.65    9.00

   9 -11   1  227.41   15.00

   9 -11   2    2.41    8.35

   9 -11   3   71.26   10.61

   9 -11   4    3.89    8.53

   9 -11   5   45.38   10.76

  10 -11  -2   -2.54    7.86

  10 -11  -1   46.99    9.84

  10 -11   0   14.35    8.69

  10 -11   1  160.47   13.69

  10 -11   2   -3.38    8.53

  10 -11   3   29.83    9.81

  -8 -12  -3   10.96    7.89

  -8 -12  -2   51.65    9.51

  -8 -12  -2   72.73   10.26

  -8 -12  -1   16.14    9.19

  -8 -12   0   70.56   10.52

  -8 -12   1   -0.69    8.83

  -8 -12   2   25.32    9.75

  -8 -12   3    5.93    8.88

  -7 -12  -5    6.85    8.47

  -7 -12  -4  188.89   13.94

  -7 -12  -3    1.17    8.47

  -7 -12  -2   96.46   11.11

  -7 -12  -2   88.67   11.87

  -7 -12  -1    1.29    8.13

  -7 -12   0   29.12    9.82

  -7 -12   1   21.02    9.80

  -7 -12   2    2.11    9.11

  -7 -12   3   24.46    9.42

  -7 -12   4  186.79   14.10

  -7 -12   5    3.73    9.10

  -6 -12  -6   26.25    8.69

  -6 -12  -5   10.38    8.81

  -6 -12  -4   32.96    9.95

  -6 -12  -3   11.58    8.62

  -6 -12  -2   85.64   11.39

  -6 -12  -1    1.91    8.41

  -6 -12   0   45.11   10.65

  -6 -12   1   23.45   10.01

  -6 -12   2   74.30   10.91

  -6 -12   3   -0.81    8.29

  -6 -12   4  263.39   16.40

  -6 -12   5   13.50    8.76

  -5 -12  -7    0.20    7.62

  -5 -12  -6   41.94   10.36

  -5 -12  -5   -5.04    8.89

  -5 -12  -4    2.89    9.11

  -5 -12  -3   10.79    9.24

  -5 -12  -2  119.31   12.06

  -5 -12  -1  124.08   12.29

  -5 -12   0   66.12   10.57

  -5 -12   1    1.65    8.10

  -5 -12   2  250.94   15.60

  -5 -12   3    6.31    8.90

  -5 -12   4  107.48   12.37

  -5 -12   5   73.97   10.77

  -5 -12   6   35.54    8.97

  -4 -12  -8    1.72    8.67

  -4 -12  -8    1.20    7.11

  -4 -12  -7    1.41    7.96

  -4 -12  -6  130.33   13.15

  -4 -12  -5   26.32    9.48

  -4 -12  -4  277.96   16.57

  -4 -12  -3  123.07   12.94

  -4 -12  -2  264.21   16.01

  -4 -12  -1    0.55    8.55

  -4 -12   0   35.42    9.96

  -4 -12   1  105.11   12.37

  -4 -12   2   52.77    9.97

  -4 -12   3   82.37   11.75

  -4 -12   4   -0.35    8.99

  -4 -12   5    3.92    8.89

  -4 -12   6   29.59    9.22

  -3 -12  -9   24.48    8.71

  -3 -12  -8   19.91    9.74

  -3 -12  -7   -0.32    8.22

  -3 -12  -6   60.73   11.12

  -3 -12  -5   16.78    9.82

  -3 -12  -4  207.40   14.96

  -3 -12  -3   21.01    8.99

  -3 -12  -2   17.26    9.47

  -3 -12  -1   35.18   10.11

  -3 -12   0   39.51    9.18

  -3 -12   1   -1.39    8.98

  -3 -12   2  154.18   12.61

  -3 -12   3   10.77    8.92

  -3 -12   4  121.31   12.18

  -3 -12   5    3.36    8.21

  -3 -12   6   42.25    9.19

  -2 -12  -8  127.38   12.64

  -2 -12  -7   14.27    9.45

  -2 -12  -6  104.27   11.71

  -2 -12  -5   22.99    8.93

  -2 -12  -4  102.30   11.54

  -2 -12  -3   44.21   10.60

  -2 -12  -2    4.35    6.90

  -2 -12  -2    2.48    8.93

  -2 -12  -1   -0.45    6.84

  -2 -12  -1    4.28    9.13

  -2 -12   0   75.66    8.92

  -2 -12   0   66.08   10.45

  -2 -12   1    0.05    6.45

  -2 -12   1    1.94    8.76

  -2 -12   2  144.52   10.97

  -2 -12   2  138.28   11.98

  -2 -12   3    6.61    6.98

  -2 -12   3    2.64    7.76

  -2 -12   4  255.36   13.61

  -2 -12   4  231.53   14.53

  -2 -12   5    4.49    8.32

  -2 -12   6   78.49    9.99

  -2 -12   7    1.55    7.92

  -1 -12  -9    3.33    9.51

  -1 -12  -8   27.27   10.13

  -1 -12  -7    4.72    8.48

  -1 -12  -6  110.02   12.54

  -1 -12  -5   96.34   12.07

  -1 -12  -4   20.25    8.58

  -1 -12  -3   12.41    9.50

  -1 -12  -2  126.82   10.96

  -1 -12  -2  133.66   12.78

  -1 -12  -1   18.07    7.45

  -1 -12  -1   15.50    9.25

  -1 -12   0  161.46   11.68

  -1 -12   0  155.20   12.37

  -1 -12   1    6.76    7.05

  -1 -12   1   19.95    8.86

  -1 -12   2   73.54    9.49

  -1 -12   2   70.77   10.51

  -1 -12   3   19.30    7.91

  -1 -12   3   24.62    8.62

  -1 -12   4   15.93    8.22

  -1 -12   4   14.13    7.69

  -1 -12   5    4.93    7.95

  -1 -12   5    8.62    7.88

  -1 -12   6   51.41    9.39

  -1 -12   6   57.09    9.18

  -1 -12   7   15.69    7.58

  -1 -12   7    5.25    7.03

  -1 -12   8   70.66    9.64

  -1 -12   9   26.47    8.76

   0 -12  -9   -0.42    8.89

   0 -12  -8   48.04   10.58

   0 -12  -7    2.93    8.25

   0 -12  -6  231.73   15.50

   0 -12  -5   14.79    9.59

   0 -12  -4   11.73    8.43

   0 -12  -3    3.63    8.04

   0 -12  -3    6.67    8.90

   0 -12  -2  172.85   12.77

   0 -12  -2  154.41   12.94

   0 -12  -1   -1.51    7.89

   0 -12  -1    1.31    7.70

   0 -12   0  150.47   12.16

   0 -12   0  148.45   12.70

   0 -12   1   -2.63    8.06

   0 -12   1   -0.10    8.06

   0 -12   2  175.92   12.50

   0 -12   2  170.25   12.80

   0 -12   3    3.16    7.67

   0 -12   3    3.95    7.74

   0 -12   4   12.48    7.66

   0 -12   4   26.44    8.46

   0 -12   5   12.83    7.82

   0 -12   5    5.77    7.13

   0 -12   6  221.02   14.59

   0 -12   6  234.20   13.23

   0 -12   7    1.63    7.96

   0 -12   8   52.81    9.85

   0 -12   9    1.59    8.57

   1 -12  -9   18.79    9.82

   1 -12  -8   93.28   11.98

   1 -12  -7    5.64    7.81

   1 -12  -6   55.72    9.90

   1 -12  -5    2.59    7.91

   1 -12  -4   13.58    9.11

   1 -12  -3   23.79    8.58

   1 -12  -3   15.83    8.11

   1 -12  -2   79.30   10.21

   1 -12  -2   78.08   10.13

   1 -12  -1   12.36    7.94

   1 -12  -1   10.30    8.46

   1 -12   0  147.77   11.84

   1 -12   0  147.74   11.88

   1 -12   1   21.49    8.45

   1 -12   1   22.61    8.14

   1 -12   2  130.04   11.51

   1 -12   2  130.46   11.52

   1 -12   3   11.33    8.83

   1 -12   3   10.71    7.15

   1 -12   4   22.58    9.23

   1 -12   4   21.30    7.40

   1 -12   5   74.67   10.88

   1 -12   6  107.41   11.59

   1 -12   7   -1.07    8.27

   1 -12   8   34.96    9.16

   1 -12   9    0.01    8.28

   2 -12  -9   -0.06    7.85

   2 -12  -8  150.85   13.23

   2 -12  -7    1.27    8.96

   2 -12  -6   58.91   10.74

   2 -12  -5   11.66    9.25

   2 -12  -4  227.65   14.20

   2 -12  -3    4.47    8.59

   2 -12  -3    4.87    7.71

   2 -12  -2  157.84   12.94

   2 -12  -2  121.94   11.20

   2 -12  -1    1.47    8.32

   2 -12  -1   -1.35    7.81

   2 -12   0   81.99   11.20

   2 -12   0   55.22    9.41

   2 -12   1    2.37    8.30

   2 -12   1    2.28    7.31

   2 -12   2    3.76    8.80

   2 -12   2    3.84    6.70

   2 -12   3   41.94    9.58

   2 -12   3   31.82    7.57

   2 -12   4   96.64   11.35

   2 -12   5   17.59    9.35

   2 -12   6   90.54   11.51

   2 -12   7   12.54    9.29

   2 -12   8  134.98   13.22

   2 -12   9   17.41    8.65

   3 -12  -8  141.87   12.58

   3 -12  -7   -2.92    8.70

   3 -12  -6   39.71    9.69

   3 -12  -5    3.56    8.64

   3 -12  -4  121.51   11.46

   3 -12  -3   14.08    9.03

   3 -12  -3    4.78    7.42

   3 -12  -2  142.60   12.72

   3 -12  -2  149.81   11.97

   3 -12  -1    0.01    8.15

   3 -12  -1    5.34    7.07

   3 -12   0   37.88    9.45

   3 -12   0   39.34    7.96

   3 -12   1   33.27   10.09

   3 -12   1   33.53    7.88

   3 -12   2   13.01    9.16

   3 -12   3   16.42    8.59

   3 -12   4  215.60   14.70

   3 -12   5   19.79    9.90

   3 -12   6   76.06   11.12

   3 -12   7   -2.46    8.32

   3 -12   8   33.71    9.91

   4 -12  -8  168.22   13.46

   4 -12  -7   16.86    8.51

   4 -12  -6   21.63    9.06

   4 -12  -5    1.70    7.74

   4 -12  -4    0.62    7.92

   4 -12  -3   76.61   11.81

   4 -12  -3   68.36    9.83

   4 -12  -2   51.80   10.78

   4 -12  -2   53.36    8.71

   4 -12  -1  103.02   11.64

   4 -12  -1   98.69   10.02

   4 -12   0   32.64    9.99

   4 -12   1    2.22    8.82

   4 -12   2  243.53   15.89

   4 -12   3  143.62   13.76

   4 -12   4  301.10   17.36

   4 -12   5   18.58    9.05

   4 -12   6  118.47   13.51

   4 -12   7   -1.12    9.87

   4 -12   8    4.80    9.26

   5 -12  -7   31.01    9.36

   5 -12  -6   43.22    8.73

   5 -12  -5   67.28    9.59

   5 -12  -4  101.71   10.33

   5 -12  -3    2.38    8.25

   5 -12  -3    1.46    6.95

   5 -12  -2  239.96   15.36

   5 -12  -1    0.86    9.27

   5 -12   0   53.26   10.72

   5 -12   1  123.30   13.28

   5 -12   2  109.42   12.26

   5 -12   3    9.89    8.60

   5 -12   4   -0.23    9.64

   5 -12   5    0.37    8.89

   5 -12   6   50.35   11.44

   5 -12   7    9.44    9.78

   6 -12  -7   29.59    8.23

   6 -12  -6   22.53    7.84

   6 -12  -3    3.63    9.92

   6 -12  -2   63.43   11.20

   6 -12  -1   17.88    9.18

   6 -12   0   52.44   11.31

   6 -12   1   10.84    9.80

   6 -12   2   81.63   11.16

   6 -12   3    6.68    8.52

   6 -12   4   16.06    9.91

   6 -12   5    1.93    8.61

   6 -12   6   18.29    9.98

   7 -12  -3   22.47   10.26

   7 -12  -2    2.74    9.18

   7 -12  -1   15.39    9.05

   7 -12   0   33.80   10.15

   7 -12   1    2.58    9.48

   7 -12   2   94.16   12.42

   7 -12   3   -1.19    9.64

   7 -12   4  193.45   14.55

   7 -12   5   -3.78    9.64

   8 -12  -3   12.84    9.09

   8 -12  -2   34.90    9.57

   8 -12  -1   -6.56    9.33

   8 -12   0   82.72   11.79

   8 -12   1   10.68    8.81

   8 -12   2   53.91   10.46

   8 -12   3    4.15    9.00

  -6 -13  -1   89.61   11.99

  -6 -13   0   33.97    9.30

  -6 -13   1  140.79   12.84

  -5 -13  -3   69.83   11.47

  -5 -13  -2   20.18    9.24

  -5 -13  -1    9.75    9.88

  -5 -13   0    6.74    9.47

  -5 -13   1    8.22    9.17

  -5 -13   2  126.34   13.36

  -5 -13   3   51.46   10.54

  -5 -13   4   -4.05    8.02

  -4 -13  -5    8.93    8.54

  -4 -13  -4    0.06    9.09

  -4 -13  -3  100.66   11.86

  -4 -13  -2   50.83   10.93

  -4 -13  -1    7.62    8.33

  -4 -13   0   -4.17    8.31

  -4 -13   1   34.96    9.72

  -4 -13   2    4.40    9.02

  -4 -13   3   64.33   11.23

  -4 -13   4    1.37    8.87

  -4 -13   5  159.39   13.08

  -3 -13  -5    6.01    8.36

  -3 -13  -4   35.97    9.88

  -3 -13  -3  143.10   13.66

  -3 -13  -2   34.31    9.79

  -3 -13  -1  268.37   16.36

  -3 -13   0   51.37   10.55

  -3 -13   1  313.75   16.98

  -3 -13   2    3.71    9.05

  -3 -13   3   70.13   10.44

  -3 -13   4    1.15    8.63

  -3 -13   5  197.27   14.41

  -3 -13   6    9.29    8.56

  -2 -13  -6    2.07    8.35

  -2 -13  -5  143.81   13.09

  -2 -13  -4   32.29    9.45

  -2 -13  -3   49.55   10.53

  -2 -13  -2    1.75    8.42

  -2 -13  -1  128.95   12.76

  -2 -13   0    6.96    8.09

  -2 -13   1   64.28   10.53

  -2 -13   2   30.37    9.29

  -2 -13   3   12.47    9.06

  -2 -13   4    2.27    8.66

  -2 -13   5  143.97   12.75

  -2 -13   6    3.73    7.91

  -1 -13  -6   12.37    8.40

  -1 -13  -5  269.89   16.40

  -1 -13  -4   28.44    9.36

  -1 -13  -3   30.94   10.19

  -1 -13  -2    7.85    8.38

  -1 -13  -1  100.51   10.82

  -1 -13  -1  104.33   11.56

  -1 -13   0    8.22    7.81

  -1 -13   0    4.42    8.34

  -1 -13   1   88.13   10.05

  -1 -13   1   92.81   11.52

  -1 -13   2    8.09    7.64

  -1 -13   2    4.27    8.51

  -1 -13   3   46.50    8.84

  -1 -13   3   55.65    9.90

  -1 -13   4   -2.00    7.38

  -1 -13   4   -0.85    8.11

  -1 -13   5   86.72   10.49

  -1 -13   5   84.00   10.68

  -1 -13   6   18.15    7.69

  -1 -13   6   25.38    7.86

   0 -13  -6    4.83    8.20

   0 -13  -5   47.28    9.85

   0 -13  -4    9.81    8.92

   0 -13  -3    7.00    8.85

   0 -13  -2    2.35    8.07

   0 -13  -2   -0.51    8.99

   0 -13  -1   37.18    9.34

   0 -13  -1   41.61   10.30

   0 -13   0    0.49    7.58

   0 -13   0    8.21    7.97

   0 -13   1   40.26    9.44

   0 -13   1   40.13    9.94

   0 -13   2    0.98    7.65

   0 -13   2   -1.72    8.13

   0 -13   3    4.25    7.43

   0 -13   3    0.91    8.14

   0 -13   4    6.95    7.73

   0 -13   4    5.68    7.62

   0 -13   5   51.57    9.38

   0 -13   5   45.38    8.71

   0 -13   6    8.21    7.79

   0 -13   7    0.90    8.49

   1 -13  -6   30.24   10.24

   1 -13  -5  102.80   12.43

   1 -13  -4   -1.94    8.30

   1 -13  -3   54.58   10.57

   1 -13  -2    4.56    7.95

   1 -13  -2    8.97    8.23

   1 -13  -1  100.93   11.65

   1 -13  -1   85.70   11.33

   1 -13   0    2.47    8.49

   1 -13   0    6.94    7.37

   1 -13   1  103.86   11.46

   1 -13   1   97.87   11.25

   1 -13   2    6.67    7.93

   1 -13   2   11.30    7.96

   1 -13   3   28.62    8.52

   1 -13   3   25.63    7.89

   1 -13   4   36.41    9.02

   1 -13   5  251.31   15.65

   1 -13   6   12.47    8.27

   1 -13   7   69.63   10.33

   2 -13  -6    4.57    8.39

   2 -13  -5  117.98   12.32

   2 -13  -4    2.38    8.56

   2 -13  -3   10.95    8.73

   2 -13  -2   22.51    9.03

   2 -13  -2   12.27    8.42

   2 -13  -1   64.46   11.28

   2 -13  -1   73.72   10.78

   2 -13   0    6.84    8.22

   2 -13   0    5.35    7.06

   2 -13   1  107.14   12.58

   2 -13   1  113.12   10.91

   2 -13   2    0.78    9.11

   2 -13   3   43.09   10.31

   2 -13   4   39.51   10.42

   2 -13   5  171.22   13.67

   2 -13   6    3.47    8.84

   3 -13  -6    8.76    8.63

   3 -13  -5  188.55   14.31

   3 -13  -4    2.26    7.45

   3 -13  -3   68.73   11.56

   3 -13  -3   82.12   10.70

   3 -13  -2   -3.67    9.18

   3 -13  -2    4.56    7.80

   3 -13  -1  285.81   16.51

   3 -13  -1  261.28   14.61

   3 -13   0   45.44   11.04

   3 -13   1  246.90   16.08

   3 -13   2   33.87    9.96

   3 -13   3  132.16   13.00

   3 -13   4   36.89   10.44

   3 -13   5    6.37    8.27

   3 -13   6    1.57    8.52

   4 -13  -5  146.59   12.22

   4 -13  -4    5.33    7.77

   4 -13  -3   61.86   11.04

   4 -13  -3   51.05    9.25

   4 -13  -2   11.08    9.77

   4 -13  -1   46.56   10.07

   4 -13   0   -0.02    9.40

   4 -13   1    5.55    9.53

   4 -13   2   50.10   10.99

   4 -13   3   84.86   12.36

   4 -13   4    7.58    8.34

   4 -13   5   23.38   10.26

   5 -13  -5   70.60    9.48

   5 -13  -3   85.27   12.16

   5 -13  -2   96.29   11.72

   5 -13  -1   -0.70    9.72

   5 -13   0    5.59    8.81

   5 -13   1   10.34    8.95

   5 -13   2   21.06    8.99

   5 -13   3   65.10   10.70

   6 -13  -1  133.41   13.21

   6 -13   0   32.87   10.09

   6 -13   1   84.13   12.40

  -1 -14  -1   12.86    9.52

  -1 -14   0   11.16    8.78

  -1 -14   1    2.89    7.38

  -1 -14   2    5.49    8.19

   0 -14  -2   52.28   10.71

   0 -14  -1    8.25    7.52

   0 -14  -1    2.10    8.28

   0 -14   0   33.20    9.13

   0 -14   0   33.01    9.51

   0 -14   1    5.75    8.39

   0 -14   1    5.15    7.15

   0 -14   2   51.90    9.74

   0 -14   2   60.46   10.33

   0 -14   3   10.07    7.97

   0 -14   3    7.49    8.35

   1 -14  -2    2.91    8.14

   1 -14  -1    5.14    7.53

   1 -14  -1    1.62    8.07

   1 -14   0   21.23    9.24

   1 -14   0   19.56    8.70

   1 -14   1   14.43    8.55

   1 -14   1   13.77    7.54

   1 -14   2   79.56   10.70

   1 -14   2   73.07    9.57

   2 -14  -1   11.39    8.02

   2 -14   0  193.39   14.75

   2 -14   0  188.07   12.92

   0   0   0    0.00    0.00

;
_shelx_hkl_checksum              88186
loop_
_space_group_symop_operation_xyz
'x, y, z'
'-x, y+1/2, -z+1/2'
'-x, -y, -z'
'x, -y-1/2, z-1/2'
loop_
_atom_site_label
_atom_site_type_symbol
_atom_site_fract_x
_atom_site_fract_y
_atom_site_fract_z
_atom_site_U_iso_or_equiv
_atom_site_adp_type
_atom_site_occupancy
_atom_site_site_symmetry_order
_atom_site_calc_flag
_atom_site_refinement_flags_posn
_atom_site_refinement_flags_adp
_atom_site_refinement_flags_occupancy
Fe1 Fe 0.0000 0.0000 0.0000 0.00598(3) Uani 1 2 d S . P
N1 N 0.20656(7) 0.18743(9) 0.00889(6) 0.00886(10) Uani 1 1 d . . .
C2 C 0.32750(9) 0.16280(11) -0.06624(9) 0.01363(14) Uani 1 1 d . . .
H2 H 0.3339 0.0589 -0.1179 0.016 Uiso 1 1 calc R U .
C3 C 0.44365(9) 0.28001(11) -0.07291(10) 0.01529(15) Uani 1 1 d . . .
H3 H 0.5256 0.2557 -0.1290 0.018 Uiso 1 1 calc R U .
C4 C 0.44029(8) 0.43397(10) 0.00277(8) 0.00862(11) Uani 1 1 d . . .
C5 C 0.31605(9) 0.45764(10) 0.08280(8) 0.01088(12) Uani 1 1 d . . .
H5 H 0.3083 0.5579 0.1385 0.013 Uiso 1 1 calc R U .
C6 C 0.20395(9) 0.33528(10) 0.08120(8) 0.01195(13) Uani 1 1 d . . .
H6 H 0.1197 0.3575 0.1348 0.014 Uiso 1 1 calc R U .
N11 N -0.09821(7) 0.14550(8) 0.16670(6) 0.00768(10) Uani 1 1 d . . .
C12 C -0.03710(8) 0.19155(10) 0.28736(7) 0.00777(11) Uani 1 1 d . . .
H12 H 0.0444 0.1316 0.3267 0.009 Uiso 1 1 calc R U .
N13 N -0.10073(7) 0.32878(8) 0.34719(6) 0.00800(10) Uani 1 1 d . . .
C14 C -0.21434(8) 0.37303(10) 0.25858(7) 0.00904(11) Uani 1 1 d . . .
H14 H -0.2826 0.4651 0.2712 0.011 Uiso 1 1 calc R U .
C15 C -0.21207(8) 0.26226(10) 0.14978(8) 0.00910(11) Uani 1 1 d . . .
H15 H -0.2786 0.2655 0.0745 0.011 Uiso 1 1 calc R U .
loop_
_atom_site_aniso_label
_atom_site_aniso_U_11
_atom_site_aniso_U_22
_atom_site_aniso_U_33
_atom_site_aniso_U_23
_atom_site_aniso_U_13
_atom_site_aniso_U_12
Fe1 0.00686(5) 0.00592(6) 0.00518(5) -0.00015(5) 0.00022(4) 0.00023(5)
N1 0.0091(2) 0.0083(2) 0.0092(2) 0.0001(2) -0.00043(18) -0.00078(19)
C2 0.0102(3) 0.0123(3) 0.0184(3) -0.0069(3) 0.0025(2) -0.0028(2)
C3 0.0092(3) 0.0141(3) 0.0227(4) -0.0091(3) 0.0051(3) -0.0033(2)
C4 0.0075(3) 0.0077(3) 0.0106(3) -0.0012(2) -0.0007(2) -0.0003(2)
C5 0.0128(3) 0.0083(3) 0.0116(3) -0.0017(2) 0.0039(2) -0.0020(2)
C6 0.0128(3) 0.0088(3) 0.0143(3) -0.0013(2) 0.0057(2) -0.0023(2)
N11 0.0082(2) 0.0077(2) 0.0071(2) -0.00081(18) -0.00010(17) -0.00026(18)
C12 0.0076(3) 0.0081(3) 0.0076(3) -0.0007(2) -0.0001(2) -0.0002(2)
N13 0.0086(2) 0.0079(2) 0.0074(2) -0.00093(19) 0.00017(17) -0.00050(18)
C14 0.0090(3) 0.0083(3) 0.0098(3) -0.0005(2) -0.0004(2) 0.0010(2)
C15 0.0093(3) 0.0090(3) 0.0090(3) -0.0006(2) -0.0015(2) 0.0005(2)
loop_
_atom_type_symbol
_atom_type_description
_atom_type_scat_dispersion_real
_atom_type_scat_dispersion_imag
_atom_type_scat_source
C C 0.0033 0.0016 'International Tables Vol C Tables 4.2.6.8 and 6.1.1.4'
H H 0.0000 0.0000 'International Tables Vol C Tables 4.2.6.8 and 6.1.1.4'
N N 0.0061 0.0033 'International Tables Vol C Tables 4.2.6.8 and 6.1.1.4'
Fe Fe 0.3463 0.8444 'International Tables Vol C Tables 4.2.6.8 and 6.1.1.4'
loop_
_geom_angle_atom_site_label_1
_geom_angle_atom_site_label_2
_geom_angle_atom_site_label_3
_geom_angle
_geom_angle_site_symmetry_1
_geom_angle_site_symmetry_3
N11 Fe1 N11 180.0 . 3
N11 Fe1 N13 92.17(2) . 4_565
N11 Fe1 N13 87.83(2) 3 4_565
N11 Fe1 N13 87.83(2) . 2_545
N11 Fe1 N13 92.17(2) 3 2_545
N13 Fe1 N13 180.00(5) 4_565 2_545
N11 Fe1 N1 89.45(2) . .
N11 Fe1 N1 90.55(2) 3 .
N13 Fe1 N1 88.96(2) 4_565 .
N13 Fe1 N1 91.04(2) 2_545 .
N11 Fe1 N1 90.55(2) . 3
N11 Fe1 N1 89.45(2) 3 3
N13 Fe1 N1 91.04(2) 4_565 3
N13 Fe1 N1 88.96(2) 2_545 3
N1 Fe1 N1 180.0 . 3
C6 N1 C2 115.57(7) . .
C6 N1 Fe1 121.12(5) . .
C2 N1 Fe1 123.04(5) . .
N1 C2 C3 124.01(7) . .
N1 C2 H2 118.0 . .
C3 C2 H2 118.0 . .
C2 C3 C4 120.14(7) . .
C2 C3 H3 119.9 . .
C4 C3 H3 119.9 . .
C5 C4 C3 115.76(7) . .
C5 C4 C4 121.71(9) . 3_665
C3 C4 C4 122.52(9) . 3_665
C6 C5 C4 120.18(7) . .
C6 C5 H5 119.9 . .
C4 C5 H5 119.9 . .
N1 C6 C5 124.31(7) . .
N1 C6 H6 117.8 . .
C5 C6 H6 117.8 . .
C12 N11 C15 103.51(6) . .
C12 N11 Fe1 128.90(5) . .
C15 N11 Fe1 123.73(5) . .
N13 C12 N11 114.72(6) . .
N13 C12 H12 122.6 . .
N11 C12 H12 122.6 . .
C12 N13 C14 103.72(6) . .
C12 N13 Fe1 126.62(5) . 2
C14 N13 Fe1 125.85(5) . 2
C15 C14 N13 108.77(6) . .
C15 C14 H14 125.6 . .
N13 C14 H14 125.6 . .
C14 C15 N11 109.27(6) . .
C14 C15 H15 125.4 . .
N11 C15 H15 125.4 . .
loop_
_geom_bond_atom_site_label_1
_geom_bond_atom_site_label_2
_geom_bond_distance
_geom_bond_site_symmetry_2
Fe1 N11 2.1863(6) .
Fe1 N11 2.1864(6) 3
Fe1 N13 2.1904(6) 4_565
Fe1 N13 2.1904(6) 2_545
Fe1 N1 2.3645(6) .
Fe1 N1 2.3645(6) 3
N1 C6 1.3423(10) .
N1 C2 1.3445(10) .
C2 C3 1.3888(11) .
C2 H2 0.9500 .
C3 C4 1.3999(11) .
C3 H3 0.9500 .
C4 C5 1.3954(11) .
C4 C4 1.4865(15) 3_665
C5 C6 1.3854(11) .
C5 H5 0.9500 .
C6 H6 0.9500 .
N11 C12 1.3518(9) .
N11 C15 1.3770(10) .
C12 N13 1.3430(10) .
C12 H12 0.9500 .
N13 C14 1.3839(9) .
N13 Fe1 2.1905(6) 2
C14 C15 1.3694(10) .
C14 H14 0.9500 .
C15 H15 0.9500 .
