#------------------------------------------------------------------------------
#$Date: 2019-11-23 04:20:25 +0200 (Sat, 23 Nov 2019) $
#$Revision: 232100 $
#$URL: file:///home/coder/svn-repositories/cod/cif/4/34/69/4346998.cif $
#------------------------------------------------------------------------------
#
# This file is available in the Crystallography Open Database (COD),
# http://www.crystallography.net/
#
# All data on this site have been placed in the public domain by the
# contributors.
#
data_4346998
loop_
_publ_author_name
'Becker, Sabine'
'D\"urr, Maximilian'
'Miska, Andreas'
'Becker, Jonathan'
'Gawlig, Christopher'
'Behrens, Ulrich'
'Ivanovi\'c-Burmazovi\'c, Ivana'
'Schindler, Siegfried'
_publ_section_title
;
 Copper Chloride Catalysis: Do \m4-Oxido Copper Clusters Play a
 Significant Role?
;
_journal_issue                   8
_journal_name_full               'Inorganic chemistry'
_journal_page_first              3759
_journal_page_last               3766
_journal_paper_doi               10.1021/acs.inorgchem.5b02576
_journal_volume                  55
_journal_year                    2016
_chemical_formula_sum            'C4 H16 Cl3 Cu N2'
_chemical_formula_weight         262.08
_space_group_crystal_system      triclinic
_space_group_IT_number           2
_space_group_name_Hall           '-P 1'
_space_group_name_H-M_alt        'P -1'
_atom_sites_solution_hydrogens   difmap
_audit_creation_method           SHELXL-2014/7
_cell_angle_alpha                113.14(3)
_cell_angle_beta                 100.38(3)
_cell_angle_gamma                100.33(3)
_cell_formula_units_Z            2
_cell_length_a                   7.2930(15)
_cell_length_b                   9.0060(18)
_cell_length_c                   9.6850(19)
_cell_measurement_reflns_used    216
_cell_measurement_temperature    190(2)
_cell_measurement_theta_max      25.03
_cell_measurement_theta_min      1.00
_cell_volume                     552.9(3)
_computing_cell_refinement
;
 Denzo/Scalepack (HKL Research, Inc., 1997)
;
_computing_data_collection       'Bruker AXS Collect (2009)'
_computing_data_reduction
;
 Denzo/Scalepack (HKL Research, Inc., 1997)
;
_computing_molecular_graphics    'ShelXle (Huebschle, 2015)'
_computing_publication_material  'Ortep 3v2'
_computing_structure_refinement  'SHELXL-2014/7 (Sheldrick, 2014)'
_computing_structure_solution    'SHELXS-97 (Sheldrick, 1997)'
_diffrn_ambient_temperature      190(2)
_diffrn_measured_fraction_theta_full 0.999
_diffrn_measured_fraction_theta_max 0.999
_diffrn_measurement_device_type  'Bruker Nonius KappaCCD'
_diffrn_measurement_method       'phi and omega scans'
_diffrn_radiation_source         'Bruker Nonius FR591 rotating anode'
_diffrn_radiation_type           MoK\a
_diffrn_radiation_wavelength     0.71073
_diffrn_reflns_av_R_equivalents  0.0270
_diffrn_reflns_av_unetI/netI     0.0255
_diffrn_reflns_Laue_measured_fraction_full 0.999
_diffrn_reflns_Laue_measured_fraction_max 0.999
_diffrn_reflns_limit_h_max       9
_diffrn_reflns_limit_h_min       -9
_diffrn_reflns_limit_k_max       11
_diffrn_reflns_limit_k_min       -10
_diffrn_reflns_limit_l_max       12
_diffrn_reflns_limit_l_min       -12
_diffrn_reflns_number            7665
_diffrn_reflns_point_group_measured_fraction_full 0.999
_diffrn_reflns_point_group_measured_fraction_max 0.999
_diffrn_reflns_theta_full        25.242
_diffrn_reflns_theta_max         26.370
_diffrn_reflns_theta_min         2.380
_exptl_absorpt_coefficient_mu    2.644
_exptl_absorpt_correction_T_max  0.7456
_exptl_absorpt_correction_T_min  0.5016
_exptl_absorpt_correction_type   multi-scan
_exptl_absorpt_process_details   SADABS-2014/5
_exptl_crystal_colour            green
_exptl_crystal_density_diffrn    1.574
_exptl_crystal_density_method    'not measured'
_exptl_crystal_description       block
_exptl_crystal_F_000             268
_exptl_crystal_size_max          0.700
_exptl_crystal_size_mid          0.450
_exptl_crystal_size_min          0.250
_refine_diff_density_max         0.256
_refine_diff_density_min         -0.775
_refine_diff_density_rms         0.052
_refine_ls_extinction_method     none
_refine_ls_goodness_of_fit_ref   1.051
_refine_ls_hydrogen_treatment    refall
_refine_ls_matrix_type           full
_refine_ls_number_parameters     155
_refine_ls_number_reflns         2257
_refine_ls_number_restraints     0
_refine_ls_restrained_S_all      1.051
_refine_ls_R_factor_all          0.0305
_refine_ls_R_factor_gt           0.0253
_refine_ls_shift/su_max          0.001
_refine_ls_shift/su_mean         0.000
_refine_ls_structure_factor_coef Fsqd
_refine_ls_weighting_details
'w=1/[\s^2^(Fo^2^)+(0.0192P)^2^+0.3168P] where P=(Fo^2^+2Fc^2^)/3'
_refine_ls_weighting_scheme      calc
_refine_ls_wR_factor_gt          0.0588
_refine_ls_wR_factor_ref         0.0607
_reflns_Friedel_coverage         0.000
_reflns_number_gt                1969
_reflns_number_total             2257
_reflns_threshold_expression     'I > 2\s(I)'
_cod_data_source_file            ic5b02576_si_008.cif
_cod_data_source_block           schindler12113
_cod_original_cell_volume        553.0(2)
_cod_database_code               4346998
_shelx_shelxl_version_number     2014/7
_shelx_space_group_comment
;
The symmetry employed for this shelxl refinement is uniquely defined
by the following loop, which should always be used as a source of
symmetry information in preference to the above space-group names.
They are only intended as comments.
;
_shelx_estimated_absorpt_t_min   0.259
_shelx_estimated_absorpt_t_max   0.558
_shelx_res_file
;

    schindler12113.res created by SHELXL-2014/7


TITL schindler12113 in P-1
CELL 0.71073   7.2930   9.0060   9.6850 113.137 100.375 100.326
ZERR    2.00   0.0015   0.0018   0.0019   0.030   0.030   0.030
LATT 1
SFAC C  H  N  Cl Cu
UNIT 8 32 4 6 2
LIST 6 ! automatically inserted. Change 6 to 4 for CHECKCIF!!
L.S. 50
SIZE 0.70 0.45 0.25
TEMP -83.15
REM Beamstop
OMIT 0 -1 1
OMIT 0 1 0
REM Reflection problems at higher resolution
SHEL 9999 0.8
ACTA
BOND
FMAP 2
PLAN 5
WGHT    0.019200    0.316800
FVAR       0.30319
C1    1    0.490006    0.182515    0.696869    11.00000    0.05653    0.05631 =
         0.03850    0.02024    0.01313    0.02355
C2    1    0.168305    0.237513    0.684312    11.00000    0.04255    0.05553 =
         0.03768    0.01585    0.00544    0.00968
C3    1    0.919013    0.349657    0.101472    11.00000    0.03842    0.05797 =
         0.04664    0.02067    0.01497    0.01305
C4    1    0.760744    0.102229    0.129181    11.00000    0.04945    0.03748 =
         0.05237    0.00782    0.00019    0.00582
CL1   4    0.219190    0.081939    0.293576    11.00000    0.03477    0.03075 =
         0.03079    0.01053    0.00411    0.00419
CL2   4    0.729853    0.428978    0.497831    11.00000    0.02703    0.04960 =
         0.03208    0.01010    0.00225    0.00406
CL3   4    0.402835    0.354783    0.099591    11.00000    0.04207    0.04253 =
         0.02590    0.01144    0.00680    0.00666
CU1   5    0.433313    0.313733    0.318058    11.00000    0.03855    0.07027 =
         0.04243    0.02971   -0.00046   -0.00983
H1    2    0.504838    0.200447    0.802593    11.00000    0.05381
H2    2    0.613743    0.217910    0.678541    11.00000    0.07162
H3    2    0.426325    0.062902    0.628627    11.00000    0.05288
H4    2    0.341509    0.260221    0.564792    11.00000    0.05309
H5    2    0.417972    0.388690    0.720234    11.00000    0.06638
H6    2    0.090280    0.293869    0.647287    11.00000    0.05248
H7    2    0.181220    0.272711    0.796605    11.00000    0.06523
H8    2    0.108302    0.120685    0.632134    11.00000    0.06765
H9    2    0.932706    0.273191    0.002713    11.00000    0.08187
H10   2    1.019758    0.450348    0.153155    11.00000    0.05970
H11   2    0.800208    0.382667    0.084374    11.00000    0.05047
H12   2    1.028540    0.259995    0.240528    11.00000    0.07058
H13   2    0.888713    0.336012    0.295081    11.00000    0.05278
H14   2    0.785331    0.028716    0.033184    11.00000    0.07909
H15   2    0.632173    0.124998    0.110850    11.00000    0.06515
H16   2    0.758365    0.060943    0.202737    11.00000    0.08348
N1    3    0.361060    0.278649    0.660287    11.00000    0.04767    0.03720 =
         0.02730    0.01213    0.00497    0.00809
N2    3    0.909373    0.266202    0.204568    11.00000    0.03322    0.03797 =
         0.03417    0.00519   -0.00083    0.01049
HKLF 4

REM  schindler12113 in P-1
REM R1 =  0.0253 for    1969 Fo > 4sig(Fo)  and  0.0305 for all    2257 data
REM    155 parameters refined using      0 restraints

END

WGHT      0.0192      0.3168

REM Highest difference peak  0.256,  deepest hole -0.775,  1-sigma level  0.052
Q1    1   0.7452  0.3385  0.4642  11.00000  0.05    0.26
Q2    1   0.5507  0.2222  0.2280  11.00000  0.05    0.23
Q3    1   0.4470  0.2667  0.3405  11.00000  0.05    0.21
Q4    1   0.6942  0.5651  0.6023  11.00000  0.05    0.20
Q5    1   0.6127  0.5140  0.5601  11.00000  0.05    0.20
;
_shelx_res_checksum              25556
_shelx_hkl_file
;
  -1   0   0  350.18   14.32
  -1   0   0  359.63   12.81
  -1   0   0  355.01   13.92
   1   0   0  349.86   13.10
   1   0   0  353.58   13.49
   1   0   0  336.37   13.97
  -2   0   0    2.28    0.14
  -2   0   0    2.05    0.13
   2   0   0    2.46    0.14
   2   0   0    2.25    0.10
   2   0   0    2.26    0.14
  -3   0   0   29.23    1.15
  -3   0   0   29.77    1.19
  -3   0   0   29.47    1.12
   3   0   0   29.83    1.18
   3   0   0   29.30    1.14
  -4   0   0    2.62    0.21
  -4   0   0    2.49    0.22
  -4   0   0    2.43    0.21
   4   0   0    2.52    0.21
   4   0   0    2.34    0.20
  -5   0   0   46.30    1.66
   5   0   0   45.69    1.80
  -6   0   0  119.37    4.74
   6   0   0  117.85    4.79
  -7   0   0    8.52    0.55
   7   0   0    7.67    0.54
  -8   0   0    1.06    0.30
   8   0   0    1.22    0.30
   9  -1   0    0.84    0.45
  -9   1   0    0.69    0.48
   8  -1   0    0.70    0.28
  -8   1   0    0.90    0.29
   7  -1   0   19.28    1.01
  -7   1   0   20.23    1.04
   6  -1   0   27.23    1.22
  -6   1   0   29.00    1.19
   5  -1   0   22.38    0.94
  -5   1   0   21.26    0.99
   4  -1   0  167.65    6.50
   4  -1   0  161.57    6.83
  -4   1   0  171.07    6.41
  -4   1   0  159.96    6.61
  -4   1   0  161.10    6.49
   3  -1   0   56.25    2.27
   3  -1   0   55.77    2.13
  -3   1   0   55.46    2.01
  -3   1   0   55.77    2.09
  -3   1   0   57.96    2.39
   2  -1   0  638.70   23.39
   2  -1   0  640.99   27.20
   2  -1   0  627.89   22.54
  -2   1   0  635.46   24.67
  -2   1   0  655.76   24.86
  -2   1   0  631.14   24.87
   1  -1   0  416.02   18.86
   1  -1   0  405.05   15.26
  -1   1   0  413.92   15.09
  -1   1   0  415.23   15.70
   0  -1   0   66.44    4.27
  -1  -1   0    3.17    0.15
  -1  -1   0    3.24    0.16
  -1  -1   0    2.99    0.19
   1   1   0    3.31    0.16
   1   1   0    3.23    0.17
  -2  -1   0  125.81    4.45
  -2  -1   0  115.68    6.40
  -2  -1   0  117.76    4.56
   2   1   0  121.24    5.31
   2   1   0  119.52    4.51
   2   1   0  116.05    4.79
  -3  -1   0  370.61   14.81
  -3  -1   0  343.19   13.02
  -3  -1   0  353.44   14.09
   3   1   0  374.12   14.99
   3   1   0  352.15   14.22
   3   1   0  349.41   13.04
  -4  -1   0  355.30   12.51
  -4  -1   0  311.95   15.00
   4   1   0  330.29   16.35
   4   1   0  328.44   13.62
   4   1   0  350.45   12.81
  -5  -1   0    3.27    0.33
   5   1   0    2.88    0.17
   5   1   0    3.33    0.33
  -6  -1   0   13.30    0.69
   6   1   0   13.72    0.69
  -7  -1   0   43.01    1.76
   7   1   0   42.34    1.72
  -8  -1   0    0.11    0.28
   8   1   0    0.06    0.30
   9  -2   0   -0.23    0.29
  -9   2   0   -0.05    0.28
   8  -2   0   -0.08    0.23
  -8   2   0    0.20    0.25
   7  -2   0    3.22    0.36
  -7   2   0    2.96    0.37
   6  -2   0    1.85    0.23
  -6   2   0    1.94    0.24
   5  -2   0    1.96    0.20
  -5   2   0    1.49    0.21
  -5   2   0    2.04    0.26
  -5   2   0    1.82    0.20
   4  -2   0  325.11   13.07
   4  -2   0  310.43   14.60
  -4   2   0  306.64   14.45
  -4   2   0  320.20   16.14
  -4   2   0  336.11   11.85
  -4   2   0  316.09   12.00
   3  -2   0  242.03    9.12
   3  -2   0  246.03    9.11
  -3   2   0  238.06    8.94
  -3   2   0  240.39    8.80
  -3   2   0  240.87   10.44
   2  -2   0    2.02    0.16
   2  -2   0    1.88    0.15
   2  -2   0    2.00    0.12
  -2   2   0    2.15    0.16
  -2   2   0    1.98    0.24
  -2   2   0    2.06    0.12
   1  -2   0  164.20    6.52
   1  -2   0  155.54    6.78
   1  -2   0  162.31    6.17
  -1   2   0  157.71    6.99
  -1   2   0  159.98    6.39
  -1   2   0  161.38    6.06
   0  -2   0  209.21    8.16
   0  -2   0  214.35    7.75
   0  -2   0  218.48    8.31
   0  -2   0  220.02    9.33
   0  -2   0  216.42   10.75
   0   2   0  235.92    8.93
   0   2   0  203.54    8.52
   0   2   0  212.54    8.54
  -1  -2   0   45.72    1.69
  -1  -2   0   46.22    2.02
  -1  -2   0   48.61    2.31
   1   2   0   45.88    1.79
   1   2   0   47.63    2.16
  -2  -2   0  891.80   36.45
  -2  -2   0  923.60   35.07
  -2  -2   0 1000.00   39.88
   2   2   0  917.64   33.51
   2   2   0  919.73   33.46
   2   2   0  962.26   42.50
  -3  -2   0  343.67   16.26
  -3  -2   0  326.68   14.42
  -3  -2   0  357.60   14.15
   3   2   0  347.09   13.86
   3   2   0  335.66   13.78
   3   2   0  359.35   13.15
  -4  -2   0    0.66    0.23
   4   2   0    1.00    0.25
   4   2   0    0.60    0.16
   4   2   0    0.74    0.17
  -5  -2   0    2.30    0.26
   5   2   0    2.73    0.27
   5   2   0    2.09    0.28
  -6  -2   0   -0.01    0.23
   6   2   0   -0.14    0.22
  -7  -2   0    1.77    0.32
   7   2   0    1.87    0.33
  -8  -2   0   13.59    1.04
   8   2   0   15.54    0.93
   9  -3   0    0.29    0.30
  -9   3   0    0.50    0.31
   8  -3   0   29.08    1.29
  -8   3   0   28.27    1.35
   7  -3   0    3.69    0.39
  -7   3   0    3.51    0.37
   6  -3   0    0.56    0.19
  -6   3   0    1.11    0.20
   5  -3   0   19.65    0.81
  -5   3   0   19.33    0.89
  -5   3   0   18.63    0.90
  -5   3   0   19.10    0.78
  -5   3   0   19.51    0.86
   4  -3   0   85.09    3.73
   4  -3   0   85.39    3.29
  -4   3   0   89.57    3.46
  -4   3   0   88.51    3.85
  -4   3   0   86.04    3.37
  -4   3   0   89.44    3.37
   3  -3   0    5.81    0.30
   3  -3   0    6.02    0.28
  -3   3   0    6.83    0.33
  -3   3   0    6.16    0.26
  -3   3   0    6.14    0.31
   2  -3   0  234.23   11.14
   2  -3   0  227.15    8.26
  -2   3   0  239.53    9.13
  -2   3   0  223.32    8.67
  -2   3   0  225.69    8.53
  -2   3   0  234.56    8.81
   1  -3   0  246.67    9.92
   1  -3   0  259.58   10.76
   1  -3   0  252.22    9.39
  -1   3   0  241.89   10.05
  -1   3   0  247.02    9.77
  -1   3   0  247.25   10.98
   0  -3   0  322.25   13.18
   0  -3   0  303.61   12.06
   0  -3   0  309.50   12.20
   0  -3   0  337.60   14.50
   0  -3   0  312.05   12.40
   0   3   0  312.65   12.01
   0   3   0  309.24   13.26
  -1  -3   0   52.12    2.34
  -1  -3   0   49.86    2.26
  -1  -3   0   45.96    1.77
   1   3   0   48.90    1.99
   1   3   0   50.38    2.16
   1   3   0   48.45    2.00
  -2  -3   0   12.36    0.57
  -2  -3   0   11.76    0.61
  -2  -3   0   10.31    0.46
   2   3   0   10.38    0.58
   2   3   0   10.84    0.62
   2   3   0   12.10    0.56
  -3  -3   0    1.59    0.23
  -3  -3   0    1.26    0.19
   3   3   0    1.50    0.24
   3   3   0    1.38    0.25
   3   3   0    1.25    0.17
  -4  -3   0   16.64    0.70
   4   3   0   14.53    0.69
   4   3   0   15.08    0.70
  -5  -3   0   48.18    1.99
   5   3   0   43.79    2.31
   5   3   0   50.70    2.12
  -6  -3   0   90.33    4.26
   6   3   0   92.00    3.92
  -7  -3   0    6.96    0.51
   7   3   0    7.16    0.51
   9  -4   0    0.12    0.29
  -9   4   0    0.07    0.30
   8  -4   0    1.17    0.28
  -8   4   0    0.50    0.27
   7  -4   0    3.58    0.32
  -7   4   0    4.09    0.34
   6  -4   0    9.96    0.50
  -6   4   0    8.97    0.52
  -6   4   0    8.91    0.50
   5  -4   0   11.06    0.53
  -5   4   0   12.41    0.53
  -5   4   0   11.35    0.54
  -5   4   0   10.28    0.56
  -5   4   0   11.29    0.56
   4  -4   0   96.84    3.44
  -4   4   0   91.42    3.72
  -4   4   0   93.44    3.79
  -4   4   0   99.16    4.88
  -4   4   0   86.16    3.79
  -4   4   0   91.61    3.64
   3  -4   0    2.31    0.16
   3  -4   0    2.30    0.16
  -3   4   0    1.95    0.16
  -3   4   0    1.98    0.11
  -3   4   0    1.83    0.21
   2  -4   0   85.79    4.07
   2  -4   0   77.53    3.28
   2  -4   0   77.47    3.25
  -2   4   0   76.99    3.09
  -2   4   0   82.87    3.05
  -2   4   0   81.89    3.85
   1  -4   0  335.14   12.23
   1  -4   0  328.15   13.11
   1  -4   0  336.90   12.68
   1  -4   0  333.44   12.47
  -1   4   0  329.14   13.55
  -1   4   0  326.83   12.58
  -1   4   0  316.53   14.02
   0  -4   0   41.85    1.61
   0  -4   0   42.28    1.99
   0  -4   0   40.46    1.70
   0  -4   0   40.39    1.68
   0  -4   0   46.95    1.58
   0   4   0   41.16    1.82
   0   4   0   41.50    1.63
  -1  -4   0   82.99    3.86
  -1  -4   0   75.91    3.14
  -1  -4   0   81.36    3.36
   1   4   0   81.43    3.14
   1   4   0   77.84    3.60
   1   4   0   84.39    3.98
   1   4   0   80.88    3.45
  -2  -4   0  135.88    4.88
  -2  -4   0  124.97    5.06
   2   4   0  141.28    5.11
   2   4   0  129.24    6.21
   2   4   0  136.93    4.84
  -3  -4   0    4.90    0.32
   3   4   0    4.79    0.32
   3   4   0    6.09    0.43
   3   4   0    4.38    0.31
  -4  -4   0   36.79    1.64
   4   4   0   38.29    1.51
   4   4   0   36.53    1.57
  -5  -4   0   84.02    3.87
   5   4   0   82.98    3.77
   5   4   0   90.59    3.73
  -6  -4   0   14.84    0.85
   6   4   0   15.37    0.98
  -7  -4   0    0.37    0.32
   7   4   0    1.08    0.32
   9  -5   0    4.40    0.43
  -9   5   0    5.08    0.46
   8  -5   0    2.02    0.29
  -8   5   0    2.05    0.31
   7  -5   0   16.18    0.75
  -7   5   0   16.73    0.79
   6  -5   0   27.46    1.10
  -6   5   0   27.00    1.19
  -6   5   0   26.34    1.42
  -6   5   0   26.58    1.10
   5  -5   0   58.84    2.13
  -5   5   0   58.80    2.41
  -5   5   0   55.19    2.52
  -5   5   0   54.26    2.96
  -5   5   0   48.28    2.41
  -5   5   0   59.89    2.60
   4  -5   0    2.51    0.19
  -4   5   0    2.50    0.30
  -4   5   0    2.15    0.14
  -4   5   0    2.83    0.24
  -4   5   0    2.43    0.32
  -4   5   0    2.19    0.24
   3  -5   0    4.91    0.28
  -3   5   0    4.98    0.26
  -3   5   0    5.03    0.33
  -3   5   0    4.34    0.25
   2  -5   0   36.21    1.36
   2  -5   0   36.71    1.68
   2  -5   0   38.38    1.65
  -2   5   0   36.53    1.47
  -2   5   0   38.07    1.73
  -2   5   0   36.67    1.64
   1  -5   0    0.05    0.23
   1  -5   0    0.17    0.10
   1  -5   0    0.01    0.09
   1  -5   0    0.21    0.14
  -1   5   0    0.08    0.10
  -1   5   0   -0.11    0.27
   0  -5   0   93.18    4.00
   0  -5   0   85.16    3.27
   0  -5   0   82.25    3.90
   0  -5   0   81.21    3.02
   0   5   0   82.63    3.29
   0   5   0   75.09    4.03
   0   5   0   83.97    3.17
  -1  -5   0   34.90    1.35
  -1  -5   0   37.32    1.49
  -1  -5   0   35.44    2.95
   1   5   0   37.40    1.49
   1   5   0   37.33    1.72
   1   5   0   37.10    1.70
   1   5   0   36.01    1.50
  -2  -5   0   52.06    2.55
  -2  -5   0   64.10    2.42
   2   5   0   61.23    2.37
   2   5   0   60.37    2.49
   2   5   0   59.97    2.65
   2   5   0   57.26    3.03
  -3  -5   0   49.00    2.59
   3   5   0   47.67    2.34
   3   5   0   49.25    2.16
   3   5   0   50.11    2.33
   3   5   0   41.64    3.21
  -4  -5   0    0.79    0.24
   4   5   0    0.99    0.33
   4   5   0    1.03    0.23
  -5  -5   0    1.53    0.30
   5   5   0    1.23    0.35
   5   5   0    1.41    0.28
  -6  -5   0    0.40    0.41
   6   5   0   -0.13    0.26
   8  -6   0    0.02    0.23
  -8   6   0    0.47    0.56
  -8   6   0    0.11    0.25
   7  -6   0    0.20    0.20
  -7   6   0   -0.05    0.22
  -7   6   0   -0.20    0.45
   6  -6   0    0.81    0.19
  -6   6   0    0.63    0.24
  -6   6   0    0.59    0.40
  -6   6   0    0.47    0.21
   5  -6   0    0.79    0.23
  -5   6   0    0.95    0.14
  -5   6   0    0.66    0.18
  -5   6   0    1.42    0.29
  -5   6   0    0.52    0.18
  -5   6   0    1.05    0.36
   4  -6   0   17.93    0.79
  -4   6   0   17.38    0.84
  -4   6   0   18.92    0.77
  -4   6   0   14.47    0.99
  -4   6   0   17.52    0.81
   3  -6   0    3.64    0.23
  -3   6   0    4.04    0.31
  -3   6   0    3.85    0.41
  -3   6   0    3.36    0.23
  -3   6   0    3.58    0.24
   2  -6   0  132.20    5.64
   2  -6   0  125.00    4.43
   2  -6   0  119.45    5.45
  -2   6   0  122.72    5.79
  -2   6   0  128.54    5.45
  -2   6   0  116.25    4.74
  -2   6   0  126.04    4.55
   1  -6   0   20.53    1.00
   1  -6   0   22.27    1.07
   1  -6   0   21.12    1.04
  -1   6   0   19.55    1.10
  -1   6   0   22.07    0.89
  -1   6   0   19.97    0.97
   0  -6   0    4.73    0.22
   0  -6   0    5.03    0.41
   0  -6   0    4.47    0.29
   0   6   0    3.90    0.33
   0   6   0    4.85    0.29
   0   6   0    5.28    0.59
  -1  -6   0   48.49    2.39
  -1  -6   0   55.14    2.85
   1   6   0   52.80    2.20
   1   6   0   53.54    2.61
   1   6   0   49.62    3.84
  -2  -6   0   61.16    2.71
  -2  -6   0   47.20    4.64
   2   6   0   59.99    4.12
   2   6   0   59.56    2.82
   2   6   0   61.79    2.52
  -3  -6   0    6.69    0.41
   3   6   0    6.05    0.40
   3   6   0    6.45    0.55
   3   6   0    6.05    0.47
  -4  -6   0   29.27    1.62
   4   6   0   28.67    1.58
   4   6   0   32.11    1.47
  -5  -6   0    1.34    0.33
   5   6   0    2.24    0.43
   5   6   0    2.48    0.42
  -8   7   0    0.20    0.27
  -8   7   0    0.52    0.42
   7  -7   0    3.04    0.30
  -7   7   0    3.49    0.33
  -7   7   0    3.08    0.45
   6  -7   0    0.65    0.20
  -6   7   0    0.74    0.22
  -6   7   0    0.84    0.32
  -6   7   0    0.90    0.30
   5  -7   0    7.88    0.46
  -5   7   0    7.68    0.58
  -5   7   0    8.54    0.64
  -5   7   0    7.39    0.42
   4  -7   0   -0.09    0.15
  -4   7   0    0.13    0.16
  -4   7   0   -0.10    0.14
  -4   7   0    0.15    0.32
  -4   7   0   -0.06    0.22
   3  -7   0   35.01    1.68
  -3   7   0   33.85    2.09
  -3   7   0   31.78    1.62
  -3   7   0   32.10    2.42
  -3   7   0   29.94    1.65
   2  -7   0    4.42    0.36
   2  -7   0    5.45    0.31
  -2   7   0    5.21    0.29
  -2   7   0    5.54    0.53
  -2   7   0    5.18    0.32
   1  -7   0    0.19    0.15
   1  -7   0   -0.03    0.12
  -1   7   0    0.27    0.20
  -1   7   0    0.16    0.15
  -1   7   0    0.01    0.36
   0  -7   0    2.04    0.15
   0  -7   0    1.64    0.27
   0   7   0    2.73    0.44
   0   7   0    2.42    0.46
   0   7   0    2.32    0.22
  -1  -7   0    0.48    0.19
   1   7   0    0.41    0.40
   1   7   0    0.37    0.25
  -2  -7   0    7.82    0.52
   2   7   0    8.59    0.67
   2   7   0    8.05    0.46
  -3  -7   0    3.01    0.40
   3   7   0    2.84    0.38
   3   7   0    2.58    0.50
   4   7   0    5.21    0.73
   4   7   0    4.68    0.40
   5   7   0   20.17    1.00
  -7   8   0    0.87    0.39
  -6   8   0    0.28    0.32
  -6   8   0    0.24    0.32
  -6   8   0    0.22    0.21
   5  -8   0    0.62    0.20
  -5   8   0    0.64    0.35
  -5   8   0    0.76    0.27
  -5   8   0    0.87    0.30
   4  -8   0    2.48    0.30
  -4   8   0    2.08    0.29
  -4   8   0    2.00    0.34
  -4   8   0    2.96    0.46
   3  -8   0    2.23    0.30
  -3   8   0    2.46    0.47
  -3   8   0    2.55    0.30
  -3   8   0    2.12    0.33
   2  -8   0    2.48    0.25
  -2   8   0    2.92    0.26
  -2   8   0    2.46    0.49
   1  -8   0    1.24    0.21
  -1   8   0    1.62    0.22
  -1   8   0    1.31    0.61
   0  -8   0   10.72    0.63
   0   8   0   10.76    0.70
   0   8   0    9.32    0.75
  -1  -8   0   20.71    1.06
   1   8   0   20.36    1.41
   1   8   0   19.47    1.09
   2   8   0    0.15    0.43
   2   8   0    0.18    0.21
   3   8   0    0.18    0.24
   3   8   0    0.80    0.48
   4   8   0   11.27    0.90
   4   8   0    9.88    0.83
  -7   9   0    0.07    0.27
  -6   9   0    3.14    0.52
  -6   9   0    2.87    0.46
  -6   9   0    2.86    0.33
  -5   9   0    0.49    0.33
  -5   9   0    0.44    0.29
  -5   9   0    0.64    0.41
  -4   9   0    3.29    0.42
  -4   9   0    2.97    0.52
  -4   9   0    3.14    0.36
  -3   9   0    0.68    0.21
  -3   9   0    0.85    0.63
  -2   9   0    8.31    0.86
  -2   9   0    7.07    0.55
  -1   9   0    1.35    0.31
  -1   9   0    1.73    0.52
   0   9   0    1.47    0.73
   0   9   0    2.31    0.34
   1   9   0   -0.13    0.47
   1   9   0    0.18    0.21
   2   9   0    0.34    0.25
   2   9   0    0.30    0.51
  -5  10   0    0.57    0.46
  -5  10   0    0.30    0.34
  -4  10   0    3.76    0.35
  -4  10   0    3.77    0.63
  -3  10   0    1.20    0.57
  -3  10   0    0.92    0.25
  -2  10   0    0.09    0.52
  -2  10   0    0.14    0.31
  -1  10   0    4.43    0.71
  -1  10   0    4.64    0.38
   0  10   0    0.20    0.31
   0  10   0    0.29    0.52
  -2  11  -1    2.78    0.37
  -2  11  -1    2.97    0.67
  -3  11  -1    1.62    0.27
  -3  11  -1    1.40    0.59
   1  10  -1    1.21    0.25
   1  10  -1    1.09    0.56
   0  10  -1    3.18    0.64
   0  10  -1    3.35    0.36
  -1  10  -1    0.30    0.26
  -1  10  -1   -0.40    0.49
  -2  10  -1    0.12    0.26
  -2  10  -1    0.15    0.49
  -3  10  -1   -0.12    0.46
  -3  10  -1   -0.10    0.18
  -4  10  -1    1.14    0.23
  -4  10  -1    1.56    0.43
  -4  10  -1    1.87    0.52
  -5  10  -1    1.75    0.51
  -5  10  -1    1.90    0.45
  -5  10  -1    2.07    0.28
  -6  10  -1    0.93    0.64
  -6  10  -1    0.88    0.32
  -6  10  -1    1.12    0.46
   3   9  -1    1.47    0.54
   3   9  -1    2.71    0.38
   2   9  -1    4.03    0.63
   2   9  -1    5.00    0.47
   1   9  -1   -0.07    0.26
   1   9  -1   -0.74    0.46
   0   9  -1    5.92    0.40
   0   9  -1    5.10    0.63
  -1   9  -1   -0.12    0.39
  -1   9  -1    0.33    0.17
  -2   9  -1    6.57    0.64
  -2   9  -1    7.04    0.51
  -3   9  -1    2.68    0.25
  -3   9  -1    2.32    0.47
  -3   9  -1    2.20    0.40
  -4   9  -1   22.56    1.38
  -4   9  -1   23.95    1.19
  -4   9  -1   23.03    1.41
  -5   9  -1    0.41    0.37
  -5   9  -1   -0.29    0.37
  -5   9  -1    0.10    0.24
  -6   9  -1    3.04    0.47
  -6   9  -1    2.43    0.30
  -6   9  -1    2.17    0.44
  -7   9  -1    0.32    0.34
  -7   9  -1   -0.02    0.60
   4   8  -1    3.27    0.58
   4   8  -1    3.77    0.36
   3   8  -1    3.13    0.31
   3   8  -1    2.63    0.53
   2   8  -1    0.34    0.42
   2   8  -1    0.10    0.19
   1   8  -1   13.48    0.85
   1   8  -1   13.34    0.91
  -1  -8   1   12.87    0.88
   0   8  -1    0.24    0.38
   0   8  -1    0.08    0.19
   0  -8   1    0.19    0.22
  -1   8  -1    6.94    0.60
  -1   8  -1    6.80    0.48
   1  -8   1    5.89    0.44
  -2   8  -1    9.78    0.48
  -2   8  -1   10.13    0.70
   2  -8   1    9.92    0.66
  -3   8  -1    3.80    0.39
  -3   8  -1    3.58    0.47
  -3   8  -1    4.17    0.29
   3  -8   1    4.24    0.32
  -4   8  -1   -0.13    0.32
  -4   8  -1    0.25    0.20
  -4   8  -1    0.16    0.30
   4  -8   1    0.29    0.16
  -5   8  -1   -0.38    0.33
  -5   8  -1    0.00    0.16
  -5   8  -1    0.06    0.29
  -6   8  -1    1.15    0.46
  -6   8  -1    0.83    0.22
  -7   8  -1    5.69    0.46
  -7   8  -1    4.78    0.56
   5   7  -1    1.42    0.61
   5   7  -1    1.41    0.30
   4   7  -1    2.56    0.30
   4   7  -1    1.23    0.44
   3   7  -1    0.51    0.40
   3   7  -1    1.26    0.21
   3   7  -1    1.28    0.30
  -3  -7   1    1.03    0.24
   2   7  -1    5.99    0.36
   2   7  -1    5.94    0.34
   2   7  -1    5.22    0.66
  -2  -7   1    5.65    0.40
   1   7  -1   18.84    1.10
   1   7  -1   20.75    0.99
   1   7  -1   18.21    1.74
  -1  -7   1   19.08    1.16
  -1  -7   1   15.84    1.24
   0   7  -1   10.88    0.68
   0   7  -1   13.04    0.65
   0   7  -1   13.21    0.79
   0  -7   1   11.16    0.58
   0  -7   1   11.89    0.66
  -1   7  -1   15.31    0.93
  -1   7  -1   17.49    0.88
  -1   7  -1   18.03    0.90
   1  -7   1   16.12    0.73
   1  -7   1   17.10    1.15
   1  -7   1   15.95    0.91
   1  -7   1   14.28    1.23
  -2   7  -1   12.87    0.64
  -2   7  -1   13.77    0.71
  -2   7  -1   14.98    0.80
  -2   7  -1   15.69    0.63
   2  -7   1   16.23    0.84
  -3   7  -1   16.95    0.83
  -3   7  -1   15.33    0.86
  -3   7  -1   16.93    0.92
  -3   7  -1   16.61    0.92
   3  -7   1   17.47    1.02
  -4   7  -1    4.57    0.31
  -4   7  -1    6.21    0.35
  -4   7  -1    5.92    0.44
  -4   7  -1    5.94    0.49
   4  -7   1    5.36    0.36
  -5   7  -1    0.55    0.29
  -5   7  -1    1.01    0.19
  -5   7  -1    0.91    0.32
   5  -7   1    0.99    0.18
  -6   7  -1   30.04    1.62
  -6   7  -1   28.45    1.39
  -6   7  -1   30.69    3.14
   6  -7   1   28.46    1.81
  -7   7  -1    1.93    0.44
   7  -7   1    1.96    0.25
  -8   7  -1    5.22    0.75
  -8   7  -1    3.92    0.39
   6   6  -1    5.83    0.47
   5   6  -1    0.18    0.23
   5   6  -1    0.05    0.47
  -5  -6   1    0.21    0.25
   4   6  -1    0.43    0.15
   4   6  -1    0.52    0.21
   4   6  -1   -0.25    0.47
  -4  -6   1    0.59    0.23
   3   6  -1   34.47    1.82
   3   6  -1   35.39    1.65
   3   6  -1   30.23    1.54
   3   6  -1   36.49    1.73
  -3  -6   1   35.42    1.84
   2   6  -1   52.99    2.54
   2   6  -1   52.60    2.30
   2   6  -1   51.59    2.32
   2   6  -1   48.58    2.92
  -2  -6   1   54.18    2.45
  -2  -6   1   42.57    2.41
   1   6  -1    1.57    0.17
   1   6  -1    1.41    0.19
   1   6  -1    1.11    0.14
   1   6  -1    1.16    0.36
  -1  -6   1    0.93    0.13
  -1  -6   1    1.48    0.17
   0   6  -1    3.22    0.20
   0   6  -1    3.13    0.40
   0   6  -1    3.41    0.21
   0  -6   1    3.28    0.28
   0  -6   1    3.24    0.35
   0  -6   1    2.68    0.23
   0  -6   1    3.62    0.22
  -1   6  -1    4.17    0.24
  -1   6  -1    4.01    0.23
  -1   6  -1    4.32    0.53
   1  -6   1    3.95    0.20
   1  -6   1    3.54    0.22
   1  -6   1    4.33    0.23
   1  -6   1    4.39    0.36
   1  -6   1    3.54    0.28
   1  -6   1    4.19    0.19
  -2   6  -1   22.77    1.05
  -2   6  -1   24.33    1.05
  -2   6  -1   21.00    0.88
  -2   6  -1   21.08    1.00
   2  -6   1   21.41    0.98
   2  -6   1   24.57    1.04
   2  -6   1   21.49    0.99
   2  -6   1   21.66    1.04
  -3   6  -1    1.40    0.31
  -3   6  -1    1.89    0.16
  -3   6  -1    2.08    0.26
  -3   6  -1    1.47    0.15
   3  -6   1    1.58    0.15
  -4   6  -1    5.68    0.42
  -4   6  -1    5.18    0.39
  -4   6  -1    4.36    0.28
  -4   6  -1    4.28    0.27
  -4   6  -1    4.11    0.31
   4  -6   1    4.67    0.29
  -5   6  -1    1.15    0.14
  -5   6  -1    1.58    0.27
  -5   6  -1    1.03    0.19
  -5   6  -1    1.25    0.21
  -5   6  -1    2.04    0.32
   5  -6   1    1.22    0.17
  -6   6  -1    2.88    0.27
  -6   6  -1    2.89    0.28
  -6   6  -1    2.12    0.49
   6  -6   1    3.03    0.26
  -7   6  -1    0.13    0.28
  -7   6  -1    0.32    0.36
   7  -6   1   -0.09    0.27
  -8   6  -1   -0.44    0.43
  -8   6  -1    0.26    0.24
   8  -6   1   -0.06    0.23
   7   5  -1    7.67    0.55
   6   5  -1   10.10    0.60
  -6  -5   1   10.37    0.77
   5   5  -1   25.38    1.40
   5   5  -1   26.67    1.43
  -5  -5   1   25.67    1.40
   4   5  -1   27.26    1.28
   4   5  -1   27.76    1.34
  -4  -5   1   28.47    1.42
   3   5  -1    1.12    0.33
   3   5  -1    1.56    0.24
   3   5  -1    1.48    0.20
  -3  -5   1    1.25    0.20
   2   5  -1    1.32    0.16
   2   5  -1    2.05    0.23
   2   5  -1    1.79    0.34
   2   5  -1    1.69    0.16
  -2  -5   1    1.77    0.18
  -2  -5   1    1.75    0.23
   1   5  -1    4.32    0.24
   1   5  -1    5.21    0.27
   1   5  -1    4.87    0.42
   1   5  -1    5.05    0.26
  -1  -5   1    4.82    0.26
  -1  -5   1    4.73    0.27
  -1  -5   1    4.58    0.38
  -1  -5   1    4.14    0.25
   0   5  -1    5.10    0.28
   0   5  -1    6.26    0.44
   0   5  -1    5.72    0.28
   0  -5   1    5.60    0.27
   0  -5   1    5.48    0.31
   0  -5   1    5.01    0.39
   0  -5   1    6.16    0.34
  -1   5  -1   59.93    2.33
  -1   5  -1   55.28    2.21
  -1   5  -1   52.55    2.39
  -1   5  -1   56.90    2.53
   1  -5   1   55.78    2.72
   1  -5   1   55.85    2.13
   1  -5   1   57.74    2.09
   1  -5   1   55.75    2.71
  -2   5  -1    0.02    0.23
  -2   5  -1    0.01    0.08
  -2   5  -1    0.19    0.16
  -2   5  -1    0.06    0.07
   2  -5   1    0.12    0.09
   2  -5   1    0.13    0.22
   2  -5   1    0.01    0.07
  -3   5  -1   30.93    1.25
  -3   5  -1   33.35    1.29
  -3   5  -1   32.14    1.24
  -3   5  -1   29.34    1.55
  -3   5  -1   33.34    1.60
   3  -5   1   31.56    1.58
   3  -5   1   29.62    1.60
   3  -5   1   30.30    1.24
  -4   5  -1    6.29    0.40
  -4   5  -1    5.50    0.33
  -4   5  -1    5.17    0.39
  -4   5  -1    5.74    0.34
  -4   5  -1    6.40    0.32
   4  -5   1    7.86    0.85
   4  -5   1    5.78    0.94
  -5   5  -1   54.81    2.48
  -5   5  -1   54.19    2.27
  -5   5  -1   56.56    2.56
  -5   5  -1   49.66    3.03
  -5   5  -1   46.80    2.64
   5  -5   1   54.99    2.16
  -6   5  -1    5.22    0.54
  -6   5  -1    4.14    0.27
  -6   5  -1    3.96    0.35
   6  -5   1    4.24    0.34
  -7   5  -1    1.94    0.27
   7  -5   1    2.42    0.28
  -8   5  -1    1.43    0.39
   8  -5   1    0.73    0.36
  -9   5  -1    4.87    0.46
   9  -5   1    4.29    0.43
   7   4  -1    1.03    0.31
  -7  -4   1    1.00    0.33
   6   4  -1   52.72    2.04
  -6  -4   1   51.24    2.36
   5   4  -1   47.06    1.96
   5   4  -1   42.64    1.74
  -5  -4   1   45.66    2.12
   4   4  -1   31.68    1.37
   4   4  -1   30.30    2.07
   4   4  -1   33.67    1.31
  -4  -4   1   33.86    1.30
   3   4  -1  105.77    5.04
   3   4  -1   97.85    6.93
   3   4  -1  109.06    4.08
  -3  -4   1  108.39    4.27
  -3  -4   1   94.48    4.86
   2   4  -1    0.32    0.11
   2   4  -1    0.50    0.13
   2   4  -1    0.46    0.25
  -2  -4   1    0.32    0.12
  -2  -4   1    0.44    0.13
  -2  -4   1    0.24    0.11
   1   4  -1    6.00    0.30
   1   4  -1    5.97    0.28
   1   4  -1    6.12    0.42
   1   4  -1    5.34    0.27
  -1  -4   1    6.19    0.37
  -1  -4   1    5.84    0.27
   0   4  -1  206.81    8.16
   0   4  -1  198.71    7.28
   0   4  -1  176.88   10.20
   0   4  -1  199.75    8.23
   0  -4   1  194.51    8.06
   0  -4   1  212.50    7.42
   0  -4   1  194.72    8.52
   0  -4   1  199.20    7.49
  -1   4  -1   58.73    2.90
  -1   4  -1   62.86    2.45
  -1   4  -1   62.54    2.83
  -1   4  -1   63.48    2.81
   1  -4   1   62.39    2.74
   1  -4   1   60.84    2.43
   1  -4   1   60.59    3.52
   1  -4   1   63.83    2.39
   1  -4   1   61.57    2.36
  -2   4  -1    3.88    0.31
  -2   4  -1    4.66    0.29
  -2   4  -1    4.07    0.19
  -2   4  -1    4.00    0.22
   2  -4   1    4.12    0.18
   2  -4   1    4.31    0.20
   2  -4   1    3.38    0.26
  -3   4  -1    8.26    0.35
  -3   4  -1    7.31    0.41
  -3   4  -1    7.76    0.40
  -3   4  -1    7.28    0.34
  -3   4  -1    7.06    0.33
   3  -4   1    7.82    0.32
   3  -4   1    6.78    0.34
   3  -4   1    7.30    0.32
  -4   4  -1   10.45    0.49
  -4   4  -1   10.10    0.43
  -4   4  -1   10.64    0.56
  -4   4  -1    9.26    0.43
  -4   4  -1    8.76    0.50
   4  -4   1   10.06    0.42
   4  -4   1    9.78    0.43
  -5   4  -1   14.33    0.60
  -5   4  -1   13.44    0.74
  -5   4  -1   14.61    0.65
  -5   4  -1   12.73    0.69
   5  -4   1   14.61    0.62
  -6   4  -1    0.43    0.18
   6  -4   1    0.42    0.18
  -7   4  -1    0.47    0.22
   7  -4   1    0.41    0.22
  -8   4  -1    3.50    0.44
   8  -4   1    3.13    0.35
  -9   4  -1    0.88    0.33
   9  -4   1    0.67    0.31
   8   3  -1    1.07    0.35
  -8  -3   1    0.67    0.35
   7   3  -1    3.97    0.39
  -7  -3   1    3.18    0.39
   6   3  -1    0.25    0.23
   6   3  -1    0.02    0.20
  -6  -3   1    0.46    0.24
   5   3  -1   29.81    1.42
   5   3  -1   30.60    1.19
  -5  -3   1   31.68    1.20
   4   3  -1   64.81    3.32
   4   3  -1   67.60    2.41
   4   3  -1   67.64    2.88
  -4  -3   1   70.91    2.39
   3   3  -1   57.17    2.01
   3   3  -1   53.51    2.22
   3   3  -1   52.35    2.34
  -3  -3   1   54.89    2.87
  -3  -3   1   49.17    2.28
  -3  -3   1   55.01    2.37
   2   3  -1  273.82   10.76
   2   3  -1  276.06   12.82
   2   3  -1  278.50    9.82
  -2  -3   1  278.45    9.88
  -2  -3   1  279.88   14.98
   1   3  -1    4.24    0.20
   1   3  -1    4.17    0.22
   1   3  -1    3.81    0.20
   1   3  -1    4.67    0.31
  -1  -3   1    4.43    0.22
  -1  -3   1    3.93    0.23
   0   3  -1  154.28    6.39
   0   3  -1  161.66    7.02
   0   3  -1  158.27    6.95
   0   3  -1  166.71    6.57
   0  -3   1  160.72    6.84
   0  -3   1  160.94    6.22
   0  -3   1  159.17    7.12
   0  -3   1  171.41    9.24
  -1   3  -1   19.46    0.82
  -1   3  -1   18.06    0.77
  -1   3  -1   19.24    0.81
  -1   3  -1   19.45    0.76
   1  -3   1   19.17    0.72
   1  -3   1   18.70    0.85
   1  -3   1   18.59    0.89
   1  -3   1   19.09    0.75
   1  -3   1   19.35    0.78
  -2   3  -1   51.63    2.18
  -2   3  -1   51.30    2.12
  -2   3  -1   53.29    2.02
  -2   3  -1   52.84    2.56
  -2   3  -1   52.76    1.96
   2  -3   1   52.68    2.34
   2  -3   1   54.49    2.23
   2  -3   1   51.81    2.36
  -3   3  -1   61.67    2.19
  -3   3  -1   59.31    2.43
  -3   3  -1   64.77    2.70
  -3   3  -1   58.72    2.49
   3  -3   1   60.60    2.44
   3  -3   1   59.06    2.39
   3  -3   1   64.58    2.81
  -4   3  -1  162.22    7.29
  -4   3  -1  163.57    6.05
  -4   3  -1  163.26    6.58
  -4   3  -1  157.67    6.49
   4  -3   1  159.42    7.11
   4  -3   1  162.69    6.36
   4  -3   1  175.39    7.39
  -5   3  -1    2.47    0.22
  -5   3  -1    2.33    0.23
  -5   3  -1    2.73    0.29
   5  -3   1    2.46    0.24
   5  -3   1    2.65    0.22
  -6   3  -1    1.68    0.22
   6  -3   1    1.40    0.21
  -7   3  -1   22.53    1.09
   7  -3   1   25.20    1.24
  -8   3  -1   11.12    0.65
   8  -3   1   10.03    0.64
  -9   3  -1    0.58    0.42
   9  -3   1    0.15    0.42
   8   2  -1    0.62    0.30
  -8  -2   1    0.46    0.32
   7   2  -1   56.36    2.76
  -7  -2   1   55.95    2.71
   6   2  -1   66.19    2.77
  -6  -2   1   64.04    2.57
   5   2  -1    1.70    0.20
   5   2  -1    1.58    0.28
  -5  -2   1    1.28    0.27
   4   2  -1   63.71    3.06
   4   2  -1   64.16    2.48
   4   2  -1   69.07    2.53
  -4  -2   1   70.70    2.43
   3   2  -1  193.16    7.49
   3   2  -1  197.27    7.04
   3   2  -1  190.55    7.34
  -3  -2   1  186.17    7.44
  -3  -2   1  192.15    8.20
  -3  -2   1  192.34    7.12
   2   2  -1   10.77    0.44
   2   2  -1   11.05    0.54
   2   2  -1   11.65    0.47
  -2  -2   1   11.88    0.67
  -2  -2   1   11.22    0.45
  -2  -2   1   11.54    0.50
   1   2  -1  520.55   19.86
   1   2  -1  515.43   19.63
   1   2  -1  518.42   21.41
  -1  -2   1  545.85   20.41
  -1  -2   1  531.50   20.24
  -1  -2   1  522.64   21.61
   0   2  -1  117.75    4.82
   0   2  -1  121.80    5.42
   0   2  -1  117.22    5.82
   0   2  -1  122.90    5.26
   0  -2   1  119.38    5.05
   0  -2   1  115.42    5.03
   0  -2   1  120.31    4.69
   0  -2   1  110.05    5.96
   0  -2   1  120.87    5.27
  -1   2  -1   60.27    2.47
  -1   2  -1   62.46    2.30
  -1   2  -1   60.68    2.32
  -1   2  -1   63.65    2.77
  -1   2  -1   63.04    2.54
   1  -2   1   63.33    2.31
   1  -2   1   59.85    2.27
   1  -2   1   64.08    2.39
   1  -2   1   61.74    3.04
   1  -2   1   61.84    2.47
  -2   2  -1  345.56   12.98
  -2   2  -1  348.77   13.34
  -2   2  -1  348.37   13.43
  -2   2  -1  341.90   13.95
   2  -2   1  357.84   14.74
   2  -2   1  344.57   13.26
   2  -2   1  344.49   13.45
  -3   2  -1  122.05    4.58
  -3   2  -1  122.18    4.58
  -3   2  -1  122.58    5.06
  -3   2  -1  123.89    4.53
   3  -2   1  123.74    5.22
   3  -2   1  123.04    4.38
   3  -2   1  127.11    5.21
  -4   2  -1    6.99    0.36
  -4   2  -1    8.08    0.37
  -4   2  -1    6.91    0.36
   4  -2   1    6.90    0.35
   4  -2   1    7.41    0.36
   4  -2   1    7.63    0.37
  -5   2  -1   15.74    0.64
   5  -2   1   15.09    0.63
   5  -2   1   14.57    0.64
  -6   2  -1    0.45    0.19
   6  -2   1    0.78    0.21
  -7   2  -1    0.72    0.24
   7  -2   1    0.81    0.24
  -8   2  -1    0.27    0.27
   8  -2   1    0.07    0.26
  -9   2  -1    0.98    0.47
   9  -2   1    1.20    0.45
   8   1  -1   34.23    1.77
  -8  -1   1   34.01    1.61
   7   1  -1   46.33    2.55
  -7  -1   1   44.63    2.32
   6   1  -1   47.88    2.00
  -6  -1   1   46.44    2.10
   5   1  -1    3.20    0.26
  -5  -1   1    2.90    0.25
   4   1  -1   22.52    0.88
   4   1  -1   20.85    1.11
  -4  -1   1   19.94    0.99
  -4  -1   1   20.91    0.91
  -4  -1   1   22.29    0.83
   3   1  -1   21.97    0.91
   3   1  -1   22.96    1.09
   3   1  -1   22.26    0.88
  -3  -1   1   23.11    1.06
  -3  -1   1   21.83    0.83
  -3  -1   1   22.58    0.91
  -3  -1   1   21.97    0.87
   2   1  -1  110.77    4.17
   2   1  -1  114.70    5.11
   2   1  -1  114.36    4.38
  -2  -1   1  115.08    4.05
  -2  -1   1  116.52    4.30
  -2  -1   1  118.34    5.70
   1   1  -1    9.78    0.38
   1   1  -1    9.46    0.40
   1   1  -1    9.27    0.36
  -1  -1   1    9.09    0.39
  -1  -1   1    9.29    0.39
  -1  -1   1    9.13    0.36
   0  -1   1  241.44   20.56
   0  -1   1  273.47   22.01
  -1   1  -1  162.76    6.03
  -1   1  -1  161.89    7.61
  -1   1  -1  160.11    6.97
  -1   1  -1  151.93    6.25
   1  -1   1  156.69    5.94
   1  -1   1  156.48    6.00
   1  -1   1  152.74    6.02
   1  -1   1  162.21    6.31
  -2   1  -1  197.42    8.49
  -2   1  -1  204.12    7.61
  -2   1  -1  199.96    7.91
   2  -1   1  202.43    8.41
   2  -1   1  196.31    8.08
   2  -1   1  208.91    7.99
   2  -1   1  199.73    7.61
  -3   1  -1   11.03    0.46
  -3   1  -1   11.27    0.53
  -3   1  -1   10.78    0.44
   3  -1   1   10.29    0.48
   3  -1   1   10.60    0.46
   3  -1   1   10.38    0.45
  -4   1  -1   18.71    0.89
  -4   1  -1   19.09    0.91
  -4   1  -1   20.74    0.86
   4  -1   1   20.20    0.80
   4  -1   1   20.68    0.83
   4  -1   1   17.93    1.07
  -5   1  -1    1.53    0.20
   5  -1   1    1.61    0.22
  -6   1  -1  128.09    4.75
   6  -1   1  129.93    4.91
  -7   1  -1    8.29    0.50
   7  -1   1    8.80    0.51
  -8   1  -1    6.20    0.47
   8  -1   1    6.61    0.48
   9   0  -1    1.84    0.36
  -9   0   1    2.19    0.41
   8   0  -1    0.23    0.26
  -8   0   1   -0.02    0.26
   7   0  -1    9.13    0.50
  -7   0   1    7.98    0.49
   6   0  -1    2.11    0.25
  -6   0   1    1.98    0.25
   5   0  -1  110.20    4.27
  -5   0   1  112.01    4.20
   4   0  -1  428.79   15.60
   4   0  -1  420.27   17.88
  -4   0   1  419.24   18.41
  -4   0   1  435.70   15.78
  -4   0   1  442.02   16.22
  -4   0   1  426.42   17.37
   3   0  -1   42.43    1.56
   3   0  -1   42.50    2.02
  -3   0   1   44.79    1.76
  -3   0   1   43.37    1.73
  -3   0   1   43.15    1.52
  -3   0   1   41.48    1.61
   2   0  -1   62.33    2.44
   2   0  -1   61.71    2.34
  -2   0   1   63.24    2.41
  -2   0   1   64.93    2.55
   1   0  -1  145.76    5.34
   1   0  -1  146.73    6.21
  -1   0   1  148.49    5.56
  -1   0   1  149.86    5.49
   0   0  -1   83.30    3.28
   0   0  -1   85.39    3.27
   0   0   1   86.64    3.27
   0   0   1   72.89    4.21
   0   0   1   85.54    3.61
  -1   0  -1    0.32    0.08
  -1   0  -1    0.37    0.07
  -1   0  -1    0.52    0.08
   1   0   1    0.33    0.14
   1   0   1    0.34    0.07
   1   0   1    0.28    0.07
  -2   0  -1  426.71   17.11
  -2   0  -1  434.49   16.03
  -2   0  -1  431.04   16.77
   2   0   1  438.41   16.68
   2   0   1  428.92   17.23
   2   0   1  432.37   15.80
  -3   0  -1   20.40    0.82
  -3   0  -1   20.30    0.76
  -3   0  -1   20.01    0.82
   3   0   1   19.43    0.81
   3   0   1   19.09    0.83
   3   0   1   19.49    0.79
  -4   0  -1   52.50    1.98
  -4   0  -1   48.88    2.31
  -4   0  -1   47.02    2.20
   4   0   1   52.56    1.96
   4   0   1   50.12    2.28
   4   0   1   49.03    2.33
   4   0   1   56.36    2.01
  -5   0  -1   32.86    1.36
   5   0   1   33.65    1.42
  -6   0  -1    0.80    0.23
   6   0   1    1.00    0.25
  -7   0  -1    5.30    0.42
   7   0   1    5.73    0.43
  -8   0  -1    0.56    0.29
   8   0   1   -0.13    0.29
   9  -1  -1    5.38    0.56
  -9   1   1    5.87    0.57
   8  -1  -1    8.04    0.56
  -8   1   1    7.91    0.57
   7  -1  -1    2.61    0.29
  -7   1   1    2.39    0.29
   6  -1  -1   93.32    3.74
  -6   1   1   94.29    3.97
   5  -1  -1  101.13    4.14
  -5   1   1   98.27    4.63
  -5   1   1  102.25    4.00
   4  -1  -1  113.16    4.76
   4  -1  -1  109.53    4.08
  -4   1   1  114.68    4.41
  -4   1   1  110.21    4.92
  -4   1   1  113.85    3.98
   3  -1  -1   85.19    3.06
   3  -1  -1   85.23    3.47
  -3   1   1   84.41    3.47
  -3   1   1   83.87    3.15
  -3   1   1   85.38    3.35
   2  -1  -1   63.86    2.36
   2  -1  -1   62.69    2.59
  -2   1   1   66.53    2.45
  -2   1   1   63.84    2.32
   1  -1  -1   16.38    0.78
   1  -1  -1   17.41    0.69
  -1   1   1   16.93    0.68
  -1   1   1   16.76    0.73
   0  -1  -1  222.13    8.01
   0  -1  -1  206.01    9.14
   0  -1  -1  204.35    9.21
   0   1   1  223.72    8.21
   0   1   1  205.44    9.71
   0   1   1  207.26    8.82
  -1  -1  -1   30.31    1.24
  -1  -1  -1   28.95    1.16
  -1  -1  -1   27.98    1.57
   1   1   1   28.52    1.06
   1   1   1   28.01    1.24
   1   1   1   27.60    1.35
  -2  -1  -1  313.41   13.22
  -2  -1  -1  300.76   11.50
  -2  -1  -1  293.70   11.56
   2   1   1  309.05   15.08
   2   1   1  303.29   13.61
   2   1   1  300.46   11.95
  -3  -1  -1  240.86   10.21
  -3  -1  -1  232.68    9.12
  -3  -1  -1  248.68    8.99
   3   1   1  231.78    9.64
   3   1   1  247.93    8.96
   3   1   1  256.19   11.83
  -4  -1  -1    0.28    0.22
   4   1   1    0.67    0.17
   4   1   1    0.52    0.24
  -5  -1  -1   30.69    1.28
   5   1   1   30.14    1.24
   5   1   1   27.11    1.42
  -6  -1  -1    5.78    0.41
   6   1   1    5.81    0.42
  -7  -1  -1    3.85    0.38
   7   1   1    3.79    0.39
  -8  -1  -1    7.67    0.65
   8   1   1    7.79    0.63
   9  -2  -1   -0.17    0.39
  -9   2   1    0.02    0.41
   8  -2  -1   44.01    1.86
  -8   2   1   43.91    2.25
   7  -2  -1   42.99    1.75
  -7   2   1   43.53    1.93
   6  -2  -1    2.44    0.30
  -6   2   1    2.58    0.31
   5  -2  -1   12.06    0.55
  -5   2   1   11.69    0.52
  -5   2   1   12.00    0.57
   4  -2  -1    9.22    0.46
   4  -2  -1   10.07    0.44
  -4   2   1   10.37    0.54
  -4   2   1    9.34    0.43
  -4   2   1    9.55    0.41
   3  -2  -1    3.48    0.20
   3  -2  -1    3.70    0.20
  -3   2   1    3.68    0.20
  -3   2   1    3.39    0.20
  -3   2   1    3.71    0.22
   1  -2  -1  423.94   15.22
   1  -2  -1  422.21   18.66
   1  -2  -1  430.21   15.67
  -1   2   1  425.63   15.09
  -1   2   1  414.45   16.99
  -1   2   1  407.41   16.60
   0  -2  -1   54.92    2.74
   0  -2  -1   56.01    2.07
   0  -2  -1   54.78    3.37
   0  -2  -1   55.14    2.11
   0   2   1   56.91    2.13
   0   2   1   53.56    2.09
   0   2   1   55.63    2.20
  -1  -2  -1   90.33    3.70
  -1  -2  -1   86.56    3.34
  -1  -2  -1   87.66    3.84
   1   2   1   87.07    3.85
   1   2   1   90.72    4.26
   1   2   1   90.94    4.37
  -2  -2  -1   39.07    1.52
  -2  -2  -1   39.49    1.69
  -2  -2  -1   37.58    1.59
   2   2   1   37.66    1.48
   2   2   1   37.92    1.89
   2   2   1   40.05    1.50
  -3  -2  -1    2.50    0.23
  -3  -2  -1    3.21    0.23
  -3  -2  -1    2.47    0.27
   3   2   1    3.20    0.25
   3   2   1    2.34    0.25
  -4  -2  -1  110.88    3.90
   4   2   1  111.04    4.48
   4   2   1  110.34    4.96
  -5  -2  -1   45.10    1.66
   5   2   1   44.11    1.82
   5   2   1   43.07    1.87
  -6  -2  -1   11.20    0.66
   6   2   1   11.73    0.67
  -7  -2  -1    3.39    0.39
   7   2   1    3.43    0.39
  -8  -2  -1    0.30    0.34
   8   2   1    0.20    0.33
   9  -3  -1    3.74    0.39
  -9   3   1    3.13    0.40
   8  -3  -1   13.19    0.71
  -8   3   1   13.21    0.72
   7  -3  -1    1.52    0.31
  -7   3   1    1.05    0.24
   6  -3  -1   36.19    1.41
  -6   3   1   37.32    2.39
  -6   3   1   36.73    1.55
   5  -3  -1    4.56    0.28
  -5   3   1    4.75    0.29
  -5   3   1    3.92    0.28
   4  -3  -1  127.36    4.96
   4  -3  -1  119.25    6.51
  -4   3   1  126.11    4.93
  -4   3   1  130.33    5.49
  -4   3   1  121.21    4.56
   3  -3  -1  125.95    4.84
   3  -3  -1  131.89    5.79
  -3   3   1  124.11    4.55
  -3   3   1  129.88    5.09
  -3   3   1  133.86    5.36
  -3   3   1  125.11    4.78
   2  -3  -1   34.35    2.51
   2  -3  -1   32.68    2.63
  -2   3   1   31.73    1.20
  -2   3   1   34.82    3.89
  -2   3   1   34.72    2.15
  -2   3   1   35.65    2.88
   1  -3  -1  114.54    4.56
   1  -3  -1  117.95    4.54
   1  -3  -1  124.48    4.72
  -1   3   1  119.53    4.41
  -1   3   1  112.05    4.70
  -1   3   1  114.63    5.19
  -1   3   1  115.06    4.85
   0  -3  -1   25.28    1.19
   0  -3  -1   26.12    1.15
   0  -3  -1   23.40    0.95
   0  -3  -1   25.64    1.14
   0   3   1   25.54    0.95
   0   3   1   26.38    1.16
   0   3   1   24.50    1.17
  -1  -3  -1   88.28    4.33
  -1  -3  -1   93.08    3.68
  -1  -3  -1   86.21    3.51
   1   3   1   87.53    3.75
   1   3   1   87.18    4.01
   1   3   1   85.12    3.94
   1   3   1   89.11    3.27
  -2  -3  -1  403.12   14.65
  -2  -3  -1  368.37   14.31
  -2  -3  -1  391.67   13.94
   2   3   1  374.48   14.08
   2   3   1  384.72   16.89
  -3  -3  -1   24.82    1.00
  -3  -3  -1   21.93    1.10
   3   3   1   23.79    0.92
   3   3   1   23.27    0.98
   3   3   1   21.35    1.09
  -4  -3  -1   11.91    0.59
   4   3   1   11.68    0.60
   4   3   1   11.27    0.57
  -5  -3  -1   74.00    3.37
   5   3   1   76.75    3.27
   5   3   1   71.41    4.96
  -6  -3  -1    6.96    0.50
   6   3   1    7.31    0.50
  -7  -3  -1    8.00    0.61
   7   3   1    8.58    0.58
   9  -4  -1    0.51    0.39
  -9   4   1    1.24    0.43
   8  -4  -1    0.88    0.34
  -8   4   1    0.67    0.36
   7  -4  -1    4.24    0.33
  -7   4   1    4.14    0.35
   6  -4  -1   26.58    1.07
  -6   4   1   25.34    1.06
  -6   4   1   25.08    1.41
   5  -4  -1  108.16    4.04
  -5   4   1  107.68    4.28
  -5   4   1  110.31    4.36
   4  -4  -1    7.29    0.40
  -4   4   1    7.46    0.39
  -4   4   1    6.89    0.36
  -4   4   1    7.17    0.39
  -4   4   1    8.01    0.33
   3  -4  -1   34.64    1.59
   3  -4  -1   36.91    1.60
  -3   4   1   36.83    1.67
  -3   4   1   33.66    1.68
  -3   4   1   37.90    1.65
  -3   4   1   33.09    1.32
   2  -4  -1    3.17    0.21
   2  -4  -1    3.42    0.20
   2  -4  -1    3.23    0.21
  -2   4   1    3.41    0.21
  -2   4   1    3.31    0.22
  -2   4   1    3.37    0.20
   1  -4  -1    9.18    0.42
   1  -4  -1    8.64    0.39
   1  -4  -1    8.22    0.44
  -1   4   1    9.57    0.44
  -1   4   1   10.23    2.92
   0  -4  -1  368.95   13.90
   0  -4  -1  359.61   12.67
   0  -4  -1  356.98   15.04
   0  -4  -1  407.81   13.41
   0   4   1  345.34   15.79
   0   4   1  355.80   13.70
  -1  -4  -1  414.22   17.01
  -1  -4  -1  411.61   15.23
   1   4   1  401.33   16.33
   1   4   1  400.18   14.42
  -2  -4  -1   32.27    1.23
  -2  -4  -1   29.21    1.59
   2   4   1   30.18    1.61
   2   4   1   31.42    1.18
   2   4   1   32.36    1.39
  -3  -4  -1    9.07    0.49
   3   4   1    9.45    0.58
   3   4   1   10.50    0.51
  -4  -4  -1    1.10    0.24
   4   4   1    0.95    0.24
   4   4   1    1.38    0.40
  -5  -4  -1    2.12    0.40
   5   4   1    1.99    0.34
   5   4   1    2.31    0.39
  -6  -4  -1   12.23    0.74
   6   4   1   11.33    0.72
   7   4   1    3.40    0.44
   9  -5  -1    1.13    0.31
  -9   5   1    1.12    0.33
   8  -5  -1    0.21    0.32
  -8   5   1    0.01    0.36
   7  -5  -1    0.53    0.21
  -7   5   1    0.52    0.32
  -7   5   1    0.37    0.32
   6  -5  -1   10.12    0.48
  -6   5   1    9.95    0.57
  -6   5   1   10.39    0.64
  -6   5   1    7.86    0.69
   5  -5  -1   10.31    0.57
  -5   5   1   10.90    0.53
  -5   5   1   10.04    0.55
  -5   5   1   10.74    0.52
   4  -5  -1    6.47    0.34
  -4   5   1    6.28    0.37
  -4   5   1    6.34    0.32
  -4   5   1    6.66    0.39
  -4   5   1    6.98    0.35
   3  -5  -1   15.34    0.72
  -3   5   1   14.20    0.66
  -3   5   1   13.85    0.63
  -3   5   1   15.52    0.62
   2  -5  -1   86.60    3.45
   2  -5  -1   77.18    3.14
  -2   5   1   82.48    3.24
  -2   5   1   75.70    5.07
  -2   5   1   78.09    3.76
   1  -5  -1  106.35    4.57
   1  -5  -1  104.98    4.87
   1  -5  -1   96.86    4.92
  -1   5   1   93.24    4.87
  -1   5   1  105.38    4.55
   0  -5  -1   13.24    0.57
   0  -5  -1   13.63    0.60
   0  -5  -1   15.01    0.75
   0   5   1   13.18    0.58
   0   5   1   12.58    0.77
  -1  -5  -1   11.15    0.49
  -1  -5  -1   11.03    0.62
   1   5   1   10.58    0.54
   1   5   1   12.16    0.57
  -2  -5  -1    7.21    0.40
  -2  -5  -1    5.54    0.38
   2   5   1    5.89    0.39
   2   5   1    6.91    0.61
   2   5   1    6.64    0.34
   2   5   1    7.08    0.40
  -3  -5  -1   13.71    0.91
   3   5   1   13.85    0.70
   3   5   1   14.29    0.78
   3   5   1   14.57    0.69
  -4  -5  -1  123.33    5.84
   4   5   1  122.05    5.89
   4   5   1  116.29    5.12
  -5  -5  -1   20.08    1.18
   5   5   1   18.54    1.24
   5   5   1   21.62    1.18
  -6  -5  -1    0.47    0.32
   6   5   1    0.68    0.32
   8  -6  -1    3.27    0.33
  -8   6   1    3.27    0.48
  -8   6   1    3.04    0.41
   7  -6  -1    0.13    0.19
  -7   6   1    0.03    0.30
  -7   6   1    0.06    0.23
   6  -6  -1    7.29    0.41
  -6   6   1    7.81    0.44
  -6   6   1    7.72    0.52
  -6   6   1    6.31    0.51
   5  -6  -1    1.92    0.22
  -5   6   1    1.65    0.27
  -5   6   1    2.59    0.25
  -5   6   1    1.79    0.33
   4  -6  -1    0.09    0.15
  -4   6   1    0.35    0.19
  -4   6   1    0.11    0.17
  -4   6   1    0.06    0.20
   3  -6  -1   78.92    4.31
  -3   6   1   72.28    3.84
  -3   6   1   66.80    3.34
  -3   6   1   75.57    3.60
   2  -6  -1   60.13    3.42
   2  -6  -1   66.74    4.49
   2  -6  -1   62.92    2.35
  -2   6   1   67.57    3.59
  -2   6   1   56.41    3.59
   1  -6  -1    0.38    0.16
   1  -6  -1    0.31    0.14
   1  -6  -1    0.23    0.19
  -1   6   1    0.27    0.12
  -1   6   1    0.16    0.15
   0  -6  -1   30.81    1.69
   0  -6  -1   33.06    2.58
   0  -6  -1   33.48    1.71
   0   6   1   32.87    1.51
   0   6   1   30.23    1.39
  -1  -6  -1    3.33    0.29
   1   6   1    3.43    0.28
   1   6   1    2.66    0.24
   1   6   1    3.55    0.46
  -2  -6  -1   17.32    0.96
   2   6   1   18.86    0.88
   2   6   1   18.54    1.06
  -3  -6  -1   68.73    4.31
   3   6   1   69.23    3.13
   3   6   1   68.80    2.72
  -4  -6  -1   17.82    0.89
   4   6   1   18.09    0.96
   4   6   1   16.12    1.30
  -5  -6  -1    0.29    0.31
   5   6   1    0.24    0.28
   8  -7  -1    0.22    0.26
  -8   7   1    0.06    0.27
  -8   7   1    0.49    0.55
   7  -7  -1    5.27    0.44
  -7   7   1    4.87    0.59
  -7   7   1    4.80    0.46
   6  -7  -1    0.05    0.18
  -6   7   1    0.42    0.43
  -6   7   1    0.37    0.22
  -6   7   1    0.37    0.30
   5  -7  -1    1.06    0.21
  -5   7   1    1.27    0.27
  -5   7   1    0.83    0.46
  -5   7   1    1.41    0.24
   4  -7  -1   11.21    0.71
  -4   7   1   11.52    0.74
  -4   7   1   11.53    0.67
   3  -7  -1    7.56    0.42
  -3   7   1    5.02    0.38
  -3   7   1    6.21    0.43
  -3   7   1    6.69    0.42
   2  -7  -1   -0.20    0.28
   2  -7  -1    0.26    0.20
   2  -7  -1    0.36    0.19
  -2   7   1    0.28    0.18
   1  -7  -1    3.99    0.37
   1  -7  -1    4.77    0.33
  -1   7   1    3.28    0.35
   0  -7  -1   23.00    1.55
   0   7   1   22.08    1.17
   0   7   1   25.29    1.19
  -1  -7  -1   47.60    2.35
   1   7   1   51.27    2.55
   1   7   1   49.77    2.17
  -2  -7  -1    5.84    0.43
   2   7   1    5.90    0.51
   2   7   1    7.32    0.79
  -3  -7  -1    1.39    0.30
   3   7   1    1.05    0.46
   3   7   1    1.14    0.28
   4   7   1    0.40    0.62
   4   7   1   -0.03    0.26
  -7   8   1   -0.02    0.24
  -6   8   1   10.11    0.74
  -6   8   1   11.79    0.68
  -6   8   1   10.41    0.65
   5  -8  -1    2.91    0.30
  -5   8   1    3.06    0.30
  -5   8   1    2.59    0.47
  -5   8   1    3.28    0.37
   4  -8  -1   13.94    0.72
  -4   8   1   12.17    0.83
  -4   8   1   13.42    0.73
  -4   8   1   12.13    0.82
   3  -8  -1    4.75    0.37
  -3   8   1    5.26    0.59
  -3   8   1    5.02    0.36
   2  -8  -1    2.68    0.29
  -2   8   1    2.77    0.53
  -2   8   1    2.70    0.28
   1  -8  -1   16.17    1.08
  -1   8   1   15.56    0.91
  -1   8   1   16.01    0.98
   0  -8  -1   44.43    3.34
   0   8   1   48.42    2.63
   0   8   1   44.93    3.04
  -1  -8  -1    0.49    0.27
   1   8   1    0.31    0.24
   1   8   1    1.08    0.72
   2   8   1   10.29    0.82
   2   8   1   10.76    0.72
   3   8   1    3.15    0.59
   3   8   1    3.75    0.39
  -6   9   1    0.96    0.45
  -6   9   1    1.66    0.30
  -5   9   1    2.46    0.40
  -5   9   1    2.65    0.72
  -4   9   1    0.62    0.24
  -4   9   1    0.56    0.48
  -3   9   1    1.77    0.54
  -3   9   1    1.31    0.34
  -2   9   1   11.60    1.01
  -2   9   1    8.85    0.72
  -1   9   1    0.37    0.32
  -1   9   1   -0.15    0.54
   0   9   1    2.79    0.65
   0   9   1    2.27    0.31
   1   9   1    0.68    0.26
   1   9   1    1.01    0.56
  -4  10   1    2.76    0.66
  -4  10   1    3.25    0.45
  -3  10   1    5.63    0.79
  -3  10   1    5.49    0.52
  -2  10   1    1.22    0.29
  -2  10   1    0.82    0.64
  -1  10   1    8.56    1.11
  -1  10   1    7.93    0.61
   0  11  -2    0.58    0.57
  -1  11  -2    1.06    0.59
  -1  11  -2    1.76    0.29
  -2  11  -2    3.61    0.29
  -2  11  -2    3.34    0.65
  -3  11  -2    7.06    0.46
  -3  11  -2    7.50    0.93
  -4  11  -2    0.28    0.47
  -4  11  -2   -0.30    0.24
   2  10  -2    0.18    0.20
   2  10  -2    0.28    0.54
   1  10  -2    0.48    0.51
   1  10  -2    0.55    0.18
   0  10  -2    5.08    0.37
   0  10  -2    5.10    0.67
  -1  10  -2   14.02    0.85
  -1  10  -2   13.28    1.05
  -2  10  -2    2.12    0.52
  -2  10  -2    2.61    0.24
  -3  10  -2    0.03    0.42
  -4  10  -2    6.04    0.77
  -4  10  -2    5.29    0.41
  -4  10  -2    5.61    0.58
  -5  10  -2   -0.33    0.39
  -5  10  -2    0.24    0.25
  -5  10  -2   -0.16    0.41
  -6  10  -2    5.41    0.43
  -6  10  -2    5.64    0.63
  -6  10  -2    4.25    0.59
   3   9  -2   -0.48    0.48
   3   9  -2    0.55    0.28
   2   9  -2    0.36    0.18
   2   9  -2   -0.20    0.45
   1   9  -2   25.92    1.37
   1   9  -2   29.60    1.50
   0   9  -2   32.85    1.89
   0   9  -2   29.53    1.98
  -1   9  -2    6.42    0.37
  -1   9  -2    4.85    0.59
  -2   9  -2    3.08    0.23
  -2   9  -2    3.24    0.50
  -3   9  -2    1.31    0.42
  -3   9  -2    1.50    0.22
  -3   9  -2    1.23    0.36
  -4   9  -2    2.46    0.46
  -4   9  -2    1.41    0.38
  -4   9  -2    1.85    0.25
  -5   9  -2   11.33    0.73
  -5   9  -2   11.15    0.75
  -5   9  -2   11.28    0.63
  -6   9  -2    2.80    0.28
  -6   9  -2    2.71    0.46
  -6   9  -2    3.40    0.64
  -7   9  -2    0.47    0.31
  -7   9  -2   -0.04    0.44
   5   8  -2    0.94    0.28
   4   8  -2    2.04    0.66
   4   8  -2    2.52    0.36
   3   8  -2    0.79    0.21
   3   8  -2    0.28    0.61
   3   8  -2    0.47    0.17
   2   8  -2   10.36    0.76
   2   8  -2   10.35    0.60
   2   8  -2   10.08    0.58
   1   8  -2    0.04    0.53
   1   8  -2    0.17    0.19
   0   8  -2    1.15    0.19
   0   8  -2    0.35    0.54
   0  -8   2    0.71    0.19
  -1   8  -2    5.26    0.54
  -1   8  -2    4.74    0.31
   1  -8   2    4.21    0.27
   1  -8   2    4.43    0.35
  -2   8  -2   25.02    1.52
  -2   8  -2   30.64    1.31
  -2   8  -2   27.36    1.62
   2  -8   2   26.63    1.89
  -3   8  -2   25.11    1.17
  -3   8  -2   26.68    1.28
  -3   8  -2   24.18    1.33
   3  -8   2   25.20    1.65
  -4   8  -2    5.56    0.49
  -4   8  -2    6.70    0.37
  -4   8  -2    6.00    0.54
   4  -8   2    5.87    0.34
  -5   8  -2    2.28    0.28
  -5   8  -2    2.17    0.53
  -5   8  -2    2.08    0.39
  -6   8  -2    4.07    0.50
  -6   8  -2    3.58    0.29
  -6   8  -2    3.09    0.40
  -7   8  -2    2.88    0.52
  -7   8  -2    2.92    0.31
   5   7  -2    0.06    0.31
   5   7  -2    0.38    0.36
   4   7  -2   19.98    1.12
   4   7  -2   19.78    1.49
   4   7  -2   21.02    1.10
   3   7  -2    0.21    0.17
   3   7  -2    0.29    0.38
   3   7  -2    0.06    0.21
  -3  -7   2    0.29    0.19
   2   7  -2   33.67    1.89
   2   7  -2   35.82    2.00
   2   7  -2   38.52    1.67
  -2  -7   2   33.76    2.26
   1   7  -2   13.94    0.76
   1   7  -2   14.37    0.80
   1   7  -2   14.46    0.67
   1   7  -2   12.06    1.03
  -1  -7   2   12.27    0.69
  -1  -7   2   13.50    0.77
   0   7  -2    1.02    0.37
   0   7  -2    0.23    0.10
   0   7  -2    0.21    0.08
   0  -7   2    0.18    0.11
  -1   7  -2   10.55    0.57
  -1   7  -2   10.36    0.48
  -1   7  -2   11.55    0.68
   1  -7   2   11.06    0.61
   1  -7   2   10.28    0.68
   1  -7   2    9.32    0.62
  -2   7  -2   64.81    3.25
  -2   7  -2   64.19    2.57
  -2   7  -2   67.73    3.45
  -2   7  -2   65.17    2.49
   2  -7   2   65.72    2.89
   2  -7   2   67.21    3.50
  -3   7  -2   -0.08    0.15
  -3   7  -2    0.42    0.26
  -3   7  -2   -0.10    0.29
  -3   7  -2    0.10    0.11
   3  -7   2    0.10    0.14
   3  -7   2    0.11    0.09
  -4   7  -2   13.47    0.73
  -4   7  -2   12.97    0.77
  -4   7  -2   14.24    0.75
  -4   7  -2   12.87    0.76
   4  -7   2   13.19    0.75
   4  -7   2   13.42    0.56
  -5   7  -2    2.22    0.21
  -5   7  -2    2.91    0.49
  -5   7  -2    2.04    0.31
   5  -7   2    2.15    0.20
  -6   7  -2    1.03    0.23
  -6   7  -2    1.27    0.38
  -6   7  -2    0.44    0.20
   6  -7   2    0.70    0.24
  -7   7  -2    2.34    0.46
  -7   7  -2    2.11    0.28
  -8   7  -2    5.87    0.44
  -8   7  -2    6.59    0.69
   6   6  -2    4.63    0.40
   5   6  -2    1.33    0.47
   5   6  -2    1.90    0.27
  -5  -6   2    2.27    0.31
   4   6  -2    0.21    0.19
   4   6  -2    0.06    0.32
  -4  -6   2    0.04    0.19
   3   6  -2   46.72    2.24
   3   6  -2   43.84    2.99
   3   6  -2   48.51    2.03
   3   6  -2   49.52    2.12
  -3  -6   2   49.07    2.52
   2   6  -2   39.67    1.65
   2   6  -2   34.79    1.91
   2   6  -2   36.86    1.82
   2   6  -2   40.87    1.74
  -2  -6   2   32.85    2.30
  -2  -6   2   37.90    1.60
   1   6  -2    0.80    0.10
   1   6  -2    0.72    0.33
   1   6  -2    1.07    0.17
   1   6  -2    1.01    0.13
  -1  -6   2    0.84    0.13
  -1  -6   2    1.14    0.15
   0   6  -2   16.47    0.68
   0   6  -2   14.06    0.75
   0   6  -2   17.60    0.82
   0  -6   2   16.29    0.78
   0  -6   2   14.93    0.69
  -1   6  -2    0.66    0.30
  -1   6  -2    0.52    0.09
  -1   6  -2    0.95    0.24
  -1   6  -2    0.64    0.10
   1  -6   2    0.44    0.09
   1  -6   2    0.67    0.09
   1  -6   2    0.55    0.16
   1  -6   2    0.20    0.23
  -2   6  -2   15.79    0.80
  -2   6  -2   14.55    0.70
  -2   6  -2   14.84    0.77
  -2   6  -2   14.09    0.65
   2  -6   2   14.34    0.62
   2  -6   2   13.53    0.68
   2  -6   2   13.45    0.67
   2  -6   2   14.35    0.72
   2  -6   2   14.67    0.63
  -3   6  -2    1.00    0.26
  -3   6  -2    0.92    0.15
  -3   6  -2    1.11    0.28
  -3   6  -2    0.83    0.11
   3  -6   2    0.92    0.14
   3  -6   2    0.98    0.11
  -4   6  -2   13.43    0.66
  -4   6  -2   13.37    0.56
  -4   6  -2   11.38    0.74
  -4   6  -2   12.78    0.71
   4  -6   2   13.08    0.61
   4  -6   2   13.09    0.56
  -5   6  -2   33.35    2.18
  -5   6  -2   39.77    1.99
  -5   6  -2   40.56    1.67
  -5   6  -2   40.38    1.64
   5  -6   2   36.19    1.74
   5  -6   2   38.79    1.85
  -6   6  -2   16.37    0.75
  -6   6  -2   15.07    1.03
  -6   6  -2   15.65    0.84
   6  -6   2   15.26    0.81
  -7   6  -2    0.91    0.23
  -7   6  -2    0.41    0.39
   7  -6   2    0.34    0.20
  -8   6  -2    0.49    0.36
  -8   6  -2   -0.41    0.46
   7   5  -2    0.87    0.30
   6   5  -2    5.36    0.41
  -6  -5   2    5.07    0.45
   5   5  -2   26.21    1.50
   5   5  -2   28.14    1.34
  -5  -5   2   29.51    1.58
   4   5  -2    5.33    0.35
   4   5  -2    5.96    0.47
   4   5  -2    5.83    0.36
  -4  -5   2    5.83    0.36
   3   5  -2   21.51    0.94
   3   5  -2   17.57    1.21
   3   5  -2   20.12    0.79
  -3  -5   2   19.73    0.84
   2   5  -2   16.29    0.80
   2   5  -2   16.66    0.75
   2   5  -2   16.54    0.78
   2   5  -2   17.51    0.76
  -2  -5   2   16.07    0.72
  -2  -5   2   15.85    0.82
   1   5  -2   57.07    2.24
   1   5  -2   58.46    2.09
   1   5  -2   53.50    2.72
   1   5  -2   58.71    2.33
  -1  -5   2   60.20    2.88
  -1  -5   2   58.55    3.18
  -1  -5   2   56.86    2.17
   0   5  -2   98.30    3.66
   0   5  -2   85.65    4.89
   0   5  -2   96.14    4.27
   0   5  -2   95.34    3.59
   0  -5   2   87.79    3.76
   0  -5   2   93.84    4.51
   0  -5   2   96.63    4.26
   0  -5   2   92.60    4.52
  -1   5  -2  164.88    7.57
  -1   5  -2  158.44    6.39
  -1   5  -2  169.89    6.69
  -1   5  -2  167.54    7.52
   1  -5   2  161.11    6.21
   1  -5   2  174.72    6.76
   1  -5   2  169.98    8.79
   1  -5   2  169.03    6.93
   1  -5   2  171.34    7.58
  -2   5  -2    0.42    0.10
  -2   5  -2    0.60    0.08
  -2   5  -2    0.27    0.25
  -2   5  -2    0.28    0.19
   2  -5   2    0.65    0.14
   2  -5   2    0.20    0.24
   2  -5   2    0.45    0.08
   2  -5   2    0.49    0.07
   2  -5   2    0.46    0.20
  -3   5  -2    7.80    0.35
  -3   5  -2    7.12    0.41
  -3   5  -2    7.79    0.34
  -3   5  -2    8.32    0.47
  -3   5  -2    8.70    0.51
   3  -5   2    8.12    0.35
   3  -5   2    7.15    0.37
   3  -5   2    8.47    0.34
  -4   5  -2   62.17    2.56
  -4   5  -2   61.66    2.60
  -4   5  -2   61.33    2.43
  -4   5  -2   63.56    2.35
  -4   5  -2   60.02    2.90
   4  -5   2   64.58    2.58
   4  -5   2   62.64    2.22
  -5   5  -2   23.11    1.08
  -5   5  -2   23.99    0.93
  -5   5  -2   23.12    1.08
  -5   5  -2   20.78    1.09
  -5   5  -2   21.16    1.35
   5  -5   2   23.87    0.97
   5  -5   2   24.41    0.99
  -6   5  -2    6.99    0.54
  -6   5  -2    6.10    0.37
   6  -5   2    6.74    0.38
   6  -5   2    5.85    0.38
  -7   5  -2    6.27    0.42
  -7   5  -2    7.73    0.62
   7  -5   2    7.30    0.43
  -8   5  -2    2.55    0.33
   8  -5   2    1.74    0.31
   7   4  -2   -0.12    0.24
  -7  -4   2   -0.25    0.29
   6   4  -2   14.49    0.86
   6   4  -2   13.13    0.70
  -6  -4   2   15.18    0.75
   5   4  -2    0.77    0.20
   5   4  -2    0.39    0.21
  -5  -4   2    0.82    0.22
   4   4  -2   48.74    2.06
   4   4  -2   49.50    1.78
   4   4  -2   45.81    2.77
  -4  -4   2   49.11    1.92
   3   4  -2   21.61    0.84
   3   4  -2   19.68    1.29
   3   4  -2   21.83    0.93
  -3  -4   2   21.58    0.81
   2   4  -2   11.65    0.61
   2   4  -2    9.95    0.57
   2   4  -2   10.57    0.46
  -2  -4   2   11.46    0.48
  -2  -4   2   10.22    0.60
  -2  -4   2   10.56    0.44
   1   4  -2   72.94    3.08
   1   4  -2   76.73    2.86
   1   4  -2   78.45    2.82
   1   4  -2   76.33    3.49
  -1  -4   2   77.47    3.07
  -1  -4   2   77.00    2.83
  -1  -4   2   77.61    4.99
  -1  -4   2   77.47    3.18
   0   4  -2   90.12    4.51
   0   4  -2   85.84    3.21
   0   4  -2   85.02    3.37
   0   4  -2   84.90    3.78
   0  -4   2   85.94    4.88
   0  -4   2   87.35    4.22
   0  -4   2   86.62    3.28
   0  -4   2   90.73    3.12
   0  -4   2   80.17    3.13
  -1   4  -2    1.75    0.24
  -1   4  -2    1.39    0.08
  -1   4  -2    1.21    0.19
  -1   4  -2    1.13    0.11
   1  -4   2    1.50    0.20
   1  -4   2    1.44    0.12
   1  -4   2    1.48    0.25
   1  -4   2    1.16    0.16
   1  -4   2    1.52    0.09
   1  -4   2    1.33    0.08
  -2   4  -2   38.02    1.45
  -2   4  -2   35.99    1.56
  -2   4  -2   36.95    1.82
  -2   4  -2   34.95    1.52
   2  -4   2   37.62    1.61
   2  -4   2   39.76    1.52
   2  -4   2   36.98    1.64
   2  -4   2   36.60    1.40
  -3   4  -2   12.70    0.57
  -3   4  -2   12.22    0.47
  -3   4  -2   12.39    0.56
  -3   4  -2   11.27    0.53
  -3   4  -2   11.25    0.51
   3  -4   2   12.02    0.55
   3  -4   2   11.63    0.46
   3  -4   2   11.72    0.62
  -4   4  -2   34.92    1.38
  -4   4  -2   34.43    1.51
  -4   4  -2   34.74    1.35
  -4   4  -2   36.76    1.50
  -4   4  -2   33.68    1.49
   4  -4   2   33.95    1.37
   4  -4   2   36.15    1.33
  -5   4  -2    3.51    0.25
  -5   4  -2    2.79    0.26
   5  -4   2    3.21    0.32
   5  -4   2    3.35    0.24
  -6   4  -2    2.38    0.25
   6  -4   2    2.29    0.28
   6  -4   2    2.93    0.26
  -7   4  -2   22.17    0.97
   7  -4   2   21.53    1.07
  -8   4  -2   26.96    1.31
   8  -4   2   26.65    1.41
   8   3  -2    1.22    0.33
  -8  -3   2    1.36    0.37
   7   3  -2   14.07    0.79
  -7  -3   2   14.03    0.71
   6   3  -2   18.76    0.83
  -6  -3   2   17.86    1.19
   5   3  -2    1.68    0.23
   5   3  -2    1.56    0.26
  -5  -3   2    1.59    0.23
   4   3  -2   26.14    0.99
   4   3  -2   23.45    1.21
   4   3  -2   23.72    0.98
  -4  -3   2   25.00    0.97
  -4  -3   2   26.89    1.38
   3   3  -2  133.29    5.28
   3   3  -2  140.49    5.36
   3   3  -2  139.66    5.72
  -3  -3   2  143.82    5.09
  -3  -3   2  139.25    6.37
  -3  -3   2  139.23    5.13
   2   3  -2   31.31    1.48
   2   3  -2   29.91    1.11
   2   3  -2   30.81    1.23
  -2  -3   2   30.56    1.22
  -2  -3   2   29.22    1.15
  -2  -3   2   29.43    1.17
   1   3  -2   72.56    3.87
   1   3  -2   76.27    3.71
   1   3  -2   75.01    3.05
   1   3  -2   71.56    3.06
  -1  -3   2   77.36    3.73
  -1  -3   2   72.77    3.02
  -1  -3   2   72.67    2.75
  -1  -3   2   73.77    2.79
   0   3  -2   28.24    1.47
   0   3  -2   33.10    1.36
   0   3  -2   31.02    1.34
   0   3  -2   32.35    1.53
   0   3  -2   31.96    1.26
   0  -3   2   32.73    1.34
   0  -3   2   33.02    1.54
   0  -3   2   32.58    1.22
   0  -3   2   34.01    1.22
   0  -3   2   31.00    1.42
  -1   3  -2  126.89    5.76
  -1   3  -2  124.91    5.39
  -1   3  -2  124.19    6.21
   1  -3   2  128.66    7.21
   1  -3   2  122.33    4.87
   1  -3   2  129.82    4.80
   1  -3   2  124.13    5.75
   1  -3   2  127.91    4.95
   1  -3   2  125.14    4.91
  -2   3  -2    4.09    0.29
  -2   3  -2    3.42    0.26
  -2   3  -2    4.73    0.28
  -2   3  -2    4.34    0.24
  -2   3  -2    3.87    0.18
   2  -3   2    4.19    0.22
   2  -3   2    3.96    0.18
   2  -3   2    3.78    0.25
   2  -3   2    4.52    0.33
  -3   3  -2  191.77    9.24
  -3   3  -2  182.57    7.68
  -3   3  -2  185.68    7.48
  -3   3  -2  184.44    7.05
   3  -3   2  180.12    8.50
   3  -3   2  182.20    6.85
   3  -3   2  184.78    6.45
   3  -3   2  190.86    7.85
  -4   3  -2   34.30    1.44
  -4   3  -2   34.13    1.51
  -4   3  -2   34.49    1.29
   4  -3   2   35.17    1.39
   4  -3   2   34.48    1.31
  -5   3  -2    0.01    0.15
  -5   3  -2    0.21    0.21
   5  -3   2   -0.24    0.19
   5  -3   2    0.06    0.21
  -6   3  -2    7.96    0.47
   6  -3   2    8.75    0.52
   6  -3   2    8.34    0.45
  -7   3  -2   20.87    1.06
   7  -3   2   20.71    1.04
  -8   3  -2    0.15    0.38
   8  -3   2   -0.29    0.35
   8   2  -2   14.21    0.81
  -8  -2   2   14.64    0.77
   7   2  -2   42.02    2.11
  -7  -2   2   44.48    2.19
   6   2  -2    0.70    0.28
  -6  -2   2    0.38    0.29
   5   2  -2    9.15    0.53
   5   2  -2   10.55    0.52
  -5  -2   2   11.07    0.50
   4   2  -2    0.22    0.12
   4   2  -2    0.03    0.17
   4   2  -2   -0.09    0.13
  -4  -2   2   -0.14    0.20
  -4  -2   2    0.01    0.13
   3   2  -2    0.16    0.18
  -3  -2   2    0.21    0.24
  -3  -2   2    0.41    0.15
   2   2  -2  120.34    5.03
   2   2  -2  116.79    4.52
   2   2  -2  117.22    5.39
  -2  -2   2  120.57    4.29
  -2  -2   2  117.53    4.87
  -2  -2   2  119.56    4.51
   1   2  -2  257.16    9.60
   1   2  -2  256.65   13.82
   1   2  -2  262.02   10.56
  -1  -2   2  259.21    9.95
  -1  -2   2  270.39   10.54
  -1  -2   2  260.83   10.11
   0   2  -2  159.71    6.50
   0   2  -2  151.24    6.09
   0   2  -2  155.86    5.78
   0  -2   2  154.79    5.57
   0  -2   2  159.84    7.07
   0  -2   2  156.32    5.66
  -1   2  -2   26.12    1.25
  -1   2  -2   24.72    1.00
  -1   2  -2   24.78    1.03
  -1   2  -2   25.03    0.96
  -1   2  -2   25.66    1.00
   1  -2   2   26.40    1.30
   1  -2   2   23.85    0.92
   1  -2   2   26.39    1.02
   1  -2   2   25.38    0.99
   1  -2   2   24.16    0.99
  -2   2  -2    4.44    0.21
  -2   2  -2    4.29    0.20
  -2   2  -2    4.16    0.24
   2  -2   2    4.28    0.20
   2  -2   2    4.41    0.23
   2  -2   2    3.94    0.22
  -3   2  -2   59.92    2.54
  -3   2  -2   63.19    2.49
  -3   2  -2   61.52    2.69
   3  -2   2   59.50    2.54
   3  -2   2   60.20    2.53
   3  -2   2   61.08    2.52
   3  -2   2   63.96    2.30
  -4   2  -2   31.63    1.17
  -4   2  -2   29.60    1.45
  -4   2  -2   29.16    1.64
   4  -2   2   32.08    1.29
   4  -2   2   32.69    1.20
  -5   2  -2   18.76    0.76
   5  -2   2   18.56    0.79
   5  -2   2   19.57    0.88
  -6   2  -2   11.76    0.63
   6  -2   2   11.29    0.57
   6  -2   2   12.27    0.60
  -7   2  -2   20.73    0.94
   7  -2   2   21.10    1.66
  -8   2  -2    0.66    0.29
   8  -2   2    0.16    0.27
   9   1  -2    1.04    0.33
  -9  -1   2    1.48    0.39
   8   1  -2    0.86    0.27
  -8  -1   2    0.67    0.30
   7   1  -2    0.51    0.23
  -7  -1   2    0.17    0.23
   6   1  -2    1.92    0.24
  -6  -1   2    1.96    0.25
   5   1  -2   21.80    1.13
   5   1  -2   24.19    1.08
  -5  -1   2   22.85    0.98
  -5  -1   2   24.57    0.91
   4   1  -2  280.93   11.55
   4   1  -2  282.37   11.22
  -4  -1   2  285.28   11.52
  -4  -1   2  278.99   13.31
  -4  -1   2  293.24   10.72
   3   1  -2   82.26    3.17
   3   1  -2   85.76    3.29
  -3  -1   2   85.54    3.30
  -3  -1   2   83.87    3.20
  -3  -1   2   85.92    3.07
   2   1  -2   47.12    1.92
   2   1  -2   48.17    1.80
  -2  -1   2   46.22    1.76
  -2  -1   2   48.58    1.77
  -2  -1   2   49.11    1.83
   1   1  -2   65.73    2.55
   1   1  -2   67.94    2.97
  -1  -1   2   68.67    2.51
  -1  -1   2   67.32    2.82
   0   1  -2   27.13    1.06
   0   1  -2   28.21    1.21
   0   1  -2   25.70    1.16
   0   1  -2   27.55    1.51
   0  -1   2   28.17    1.33
   0  -1   2   25.37    1.47
   0  -1   2   28.21    1.26
   0  -1   2   26.87    1.23
  -1   1  -2    2.20    0.13
  -1   1  -2    2.14    0.15
  -1   1  -2    2.57    0.17
   1  -1   2    2.58    0.15
   1  -1   2    2.77    0.16
   1  -1   2    2.75    0.16
  -2   1  -2  196.22    7.74
  -2   1  -2  190.72    7.58
  -2   1  -2  187.21    7.82
   2  -1   2  193.30    7.12
   2  -1   2  190.84    7.14
   2  -1   2  187.54    7.94
  -3   1  -2    0.49    0.15
  -3   1  -2    0.78    0.13
   3  -1   2    0.36    0.13
   3  -1   2    0.71    0.17
   3  -1   2    1.04    0.16
  -4   1  -2   22.54    0.93
  -4   1  -2   20.63    1.07
   4  -1   2   21.71    0.99
   4  -1   2   22.18    0.87
   4  -1   2   23.16    0.91
  -5   1  -2   37.40    1.54
   5  -1   2   39.80    1.56
   5  -1   2   37.43    1.64
  -6   1  -2   59.40    2.44
   6  -1   2   58.43    2.34
  -7   1  -2   15.17    0.73
   7  -1   2   14.77    0.73
  -8   1  -2   -0.19    0.27
   8  -1   2    0.32    0.30
   9   0  -2    8.22    0.56
  -9   0   2    6.78    0.54
   8   0  -2   27.97    1.21
  -8   0   2   25.53    1.32
   7   0  -2    1.07    0.23
  -7   0   2    1.04    0.25
   6   0  -2    6.62    0.38
  -6   0   2    6.36    0.30
  -6   0   2    6.36    0.38
   5   0  -2  177.12    7.48
  -5   0   2  185.47    7.16
  -5   0   2  183.35    7.15
   4   0  -2   38.26    1.55
   4   0  -2   39.74    1.78
  -4   0   2   39.05    1.57
  -4   0   2   37.54    1.76
  -4   0   2   39.61    1.65
   3   0  -2  115.66    4.57
   3   0  -2  119.37    4.62
  -3   0   2  120.67    4.37
  -3   0   2  118.71    5.30
   2   0  -2  198.05    8.57
   2   0  -2  182.88    7.25
  -2   0   2  183.95    7.29
  -2   0   2  200.82    8.27
   1   0  -2    0.22    0.10
  -1   0   2    0.27    0.05
  -1   0   2    0.14    0.05
   0   0  -2  215.35    8.84
   0   0  -2  231.38   10.18
   0   0  -2  225.71    9.10
   0   0   2  220.06   10.34
   0   0   2  223.96    8.99
   0   0   2  212.97    8.78
  -1   0  -2   95.77    3.75
  -1   0  -2   92.30    4.30
  -1   0  -2   97.02    4.07
   1   0   2   97.97    3.93
   1   0   2   91.65    4.38
   1   0   2   92.79    4.63
  -2   0  -2   18.14    1.03
  -2   0  -2   21.04    1.13
  -2   0  -2   19.43    1.01
   2   0   2   18.95    0.99
   2   0   2   20.21    1.04
   2   0   2   19.43    1.02
  -3   0  -2   76.55    3.39
  -3   0  -2   73.52    3.06
  -3   0  -2   77.76    2.83
   3   0   2   73.74    3.44
   3   0   2   77.79    2.87
   3   0   2   77.39    2.92
  -4   0  -2    7.09    0.37
   4   0   2    6.79    0.38
   4   0   2    7.12    0.39
  -5   0  -2    3.84    0.31
   5   0   2    4.55    0.33
   5   0   2    3.35    0.32
   5   0   2    3.75    0.22
  -6   0  -2    3.22    0.33
   6   0   2    3.30    0.34
  -7   0  -2    7.12    0.49
   7   0   2    7.40    0.51
  -8   0  -2    0.21    0.30
   8   0   2    0.29    0.30
   9  -1  -2    6.66    0.51
  -9   1   2    6.77    0.53
   8  -1  -2   16.12    0.80
  -8   1   2   15.02    0.88
   7  -1  -2   16.41    0.76
  -7   1   2   16.56    0.84
   6  -1  -2    0.34    0.18
  -6   1   2    0.32    0.18
  -6   1   2    0.24    0.10
   5  -1  -2   10.57    0.49
  -5   1   2   10.46    0.50
  -5   1   2    9.49    0.47
   4  -1  -2   34.79    1.30
   4  -1  -2   32.21    1.27
  -4   1   2   32.82    1.39
  -4   1   2   35.62    1.32
   3  -1  -2    0.68    0.11
   3  -1  -2    0.87    0.12
  -3   1   2    0.75    0.13
  -3   1   2    0.99    0.12
   2  -1  -2  385.24   16.45
   2  -1  -2  396.46   16.02
  -2   1   2  406.50   14.57
  -2   1   2  385.09   14.81
   1  -1  -2  477.01   19.28
   1  -1  -2  472.72   18.90
  -1   1   2  481.96   18.98
  -1   1   2  468.78   19.67
   0  -1  -2  307.85   12.14
   0  -1  -2  303.62   10.65
   0  -1  -2  292.46   14.35
   0  -1  -2  301.38   12.05
   0   1   2  301.47   13.14
   0   1   2  325.68   13.07
   0   1   2  293.48   11.70
  -1  -1  -2   78.68    3.13
  -1  -1  -2   77.66    2.90
  -1  -1  -2   76.27    3.12
   1   1   2   74.22    3.14
   1   1   2   73.67    3.52
   1   1   2   77.42    3.00
  -2  -1  -2   55.86    2.25
  -2  -1  -2   55.19    2.37
  -2  -1  -2   59.28    2.27
   2   1   2   59.00    2.21
   2   1   2   53.86    2.62
   2   1   2   55.65    2.21
  -3  -1  -2   48.09    2.52
  -3  -1  -2   46.03    2.06
  -3  -1  -2   51.13    1.85
   3   1   2   47.03    2.60
   3   1   2   49.14    1.91
   3   1   2   48.87    1.85
  -4  -1  -2   64.41    2.40
   4   1   2   64.65    2.69
   4   1   2   62.27    2.40
  -5  -1  -2   28.68    1.12
   5   1   2   26.72    1.15
   5   1   2   28.31    1.13
  -6  -1  -2    3.41    0.34
   6   1   2    3.22    0.34
  -7  -1  -2    3.35    0.47
   7   1   2    2.80    0.38
  -8  -1  -2    7.61    0.58
   8   1   2    8.23    0.61
   9  -2  -2    3.20    0.38
  -9   2   2    3.34    0.41
   8  -2  -2    9.93    0.55
  -8   2   2    9.69    0.62
   7  -2  -2    0.92    0.22
  -7   2   2    0.90    0.24
   6  -2  -2  120.08    4.49
  -6   2   2  120.41    4.58
   5  -2  -2   44.62    1.76
  -5   2   2   43.64    1.77
  -5   2   2   42.15    1.94
   4  -2  -2    7.91    0.40
  -4   2   2    8.72    0.43
  -4   2   2    8.07    0.38
   3  -2  -2   95.84    3.59
   3  -2  -2  102.50    4.40
  -3   2   2  102.52    4.66
  -3   2   2   92.69    3.60
   2  -2  -2   38.24    1.61
   2  -2  -2   40.32    1.54
  -2   2   2   40.47    1.51
  -2   2   2   40.31    1.44
  -2   2   2   38.18    1.78
   1  -2  -2    5.63    0.26
   1  -2  -2    5.50    0.26
  -1   2   2    6.43    0.26
  -1   2   2    5.61    0.27
  -1   2   2    5.35    0.26
   0  -2  -2  172.53    7.00
   0  -2  -2  171.32    6.80
   0  -2  -2  174.94    7.11
   0   2   2  182.50    6.37
   0   2   2  171.40    7.72
   0   2   2  163.62    6.86
  -1  -2  -2    0.93    0.16
  -1  -2  -2    0.85    0.13
   1   2   2    0.87    0.13
   1   2   2    0.56    0.13
   1   2   2    0.85    0.16
  -2  -2  -2   43.64    2.19
  -2  -2  -2   39.27    1.68
  -2  -2  -2   42.18    1.56
   2   2   2   40.21    1.56
   2   2   2   39.08    2.25
   2   2   2   41.69    1.51
  -3  -2  -2   23.28    0.93
   3   2   2   23.51    0.99
   3   2   2   24.34    1.04
  -4  -2  -2    1.85    0.25
   4   2   2    1.69    0.26
   4   2   2    2.27    0.26
  -5  -2  -2   30.83    1.27
   5   2   2   28.42    1.53
   5   2   2   31.99    1.35
  -6  -2  -2   16.18    0.81
   6   2   2   17.19    0.84
  -7  -2  -2    0.45    0.43
   7   2   2    0.14    0.42
   9  -3  -2    0.08    0.26
  -9   3   2    0.59    0.30
   8  -3  -2    9.09    0.54
  -8   3   2    8.88    0.53
   7  -3  -2   12.61    0.60
  -7   3   2   12.82    0.62
   6  -3  -2   44.39    1.95
  -6   3   2   44.38    1.80
   5  -3  -2   79.88    2.89
  -5   3   2   75.28    3.41
  -5   3   2   79.99    2.84
   4  -3  -2    0.13    0.12
  -4   3   2    0.17    0.09
  -4   3   2    0.16    0.17
  -4   3   2    0.32    0.16
   3  -3  -2   34.48    1.38
   3  -3  -2   32.51    1.57
  -3   3   2   35.09    1.38
  -3   3   2   37.03    1.61
  -3   3   2   31.54    1.38
   2  -3  -2  107.63    4.42
   2  -3  -2  109.60    4.22
  -2   3   2  110.03    4.71
  -2   3   2  114.46    4.23
  -2   3   2  105.99    5.09
   1  -3  -2    0.26    0.11
   1  -3  -2    0.70    0.13
   1  -3  -2    0.52    0.12
  -1   3   2    0.54    0.13
  -1   3   2    0.67    0.12
  -1   3   2    0.49    0.06
   0  -3  -2   24.56    0.96
   0  -3  -2   23.75    1.26
   0  -3  -2   24.24    0.94
   0   3   2   24.30    0.93
   0   3   2   23.00    1.00
   0   3   2   23.60    0.93
  -1  -3  -2  213.35   10.19
  -1  -3  -2  200.89    7.93
  -1  -3  -2  205.09    8.44
   1   3   2  198.95    8.35
   1   3   2  214.76    7.75
   1   3   2  195.78   10.09
  -2  -3  -2    0.86    0.17
  -2  -3  -2    1.31    0.20
   2   3   2    0.89    0.17
   2   3   2    1.30    0.20
   2   3   2    1.36    0.17
  -3  -3  -2   20.95    0.87
   3   3   2   20.70    0.88
   3   3   2   21.77    0.98
  -4  -3  -2    0.17    0.20
   4   3   2   -0.05    0.20
   4   3   2    0.20    0.24
  -5  -3  -2   21.17    1.29
   5   3   2   20.57    1.06
   5   3   2   18.84    0.95
  -6  -3  -2    1.24    0.32
   6   3   2    1.23    0.32
  -7  -3  -2    9.83    0.81
   7   3   2   10.91    0.69
   9  -4  -2   11.69    0.65
  -9   4   2   11.60    0.72
   8  -4  -2   -0.09    0.22
  -8   4   2   -0.15    0.25
   7  -4  -2    0.39    0.21
  -7   4   2    0.43    0.23
  -6   4   2    1.67    0.27
  -6   4   2    2.10    0.25
   5  -4  -2    2.45    0.22
  -5   4   2    2.16    0.23
  -5   4   2    1.88    0.20
  -5   4   2    2.58    0.32
   4  -4  -2  153.83    6.30
  -4   4   2  158.38    6.48
  -4   4   2  151.64    7.30
  -4   4   2  134.26    6.99
  -4   4   2  154.30    5.72
   3  -4  -2  178.21    7.23
  -3   4   2  176.23    6.67
  -3   4   2  171.20    7.01
  -3   4   2  173.14    7.27
  -3   4   2  157.60    7.18
   2  -4  -2   20.16    1.06
   2  -4  -2   18.82    0.86
   2  -4  -2   20.04    0.94
  -2   4   2   20.34    0.93
  -2   4   2   19.59    1.20
  -2   4   2   20.35    0.87
  -2   4   2   21.57    0.95
   1  -4  -2    6.04    0.33
   1  -4  -2    6.50    0.35
   1  -4  -2    6.36    0.35
  -1   4   2    6.65    0.34
  -1   4   2    6.72    0.26
  -1   4   2    5.97    0.31
   0  -4  -2    1.64    0.20
   0  -4  -2    1.65    0.13
   0  -4  -2    1.83    0.24
   0   4   2    1.36    0.16
   0   4   2    1.86    0.13
   0   4   2    1.46    0.24
  -1  -4  -2   13.72    0.65
  -1  -4  -2   13.05    0.83
   1   4   2   12.50    0.61
   1   4   2   13.58    0.61
   1   4   2   14.11    0.64
  -2  -4  -2    7.72    0.54
  -2  -4  -2    9.08    0.48
   2   4   2   10.28    0.49
  -3  -4  -2    6.70    0.47
   3   4   2    5.64    0.44
   3   4   2    6.92    0.48
  -4  -4  -2    5.29    0.48
   4   4   2    7.58    0.61
   4   4   2    6.29    0.50
  -5  -4  -2    9.38    0.58
   5   4   2    9.13    0.57
   5   4   2    8.71    0.65
  -6  -4  -2    0.45    0.32
   6   4   2    0.53    0.31
   9  -5  -2    0.59    0.39
  -9   5   2   -0.06    0.30
   8  -5  -2    1.40    0.27
  -8   5   2    1.99    0.40
   7  -5  -2    0.06    0.19
  -7   5   2    0.54    0.30
  -7   5   2    0.42    0.29
   6  -5  -2   32.72    1.63
  -6   5   2   33.66    1.48
  -6   5   2   33.95    1.49
   5  -5  -2   32.01    1.45
  -5   5   2   31.36    1.70
  -5   5   2   30.61    1.42
  -5   5   2   30.98    1.55
   4  -5  -2    2.99    0.24
  -4   5   2    2.40    0.28
  -4   5   2    3.10    0.15
  -4   5   2    3.07    0.25
   3  -5  -2   26.46    1.23
  -3   5   2   24.35    1.16
  -3   5   2   27.51    1.27
  -3   5   2   26.28    1.40
   2  -5  -2   14.78    0.62
   2  -5  -2   13.20    0.55
  -2   5   2   13.47    0.60
  -2   5   2   12.09    0.74
   1  -5  -2   11.57    0.60
   1  -5  -2   13.68    0.62
   1  -5  -2   12.46    0.65
  -1   5   2   10.51    0.66
  -1   5   2   11.71    0.55
   0  -5  -2  112.37    5.31
   0  -5  -2  105.13    4.54
   0  -5  -2   94.17    5.11
   0   5   2  101.92    4.32
   0   5   2   86.89    6.35
  -1  -5  -2    4.71    0.39
  -1  -5  -2    5.65    0.36
   1   5   2    5.83    0.36
  -2  -5  -2    3.39    0.31
   2   5   2    2.35    0.28
  -3  -5  -2   27.32    1.39
   3   5   2   27.21    1.15
   3   5   2   26.76    1.37
  -4  -5  -2   22.88    1.27
   4   5   2   23.61    1.12
   4   5   2   21.33    1.12
  -5  -5  -2    0.02    0.30
   5   5   2    0.03    0.27
   8  -6  -2    0.77    0.26
  -8   6   2    0.70    0.30
  -8   6   2    0.97    0.51
   7  -6  -2   28.39    1.78
  -7   6   2   32.18    1.55
  -7   6   2   30.14    1.64
  -7   6   2   30.05    1.38
   6  -6  -2    5.39    0.37
  -6   6   2    5.92    0.48
  -6   6   2    5.47    0.38
   5  -6  -2   10.98    0.63
  -5   6   2   10.87    0.56
  -5   6   2   10.38    0.58
   4  -6  -2    4.96    0.35
  -4   6   2    4.29    0.36
  -4   6   2    3.49    0.34
   3  -6  -2    3.46    0.28
  -3   6   2    3.68    0.29
  -3   6   2    3.31    0.29
   2  -6  -2   35.46    2.20
   2  -6  -2   40.62    1.71
   2  -6  -2   37.57    1.91
  -2   6   2   38.15    1.80
  -2   6   2   31.34    2.03
   1  -6  -2   77.19    5.21
   1  -6  -2   88.59    5.75
   1  -6  -2   89.78    4.72
  -1   6   2   87.96    4.32
   0  -6  -2    6.35    0.44
   0  -6  -2    5.57    0.32
   0  -6  -2    6.90    0.40
   0   6   2    5.82    0.38
  -1  -6  -2    4.16    0.35
   1   6   2    4.52    0.34
  -2  -6  -2    1.20    0.35
   2   6   2    1.56    0.34
   2   6   2    2.33    0.47
  -3  -6  -2    0.15    0.26
   3   6   2    0.48    0.41
   3   6   2    0.31    0.26
  -4  -6  -2    0.63    0.43
   4   6   2    0.83    0.43
   4   6   2    1.25    0.42
   8  -7  -2    0.87    0.28
  -8   7   2    0.85    0.32
   7  -7  -2    0.90    0.26
  -7   7   2    1.51    0.31
  -7   7   2    1.08    0.48
   6  -7  -2    0.48    0.23
  -6   7   2    0.76    0.24
  -6   7   2    0.29    0.26
   5  -7  -2    0.23    0.19
  -5   7   2    0.42    0.22
  -5   7   2    0.22    0.22
   4  -7  -2   17.83    0.84
  -4   7   2   17.54    1.00
  -4   7   2   15.48    1.08
   3  -7  -2   34.90    1.58
  -3   7   2   36.80    1.85
   2  -7  -2    0.83    0.23
  -2   7   2    0.78    0.30
   1  -7  -2    0.00    0.28
  -1   7   2    0.84    0.30
   0  -7  -2   13.56    0.90
   0   7   2   15.35    0.85
  -1  -7  -2    0.45    0.24
   1   7   2    0.26    0.22
   1   7   2    0.28    0.45
  -2  -7  -2   36.50    2.29
   2   7   2   33.88    1.83
   2   7   2   37.30    1.53
  -3  -7  -2   11.90    0.72
   3   7   2   10.43    0.84
   3   7   2   10.65    0.78
  -7   8   2    0.29    0.40
   6  -8  -2    0.49    0.25
  -6   8   2    1.19    0.29
  -6   8   2    1.41    0.45
   5  -8  -2    7.51    0.55
  -5   8   2    7.30    0.56
   4  -8  -2   10.83    0.63
  -4   8   2   11.85    0.66
   3  -8  -2    0.93    0.34
  -3   8   2    0.87    0.25
   2  -8  -2    7.07    0.59
  -2   8   2    6.81    0.45
   1  -8  -2   -0.08    0.24
  -1   8   2   -0.31    0.21
   0  -8  -2    0.99    0.29
   0   8   2    0.62    0.24
   0   8   2    1.81    0.75
  -1  -8  -2   13.72    1.18
   1   8   2   13.44    0.97
   1   8   2   14.37    0.80
   2   8   2    2.76    0.46
   2   8   2    2.85    0.83
  -6   9   2    1.10    0.32
  -6   9   2    0.60    0.67
  -5   9   2    0.38    0.28
  -5   9   2    0.44    0.50
  -4   9   2    0.61    0.53
  -4   9   2    0.13    0.25
  -3   9   2   -0.07    0.33
  -3   9   2   -0.18    0.73
  -2   9   2    0.26    0.25
  -2   9   2    0.81    0.58
  -1   9   2    9.87    0.91
  -1   9   2   10.05    0.67
   0   9   2    2.15    0.65
   0   9   2    1.66    0.32
   0  11  -3    0.33    0.54
  -1  11  -3   -0.13    0.13
  -1  11  -3    0.16    0.73
  -2  11  -3    1.81    0.19
  -2  11  -3    0.93    0.75
  -3  11  -3    0.65    0.51
  -3  11  -3    0.72    0.22
  -4  11  -3    0.92    0.52
  -4  11  -3    1.24    0.52
  -4  11  -3    1.38    0.24
   2  10  -3    1.00    0.19
   2  10  -3    1.16    0.55
   1  10  -3    2.09    0.55
   1  10  -3    1.71    0.19
   0  10  -3    8.06    0.74
   0  10  -3    7.66    0.52
  -1  10  -3    1.81    0.21
  -1  10  -3    2.18    0.51
  -2  10  -3    9.92    0.64
  -2  10  -3   10.32    0.79
  -3  10  -3    0.20    0.58
  -3  10  -3    0.00    0.12
  -3  10  -3   -0.08    0.39
  -4  10  -3    0.13    0.56
  -4  10  -3   -0.09    0.40
  -4  10  -3    0.06    0.13
  -5  10  -3    2.44    0.66
  -5  10  -3    1.73    0.45
  -5  10  -3    1.54    0.20
  -6  10  -3    2.75    0.26
  -6  10  -3    2.13    0.53
   4   9  -3    9.01    0.64
   4   9  -3    8.45    0.76
   3   9  -3    2.01    0.53
   3   9  -3    2.13    0.29
   2   9  -3    1.42    0.30
   2   9  -3    1.15    0.49
   2   9  -3    1.01    0.18
   1   9  -3    5.02    0.59
   1   9  -3    4.47    0.27
   0   9  -3    5.42    0.59
   0   9  -3    4.87    0.42
  -1   9  -3   19.60    0.83
  -1   9  -3   18.99    1.14
  -2   9  -3   11.38    0.78
  -2   9  -3   10.82    0.76
  -2   9  -3   10.90    0.71
  -3   9  -3    0.27    0.15
  -3   9  -3   -0.05    0.32
  -3   9  -3    0.69    0.52
  -4   9  -3    1.41    0.42
  -4   9  -3    0.66    0.39
  -4   9  -3    0.99    0.15
  -5   9  -3    0.35    0.34
  -5   9  -3    0.41    0.38
  -5   9  -3    0.41    0.22
  -6   9  -3    2.25    0.24
  -6   9  -3    3.27    0.68
  -7   9  -3    0.13    0.28
  -7   9  -3    0.15    0.67
   5   8  -3    0.57    0.23
   5   8  -3    0.16    0.41
   4   8  -3    0.32    0.40
   4   8  -3    0.15    0.28
   4   8  -3    0.09    0.25
   3   8  -3    0.10    0.18
   3   8  -3   -0.15    0.22
   3   8  -3    0.36    0.42
   2   8  -3   16.83    1.07
   2   8  -3   16.20    0.93
   2   8  -3   17.70    1.04
   1   8  -3   44.16    2.61
   1   8  -3   40.89    1.92
   1   8  -3   42.88    2.10
   0   8  -3   19.57    0.99
   0   8  -3   19.95    1.02
   0  -8   3   17.86    1.07
  -1   8  -3    1.47    0.13
  -1   8  -3    1.37    0.15
  -1   8  -3    1.38    0.41
   1  -8   3    1.08    0.14
   1  -8   3    1.24    0.15
  -2   8  -3   34.96    1.39
  -2   8  -3   35.16    2.78
  -2   8  -3   38.44    1.55
  -2   8  -3   36.08    1.96
   2  -8   3   35.13    2.58
   2  -8   3   33.47    1.83
  -3   8  -3    1.88    0.39
  -3   8  -3    2.79    0.51
  -3   8  -3    2.88    0.21
   3  -8   3    2.89    0.20
  -4   8  -3   42.44    1.68
  -4   8  -3   38.84    1.87
  -4   8  -3   39.74    1.80
   4  -8   3   35.14    2.12
  -5   8  -3   10.17    0.62
  -5   8  -3    9.37    0.67
  -5   8  -3    9.99    0.52
  -6   8  -3   -0.36    0.39
  -6   8  -3   -0.57    0.48
  -6   8  -3    0.22    0.17
  -7   8  -3    0.11    0.46
   6   7  -3    7.63    0.57
   5   7  -3    0.86    0.38
   5   7  -3    0.83    0.22
   4   7  -3    0.10    0.17
   4   7  -3    0.27    0.36
   4   7  -3    0.16    0.19
   3   7  -3   44.25    2.40
   3   7  -3   42.08    2.54
   3   7  -3   44.07    2.29
  -3  -7   3   41.16    2.55
   2   7  -3  122.66    8.70
   2   7  -3  150.72    7.66
   2   7  -3  141.87    8.22
   2   7  -3  142.28    6.30
  -2  -7   3  141.26    5.49
   1   7  -3    0.47    0.24
   1   7  -3    0.47    0.36
   1   7  -3    0.43    0.10
   1   7  -3    0.41    0.08
  -1  -7   3    0.24    0.10
   0   7  -3    2.63    0.15
   0   7  -3    2.77    0.18
   0   7  -3    3.13    0.43
   0  -7   3    2.42    0.15
   0  -7   3    2.48    0.17
  -1   7  -3    8.40    0.55
  -1   7  -3    9.40    0.61
  -1   7  -3    8.73    0.46
   1  -7   3    8.77    0.44
   1  -7   3    8.43    0.58
   1  -7   3    8.60    0.41
  -2   7  -3   10.70    0.70
  -2   7  -3    9.92    0.63
  -2   7  -3    9.79    0.57
  -2   7  -3   10.35    0.41
   2  -7   3    9.10    0.52
   2  -7   3    8.68    0.46
   2  -7   3    9.70    0.44
  -3   7  -3   58.85    2.99
  -3   7  -3   63.84    2.41
  -3   7  -3   64.77    2.52
  -3   7  -3   61.45    2.74
   3  -7   3   64.44    2.71
   3  -7   3   60.88    3.25
  -4   7  -3   38.14    2.24
  -4   7  -3   39.73    2.35
  -4   7  -3   40.37    2.13
  -4   7  -3   42.25    1.99
   4  -7   3   42.06    1.88
   4  -7   3   40.27    1.95
  -5   7  -3    1.88    0.20
  -5   7  -3    1.33    0.26
  -5   7  -3    1.61    0.37
   5  -7   3    1.32    0.18
   5  -7   3    1.58    0.20
  -6   7  -3    1.14    0.53
  -6   7  -3    0.94    0.20
   6  -7   3    0.87    0.21
  -7   7  -3    0.59    0.43
  -7   7  -3    0.61    0.30
  -8   7  -3    3.31    0.36
  -8   7  -3    3.41    0.62
   6   6  -3    7.30    0.54
   5   6  -3    5.29    0.36
   5   6  -3    4.67    0.47
   4   6  -3   20.34    0.96
   4   6  -3   19.19    0.99
  -4  -6   3   19.99    1.11
   3   6  -3    2.28    0.40
   3   6  -3    2.60    0.21
   3   6  -3    2.68    0.26
  -3  -6   3    2.58    0.22
   2   6  -3    0.02    0.13
   2   6  -3    0.15    0.16
   2   6  -3   -0.44    0.44
  -2  -6   3    0.34    0.11
   1   6  -3    0.26    0.11
   1   6  -3    0.43    0.43
   1   6  -3    0.31    0.08
   1   6  -3    0.66    0.23
  -1  -6   3    0.42    0.09
   0   6  -3   79.97    3.45
   0   6  -3   81.75    2.94
   0   6  -3   80.89    3.21
   0  -6   3   71.84    3.37
   0  -6   3   80.80    4.11
  -1   6  -3  221.72   11.04
  -1   6  -3  217.61    9.46
  -1   6  -3  230.44    9.37
   1  -6   3  223.39    8.47
   1  -6   3  217.97    8.06
   1  -6   3  214.45   15.45
   1  -6   3  220.91    9.15
  -2   6  -3  140.81    5.58
  -2   6  -3  134.48    6.04
  -2   6  -3  135.99    5.61
  -2   6  -3  146.79    5.30
   2  -6   3  134.17    6.98
   2  -6   3  136.80    5.54
   2  -6   3  144.02    7.13
  -3   6  -3   -0.04    0.24
  -3   6  -3    0.15    0.12
  -3   6  -3    0.09    0.12
  -3   6  -3   -0.20    0.24
   3  -6   3    0.01    0.13
   3  -6   3    0.04    0.12
   3  -6   3    0.01    0.07
  -4   6  -3   11.48    0.53
  -4   6  -3    9.42    0.64
  -4   6  -3   11.58    0.65
  -4   6  -3   11.80    0.62
  -4   6  -3   11.19    0.56
   4  -6   3   11.76    0.50
   4  -6   3   11.38    0.56
  -5   6  -3   25.76    1.12
  -5   6  -3   22.90    1.24
  -5   6  -3   24.13    1.09
  -5   6  -3   21.89    1.11
   5  -6   3   25.29    0.96
   5  -6   3   25.42    1.22
  -6   6  -3   22.56    1.11
  -6   6  -3   23.65    1.20
   6  -6   3   22.18    1.08
   6  -6   3   22.87    0.96
  -7   6  -3   27.00    1.22
  -7   6  -3   27.86    1.39
   7  -6   3   25.16    1.13
  -8   6  -3    0.16    0.26
  -8   6  -3    0.18    0.51
   7   5  -3    0.01    0.23
   6   5  -3   25.19    1.34
   6   5  -3   27.71    1.54
  -6  -5   3   28.56    1.62
   5   5  -3    6.07    0.38
   5   5  -3    6.41    0.52
  -5  -5   3    6.13    0.39
   4   5  -3   25.96    1.10
   4   5  -3   23.08    1.07
   4   5  -3   22.85    1.59
  -4  -5   3   24.42    1.04
   3   5  -3   26.68    1.64
   3   5  -3   27.05    1.18
   3   5  -3   28.01    1.11
  -3  -5   3   27.49    1.12
   2   5  -3   12.86    0.55
   2   5  -3   12.20    0.61
   2   5  -3   12.73    0.49
   2   5  -3   12.48    0.66
  -2  -5   3   12.91    0.50
  -2  -5   3   11.93    0.83
  -2  -5   3   12.53    0.51
   1   5  -3   49.34    1.81
   1   5  -3   49.16    2.02
   1   5  -3   49.03    1.91
   1   5  -3   42.71    2.20
  -1  -5   3   50.43    2.23
  -1  -5   3   45.64    2.23
  -1  -5   3   48.05    1.96
  -1  -5   3   49.93    2.30
   0   5  -3  377.61   13.63
   0   5  -3  376.10   14.36
   0   5  -3  367.22   14.99
   0   5  -3  390.79   15.12
   0  -5   3  373.14   18.02
   0  -5   3  367.05   17.23
   0  -5   3  393.19   16.88
  -1   5  -3   94.25    3.65
  -1   5  -3   90.34    4.45
  -1   5  -3   98.28    3.71
  -1   5  -3   96.08    4.04
   1  -5   3   95.60    5.18
   1  -5   3   98.21    4.15
   1  -5   3   97.27    3.97
   1  -5   3   94.45    3.54
   1  -5   3   95.47    3.99
   1  -5   3   97.99    5.35
  -2   5  -3    9.50    0.54
  -2   5  -3    9.11    0.36
  -2   5  -3    7.97    0.48
   2  -5   3    8.68    0.48
   2  -5   3    9.59    0.36
   2  -5   3    8.74    0.41
   2  -5   3    9.45    0.49
   2  -5   3    8.79    0.38
   2  -5   3    8.74    0.51
  -3   5  -3   17.70    0.87
  -3   5  -3   17.70    0.75
  -3   5  -3   18.36    0.74
  -3   5  -3   19.90    0.88
  -3   5  -3   19.47    0.88
   3  -5   3   18.35    0.85
   3  -5   3   18.33    0.83
   3  -5   3   19.35    0.85
   3  -5   3   17.22    0.82
  -4   5  -3   28.37    1.51
  -4   5  -3   28.45    1.20
  -4   5  -3   30.24    1.40
  -4   5  -3   27.47    1.35
  -4   5  -3   29.60    1.15
   4  -5   3   29.72    1.18
   4  -5   3   29.68    1.20
  -5   5  -3   41.36    1.74
  -5   5  -3   41.10    2.00
  -5   5  -3   36.75    1.95
   5  -5   3   39.41    1.62
   5  -5   3   42.43    1.54
  -6   5  -3   27.48    1.55
  -6   5  -3   32.08    1.54
   6  -5   3   28.32    1.21
   6  -5   3   29.16    1.32
  -7   5  -3    4.28    0.40
  -7   5  -3    3.98    0.54
   7  -5   3    3.25    0.36
   7  -5   3    5.04    0.42
  -8   5  -3    2.84    0.58
  -8   5  -3    2.45    0.33
   8  -5   3    1.87    0.33
   8   4  -3    1.97    0.36
   7   4  -3    0.53    0.25
  -7  -4   3    0.17    0.27
   6   4  -3    0.22    0.20
  -6  -4   3   -0.04    0.21
   5   4  -3    7.99    0.68
   5   4  -3   10.87    0.53
   5   4  -3    9.75    0.53
  -5  -4   3   11.09    0.51
   4   4  -3   41.14    1.71
   4   4  -3   43.94    1.64
   4   4  -3   40.14    2.21
  -4  -4   3   42.69    1.62
  -4  -4   3   41.24    2.49
   3   4  -3   61.48    2.40
   3   4  -3   61.86    2.86
   3   4  -3   59.82    2.15
  -3  -4   3   59.10    3.61
  -3  -4   3   60.71    2.57
  -3  -4   3   57.20    2.60
   2   4  -3  121.03    4.81
   2   4  -3  116.64    4.93
   2   4  -3  114.18    5.96
  -2  -4   3  117.04    5.20
  -2  -4   3  118.80    4.59
  -2  -4   3  123.41    5.06
   1   4  -3   12.36    0.55
   1   4  -3   12.11    0.58
   1   4  -3   11.88    0.47
  -1  -4   3   12.58    0.63
  -1  -4   3   11.27    0.59
  -1  -4   3   13.40    0.65
  -1  -4   3   11.70    0.46
   0   4  -3    6.09    0.35
   0   4  -3    5.52    0.35
   0   4  -3    5.75    0.37
   0  -4   3    5.49    0.37
   0  -4   3    5.09    0.37
   0  -4   3    6.39    0.35
  -1   4  -3    1.92    0.08
  -1   4  -3    1.70    0.23
  -1   4  -3    1.43    0.22
   1  -4   3    2.17    0.24
   1  -4   3    2.33    0.27
   1  -4   3    1.74    0.12
   1  -4   3    1.94    0.25
   1  -4   3    1.72    0.09
   1  -4   3    1.75    0.14
  -2   4  -3  147.08    5.75
  -2   4  -3  135.18    5.36
  -2   4  -3  135.34    5.47
  -2   4  -3  136.41    5.74
   2  -4   3  139.00    5.74
   2  -4   3  135.48    5.53
   2  -4   3  139.37    5.79
   2  -4   3  139.88    6.87
   2  -4   3  135.82    5.85
  -3   4  -3  287.94   10.94
  -3   4  -3  298.34   10.54
  -3   4  -3  287.26   15.25
  -3   4  -3  311.55   13.64
  -3   4  -3  295.73   10.43
   3  -4   3  296.56   11.23
   3  -4   3  284.06   11.91
   3  -4   3  298.50   12.54
   3  -4   3  286.73   15.58
  -4   4  -3  163.13    9.05
  -4   4  -3  190.36    8.04
  -4   4  -3  189.05    7.29
  -4   4  -3  175.47    7.19
   4  -4   3  181.16    7.50
   4  -4   3  173.54    7.40
   4  -4   3  182.17    7.76
  -5   4  -3    3.82    0.30
   5  -4   3    3.14    0.29
   5  -4   3    2.87    0.29
  -6   4  -3    3.53    0.30
   6  -4   3    3.69    0.30
   6  -4   3    4.11    0.35
  -7   4  -3    5.89    0.41
   7  -4   3    5.44    0.43
   7  -4   3    4.89    0.42
  -8   4  -3    0.17    0.27
   8  -4   3    0.11    0.26
   8   3  -3    1.24    0.41
  -8  -3   3    1.41    0.48
   7   3  -3   27.69    1.48
  -7  -3   3   27.45    1.41
   6   3  -3   16.01    0.77
  -6  -3   3   14.69    0.75
   5   3  -3    8.66    0.41
   5   3  -3    6.96    0.43
  -5  -3   3    7.85    0.41
  -5  -3   3    8.10    0.53
   4   3  -3   32.54    1.22
   4   3  -3   30.35    1.47
   4   3  -3   32.30    1.22
  -4  -3   3   31.06    1.28
  -4  -3   3   30.70    1.34
   3   3  -3  222.20    8.36
   3   3  -3  225.44    7.80
   3   3  -3  218.84    8.47
  -3  -3   3  224.77    9.53
  -3  -3   3  216.15    8.70
  -3  -3   3  225.46    8.10
   2   3  -3    4.34    0.30
   2   3  -3    4.71    0.22
   2   3  -3    4.16    0.22
  -2  -3   3    4.61    0.23
  -2  -3   3    4.66    0.24
  -2  -3   3    4.23    0.32
   1   3  -3  261.99   10.52
   1   3  -3  260.60   10.38
   1   3  -3  267.64   10.22
  -1  -3   3  278.22   10.23
  -1  -3   3  276.64   12.68
  -1  -3   3  272.04    9.72
  -1  -3   3  266.57   10.47
   0   3  -3  167.92    6.35
   0   3  -3  162.79    7.20
   0   3  -3  168.81    6.38
   0  -3   3  170.76    7.35
   0  -3   3  166.89    7.11
   0  -3   3  168.42    6.69
  -1   3  -3   33.94    1.31
  -1   3  -3   33.34    1.58
  -1   3  -3   33.91    1.35
   1  -3   3   33.42    1.34
   1  -3   3   31.92    1.29
   1  -3   3   35.15    1.56
   1  -3   3   35.24    1.53
   1  -3   3   33.16    1.39
   1  -3   3   33.18    1.46
  -2   3  -3  183.47    7.15
  -2   3  -3  180.69    6.46
  -2   3  -3  178.30    7.55
  -2   3  -3  172.59    7.16
   2  -3   3  179.26    8.60
   2  -3   3  178.99    6.78
   2  -3   3  180.41    7.52
   2  -3   3  180.96    6.70
   2  -3   3  184.29    6.73
  -3   3  -3  126.37    4.98
  -3   3  -3  128.53    4.75
  -3   3  -3  134.57    5.47
   3  -3   3  129.97    6.40
   3  -3   3  131.31    4.67
   3  -3   3  124.97    5.32
   3  -3   3  130.22    4.77
  -4   3  -3    0.08    0.14
  -4   3  -3    0.23    0.13
   4  -3   3    0.18    0.18
   4  -3   3    0.00    0.13
   4  -3   3    0.04    0.14
  -5   3  -3   30.21    1.90
  -5   3  -3   38.74    1.48
   5  -3   3   36.99    1.41
   5  -3   3   35.98    1.44
  -6   3  -3   30.51    1.23
   6  -3   3   30.17    1.21
   6  -3   3   27.43    1.37
  -7   3  -3   13.92    0.84
   7  -3   3   14.55    0.76
   7  -3   3   16.22    0.80
  -8   3  -3    6.33    0.55
   8  -3   3    6.63    0.57
   8   2  -3    9.43    0.56
  -8  -2   3    9.08    0.59
   7   2  -3    4.91    0.37
  -7  -2   3    4.05    0.37
   6   2  -3    6.23    0.37
  -6  -2   3    4.16    0.38
  -6  -2   3    5.38    0.37
   5   2  -3    0.26    0.14
   5   2  -3    0.52    0.16
  -5  -2   3    0.06    0.16
  -5  -2   3    0.39    0.17
   4   2  -3    0.94    0.18
   4   2  -3    0.58    0.14
  -4  -2   3    0.93    0.15
  -4  -2   3    0.75    0.18
   3   2  -3   60.45    2.37
   3   2  -3   58.33    2.43
  -3  -2   3   56.00    2.44
  -3  -2   3   58.11    2.15
  -3  -2   3   61.28    2.10
   2   2  -3  135.57    5.42
   2   2  -3  129.09    5.09
  -2  -2   3  137.21    5.21
  -2  -2   3  133.43    4.76
  -2  -2   3  134.74    4.79
   1   2  -3  100.66    4.83
   1   2  -3  105.09    4.74
  -1  -2   3  109.27    3.99
  -1  -2   3  111.87    4.23
  -1  -2   3  111.01    4.59
  -1  -2   3  102.20    4.35
   0   2  -3  538.67   22.99
   0   2  -3  481.20   21.54
   0   2  -3  505.09   20.01
   0  -2   3  496.29   22.07
   0  -2   3  547.41   18.77
   0  -2   3  517.78   22.11
   0  -2   3  541.88   21.40
  -1   2  -3  148.99    5.82
  -1   2  -3  161.01    7.67
  -1   2  -3  162.69    8.39
  -1   2  -3  156.44    5.90
   1  -2   3  161.50    6.11
   1  -2   3  152.64    5.86
   1  -2   3  164.57    6.24
   1  -2   3  162.75    6.36
   1  -2   3  155.57    7.32
  -2   2  -3  111.81    4.54
  -2   2  -3  104.89    4.54
  -2   2  -3  109.75    3.99
   2  -2   3  107.84    4.14
   2  -2   3  106.03    4.18
   2  -2   3  106.77    5.00
   2  -2   3  107.87    3.98
  -3   2  -3   65.49    2.71
  -3   2  -3   71.19    2.96
  -3   2  -3   67.83    3.19
   3  -2   3   69.04    2.85
   3  -2   3   65.28    3.09
   3  -2   3   70.56    2.51
   3  -2   3   69.41    2.48
  -4   2  -3    0.67    0.22
  -4   2  -3    0.90    0.16
   4  -2   3    0.71    0.12
   4  -2   3    0.87    0.17
  -5   2  -3   63.34    2.67
   5  -2   3   63.76    2.44
   5  -2   3   64.54    2.73
  -6   2  -3  105.64    4.53
   6  -2   3  101.05    4.11
   6  -2   3  105.72    5.01
  -7   2  -3   11.25    0.64
   7  -2   3    9.97    0.59
  -8   2  -3    3.61    0.40
   8  -2   3    4.59    0.45
   9   1  -3    3.79    0.43
  -9  -1   3    3.78    0.57
   8   1  -3    8.73    0.53
  -8  -1   3    8.61    0.55
   7   1  -3   -0.18    0.20
  -7  -1   3    0.41    0.22
   6   1  -3    1.98    0.23
  -6  -1   3    2.34    0.25
  -6  -1   3    1.61    0.23
   5   1  -3   56.82    3.18
   5   1  -3   62.50    2.34
  -5  -1   3   64.82    2.33
  -5  -1   3   62.70    2.45
   4   1  -3  183.87    6.86
   4   1  -3  175.48    7.61
  -4  -1   3  188.59    7.49
  -4  -1   3  180.69    7.64
  -4  -1   3  178.26    7.74
   3   1  -3    7.96    0.34
   3   1  -3    8.08    0.34
  -3  -1   3    7.98    0.40
  -3  -1   3    7.94    0.34
  -3  -1   3    7.66    0.37
   2   1  -3    2.27    0.13
   2   1  -3    2.05    0.13
  -2  -1   3    1.90    0.12
  -2  -1   3    2.32    0.14
   1   1  -3  427.63   17.22
  -1  -1   3  456.05   19.08
  -1  -1   3  466.57   17.23
  -1  -1   3  447.50   17.23
   0   1  -3   98.04    4.47
   0   1  -3   95.20    4.36
   0   1  -3  103.37    4.35
   0   1  -3  100.61    3.72
   0  -1   3   99.14    4.78
   0  -1   3  101.47    3.87
   0  -1   3  100.22    4.12
   0  -1   3   99.12    3.75
  -1   1  -3  484.80   18.82
  -1   1  -3  481.35   19.73
  -1   1  -3  486.04   20.76
   1  -1   3  468.41   20.74
   1  -1   3  487.06   18.18
   1  -1   3  513.91   18.83
   1  -1   3  496.13   19.66
  -2   1  -3  234.55   10.32
  -2   1  -3  225.11    8.80
  -2   1  -3  235.51    8.86
   2  -1   3  233.24    8.48
   2  -1   3  227.97   10.14
   2  -1   3  235.79    8.75
  -3   1  -3   40.68    1.85
  -3   1  -3   38.11    1.95
  -3   1  -3   41.72    1.54
   3  -1   3   39.10    1.95
   3  -1   3   40.74    1.62
   3  -1   3   41.84    1.60
  -4   1  -3   32.15    1.94
  -4   1  -3   34.66    1.63
   4  -1   3   36.58    1.49
   4  -1   3   37.14    1.39
  -5   1  -3   36.09    1.36
   5  -1   3   34.62    1.53
   5  -1   3   35.36    1.61
   5  -1   3   36.72    1.65
  -6   1  -3    1.23    0.26
   6  -1   3    1.21    0.27
   6  -1   3    1.70    0.29
  -7   1  -3    2.83    0.34
   7  -1   3    2.76    0.36
  -8   1  -3    3.43    0.51
   8  -1   3    3.46    0.51
   9   0  -3    9.34    0.60
  -9   0   3    9.49    0.63
   8   0  -3    0.64    0.26
  -8   0   3    0.43    0.27
   7   0  -3    2.97    0.35
  -7   0   3    2.94    0.38
   6   0  -3   -0.23    0.24
  -6   0   3   -0.05    0.26
  -6   0   3   -0.01    0.13
   5   0  -3   17.85    0.73
   5   0  -3   14.26    0.82
  -5   0   3   17.54    0.70
  -5   0   3   16.36    0.75
   4   0  -3    4.55    0.25
   4   0  -3    3.98    0.24
  -4   0   3    4.48    0.26
  -4   0   3    4.36    0.26
   3   0  -3    6.13    0.27
   3   0  -3    5.23    0.26
  -3   0   3    5.22    0.27
  -3   0   3    6.36    0.31
   2   0  -3   27.39    1.18
   2   0  -3   29.70    1.19
  -2   0   3   27.74    1.12
  -2   0   3   29.21    1.15
   1   0  -3  271.56    9.81
   1   0  -3  275.15   10.84
  -1   0   3  283.53   12.13
  -1   0   3  282.37   11.03
  -1   0   3  277.06    9.92
   0   0  -3  135.07    5.62
   0   0  -3  131.80    5.39
   0   0  -3  135.47    5.75
   0   0  -3  134.04    5.79
   0   0   3  141.39    6.53
   0   0   3  131.83    6.10
   0   0   3  131.70    5.40
  -1   0  -3   64.75    2.61
  -1   0  -3   66.04    2.62
  -1   0  -3   62.61    2.59
   1   0   3   62.82    2.62
   1   0   3   62.52    3.05
   1   0   3   65.40    2.39
   1   0   3   64.70    2.53
  -2   0  -3  147.31    6.09
  -2   0  -3  151.09    5.87
  -2   0  -3  143.15    5.84
   2   0   3  144.82    5.25
   2   0   3  143.75    5.96
   2   0   3  144.71    5.94
  -3   0  -3  134.25    6.46
  -3   0  -3  144.73    5.81
  -3   0  -3  145.74    5.60
   3   0   3  149.07    5.23
   3   0   3  146.78    5.50
  -4   0  -3   12.47    0.60
   4   0   3   14.90    0.64
   4   0   3   13.52    0.62
  -5   0  -3   83.78    3.48
   5   0   3   86.21    3.49
   5   0   3   90.24    3.82
  -6   0  -3    0.68    0.25
   6   0   3    0.39    0.27
   6   0   3    0.08    0.23
  -7   0  -3    0.74    0.39
   7   0   3    1.07    0.41
   8   0   3   19.67    1.17
   9  -1  -3    0.05    0.27
  -9   1   3    0.22    0.31
   8  -1  -3    0.64    0.25
  -8   1   3    0.60    0.28
   7  -1  -3    0.18    0.20
  -7   1   3    0.35    0.22
   6  -1  -3   41.89    1.66
  -6   1   3   41.20    1.61
  -6   1   3   44.08    1.85
   5  -1  -3   10.40    0.48
  -5   1   3   10.72    0.49
   4  -1  -3   22.28    0.83
   4  -1  -3   19.08    0.90
  -4   1   3   21.90    0.87
  -4   1   3   21.39    0.85
   3  -1  -3   35.53    1.42
   3  -1  -3   37.73    1.56
  -3   1   3   38.59    1.64
  -3   1   3   36.27    1.48
   2  -1  -3  180.71    6.64
  -2   1   3  163.35    7.24
  -2   1   3  183.69    6.83
   1  -1  -3  205.91    7.86
   1  -1  -3  186.02    6.98
  -1   1   3  191.12    8.07
  -1   1   3  199.72    8.48
   0  -1  -3   28.03    1.19
   0  -1  -3   27.66    1.12
   0  -1  -3   28.06    1.41
   0  -1  -3   27.40    1.15
   0   1   3   28.59    1.16
   0   1   3   29.38    1.45
   0   1   3   26.47    1.21
  -1  -1  -3    2.88    0.20
  -1  -1  -3    3.43    0.27
  -1  -1  -3    3.45    0.26
   1   1   3    3.08    0.15
   1   1   3    3.05    0.27
   1   1   3    3.07    0.21
   1   1   3    3.05    0.24
  -2  -1  -3   29.74    1.29
  -2  -1  -3   29.27    1.20
  -2  -1  -3   31.74    1.32
   2   1   3   28.46    1.22
   2   1   3   27.45    1.46
   2   1   3   30.86    1.09
  -3  -1  -3   40.91    1.57
   3   1   3   40.23    1.60
   3   1   3   42.82    1.60
  -4  -1  -3   76.50    3.07
   4   1   3   79.18    3.72
   4   1   3   75.81    2.93
  -5  -1  -3   38.86    1.56
   5   1   3   36.83    1.65
   5   1   3   36.44    1.50
   5   1   3   38.72    1.75
  -6  -1  -3    8.91    0.60
   6   1   3    8.66    0.61
  -7  -1  -3    3.21    0.41
   7   1   3    4.09    0.44
   9  -2  -3    0.86    0.39
  -9   2   3    0.61    0.43
   8  -2  -3    1.41    0.36
  -8   2   3    2.01    0.40
   7  -2  -3   12.18    0.62
  -7   2   3   12.87    0.63
   6  -2  -3    4.50    0.31
  -6   2   3    4.67    0.33
   5  -2  -3    0.01    0.15
  -5   2   3    0.07    0.17
   4  -2  -3    6.50    0.33
   4  -2  -3    6.75    0.32
  -4   2   3    6.16    0.33
  -4   2   3    6.82    0.35
   3  -2  -3    6.04    0.29
   3  -2  -3    5.23    0.28
  -3   2   3    5.88    0.30
  -3   2   3    5.68    0.28
   2  -2  -3    0.25    0.10
  -2   2   3    0.20    0.04
  -2   2   3    0.01    0.11
   1  -2  -3   10.62    0.48
   1  -2  -3   10.27    0.45
   1  -2  -3   11.58    0.48
  -1   2   3   10.55    0.47
  -1   2   3   10.18    0.51
  -1   2   3   10.39    0.53
   0  -2  -3   17.10    0.71
   0  -2  -3   16.42    0.73
   0  -2  -3   17.60    0.70
   0   2   3   16.03    0.75
   0   2   3   17.38    0.70
   0   2   3   17.41    0.63
  -1  -2  -3  155.14    6.09
  -1  -2  -3  152.14    6.10
  -1  -2  -3  153.17    8.66
   1   2   3  156.65    5.94
   1   2   3  144.93    8.39
   1   2   3  147.73    7.21
  -2  -2  -3   45.58    2.48
  -2  -2  -3   47.36    1.92
   2   2   3   45.26    1.88
   2   2   3   48.27    2.17
   2   2   3   48.46    2.22
  -3  -2  -3    8.42    0.50
   3   2   3    8.64    0.44
   3   2   3    8.57    0.47
  -4  -2  -3    4.23    0.40
   4   2   3    3.87    0.33
   4   2   3    4.07    0.41
  -5  -2  -3   26.13    1.20
   5   2   3   26.29    1.19
   5   2   3   25.96    1.18
  -6  -2  -3    8.38    0.55
   6   2   3    7.30    0.54
  -7  -2  -3   17.29    1.14
   7   2   3   16.51    1.15
   9  -3  -3    2.77    0.36
  -9   3   3    2.53    0.38
   8  -3  -3    0.23    0.23
  -8   3   3    0.43    0.27
   7  -3  -3    8.48    0.48
  -7   3   3    9.32    0.52
   6  -3  -3    0.90    0.27
  -6   3   3    1.04    0.24
   5  -3  -3   28.15    1.39
  -5   3   3   29.35    1.27
  -5   3   3   28.21    1.65
   4  -3  -3   17.51    0.81
  -4   3   3   16.43    0.69
  -4   3   3   18.17    0.79
   3  -3  -3  144.01    6.98
   3  -3  -3  155.30    6.78
  -3   3   3  153.82    5.61
  -3   3   3  151.90    5.48
  -3   3   3  143.57    6.79
   2  -3  -3    9.95    0.45
   2  -3  -3    9.30    0.43
  -2   3   3   10.07    0.45
  -2   3   3   11.07    0.57
  -2   3   3    9.67    0.56
   1  -3  -3    6.71    0.34
   1  -3  -3    6.64    0.35
   1  -3  -3    5.34    0.36
  -1   3   3    6.37    0.28
  -1   3   3    5.89    0.33
  -1   3   3    6.68    0.48
   0  -3  -3   26.83    1.08
   0  -3  -3   24.25    1.23
   0  -3  -3   24.47    1.19
   0   3   3   25.77    1.05
   0   3   3   24.33    1.32
   0   3   3   26.60    0.97
  -1  -3  -3   86.79    3.40
  -1  -3  -3   87.31    4.02
   1   3   3   90.72    3.19
   1   3   3   92.89    3.34
   1   3   3   81.26    3.92
  -2  -3  -3    0.88    0.19
  -2  -3  -3    1.55    0.23
   2   3   3    0.98    0.22
   2   3   3    1.30    0.19
  -3  -3  -3   28.98    1.15
   3   3   3   28.87    1.36
   3   3   3   28.42    1.17
  -4  -3  -3    1.95    0.29
   4   3   3    1.99    0.30
   4   3   3    1.86    0.27
  -5  -3  -3    0.16    0.37
   5   3   3    0.33    0.37
   5   3   3    0.05    0.29
  -6  -3  -3    6.04    0.60
   6   3   3    6.08    0.52
   9  -4  -3    0.53    0.28
  -9   4   3   -0.08    0.30
   8  -4  -3   18.56    1.10
   7  -4  -3    2.64    0.28
  -7   4   3    2.34    0.35
   6  -4  -3    4.10    0.31
  -6   4   3    5.14    0.44
   5  -4  -3    9.50    0.47
  -5   4   3    8.95    0.50
  -5   4   3    8.95    0.45
  -5   4   3    7.45    0.56
   4  -4  -3    5.75    0.33
  -4   4   3    5.82    0.32
  -4   4   3    5.98    0.35
   3  -4  -3    1.03    0.16
  -3   4   3    1.06    0.09
  -3   4   3    1.08    0.18
  -3   4   3    1.07    0.12
   2  -4  -3    1.84    0.19
  -2   4   3    2.01    0.12
  -2   4   3    1.98    0.21
  -2   4   3    1.53    0.17
   1  -4  -3    0.50    0.16
   1  -4  -3    0.47    0.13
  -1   4   3    0.47    0.11
  -1   4   3    0.45    0.13
  -1   4   3    0.53    0.16
   0  -4  -3   21.58    0.97
   0  -4  -3   22.31    1.42
   0  -4  -3   18.52    0.94
   0   4   3   21.66    1.04
   0   4   3   20.81    0.98
  -1  -4  -3   16.84    0.87
  -1  -4  -3   17.64    0.86
   1   4   3   18.15    0.86
   1   4   3   18.86    0.80
  -2  -4  -3   12.71    0.62
   2   4   3   12.27    0.63
   2   4   3   13.34    0.59
  -3  -4  -3   10.35    0.62
   3   4   3   10.61    0.68
  -4  -4  -3   29.55    2.81
   4   4   3   26.88    1.57
   4   4   3   28.89    1.23
  -5  -4  -3    2.51    0.39
   5   4   3    2.43    0.38
   8  -5  -3    0.30    0.25
  -8   5   3   -0.21    0.27
  -8   5   3    0.35    0.33
   7  -5  -3   10.45    0.59
  -7   5   3    9.15    0.62
  -7   5   3   12.00    0.61
   6  -5  -3    1.49    0.23
  -6   5   3    1.52    0.24
  -6   5   3    1.73    0.27
   5  -5  -3    4.87    0.35
  -5   5   3    5.00    0.35
  -5   5   3    5.20    0.33
   4  -5  -3   21.57    1.18
  -4   5   3   20.51    0.97
  -4   5   3   19.46    0.89
  -4   5   3   20.45    1.23
   3  -5  -3    9.52    0.52
  -3   5   3   10.21    0.39
  -3   5   3   10.10    0.53
  -3   5   3   10.63    0.46
   2  -5  -3    2.21    0.17
   2  -5  -3    2.25    0.28
  -2   5   3    2.57    0.12
  -2   5   3    1.85    0.28
   1  -5  -3   99.19    4.04
   1  -5  -3   86.45    4.33
   1  -5  -3   98.78    4.88
  -1   5   3   97.05    4.80
  -1   5   3  100.69    5.06
   0  -5  -3    3.17    0.30
   0  -5  -3    3.58    0.22
   0  -5  -3    3.78    0.30
   0   5   3    4.07    0.32
   0   5   3    4.12    0.26
  -1  -5  -3   19.37    0.97
  -1  -5  -3   13.45    1.14
   1   5   3   17.52    0.85
  -2  -5  -3    0.69    0.33
   2   5   3    1.32    0.34
  -3  -5  -3   13.46    0.74
   3   5   3   11.52    0.67
  -4  -5  -3    0.28    0.40
   4   5   3    0.76    0.41
   4   5   3    0.90    0.41
  -5  -5  -3    1.97    0.42
   5   5   3    2.92    0.41
   8  -6  -3    0.40    0.27
  -8   6   3   -0.12    0.29
   7  -6  -3    2.84    0.32
  -7   6   3    3.15    0.35
   6  -6  -3    5.85    0.44
  -6   6   3    5.39    0.46
   5  -6  -3   19.61    0.99
  -5   6   3   20.93    0.89
  -5   6   3   18.22    1.35
   4  -6  -3    0.92    0.22
  -4   6   3    1.33    0.24
  -4   6   3    1.40    0.26
   3  -6  -3    2.80    0.34
  -3   6   3    2.99    0.35
   2  -6  -3    0.49    0.18
   2  -6  -3    0.26    0.20
  -2   6   3    0.42    0.21
   1  -6  -3    0.02    0.19
  -1   6   3    0.27    0.20
   0  -6  -3    0.95    0.24
   0   6   3    1.17    0.24
  -1  -6  -3    0.02    0.23
   1   6   3   -0.04    0.21
  -2  -6  -3    2.49    0.35
   2   6   3    2.02    0.31
  -3  -6  -3    7.78    0.61
   3   6   3    6.85    0.68
   3   6   3    7.81    0.54
  -4  -6  -3    4.49    0.47
   4   6   3    3.92    0.59
   4   6   3    5.05    0.48
   7  -7  -3    1.92    0.40
  -7   7   3    2.48    0.46
   6  -7  -3   -0.15    0.23
  -6   7   3    0.48    0.26
   5  -7  -3    3.92    0.35
  -5   7   3    3.67    0.36
   4  -7  -3    7.72    0.48
  -4   7   3    8.23    0.50
   3  -7  -3    0.29    0.23
  -3   7   3    0.07    0.22
   2  -7  -3   27.25    1.39
  -2   7   3   25.22    1.76
   1  -7  -3    6.68    0.45
  -1   7   3    6.19    0.44
   0  -7  -3    5.04    0.44
   0   7   3    4.88    0.40
  -1  -7  -3    2.82    0.36
   1   7   3    2.27    0.33
  -2  -7  -3    6.88    0.58
   2   7   3    6.55    0.55
   2   7   3    5.73    0.70
  -3  -7  -3    0.11    0.34
   3   7   3    0.46    0.54
   3   7   3    0.56    0.33
   6  -8  -3    0.89    0.31
  -6   8   3    1.16    0.33
   5  -8  -3    0.79    0.29
  -5   8   3    0.64    0.30
   4  -8  -3    1.17    0.30
  -4   8   3    1.66    0.32
   3  -8  -3   16.45    1.04
  -3   8   3   16.67    1.09
   2  -8  -3    2.99    0.36
  -2   8   3    3.21    0.35
   1  -8  -3    0.76    0.30
  -1   8   3    0.28    0.24
   0  -8  -3   -0.03    0.42
   0   8   3   -0.10    0.36
   1   8   3    0.80    0.43
   1   8   3    0.12    0.80
  -5   9   3    9.61    0.64
  -4   9   3    0.21    0.29
  -3   9   3    0.80    0.30
  -2   9   3    2.23    0.45
  -1   9   3    1.00    0.68
  -1   9   3    0.25    0.41
   1  11  -4    0.06    0.53
   0  11  -4    0.76    0.54
  -1  11  -4   -0.22    0.48
  -2  11  -4    1.53    0.54
  -3  11  -4   -0.28    0.44
  -3  11  -4    0.22    0.50
  -4  11  -4    1.26    0.46
  -4  11  -4    1.09    0.52
   3  10  -4    1.42    0.20
   3  10  -4    1.68    0.55
   2  10  -4    9.27    0.92
   2  10  -4    7.98    0.79
   1  10  -4    0.19    0.67
   1  10  -4    0.12    0.12
   0  10  -4    0.49    0.46
   0  10  -4    0.46    0.12
  -1  10  -4   12.43    0.94
  -1  10  -4   12.25    1.27
  -2  10  -4    3.36    0.24
  -2  10  -4    2.82    0.52
  -3  10  -4    8.50    0.70
  -3  10  -4    8.08    0.68
  -3  10  -4    8.74    0.53
  -4  10  -4    0.74    0.17
  -4  10  -4    0.62    0.44
  -4  10  -4    1.19    0.41
  -5  10  -4    2.91    0.54
  -5  10  -4    2.44    0.45
  -5  10  -4    3.16    0.26
  -6  10  -4    0.08    0.47
  -6  10  -4   -0.02    0.16
   4   9  -4    5.33    0.42
   4   9  -4    5.82    0.80
   3   9  -4   13.78    1.04
   3   9  -4   13.72    0.91
   3   9  -4   13.99    1.16
   2   9  -4    5.12    0.61
   2   9  -4    4.91    0.29
   2   9  -4    4.93    0.49
   1   9  -4    1.72    0.62
   1   9  -4    2.39    0.20
   0   9  -4   10.04    0.55
   0   9  -4    9.76    0.73
  -1   9  -4    1.73    0.12
  -1   9  -4    1.25    0.43
   1  -9   4    1.71    0.19
  -2   9  -4    6.31    0.56
  -2   9  -4    6.59    0.47
  -2   9  -4    7.14    0.61
  -3   9  -4    0.53    0.11
  -3   9  -4    0.98    0.38
  -3   9  -4    0.11    0.34
  -4   9  -4    3.22    0.44
  -4   9  -4    2.97    0.47
  -4   9  -4    2.86    0.24
  -5   9  -4    2.69    0.39
  -5   9  -4    2.40    0.21
  -5   9  -4    2.23    0.47
  -6   9  -4    0.32    0.22
  -6   9  -4    0.44    0.46
   5   8  -4    6.76    0.49
   5   8  -4    6.10    0.50
   5   8  -4    5.85    0.60
   4   8  -4    7.64    0.65
   4   8  -4    6.26    0.49
   4   8  -4    7.17    0.44
   3   8  -4   12.33    0.67
   3   8  -4   11.96    0.64
   3   8  -4   11.95    0.79
   2   8  -4   36.79    1.72
   2   8  -4   35.16    2.00
   2   8  -4   35.39    1.92
   1   8  -4    0.71    0.40
   1   8  -4    0.33    0.08
   1   8  -4    0.48    0.20
   0   8  -4   54.10    2.46
   0   8  -4   58.01    2.68
   0   8  -4   59.34    3.14
   0  -8   4   47.53    3.45
  -1   8  -4    4.50    0.46
  -1   8  -4    3.96    0.18
  -1   8  -4    4.03    0.20
  -1   8  -4    3.96    0.48
   1  -8   4    3.86    0.26
   1  -8   4    3.28    0.20
  -2   8  -4    0.35    0.30
  -2   8  -4    0.33    0.08
  -2   8  -4    0.52    0.08
  -2   8  -4    0.65    0.35
   2  -8   4    0.49    0.13
  -3   8  -4    6.18    0.39
  -3   8  -4    7.14    0.61
  -3   8  -4    6.80    0.53
   3  -8   4    5.85    0.35
  -4   8  -4   26.74    1.28
  -4   8  -4   26.63    1.20
  -4   8  -4   24.56    1.29
   4  -8   4   22.97    1.48
  -5   8  -4    1.00    0.16
  -5   8  -4    1.37    0.40
  -5   8  -4    1.01    0.28
   5  -8   4    1.04    0.20
  -6   8  -4    6.28    0.37
  -6   8  -4    5.38    0.75
  -7   8  -4    1.19    0.54
  -7   8  -4    2.23    0.34
   6   7  -4   29.17    2.02
   5   7  -4    1.78    0.23
   5   7  -4    1.28    0.51
   4   7  -4    3.97    0.35
   4   7  -4    4.32    2.66
   4   7  -4    4.16    0.28
   3   7  -4    5.68    0.54
   3   7  -4    5.46    0.48
   3   7  -4    6.14    0.33
   2   7  -4   10.42    0.55
   2   7  -4   11.63    0.68
   2   7  -4   11.74    0.53
   2   7  -4   11.64    0.71
  -2  -7   4   12.01    0.49
   1   7  -4   37.45    1.62
   1   7  -4   36.42    1.61
   1   7  -4   34.84    1.70
  -1  -7   4   32.98    1.72
  -1  -7   4   31.55    2.39
   0   7  -4   59.53    2.68
   0   7  -4   57.91    2.32
   0   7  -4   57.57    2.21
   0   7  -4   55.49    2.50
   0  -7   4   54.41    2.44
   0  -7   4   53.60    3.29
  -1   7  -4    9.35    0.58
  -1   7  -4   10.88    0.71
  -1   7  -4    9.04    0.39
  -1   7  -4    9.65    0.41
   1  -7   4    9.52    0.41
   1  -7   4    9.68    0.44
   1  -7   4    8.97    0.48
  -2   7  -4    5.55    0.26
  -2   7  -4    6.35    0.48
  -2   7  -4    6.12    0.47
  -2   7  -4    5.54    0.36
   2  -7   4    5.38    0.31
   2  -7   4    5.83    0.30
   2  -7   4    4.92    0.29
  -3   7  -4    0.32    0.28
  -3   7  -4    0.15    0.08
  -3   7  -4    0.14    0.28
  -3   7  -4    0.31    0.12
   3  -7   4    0.25    0.11
   3  -7   4    0.19    0.15
  -4   7  -4    7.11    0.41
  -4   7  -4    5.99    0.52
  -4   7  -4    7.48    0.52
   4  -7   4    6.40    0.40
   4  -7   4    6.48    0.35
  -5   7  -4    1.47    0.39
  -5   7  -4    1.25    0.22
  -5   7  -4    1.24    0.22
   5  -7   4    1.21    0.29
  -6   7  -4    2.72    0.47
  -6   7  -4    2.38    0.24
   6  -7   4    2.02    0.35
  -7   7  -4    7.38    0.70
  -7   7  -4    7.78    0.45
   7  -7   4    6.49    0.47
   7   6  -4    4.24    0.39
   6   6  -4    2.51    0.38
   6   6  -4    3.51    0.31
   5   6  -4    1.21    0.32
   5   6  -4    1.05    0.21
   4   6  -4   36.49    2.03
   4   6  -4   42.69    1.80
  -4  -6   4   40.36    1.82
   3   6  -4   92.65    3.68
   3   6  -4   92.32    4.79
   3   6  -4   93.48    3.83
   3   6  -4   90.61    4.20
  -3  -6   4   89.77    4.50
   2   6  -4   59.96    2.79
   2   6  -4   61.37    2.78
   2   6  -4   60.23    2.50
   2   6  -4   56.23    2.74
  -2  -6   4   57.82    2.47
  -2  -6   4   59.81    2.61
   1   6  -4    9.81    0.58
   1   6  -4    8.37    0.48
   1   6  -4    8.71    0.40
   1   6  -4    9.54    0.50
  -1  -6   4    8.41    0.45
  -1  -6   4    9.28    0.56
   0   6  -4   74.71    3.12
   0   6  -4   73.42    3.15
   0   6  -4   76.16    2.92
  -1   6  -4   34.15    1.34
  -1   6  -4   32.65    1.62
   1  -6   4   33.31    1.23
  -2   6  -4   61.44    2.70
  -2   6  -4   56.08    2.22
  -2   6  -4   57.63    2.68
   2  -6   4   54.28    2.39
   2  -6   4   51.40    2.89
   2  -6   4   55.29    2.06
   2  -6   4   56.34    3.29
  -3   6  -4   29.14    1.36
  -3   6  -4   29.22    1.34
  -3   6  -4   30.40    1.42
  -3   6  -4   31.34    1.29
   3  -6   4   29.04    1.37
   3  -6   4   26.09    1.47
   3  -6   4   26.07    1.75
   3  -6   4   29.96    1.35
  -4   6  -4    3.32    0.23
  -4   6  -4    2.74    0.21
  -4   6  -4    3.11    0.28
  -4   6  -4    3.07    0.48
   4  -6   4    3.36    0.27
   4  -6   4    3.09    0.23
  -5   6  -4    0.26    0.32
  -5   6  -4   -0.09    0.19
   5  -6   4   -0.03    0.19
   5  -6   4   -0.18    0.19
  -6   6  -4   11.14    0.75
  -6   6  -4   11.61    0.66
   6  -6   4   11.60    0.55
   6  -6   4   11.24    0.59
  -7   6  -4    4.83    0.60
  -7   6  -4    4.20    0.35
   7  -6   4    4.44    0.41
  -8   6  -4    3.13    0.84
  -8   6  -4    2.51    0.34
   7   5  -4    1.08    0.27
   6   5  -4    0.28    0.27
  -6  -5   4    0.07    0.22
   5   5  -4   42.21    2.10
   5   5  -4   46.34    2.18
  -5  -5   4   45.64    2.19
   4   5  -4  230.18    9.96
   4   5  -4  249.77   10.08
   4   5  -4  235.53   14.04
  -4  -5   4  245.54    9.59
   3   5  -4   36.66    1.73
   3   5  -4   36.19    1.53
   3   5  -4   37.95    1.55
  -3  -5   4   36.48    1.66
   2   5  -4    0.56    0.18
   2   5  -4    0.34    0.25
   2   5  -4    0.28    0.07
   2   5  -4    0.24    0.07
  -2  -5   4    0.27    0.08
   1   5  -4   11.52    0.61
   1   5  -4   12.11    0.59
   1   5  -4   12.18    0.59
   1   5  -4   12.87    0.61
  -1  -5   4   11.05    0.68
  -1  -5   4   11.71    0.45
  -1  -5   4   11.44    0.67
  -1  -5   4   12.42    0.71
   0   5  -4   16.26    0.75
   0   5  -4   15.97    0.76
   0   5  -4   16.32    0.72
   0  -5   4   18.75    0.84
   0  -5   4   16.75    0.78
  -1   5  -4   38.90    1.56
  -1   5  -4   36.51    1.51
   1  -5   4   33.96    2.04
   1  -5   4   36.38    1.33
   1  -5   4   33.91    1.35
   1  -5   4   35.87    1.52
   1  -5   4   36.26    1.50
   1  -5   4   33.73    1.36
  -2   5  -4   87.24    4.06
  -2   5  -4   91.69    3.24
  -2   5  -4   90.81    3.41
   2  -5   4   92.47    5.17
   2  -5   4   88.38    3.49
   2  -5   4   89.39    3.33
   2  -5   4   89.95    3.88
  -3   5  -4   43.39    1.56
  -3   5  -4   39.93    1.78
  -3   5  -4   41.32    1.98
  -3   5  -4   40.25    1.77
   3  -5   4   41.17    1.59
   3  -5   4   40.57    2.17
   3  -5   4   41.54    1.94
   3  -5   4   38.20    1.88
  -4   5  -4   26.37    1.06
  -4   5  -4   22.26    1.14
  -4   5  -4   24.21    1.07
   4  -5   4   22.03    1.14
   4  -5   4   24.66    0.98
   4  -5   4   24.91    1.12
  -5   5  -4    0.90    0.18
  -5   5  -4    1.56    0.48
  -5   5  -4    1.05    0.25
   5  -5   4    1.28    0.25
   5  -5   4    1.08    0.18
  -6   5  -4    9.26    0.50
  -6   5  -4    9.28    0.68
   6  -5   4    8.49    0.56
   6  -5   4    8.46    0.50
  -7   5  -4    0.16    0.22
  -7   5  -4    0.12    0.43
   7  -5   4   -0.05    0.21
   7  -5   4   -0.36    0.28
  -8   5  -4   -0.24    0.26
  -8   5  -4   -0.41    0.52
   8   4  -4    8.36    0.62
   7   4  -4   13.33    0.84
  -7  -4   4   13.62    0.73
   6   4  -4   50.09    2.75
  -6  -4   4   49.15    2.36
   5   4  -4   10.64    0.67
   5   4  -4   12.33    0.57
  -5  -4   4   13.01    0.56
   4   4  -4   -0.19    0.20
   4   4  -4    0.16    0.12
   4   4  -4    0.08    0.12
  -4  -4   4   -0.20    0.36
  -4  -4   4   -0.01    0.12
   3   4  -4   11.31    0.99
   3   4  -4   10.29    0.54
   3   4  -4   10.77    0.44
  -3  -4   4    9.83    0.56
  -3  -4   4   10.20    0.46
  -3  -4   4   10.44    0.44
   2   4  -4   43.51    1.60
   2   4  -4   42.48    1.60
   2   4  -4   43.03    1.64
  -2  -4   4   43.04    2.33
  -2  -4   4   41.20    1.78
  -2  -4   4   43.91    1.75
  -2  -4   4   43.34    1.75
   1   4  -4  376.16   13.52
   1   4  -4  385.14   14.45
   1   4  -4  385.07   14.42
  -1  -4   4  407.96   16.12
  -1  -4   4  379.16   15.59
   0   4  -4  419.86   15.89
   0   4  -4  400.61   16.42
   0   4  -4  402.84   15.24
   0  -4   4  408.09   16.84
   0  -4   4  409.61   16.18
   0  -4   4  403.05   19.85
  -1   4  -4    1.68    0.24
  -1   4  -4    2.46    0.14
  -1   4  -4    2.45    0.24
  -1   4  -4    2.12    0.10
   1  -4   4    2.33    0.18
   1  -4   4    1.98    0.10
   1  -4   4    2.42    0.11
   1  -4   4    2.14    0.22
   1  -4   4    1.72    0.22
  -2   4  -4   42.07    1.62
  -2   4  -4   43.43    1.66
  -2   4  -4   42.60    1.89
   2  -4   4   41.45    2.16
   2  -4   4   42.69    1.55
   2  -4   4   41.88    1.72
   2  -4   4   41.78    2.05
   2  -4   4   40.27    1.58
  -3   4  -4  167.18    8.69
  -3   4  -4  187.04    7.03
  -3   4  -4  175.63    8.24
  -3   4  -4  182.67    6.43
   3  -4   4  171.21    7.64
   3  -4   4  174.06    6.74
   3  -4   4  190.04    7.04
   3  -4   4  178.18    6.89
  -4   4  -4    3.63    0.23
  -4   4  -4    3.31    0.28
  -4   4  -4    4.27    0.40
   4  -4   4    3.01    0.35
   4  -4   4    3.35    0.23
   4  -4   4    3.08    0.26
  -5   4  -4   68.25    2.62
   5  -4   4   68.72    2.45
   5  -4   4   58.44    4.19
   5  -4   4   68.11    2.67
  -6   4  -4   16.21    0.73
   6  -4   4   15.73    0.74
   6  -4   4   14.99    0.77
  -7   4  -4    0.05    0.22
   7  -4   4    0.04    0.23
   7  -4   4    0.11    0.29
  -8   4  -4    0.40    0.29
   8  -4   4    0.54    0.30
   8   3  -4   23.30    1.29
  -8  -3   4   21.92    1.55
   7   3  -4   29.55    1.57
  -7  -3   4   28.28    1.38
   6   3  -4    3.88    0.30
  -6  -3   4    4.04    0.32
   5   3  -4   36.41    1.97
   5   3  -4   40.84    1.63
  -5  -3   4   40.98    1.53
  -5  -3   4   36.00    2.01
   4   3  -4   23.75    1.01
   4   3  -4   21.36    1.08
  -4  -3   4   24.31    2.20
  -4  -3   4   21.60    1.17
   3   3  -4   33.11    1.56
   3   3  -4   34.47    1.41
  -3  -3   4   32.78    1.39
  -3  -3   4   32.85    1.17
  -3  -3   4   31.25    1.26
   2   3  -4  441.34   15.63
   2   3  -4  437.38   15.72
  -2  -3   4  424.95   15.94
  -2  -3   4  428.74   16.99
  -2  -3   4  430.11   15.44
  -2  -3   4  433.01   17.20
   1   3  -4  251.07   10.84
   1   3  -4  267.03   11.58
  -1  -3   4  260.64   10.50
  -1  -3   4  258.87   10.97
  -1  -3   4  245.88    9.41
  -1  -3   4  268.97   10.94
   0   3  -4    1.00    0.06
   0   3  -4    1.03    0.24
   0  -3   4    0.95    0.07
   0  -3   4    0.73    0.05
   0  -3   4    0.47    0.18
  -1   3  -4   15.01    0.66
  -1   3  -4   15.14    0.54
  -1   3  -4   15.40    0.64
   1  -3   4   13.73    0.62
   1  -3   4   15.77    0.69
   1  -3   4   14.30    0.69
   1  -3   4   14.26    0.69
   1  -3   4   13.92    0.65
   1  -3   4   15.37    0.54
  -2   3  -4   19.86    1.06
  -2   3  -4   20.25    0.79
  -2   3  -4   19.27    1.46
  -2   3  -4   20.31    0.82
   2  -3   4   20.06    1.34
   2  -3   4   20.74    1.44
   2  -3   4   19.76    0.84
   2  -3   4   20.24    1.02
   2  -3   4   20.08    1.23
  -3   3  -4   92.37    4.19
  -3   3  -4  101.48    3.48
  -3   3  -4  102.89    5.21
  -3   3  -4   99.96    3.70
   3  -3   4  101.53    3.54
   3  -3   4   97.51    3.77
   3  -3   4   93.86    5.09
   3  -3   4   99.47    4.22
  -4   3  -4   61.56    2.33
  -4   3  -4   59.21    2.48
   4  -3   4   63.52    2.25
   4  -3   4   61.96    2.28
   4  -3   4   55.70    2.96
  -5   3  -4   30.43    1.18
   5  -3   4   25.26    1.35
   5  -3   4   29.61    1.17
   5  -3   4   30.05    1.17
  -6   3  -4   40.12    1.80
   6  -3   4   38.96    1.73
   6  -3   4   41.09    1.86
  -7   3  -4    5.73    0.44
   7  -3   4    6.24    0.45
   7  -3   4    7.36    0.59
  -8   3  -4    8.74    0.55
   8  -3   4    7.04    0.54
   8   2  -4    0.27    0.25
  -8  -2   4    0.33    0.28
   7   2  -4    0.86    0.23
  -7  -2   4    0.47    0.23
   6   2  -4   17.88    0.78
  -6  -2   4   16.97    0.80
  -6  -2   4   13.05    0.92
   5   2  -4   74.83    2.81
   5   2  -4   67.29    3.84
  -5  -2   4   72.25    3.39
  -5  -2   4   75.19    2.89
   4   2  -4  136.84    9.23
   4   2  -4  141.55    5.15
  -4  -2   4  143.06    5.04
  -4  -2   4  140.96    5.85
   3   2  -4   27.90    1.09
   3   2  -4   28.23    1.17
  -3  -2   4   29.72    1.06
  -3  -2   4   29.35    1.13
  -3  -2   4   28.92    1.27
   2   2  -4    8.03    0.35
   2   2  -4    7.93    0.37
  -2  -2   4    8.09    0.33
  -2  -2   4    8.49    0.41
  -2  -2   4    8.15    0.49
   1   2  -4    7.06    0.34
   1   2  -4    7.71    0.32
   1   2  -4    7.85    0.39
  -1  -2   4    7.28    0.29
  -1  -2   4    7.66    0.37
  -1  -2   4    7.75    0.33
   0   2  -4    2.95    0.20
   0   2  -4    2.23    0.14
   0   2  -4    2.50    0.23
   0   2  -4    2.42    0.12
   0  -2   4    2.32    0.12
   0  -2   4    2.10    0.18
   0  -2   4    2.58    0.16
  -1   2  -4  320.71   15.01
  -1   2  -4  327.00   14.67
  -1   2  -4  342.53   16.04
   1  -2   4  324.17   12.09
   1  -2   4  339.38   14.36
   1  -2   4  309.90   13.40
   1  -2   4  338.28   14.02
  -2   2  -4  628.16   25.59
  -2   2  -4  637.59   26.93
  -2   2  -4  607.15   26.86
   2  -2   4  638.67   26.38
   2  -2   4  650.00   23.62
   2  -2   4  634.60   23.75
   2  -2   4  602.95   31.74
  -3   2  -4   76.16    2.82
  -3   2  -4   75.65    4.18
   3  -2   4   77.62    2.68
   3  -2   4   75.22    2.94
  -4   2  -4    0.52    0.16
  -4   2  -4    0.26    0.17
   4  -2   4    0.19    0.11
   4  -2   4    0.66    0.23
   4  -2   4    0.20    0.16
  -5   2  -4   34.06    1.38
   5  -2   4   30.10    1.86
   5  -2   4   36.31    1.49
   5  -2   4   36.32    1.45
  -6   2  -4    3.65    0.40
   6  -2   4    4.22    0.39
   6  -2   4    3.04    0.40
  -7   2  -4   24.39    1.19
   7  -2   4   23.86    1.22
   7  -2   4   26.27    1.29
  -8   2  -4   10.89    0.76
   8  -2   4   11.64    0.69
   9   1  -4   10.04    0.66
  -9  -1   4    9.34    0.63
   8   1  -4   12.65    0.65
  -8  -1   4   12.12    0.81
   7   1  -4    0.28    0.28
  -7  -1   4    0.21    0.31
   6   1  -4   12.38    0.56
  -6  -1   4   11.44    0.64
  -6  -1   4   12.35    0.58
   5   1  -4  104.89    4.34
   5   1  -4   96.47    5.84
  -5  -1   4  104.37    3.84
  -5  -1   4  106.32    4.81
   4   1  -4    9.10    0.41
   4   1  -4    8.03    0.39
  -4  -1   4    8.43    0.43
  -4  -1   4    9.54    0.41
   3   1  -4   65.41    2.38
   3   1  -4   62.31    3.45
  -3  -1   4   62.77    2.50
  -3  -1   4   66.12    2.58
   2   1  -4  120.24    5.25
   2   1  -4  118.31    4.62
  -2  -1   4  119.06    4.85
  -2  -1   4  127.46    5.62
  -2  -1   4  117.00    4.33
   1   1  -4   35.96    1.68
   1   1  -4   37.43    1.48
   1   1  -4   36.96    1.51
  -1  -1   4   37.29    1.50
  -1  -1   4   36.59    1.41
  -1  -1   4   36.05    1.94
   0   1  -4  121.56    5.11
   0   1  -4  119.69    4.39
   0   1  -4  125.93    4.80
   0   1  -4  117.46    5.35
   0  -1   4  123.18    5.41
   0  -1   4  122.50    5.18
   0  -1   4  119.60    5.04
  -1   1  -4  306.26   14.38
  -1   1  -4  316.27   11.93
  -1   1  -4  315.80   14.44
   1  -1   4  327.92   12.91
   1  -1   4  324.58   14.91
   1  -1   4  302.90   17.40
   1  -1   4  310.37   15.07
  -2   1  -4   78.98    3.24
  -2   1  -4   74.24    3.54
  -2   1  -4   78.57    3.27
   2  -1   4   79.17    2.95
   2  -1   4   79.98    3.20
   2  -1   4   82.08    3.53
   2  -1   4   74.23    3.92
  -3   1  -4    0.09    0.14
  -3   1  -4    0.18    0.15
   3  -1   4    0.27    0.16
   3  -1   4    0.14    0.19
  -4   1  -4   22.44    0.90
   4  -1   4   22.14    0.93
   4  -1   4   22.98    0.95
  -5   1  -4   78.82    3.12
   5  -1   4   75.51    3.04
   5  -1   4   77.17    3.21
  -6   1  -4   28.67    1.27
   6  -1   4   30.15    1.26
   6  -1   4   29.47    1.40
  -7   1  -4    3.67    0.39
   7  -1   4    3.73    0.41
   7  -1   4    3.80    0.43
   9   0  -4    4.78    0.44
  -9   0   4    5.23    0.49
   8   0  -4    1.02    0.26
  -8   0   4    0.62    0.28
   7   0  -4    1.37    0.24
  -7   0   4    1.09    0.26
   6   0  -4   -0.08    0.16
  -6   0   4   -0.02    0.16
  -6   0   4    0.05    0.26
   5   0  -4   15.66    0.67
  -5   0   4   15.65    0.69
   4   0  -4    4.88    0.27
   4   0  -4    4.85    0.27
  -4   0   4    5.20    0.29
   3   0  -4   34.17    1.39
   3   0  -4   36.67    1.53
  -3   0   4   35.18    1.73
  -3   0   4   37.34    1.30
   2   0  -4  283.41   10.70
   2   0  -4  282.05   10.98
  -2   0   4  286.74   14.01
  -2   0   4  279.12   11.57
  -2   0   4  289.07   10.63
   1   0  -4  241.79   10.73
   1   0  -4  240.48   10.77
   1   0  -4  232.02    8.55
  -1   0   4  235.90    9.33
  -1   0   4  241.87   11.43
   0   0  -4    1.39    0.15
   0   0  -4    1.29    0.12
   0   0  -4    1.52    0.16
   0   0  -4    1.53    0.12
   0   0   4    1.84    0.17
   0   0   4    1.15    0.15
   0   0   4    1.43    0.14
  -1   0  -4   19.52    0.93
  -1   0  -4   19.55    0.83
  -1   0  -4   19.61    0.83
   1   0   4   20.88    0.88
   1   0   4   20.97    1.12
   1   0   4   21.30    0.78
   1   0   4   18.66    0.80
  -2   0  -4    1.00    0.25
  -2   0  -4    0.49    0.16
  -2   0  -4    0.51    0.17
   2   0   4    0.43    0.16
   2   0   4    0.53    0.19
   2   0   4    0.42    0.20
  -3   0  -4   52.50    2.00
   3   0   4   49.13    1.89
   3   0   4   49.85    1.87
  -4   0  -4  221.37    7.79
   4   0   4  218.43    8.53
   4   0   4  220.01    8.36
  -5   0  -4  107.68    5.09
   5   0   4  103.94    4.10
   5   0   4  103.07    5.02
  -6   0  -4   -0.11    0.34
   6   0   4    0.22    0.39
   6   0   4    0.14    0.36
  -7   0  -4    1.65    0.35
   7   0   4    0.87    0.34
   9  -1  -4    0.16    0.27
  -9   1   4    0.09    0.31
   8  -1  -4   10.63    0.56
  -8   1   4    9.41    0.58
   7  -1  -4    9.32    0.53
  -7   1   4    8.95    0.56
   6  -1  -4   79.27    3.55
  -6   1   4   83.19    3.19
   5  -1  -4    5.74    0.33
  -5   1   4    6.10    0.36
   4  -1  -4    4.02    0.24
   4  -1  -4    3.28    0.23
  -4   1   4    4.11    0.26
   3  -1  -4  114.30    4.92
   3  -1  -4  127.07    5.56
  -3   1   4  115.96    4.96
  -3   1   4  127.67    5.05
   2  -1  -4  161.79    6.38
   2  -1  -4  173.76    6.66
  -2   1   4  162.20    7.87
  -2   1   4  177.91    6.96
   1  -1  -4   34.13    1.37
   1  -1  -4   30.73    1.24
  -1   1   4   32.84    1.41
  -1   1   4   32.03    1.24
  -1   1   4   31.90    1.47
   0  -1  -4   73.68    3.25
   0  -1  -4   74.58    3.12
   0  -1  -4   75.07    3.20
   0   1   4   73.73    2.92
   0   1   4   75.12    3.21
   0   1   4   71.37    3.60
  -1  -1  -4   95.20    4.52
  -1  -1  -4   97.30    4.95
  -1  -1  -4   96.04    3.97
   1   1   4   92.75    4.04
   1   1   4   90.20    4.91
   1   1   4   94.59    3.64
  -2  -1  -4   83.18    3.72
  -2  -1  -4   82.53    4.39
  -2  -1  -4   87.81    4.46
   2   1   4   94.21    4.17
   2   1   4   85.22    3.33
   2   1   4   89.43    4.06
  -3  -1  -4   82.36    3.20
   3   1   4   90.09    4.17
   3   1   4   84.19    3.14
   3   1   4   81.50    3.19
  -4  -1  -4   26.64    1.30
   4   1   4   26.91    1.17
   4   1   4   26.03    1.18
  -5  -1  -4   -0.14    0.22
   5   1   4   -0.03    0.24
   5   1   4    0.21    0.25
  -6  -1  -4    1.57    0.33
   6   1   4    2.27    0.36
   6   1   4    2.16    0.36
  -7  -1  -4   17.27    1.23
   7   1   4   18.18    1.25
   9  -2  -4    0.19    0.27
  -9   2   4    0.24    0.30
   8  -2  -4   -0.10    0.32
  -8   2   4    0.10    0.38
   7  -2  -4    2.96    0.30
  -7   2   4    2.96    0.33
   6  -2  -4    1.10    0.21
   5  -2  -4    3.67    0.26
  -5   2   4    3.80    0.29
   4  -2  -4    7.98    0.38
  -4   2   4    8.27    0.41
   3  -2  -4   67.14    2.99
   3  -2  -4   71.29    2.70
  -3   2   4   65.12    2.80
  -3   2   4   70.95    2.67
  -3   2   4   69.03    3.47
   2  -2  -4   15.65    0.80
   2  -2  -4   17.26    0.71
  -2   2   4   16.42    0.66
  -2   2   4   15.16    0.97
   1  -2  -4    1.84    0.21
   1  -2  -4    1.43    0.17
  -1   2   4    1.77    0.19
  -1   2   4    1.43    0.19
  -1   2   4    1.54    0.19
   0  -2  -4  117.64    6.78
   0  -2  -4  132.17    4.92
   0  -2  -4  123.20    5.87
   0   2   4  115.94    6.56
   0   2   4  123.67    4.67
   0   2   4  125.55    4.90
  -1  -2  -4  327.21   15.15
  -1  -2  -4  322.03   12.21
   1   2   4  334.30   11.86
   1   2   4  320.64   12.41
  -2  -2  -4   23.18    0.93
   2   2   4   22.52    0.94
   2   2   4   22.39    0.89
  -3  -2  -4   66.35    2.91
   3   2   4   66.65    2.78
   3   2   4   66.62    2.49
   3   2   4   65.03    3.12
  -4  -2  -4    2.79    0.39
   4   2   4    2.33    0.40
   4   2   4    2.62    0.37
  -5  -2  -4    1.07    0.30
   5   2   4    0.82    0.28
   5   2   4    0.98    0.30
  -6  -2  -4   24.83    1.53
   6   2   4   23.95    1.40
   9  -3  -4    0.71    0.39
  -9   3   4    0.41    0.32
   8  -3  -4    6.02    0.42
   7  -3  -4    7.91    0.50
  -7   3   4    8.58    0.53
   6  -3  -4   15.04    0.74
  -6   3   4   14.89    0.72
   5  -3  -4    2.16    0.27
  -5   3   4    2.03    0.30
   4  -3  -4   30.28    1.62
  -4   3   4   32.70    1.31
  -4   3   4   32.04    1.28
   3  -3  -4   62.50    2.47
  -3   3   4   64.64    2.90
   2  -3  -4    0.99    0.22
  -2   3   4    0.80    0.22
  -2   3   4    0.78    0.13
   1  -3  -4   10.79    0.47
   1  -3  -4   13.24    0.75
  -1   3   4   11.60    0.68
  -1   3   4   10.20    0.56
   0  -3  -4   89.41    5.41
   0  -3  -4  100.14    3.81
   0   3   4  102.52    3.81
   0   3   4   98.18    3.95
  -1  -3  -4    3.99    0.36
  -1  -3  -4    3.80    0.33
   1   3   4    3.32    0.36
   1   3   4    3.83    0.26
  -2  -3  -4   27.34    1.13
   2   3   4   26.37    1.12
   2   3   4   26.75    1.13
  -3  -3  -4   37.03    1.44
   3   3   4   36.95    1.99
   3   3   4   35.14    1.56
  -4  -3  -4   47.01    2.11
   4   3   4   46.23    2.19
   4   3   4   47.77    2.58
  -5  -3  -4   14.43    0.95
   5   3   4   14.97    0.87
  -6  -3  -4   -0.01    0.35
   6   3   4    0.52    0.34
   9  -4  -4    0.62    0.29
  -9   4   4    0.40    0.33
   8  -4  -4    0.05    0.23
  -8   4   4    0.22    0.28
   7  -4  -4   -0.04    0.21
  -7   4   4   -0.23    0.24
  -7   4   4    0.31    0.22
   6  -4  -4    4.79    0.33
  -6   4   4    4.34    0.32
  -6   4   4    4.66    0.37
   5  -4  -4    0.74    0.20
  -5   4   4    0.72    0.22
  -5   4   4    0.85    0.19
   4  -4  -4    1.42    0.38
  -4   4   4    2.36    0.31
   3  -4  -4    3.84    0.28
  -3   4   4    3.52    0.28
  -3   4   4    3.00    0.21
   2  -4  -4   26.09    1.43
  -2   4   4   25.64    1.44
  -2   4   4   25.22    1.18
   1  -4  -4   20.39    0.92
   1  -4  -4   16.29    0.82
   1  -4  -4   19.76    0.89
  -1   4   4   19.27    0.98
  -1   4   4   18.78    0.74
   0  -4  -4   46.96    3.72
   0  -4  -4   44.95    1.91
   0   4   4   44.31    1.94
   0   4   4   44.08    1.99
  -1  -4  -4    9.11    0.50
   1   4   4    8.71    0.50
   1   4   4    8.91    0.42
  -2  -4  -4    5.97    0.44
   2   4   4    6.49    0.43
   2   4   4    7.19    0.47
  -3  -4  -4   50.34    2.95
   3   4   4   53.09    3.15
   3   4   4   50.07    2.37
  -4  -4  -4   29.13    1.71
   4   4   4   28.64    1.50
  -5  -4  -4   11.28    0.71
   5   4   4   10.52    0.76
   8  -5  -4    1.43    0.40
  -8   5   4    2.12    0.46
   7  -5  -4    2.72    0.32
  -7   5   4    2.81    0.34
   6  -5  -4    0.36    0.21
  -6   5   4    0.05    0.22
   5  -5  -4   20.21    1.13
  -5   5   4   22.24    1.16
  -4   5   4    3.88    0.23
  -4   5   4    3.99    0.38
   3  -5  -4   18.05    1.04
  -3   5   4   18.23    0.88
  -3   5   4   17.13    0.90
   2  -5  -4    0.18    0.27
  -2   5   4    0.08    0.09
  -2   5   4    0.01    0.26
   1  -5  -4   42.88    1.75
   1  -5  -4   43.65    2.04
  -1   5   4   43.14    2.08
  -1   5   4   44.01    1.94
   0  -5  -4   19.19    0.92
   0   5   4   18.79    1.21
   0   5   4   18.55    0.94
  -1  -5  -4    1.32    0.27
   1   5   4    1.26    0.26
   1   5   4    0.83    0.17
  -2  -5  -4    4.44    1.73
   2   5   4    4.82    0.49
   2   5   4    5.08    0.34
  -3  -5  -4    0.36    0.40
   3   5   4    0.11    0.39
  -4  -5  -4    3.58    0.45
   4   5   4    3.00    0.67
   4   5   4    3.08    0.42
   8  -6  -4    0.72    0.29
  -8   6   4    1.39    0.36
   7  -6  -4    0.56    0.26
  -7   6   4    0.35    0.28
   6  -6  -4    1.60    0.27
  -6   6   4    1.18    0.28
   5  -6  -4    2.22    0.29
  -5   6   4    2.25    0.31
   4  -6  -4    1.17    0.35
  -4   6   4    1.89    0.37
   3  -6  -4    0.03    0.30
  -3   6   4    0.19    0.30
   2  -6  -4   -0.06    0.22
  -2   6   4   -0.11    0.21
   1  -6  -4    0.98    0.26
  -1   6   4    1.13    0.26
   0  -6  -4   16.19    1.19
   0   6   4   15.75    0.88
  -1  -6  -4    0.05    0.28
   1   6   4   -0.13    0.22
  -2  -6  -4   18.64    1.28
   2   6   4   17.04    1.30
  -3  -6  -4    8.59    0.67
   3   6   4    8.30    0.75
   7  -7  -4    2.45    0.36
  -7   7   4    3.20    0.40
   6  -7  -4   12.62    0.68
  -6   7   4   12.56    0.72
   5  -7  -4    1.25    0.31
  -5   7   4    1.48    0.32
   4  -7  -4    9.53    0.56
  -4   7   4    9.07    0.62
   3  -7  -4    6.12    0.47
  -3   7   4    6.56    0.47
   2  -7  -4   -0.07    0.25
  -2   7   4   -0.12    0.24
   1  -7  -4    9.43    0.67
  -1   7   4    8.68    0.58
   0  -7  -4    1.24    0.34
   0   7   4    1.36    0.42
  -1  -7  -4    5.57    0.50
   1   7   4    5.27    0.55
  -2  -7  -4    3.36    0.47
   2   7   4    4.68    0.47
   2   7   4    4.02    0.67
  -6   8   4    0.61    0.34
   5  -8  -4   -0.12    0.31
  -5   8   4    0.08    0.30
   4  -8  -4    0.36    0.31
  -4   8   4    0.56    0.31
   3  -8  -4    3.75    0.43
  -3   8   4    4.15    0.41
   2  -8  -4    0.24    0.30
  -2   8   4    0.31    0.39
   1  -8  -4    2.62    0.39
  -1   8   4    2.39    0.37
   0  -8  -4    0.42    0.36
   0   8   4    0.28    0.30
   1  11  -5   -0.09    0.50
   0  11  -5    2.67    0.58
  -1  11  -5    0.42    0.47
  -2  11  -5    3.83    0.59
  -3  11  -5    0.55    0.43
  -3  11  -5    0.29    0.52
  -4  11  -5    2.57    0.50
  -4  11  -5    1.72    0.56
   3  10  -5    4.46    0.64
   3  10  -5    4.33    0.52
   2  10  -5    0.47    0.48
   2  10  -5    0.47    0.25
   1  10  -5    2.31    0.54
   0  10  -5    1.83    0.50
  -1  10  -5    8.13    0.69
  -2  10  -5    0.15    0.39
  -2  10  -5   -0.28    0.57
  -3  10  -5    0.25    0.37
  -3  10  -5    0.13    0.40
  -4  10  -5    1.03    0.39
  -4  10  -5    1.27    0.47
  -5  10  -5    0.82    0.37
  -5  10  -5    0.54    0.64
  -5  10  -5    0.79    0.14
   4   9  -5    3.03    0.31
   4   9  -5    3.46    0.38
   4   9  -5    3.56    0.55
   3   9  -5    0.48    0.44
   3   9  -5    0.68    0.12
   3   9  -5    0.69    0.26
   2   9  -5    1.48    0.28
   2   9  -5    1.59    0.47
   2   9  -5    1.22    0.13
   1   9  -5    1.77    0.28
   1   9  -5    1.79    0.60
   0   9  -5    3.84    0.52
  -1   9  -5    0.37    0.37
   1  -9   5    0.50    0.20
  -2   9  -5    1.22    0.39
  -2   9  -5    1.66    0.40
   2  -9   5    1.54    0.19
  -3   9  -5    0.20    0.07
  -3   9  -5    0.35    0.37
  -3   9  -5    0.89    0.35
   3  -9   5    0.07    0.16
  -4   9  -5    3.59    0.51
  -4   9  -5    3.40    0.24
  -4   9  -5    3.53    0.44
  -5   9  -5    0.59    0.43
  -5   9  -5    0.80    0.41
  -5   9  -5    0.81    0.14
  -6   9  -5    3.83    0.61
  -6   9  -5    4.22    0.34
   5   8  -5   -0.02    0.21
   5   8  -5   -0.27    0.52
   5   8  -5    0.21    0.37
   4   8  -5    6.74    0.37
   4   8  -5    7.41    0.54
   4   8  -5    7.10    0.74
   3   8  -5    3.10    0.40
   3   8  -5    2.52    0.47
   3   8  -5    3.06    0.19
   2   8  -5    0.11    0.08
   2   8  -5    0.01    0.35
   2   8  -5    0.56    0.32
   1   8  -5   24.71    1.15
   1   8  -5   23.25    1.30
   1   8  -5   23.46    0.98
   1   8  -5   23.51    1.04
   0   8  -5   23.51    1.00
  -1   8  -5    0.13    0.43
  -1   8  -5    0.03    0.32
   1  -8   5    0.06    0.14
  -2   8  -5    1.20    0.36
  -2   8  -5    1.55    0.35
   2  -8   5    0.91    0.17
  -3   8  -5    8.21    0.60
  -3   8  -5    7.99    0.55
  -3   8  -5    7.44    0.35
   3  -8   5    7.01    0.41
  -4   8  -5    0.38    0.14
  -4   8  -5    0.98    0.39
  -4   8  -5    0.26    0.25
   4  -8   5    0.60    0.19
  -5   8  -5    0.07    0.13
  -5   8  -5    0.31    0.24
  -5   8  -5    0.44    0.40
   5  -8   5    0.33    0.20
  -6   8  -5    0.29    0.23
  -6   8  -5   -0.07    0.45
   6  -8   5   -0.01    0.22
  -7   8  -5    0.34    0.29
  -7   8  -5    0.53    0.54
   6   7  -5    0.53    0.20
   5   7  -5    6.77    0.66
   5   7  -5    6.76    0.45
   4   7  -5    5.21    0.42
   4   7  -5    6.75    0.63
   4   7  -5    6.07    0.35
   3   7  -5    8.23    0.53
   3   7  -5    8.22    0.60
   3   7  -5    7.91    0.47
   2   7  -5   36.79    1.82
   2   7  -5   37.04    1.72
   2   7  -5   40.26    1.72
  -2  -7   5   34.49    1.49
  -2  -7   5   29.69    3.16
   1   7  -5    4.96    0.37
   1   7  -5    5.37    0.58
   0   7  -5    2.58    0.49
  -1   7  -5   12.06    0.68
  -1   7  -5   11.74    0.68
   1  -7   5   11.97    0.53
  -2   7  -5   12.07    0.55
  -2   7  -5   12.03    0.66
  -2   7  -5   12.53    0.67
  -2   7  -5   11.51    0.71
   2  -7   5   11.48    0.60
   2  -7   5   12.26    0.61
   2  -7   5   11.30    0.58
  -3   7  -5   20.85    1.06
  -3   7  -5   20.74    0.92
  -3   7  -5   19.41    0.98
   3  -7   5   18.14    0.94
   3  -7   5   20.15    0.89
  -4   7  -5    0.35    0.22
  -4   7  -5    0.19    0.32
  -4   7  -5    0.06    0.10
   4  -7   5    0.11    0.19
  -5   7  -5    6.01    0.35
  -5   7  -5    6.43    0.58
   5  -7   5    6.04    0.41
  -6   7  -5    0.60    0.59
  -6   7  -5    0.37    0.18
   6  -7   5    0.07    0.24
  -7   7  -5    9.40    0.80
  -7   7  -5    8.65    0.54
   7  -7   5    9.41    0.64
   7   6  -5    3.39    0.33
   6   6  -5    2.35    0.26
   5   6  -5    5.19    0.47
   5   6  -5    5.63    0.36
   4   6  -5   81.45    3.72
   4   6  -5   82.16    3.55
  -4  -6   5   79.68    3.58
   3   6  -5   35.52    1.50
   3   6  -5   35.91    2.02
   3   6  -5   34.56    1.44
   3   6  -5   35.76    1.71
  -3  -6   5   33.89    1.55
   2   6  -5   51.99    2.14
   2   6  -5   50.36    2.04
   2   6  -5   51.48    2.21
  -2  -6   5   47.68    2.50
  -2  -6   5   48.03    2.14
   1   6  -5    5.50    0.47
   1   6  -5    6.97    0.40
   0   6  -5    0.17    0.20
   0   6  -5    1.05    0.39
   0   6  -5    0.24    0.26
  -1   6  -5   23.53    1.01
  -1   6  -5   24.43    1.15
   1  -6   5   24.32    0.93
  -2   6  -5  100.09    4.98
  -2   6  -5  108.17    3.99
  -2   6  -5  109.49    5.62
  -2   6  -5  105.83    5.25
   2  -6   5  104.60    7.09
   2  -6   5  103.13    3.89
   2  -6   5  107.91    5.10
  -3   6  -5    5.31    0.27
  -3   6  -5    4.96    0.37
  -3   6  -5    5.23    0.45
  -3   6  -5    4.80    0.30
   3  -6   5    5.40    0.38
   3  -6   5    5.31    0.24
  -4   6  -5   12.01    0.52
  -4   6  -5   13.10    0.77
   4  -6   5   10.96    0.55
   4  -6   5    8.97    0.66
   4  -6   5   11.30    0.57
  -5   6  -5    4.24    0.30
  -5   6  -5    3.51    0.46
   5  -6   5    3.63    0.26
   5  -6   5    3.93    0.35
  -6   6  -5    0.27    0.18
  -6   6  -5    0.10    0.57
   6  -6   5    0.20    0.25
  -7   6  -5    1.03    0.69
  -7   6  -5    0.64    0.24
   7  -6   5    0.77    0.31
   7   5  -5    5.16    0.40
   6   5  -5    5.60    0.44
   5   5  -5   20.01    1.04
  -5  -5   5   20.17    0.95
   4   5  -5    0.34    0.16
   4   5  -5    0.56    0.14
  -4  -5   5    0.25    0.18
   3   5  -5    9.02    0.54
   3   5  -5    9.41    0.54
   3   5  -5    9.51    0.41
  -3  -5   5    9.25    0.58
  -3  -5   5    9.61    0.43
   2   5  -5   73.18    2.75
   2   5  -5   77.20    3.15
   2   5  -5   73.81    3.00
  -2  -5   5   73.04    3.05
  -2  -5   5   73.32    3.33
   1   5  -5   75.40    3.03
   1   5  -5   78.02    2.98
   0   5  -5   88.50    4.11
   0   5  -5   94.13    3.28
   0   5  -5   91.48    3.45
   0  -5   5   87.06    3.88
   0  -5   5   87.78    4.40
  -1   5  -5    8.20    0.41
  -1   5  -5    9.18    0.47
  -1   5  -5    7.85    0.37
  -1   5  -5    8.65    0.51
   1  -5   5    8.80    0.40
   1  -5   5    8.23    0.36
   1  -5   5    7.87    0.51
   1  -5   5    7.82    0.37
  -2   5  -5   35.38    1.42
  -2   5  -5   30.03    1.90
  -2   5  -5   35.58    1.43
   2  -5   5   32.86    1.57
   2  -5   5   34.47    1.60
   2  -5   5   34.51    1.54
   2  -5   5   34.97    1.53
  -3   5  -5   11.34    0.52
  -3   5  -5   11.88    0.63
  -3   5  -5   11.62    0.59
   3  -5   5   12.09    0.54
   3  -5   5   11.45    0.49
   3  -5   5    9.77    0.58
  -4   5  -5   -0.14    0.17
  -4   5  -5    0.02    0.28
  -4   5  -5   -0.19    0.13
   4  -5   5   -0.23    0.20
   4  -5   5   -0.07    0.21
   4  -5   5    0.23    0.18
  -5   5  -5   32.83    1.44
  -5   5  -5   33.15    1.73
   5  -5   5   32.03    1.32
   5  -5   5   33.35    1.45
  -6   5  -5    4.88    0.56
  -6   5  -5    4.49    0.33
   6  -5   5    4.27    0.40
   6  -5   5    4.19    0.34
  -7   5  -5    5.28    0.67
  -7   5  -5    5.54    0.41
   7  -5   5    5.03    0.46
   8   4  -5    5.69    0.45
   7   4  -5   14.60    0.94
   6   4  -5    5.75    0.37
  -6  -4   5    6.86    0.40
   5   4  -5   48.42    2.10
   5   4  -5   42.74    2.89
  -5  -4   5   48.64    2.11
   4   4  -5   52.67    2.15
   4   4  -5   48.17    2.53
  -4  -4   5   49.62    2.04
   3   4  -5   24.18    1.15
   3   4  -5   26.40    1.06
  -3  -4   5   23.24    1.35
  -3  -4   5   25.32    1.00
   2   4  -5  136.51    5.99
   2   4  -5  143.36    5.35
  -2  -4   5  137.93    6.15
  -2  -4   5  137.89    6.15
  -2  -4   5  147.30    7.18
   1   4  -5  219.57    9.26
   1   4  -5  217.26    8.02
   1   4  -5  202.00    9.22
  -1  -4   5  215.17    8.03
  -1  -4   5  221.49    9.08
  -1  -4   5  200.07    8.53
  -1  -4   5  226.67    9.80
   0   4  -5   36.12    1.88
   0   4  -5   37.30    1.59
   0   4  -5   39.53    1.74
   0   4  -5   39.32    1.63
   0  -4   5   38.38    1.74
   0  -4   5   37.83    1.75
   0  -4   5   40.07    1.58
   0  -4   5   39.31    2.15
  -1   4  -5   88.99    3.58
  -1   4  -5   94.48    3.93
   1  -4   5   91.09    3.29
   1  -4   5   81.26    3.52
   1  -4   5   84.34    3.49
   1  -4   5   89.61    4.08
   1  -4   5   90.94    4.00
   1  -4   5   90.24    4.57
  -2   4  -5   21.39    0.92
  -2   4  -5   20.60    0.97
  -2   4  -5   21.39    0.91
   2  -4   5   21.97    0.98
   2  -4   5   22.45    0.91
   2  -4   5   22.20    1.05
   2  -4   5   21.69    1.00
  -3   4  -5    0.28    0.12
  -3   4  -5    0.49    0.35
  -3   4  -5    0.19    0.11
   3  -4   5    0.40    0.12
   3  -4   5    0.30    0.20
   3  -4   5    0.35    0.28
  -4   4  -5   19.72    1.46
  -4   4  -5   23.04    0.86
  -4   4  -5   22.72    1.00
   4  -4   5   22.27    0.91
   4  -4   5   22.65    0.96
   4  -4   5   20.76    0.91
  -5   4  -5   15.80    0.72
  -5   4  -5   16.13    0.85
   5  -4   5   15.40    0.79
   5  -4   5   15.68    0.82
  -6   4  -5    1.65    0.32
   6  -4   5    1.80    0.32
   6  -4   5    2.25    0.28
  -7   4  -5    0.26    0.23
   7  -4   5    0.92    0.44
   7  -4   5    0.50    0.28
   8   3  -5    0.43    0.25
  -8  -3   5    0.36    0.30
   7   3  -5    4.44    0.34
  -7  -3   5    4.09    0.37
   6   3  -5  104.67    5.55
  -6  -3   5  106.37    4.50
   5   3  -5   79.05    5.01
   5   3  -5   90.74    3.75
  -5  -3   5   90.37    3.48
   4   3  -5   39.95    2.10
   4   3  -5   42.19    1.66
  -4  -3   5   42.95    1.59
  -4  -3   5   42.26    1.81
   3   3  -5   41.40    1.70
   3   3  -5   43.52    1.72
  -3  -3   5   44.40    1.85
  -3  -3   5   41.66    1.90
  -3  -3   5   44.37    2.41
   2   3  -5    6.68    0.29
   2   3  -5    7.27    0.36
  -2  -3   5    7.10    0.42
  -2  -3   5    7.58    0.33
  -2  -3   5    7.02    0.50
  -2  -3   5    7.38    0.30
   1   3  -5   11.60    0.60
   1   3  -5   11.93    0.46
   1   3  -5   11.17    0.52
   1   3  -5   11.52    0.46
  -1  -3   5   11.22    0.57
  -1  -3   5   11.47    0.46
  -1  -3   5   11.61    0.56
  -1  -3   5   12.08    0.59
   0   3  -5  121.23    4.89
   0   3  -5  127.06    4.56
   0   3  -5  122.72    5.09
   0   3  -5  124.99    5.93
   0  -3   5  122.11    6.39
   0  -3   5  122.34    5.33
   0  -3   5  126.92    4.60
   0  -3   5  116.65    4.48
  -1   3  -5  143.07    5.87
  -1   3  -5  140.21    6.04
  -1   3  -5  141.86    6.55
   1  -3   5  145.35    5.24
   1  -3   5  138.88    6.65
   1  -3   5  144.95    7.13
   1  -3   5  144.92    7.22
   1  -3   5  148.03    5.90
  -2   3  -5   84.60    3.33
  -2   3  -5   81.77    2.94
  -2   3  -5   72.60    3.58
  -2   3  -5   83.50    2.99
   2  -3   5   81.03    3.49
   2  -3   5   82.23    4.52
   2  -3   5   81.58    3.48
   2  -3   5   76.98    4.76
   2  -3   5   82.47    3.17
  -3   3  -5   11.54    0.64
  -3   3  -5   12.53    0.52
  -3   3  -5   11.28    0.61
   3  -3   5   12.28    0.56
   3  -3   5   12.25    0.57
   3  -3   5   12.15    0.52
  -4   3  -5   19.36    1.13
  -4   3  -5   23.66    0.93
   4  -3   5   22.32    0.93
   4  -3   5   22.68    0.91
   4  -3   5   19.99    0.92
  -5   3  -5    0.10    0.18
   5  -3   5   -0.35    0.24
   5  -3   5    0.14    0.20
  -6   3  -5    6.28    0.41
   6  -3   5    6.13    0.43
   6  -3   5    6.10    0.46
  -7   3  -5    1.92    0.40
   7  -3   5    1.72    0.36
   7  -3   5    2.39    0.43
   8   2  -5   23.18    1.36
  -8  -2   5   21.69    1.22
   7   2  -5   10.80    0.59
  -7  -2   5   10.15    0.56
   6   2  -5    2.43    0.24
  -6  -2   5    2.75    0.28
   5   2  -5   55.05    2.28
   5   2  -5   51.78    2.71
  -5  -2   5   50.18    2.89
  -5  -2   5   55.83    2.38
   4   2  -5    1.65    0.16
   4   2  -5    1.71    0.16
  -4  -2   5    1.07    0.24
  -4  -2   5    1.74    0.18
   3   2  -5  244.57   10.36
   3   2  -5  251.62    9.72
  -3  -2   5  246.02    8.58
  -3  -2   5  250.11   12.41
  -3  -2   5  257.54   10.39
   2   2  -5  468.26   17.76
   2   2  -5  473.86   21.11
  -2  -2   5  459.55   20.24
  -2  -2   5  468.06   18.23
  -2  -2   5  467.99   18.19
   1   2  -5   80.44    3.26
   1   2  -5   85.14    3.49
   1   2  -5   77.19    3.20
   1   2  -5   82.32    3.61
  -1  -2   5   80.19    3.21
  -1  -2   5   84.15    3.73
  -1  -2   5   78.53    4.43
   0   2  -5   40.58    1.62
   0   2  -5   38.86    1.74
   0   2  -5   40.76    1.57
   0   2  -5   41.15    1.82
   0  -2   5   39.87    1.63
   0  -2   5   40.79    1.63
   0  -2   5   39.26    1.79
   0  -2   5   39.43    1.50
  -1   2  -5  207.03    8.40
  -1   2  -5  203.32    8.86
  -1   2  -5  207.96    8.12
   1  -2   5  208.68    8.88
   1  -2   5  202.74    9.77
   1  -2   5  206.49    8.29
   1  -2   5  209.20    7.50
  -2   2  -5    9.25    0.45
  -2   2  -5    8.69    0.47
  -2   2  -5    9.71    0.43
   2  -2   5    9.62    0.47
   2  -2   5    9.07    0.48
   2  -2   5    9.17    0.52
   2  -2   5    8.19    0.45
  -3   2  -5   52.30    1.94
  -3   2  -5   48.65    2.81
   3  -2   5   53.90    1.89
   3  -2   5   51.58    2.69
   3  -2   5   52.52    1.97
  -4   2  -5   40.88    1.54
   4  -2   5   36.97    2.00
   4  -2   5   39.74    1.57
   4  -2   5   42.09    1.80
  -5   2  -5    0.60    0.21
   5  -2   5    0.83    0.24
   5  -2   5    1.04    0.38
  -6   2  -5   -0.09    0.22
   6  -2   5    0.15    0.25
   6  -2   5    0.06    0.27
  -7   2  -5    5.58    0.44
   7  -2   5    4.59    0.47
   7  -2   5    4.98    0.45
   9   1  -5   18.05    1.39
  -9  -1   5   16.06    1.06
   8   1  -5    1.53    0.27
  -8  -1   5    1.00    0.29
   7   1  -5    5.80    0.38
  -7  -1   5    5.51    0.40
   6   1  -5    1.64    0.22
  -6  -1   5    1.73    0.32
  -6  -1   5    1.45    0.24
   5   1  -5    6.83    0.42
   5   1  -5    7.67    0.39
  -5  -1   5    9.17    0.46
  -5  -1   5    7.88    0.45
   4   1  -5  231.54    8.43
   4   1  -5  216.24    9.10
   3   1  -5  285.41   11.31
   3   1  -5  267.01    9.76
  -3  -1   5  266.57   13.17
  -3  -1   5  286.79   10.57
   2   1  -5   69.60    2.73
   2   1  -5   72.88    2.96
  -2  -1   5   72.44    3.56
  -2  -1   5   73.95    3.45
  -2  -1   5   72.96    2.81
   1   1  -5   63.29    2.41
   1   1  -5   60.93    2.47
   1   1  -5   60.89    2.45
  -1  -1   5   59.96    2.44
  -1  -1   5   61.16    2.34
  -1  -1   5   57.58    2.21
   0   1  -5   23.29    0.93
   0   1  -5   24.18    1.06
   0   1  -5   23.55    1.00
   0   1  -5   24.19    1.04
   0  -1   5   23.24    1.08
   0  -1   5   25.26    0.92
   0  -1   5   23.91    0.97
  -1   1  -5  122.36    4.62
  -1   1  -5  119.23    4.93
  -1   1  -5  120.92    5.81
   1  -1   5  119.31    5.53
   1  -1   5  116.87    6.36
   1  -1   5  122.23    6.21
   1  -1   5  120.03    4.62
  -2   1  -5   45.41    1.77
  -2   1  -5   43.80    2.04
   2  -1   5   46.21    1.88
   2  -1   5   42.28    1.61
   2  -1   5   44.84    1.77
  -3   1  -5   22.61    0.92
  -3   1  -5   19.28    1.28
   3  -1   5   22.19    0.91
   3  -1   5   22.59    1.08
   3  -1   5   23.17    1.01
  -4   1  -5   57.62    2.40
   4  -1   5   52.18    3.70
   4  -1   5   57.13    2.37
   4  -1   5   56.21    2.28
  -5   1  -5   33.52    1.55
   5  -1   5   33.49    1.57
   5  -1   5   35.26    1.46
  -6   1  -5    2.00    0.31
   6  -1   5    2.34    0.36
   6  -1   5    1.80    0.32
  -7   1  -5    4.47    0.44
   7  -1   5    3.32    0.44
   7  -1   5    5.37    0.48
   9   0  -5    0.63    0.28
  -9   0   5    0.65    0.32
   8   0  -5    0.20    0.23
  -8   0   5   -0.03    0.25
   7   0  -5    8.71    0.47
  -7   0   5    8.28    0.49
   6   0  -5   91.94    3.59
  -6   0   5   87.70    4.01
  -6   0   5   92.20    3.51
   5   0  -5   80.70    3.16
   4   0  -5    0.35    0.17
   4   0  -5   -0.01    0.12
  -4   0   5    0.21    0.15
   3   0  -5    2.57    0.19
  -3   0   5    2.63    0.21
  -3   0   5    2.38    0.21
   2   0  -5   29.60    1.20
   2   0  -5   28.20    1.28
  -2   0   5   27.76    1.51
  -2   0   5   27.07    1.58
  -2   0   5   31.17    1.25
   1   0  -5  181.41    6.96
   1   0  -5  172.09    7.47
   1   0  -5  180.35    6.96
  -1   0   5  178.11    6.79
  -1   0   5  175.55    7.79
  -1   0   5  179.32    7.45
   0   0  -5  594.08   25.22
   0   0  -5  612.04   22.19
   0   0  -5  620.35   26.09
   0   0  -5  606.84   24.40
   0   0   5  615.66   21.67
   0   0   5  588.90   26.86
   0   0   5  590.31   27.59
  -1   0  -5  110.82    4.34
  -1   0  -5  111.59    5.80
  -1   0  -5  114.25    6.36
   1   0   5  112.83    4.64
   1   0   5  118.88    4.27
  -2   0  -5    0.41    0.17
  -2   0  -5    0.23    0.18
   2   0   5    0.60    0.19
   2   0   5    0.78    0.21
   2   0   5    0.65    0.11
  -3   0  -5   36.67    1.55
   3   0   5   37.21    1.48
   3   0   5   39.12    1.43
   3   0   5   36.75    1.84
  -4   0  -5   21.77    1.01
   4   0   5   22.37    0.97
   4   0   5   24.29    1.10
   4   0   5   21.44    1.04
  -5   0  -5    4.99    0.41
   5   0   5    7.40    1.62
   5   0   5    6.28    0.51
  -6   0  -5   10.37    0.67
   6   0   5    9.19    0.67
   6   0   5    9.86    0.69
   9  -1  -5    0.43    0.28
  -9   1   5    0.44    0.32
   8  -1  -5    1.01    0.26
  -8   1   5    0.79    0.30
   7  -1  -5   38.13    1.76
  -7   1   5   38.37    1.70
   6  -1  -5   41.59    1.70
   5  -1  -5    1.62    0.20
  -5   1   5    2.30    0.25
   4  -1  -5   32.62    1.34
  -4   1   5   32.76    1.27
   3  -1  -5   47.78    1.83
   3  -1  -5   41.95    2.11
  -3   1   5   45.98    2.41
  -3   1   5   47.71    1.72
   2  -1  -5  103.74    5.08
   2  -1  -5  111.46    4.75
  -2   1   5  111.34    4.32
   1  -1  -5  144.59    6.08
   1  -1  -5  142.03    6.58
  -1   1   5  149.22    5.60
  -1   1   5  145.16    5.16
   0  -1  -5   44.48    2.40
   0  -1  -5   49.41    1.92
   0  -1  -5   45.90    2.13
   0   1   5   48.26    1.90
   0   1   5   48.99    2.04
  -1  -1  -5   19.74    1.21
   1   1   5   22.40    0.91
   1   1   5   23.42    1.16
  -2  -1  -5    0.72    0.24
   2   1   5    0.44    0.36
   2   1   5    0.16    0.21
  -3  -1  -5   77.60    2.82
   3   1   5   77.10    4.10
   3   1   5   80.58    3.42
   3   1   5   76.21    3.12
  -4  -1  -5   33.41    1.43
   4   1   5   34.52    1.46
   4   1   5   33.46    1.38
  -5  -1  -5    0.37    0.27
   5   1   5    0.40    0.28
   5   1   5    0.20    0.28
  -6  -1  -5    7.74    0.64
   6   1   5    8.29    0.67
   6   1   5    7.46    0.55
   9  -2  -5    2.24    0.33
   8  -2  -5    1.49    0.35
   7  -2  -5    0.10    0.28
  -7   2   5    0.39    0.38
   6  -2  -5    1.02    0.20
  -6   2   5    0.62    0.23
   5  -2  -5    4.10    0.28
  -5   2   5    4.09    0.32
   4  -2  -5   96.28    4.40
  -4   2   5  102.12    4.11
   3  -2  -5  152.07    6.53
  -3   2   5  157.37    7.04
   2  -2  -5   13.95    0.68
  -2   2   5   15.48    0.69
  -2   2   5   14.19    0.61
   1  -2  -5   35.74    1.40
  -1   2   5   33.95    1.34
  -1   2   5   34.38    1.40
   0  -2  -5    1.48    0.22
   0   2   5    1.39    0.18
   0   2   5    1.85    0.25
  -1  -2  -5    2.91    0.34
   1   2   5    2.63    0.35
   1   2   5    2.54    0.25
  -2  -2  -5  126.11    5.31
   2   2   5  118.15    4.75
   2   2   5  121.90    5.08
  -3  -2  -5   99.85    3.86
   3   2   5   98.80    4.04
   3   2   5  101.33    3.95
  -4  -2  -5    5.19    0.43
   4   2   5    4.83    0.44
   4   2   5    5.49    0.47
  -5  -2  -5    0.27    0.41
   5   2   5    0.00    0.27
   5   2   5   -0.08    0.41
   9  -3  -5    0.45    0.28
   8  -3  -5    9.27    0.55
  -8   3   5    7.84    0.55
   7  -3  -5    4.41    0.36
  -7   3   5    4.27    0.39
   6  -3  -5    0.41    0.20
  -6   3   5   -0.09    0.21
   5  -3  -5   18.53    0.99
  -5   3   5   19.01    0.91
  -5   3   5   16.35    0.96
   4  -3  -5   66.58    3.14
  -4   3   5   69.99    2.85
  -4   3   5   61.99    2.66
   3  -3  -5   -0.11    0.15
  -3   3   5   -0.04    0.16
   2  -3  -5   12.78    0.73
  -2   3   5   11.34    0.60
  -2   3   5   13.12    0.64
   1  -3  -5   36.93    2.57
   1  -3  -5   41.28    1.69
  -1   3   5   39.96    1.83
  -1   3   5   41.50    1.95
   0  -3  -5   36.05    1.46
   0   3   5   37.89    1.61
   0   3   5   36.08    1.43
  -1  -3  -5   28.59    1.20
   1   3   5   27.19    1.09
   1   3   5   28.22    1.15
  -2  -3  -5   18.18    0.88
   2   3   5   18.68    0.89
   2   3   5   19.47    0.91
  -3  -3  -5    2.63    0.35
   3   3   5    2.74    0.36
   3   3   5    2.41    0.29
  -4  -3  -5    3.74    0.41
   4   3   5    3.46    0.36
   4   3   5    3.91    0.43
  -5  -3  -5    7.20    0.58
   5   3   5    6.77    0.58
   8  -4  -5    0.42    0.36
  -8   4   5   -0.52    0.42
   7  -4  -5    6.17    0.44
  -7   4   5    5.87    0.45
   6  -4  -5   14.27    0.91
  -6   4   5   13.55    0.68
   5  -4  -5   10.70    0.54
  -5   4   5   10.85    0.63
   4  -4  -5    8.28    0.51
  -4   4   5    8.39    0.54
   3  -4  -5    1.26    0.29
  -3   4   5    1.29    0.18
  -3   4   5    1.18    0.31
   2  -4  -5   12.46    0.69
  -2   4   5   12.74    0.62
  -2   4   5   13.83    0.72
   1  -4  -5   92.52    3.94
   1  -4  -5   98.23    4.63
  -1   4   5   98.56    4.43
  -1   4   5   95.45    4.38
   0  -4  -5   45.64    2.11
   0   4   5   43.96    2.29
   0   4   5   44.55    2.08
  -1  -4  -5   15.36    0.77
   1   4   5   14.83    0.74
   1   4   5   15.70    0.69
  -2  -4  -5    3.15    0.37
   2   4   5    2.36    0.33
   2   4   5    2.31    0.35
  -3  -4  -5    1.02    0.31
   3   4   5    1.15    0.27
   3   4   5    1.13    0.32
  -4  -4  -5    5.20    0.51
   4   4   5    5.01    0.50
   8  -5  -5    4.36    0.45
  -8   5   5    5.18    0.49
   7  -5  -5    3.62    0.36
  -7   5   5    3.42    0.38
   6  -5  -5    5.04    0.39
  -6   5   5    4.67    0.40
   5  -5  -5   13.78    0.77
  -5   5   5   13.12    0.68
   4  -5  -5    0.75    0.25
  -4   5   5    0.84    0.26
   3  -5  -5    1.85    0.28
  -3   5   5    2.18    0.29
  -3   5   5    1.56    0.15
   2  -5  -5   29.55    1.38
  -2   5   5   27.66    1.35
  -2   5   5   28.18    1.54
   1  -5  -5   -0.20    0.22
  -1   5   5   -0.02    0.22
  -1   5   5    0.14    0.11
   0  -5  -5   -0.03    0.24
   0   5   5    0.41    0.24
   0   5   5    0.08    0.13
  -1  -5  -5    1.27    0.40
   1   5   5    1.07    0.37
   1   5   5    1.00    0.20
  -2  -5  -5   20.49    1.28
   2   5   5   18.53    1.25
   2   5   5   20.02    1.18
  -3  -5  -5   11.76    0.88
   3   5   5   12.98    1.01
   7  -6  -5    0.62    0.39
  -7   6   5    0.24    0.41
   6  -6  -5    0.19    0.27
  -6   6   5   -0.13    0.27
   5  -6  -5   -0.03    0.37
  -5   6   5    0.36    0.37
   4  -6  -5   19.65    1.03
  -4   6   5   19.49    1.10
   3  -6  -5    0.86    0.36
  -3   6   5    1.45    0.38
   2  -6  -5   16.80    0.92
  -2   6   5   17.55    0.87
   1  -6  -5   -0.27    0.36
  -1   6   5    0.32    0.36
   0  -6  -5    0.33    0.30
   0   6   5    0.28    0.26
  -1  -6  -5   16.78    1.06
   1   6   5   15.97    0.95
  -2  -6  -5   30.15    1.87
   2   6   5   29.36    1.50
   6  -7  -5   -0.26    0.43
  -6   7   5    0.00    0.46
   5  -7  -5    4.01    0.43
  -5   7   5    4.19    0.46
   4  -7  -5    0.49    0.30
  -4   7   5    0.74    0.31
   3  -7  -5    2.28    0.37
  -3   7   5    3.24    0.39
   2  -7  -5    2.22    0.45
  -2   7   5    1.73    0.43
   1  -7  -5    0.33    0.31
  -1   7   5   -0.06    0.26
   0  -7  -5    4.88    0.49
   0   7   5    5.63    0.50
   3  -8  -5    1.55    0.40
  -3   8   5    1.44    0.37
   1  11  -6    1.14    0.52
   0  11  -6    0.02    0.46
  -1  11  -6   11.58    0.97
  -2  11  -6    2.37    0.52
  -3  11  -6   -0.38    0.49
  -3  11  -6    0.08    0.44
  -4  11  -6   -0.43    0.40
  -4  11  -6    0.06    0.50
   3  10  -6    2.68    0.38
   3  10  -6    2.90    0.73
   2  10  -6   -0.24    0.63
   2  10  -6    0.24    0.26
   1  10  -6    0.97    0.46
   1  10  -6    0.09    0.27
   0  10  -6    6.29    0.64
  -1  10  -6    0.95    0.42
  -2  10  -6    0.68    0.55
  -2  10  -6    0.04    0.58
  -3  10  -6    0.28    0.37
  -3  10  -6    0.40    0.44
  -4  10  -6    2.51    0.57
  -4  10  -6    2.93    0.46
  -5  10  -6    5.04    0.53
  -5  10  -6    5.64    0.68
   4   9  -6    0.13    0.28
   4   9  -6    0.22    0.58
   3   9  -6   -0.02    0.25
   3   9  -6   -0.04    0.40
   2   9  -6   11.69    0.70
   2   9  -6   10.68    0.78
   1   9  -6    0.84    0.26
   1   9  -6    0.50    0.39
   0   9  -6   12.93    0.89
  -1   9  -6    0.68    0.37
  -1   9  -6    0.19    0.37
   1  -9   6    0.62    0.19
  -2   9  -6    2.22    0.44
  -2   9  -6    2.48    0.43
   2  -9   6    2.58    0.26
  -3   9  -6   14.98    0.83
  -3   9  -6   16.66    1.03
   3  -9   6   14.65    0.96
  -4   9  -6   15.74    0.83
  -4   9  -6   17.03    0.86
  -4   9  -6   17.95    1.06
   4  -9   6   15.17    0.85
  -5   9  -6    0.10    0.44
  -5   9  -6    0.16    0.15
  -6   9  -6    2.43    0.58
   5   8  -6    5.37    0.57
   5   8  -6    6.13    0.38
   5   8  -6    4.95    0.57
   4   8  -6    1.53    0.31
   4   8  -6    0.99    0.41
   4   8  -6    1.42    0.16
   3   8  -6    4.94    0.38
   3   8  -6    4.93    0.45
   3   8  -6    4.87    0.53
   2   8  -6   -0.03    0.34
   2   8  -6    0.41    0.25
   2   8  -6    0.50    0.05
   1   8  -6   29.57    1.41
   1   8  -6   28.84    1.39
   0   8  -6    2.01    0.31
   0   8  -6    1.67    0.38
  -1   8  -6    2.08    0.40
  -1   8  -6    2.57    0.40
   1  -8   6    3.20    0.27
  -2   8  -6   13.09    0.80
  -2   8  -6   14.23    0.76
   2  -8   6   15.15    0.74
  -3   8  -6    2.33    0.43
  -3   8  -6    1.78    0.34
  -3   8  -6    1.44    0.10
   3  -8   6    1.01    0.30
  -4   8  -6    0.63    0.40
   4  -8   6    0.77    0.24
  -5   8  -6    0.50    0.13
  -5   8  -6    0.54    0.42
   5  -8   6    0.57    0.26
  -6   8  -6    0.61    0.69
  -6   8  -6    0.72    0.19
   6  -8   6    0.56    0.28
   6   7  -6    2.07    0.24
   5   7  -6    1.41    0.18
   5   7  -6    1.60    0.33
   4   7  -6    4.38    0.31
   4   7  -6    4.11    0.48
   4   7  -6    4.98    0.42
   3   7  -6   13.98    0.73
   3   7  -6   14.47    0.85
   3   7  -6   12.42    0.74
   2   7  -6    1.03    0.06
   2   7  -6    0.77    0.06
   2   7  -6    0.95    0.33
   2   7  -6    0.90    0.33
   1   7  -6    0.15    0.22
   1   7  -6   -0.18    0.30
   0   7  -6   25.62    1.29
   0   7  -6   28.69    1.15
   0   7  -6   28.62    1.32
  -1   7  -6   13.58    0.70
  -1   7  -6   12.07    0.71
   1  -7   6   12.89    0.60
  -2   7  -6   19.70    1.02
  -2   7  -6   22.39    1.07
   2  -7   6   21.84    0.90
  -3   7  -6   31.67    1.78
  -3   7  -6   34.55    1.88
   3  -7   6   34.18    1.31
  -4   7  -6    3.23    0.45
  -4   7  -6    3.57    0.21
   4  -7   6    2.84    0.31
  -5   7  -6    2.34    0.61
  -5   7  -6    2.24    0.25
   5  -7   6    2.71    0.33
  -6   7  -6   17.25    0.94
  -6   7  -6   17.01    1.02
   6  -7   6   16.52    0.98
  -7   7  -6    0.66    0.54
  -7   7  -6    0.73    0.24
   7  -7   6    0.11    0.30
   7   6  -6    1.08    0.32
   6   6  -6    3.73    0.30
   5   6  -6    3.21    0.27
   4   6  -6    3.91    0.23
   3   6  -6    2.58    0.20
   3   6  -6    3.17    0.19
   3   6  -6    3.07    0.32
  -3  -6   6    2.92    0.20
   2   6  -6   20.62    1.00
   2   6  -6   19.12    1.04
   2   6  -6   20.11    0.89
   2   6  -6   19.47    0.82
  -2  -6   6   17.53    0.90
  -2  -6   6   18.63    1.15
   1   6  -6    2.19    0.28
   1   6  -6    2.02    0.34
   0   6  -6    0.26    0.27
   0   6  -6    0.38    0.27
   0   6  -6   -0.17    0.30
  -1   6  -6   40.39    1.93
   1  -6   6   44.36    1.77
  -2   6  -6   24.74    1.10
  -2   6  -6   23.91    1.50
  -2   6  -6   25.07    1.16
   2  -6   6   20.52    1.51
   2  -6   6   24.21    0.95
   2  -6   6   24.00    1.06
  -3   6  -6   17.25    0.86
  -3   6  -6   17.03    0.88
  -3   6  -6   16.41    1.01
   3  -6   6   16.67    0.74
   3  -6   6   16.47    0.80
  -4   6  -6    8.88    0.41
  -4   6  -6    7.20    0.58
   4  -6   6    7.62    0.47
  -5   6  -6   -0.18    0.35
  -5   6  -6    0.21    0.21
   5  -6   6   -0.02    0.24
  -6   6  -6    0.79    0.21
  -6   6  -6    0.66    0.45
   6  -6   6    0.59    0.29
  -7   6  -6    0.47    0.24
  -7   6  -6    0.58    0.53
   7  -6   6    0.06    0.30
   7   5  -6    0.34    0.21
   6   5  -6    3.51    0.28
   5   5  -6   10.02    0.48
   4   5  -6   13.25    0.60
  -4  -5   6   11.71    0.62
   3   5  -6    2.57    0.16
   3   5  -6    2.35    0.15
  -3  -5   6    2.13    0.20
  -3  -5   6    2.28    0.21
   2   5  -6    2.12    0.12
   2   5  -6    2.88    0.29
  -2  -5   6    2.06    0.14
  -2  -5   6    2.21    0.15
   1   5  -6   83.47    3.12
  -1  -5   6   82.10    3.49
  -1  -5   6   86.51    3.20
   0   5  -6    2.99    0.32
   0   5  -6    2.92    0.30
  -1   5  -6    4.83    0.22
  -1   5  -6    4.81    0.44
  -1   5  -6    4.36    0.22
   1  -5   6    4.64    0.19
   1  -5   6    4.13    0.24
   1  -5   6    4.82    0.31
  -2   5  -6    1.60    0.15
  -2   5  -6    2.26    0.40
   2  -5   6    1.48    0.12
   2  -5   6    1.34    0.12
   2  -5   6    1.42    0.23
  -3   5  -6    7.09    0.31
  -3   5  -6    6.69    0.41
  -3   5  -6    6.25    0.49
   3  -5   6    6.93    0.33
   3  -5   6    7.35    0.48
   3  -5   6    5.59    0.52
  -4   5  -6    0.82    0.33
  -4   5  -6    1.31    0.17
   4  -5   6    1.54    0.35
   4  -5   6    1.04    0.17
  -5   5  -6   56.24    2.16
  -5   5  -6   53.98    2.63
   5  -5   6   50.59    2.20
   5  -5   6   53.26    2.57
  -6   5  -6    2.68    0.51
  -6   5  -6    2.43    0.27
   6  -5   6    2.54    0.36
  -7   5  -6    0.10    0.34
  -7   5  -6    0.55    0.54
   7  -5   6    0.27    0.32
   8   4  -6    0.60    0.26
   7   4  -6    0.04    0.19
   6   4  -6   38.83    2.15
  -6  -4   6   37.75    1.98
   5   4  -6   47.60    2.11
  -5  -4   6   47.56    2.04
   4   4  -6   21.42    0.86
   4   4  -6   20.42    1.14
  -4  -4   6   21.38    0.97
   3   4  -6    2.25    0.16
  -3  -4   6    2.33    0.18
  -3  -4   6    2.02    0.16
   2   4  -6   14.78    0.56
   2   4  -6   15.05    0.62
   2   4  -6   16.17    0.69
  -2  -4   6   14.49    0.74
  -2  -4   6   15.03    0.76
  -2  -4   6   13.94    0.57
   1   4  -6    1.36    0.26
   1   4  -6    0.85    0.28
   1   4  -6    0.85    0.07
  -1  -4   6    1.02    0.10
  -1  -4   6    0.80    0.22
  -1  -4   6    0.77    0.07
   0   4  -6   40.16    1.71
   0   4  -6   41.70    1.57
   0   4  -6   39.96    1.55
   0  -4   6   40.89    1.61
   0  -4   6   39.11    2.16
   0  -4   6   38.69    1.87
  -1   4  -6   60.51    2.50
  -1   4  -6   55.66    2.40
  -1   4  -6   60.21    2.22
   1  -4   6   56.22    2.32
   1  -4   6   57.34    2.28
   1  -4   6   52.80    2.92
   1  -4   6   53.16    3.00
  -2   4  -6    2.39    0.18
  -2   4  -6    2.08    0.19
  -2   4  -6    2.18    0.30
   2  -4   6    2.12    0.36
   2  -4   6    2.28    0.25
   2  -4   6    1.77    0.16
   2  -4   6    1.60    0.16
  -3   4  -6   24.91    1.13
  -3   4  -6   26.76    1.20
  -3   4  -6   24.35    1.19
   3  -4   6   25.15    1.04
   3  -4   6   26.26    1.16
   3  -4   6   20.69    1.24
  -4   4  -6    7.54    0.49
  -4   4  -6    9.17    0.44
  -4   4  -6   10.50    0.62
   4  -4   6   10.73    0.49
   4  -4   6    9.18    0.52
  -5   4  -6    7.28    0.45
  -5   4  -6    6.25    0.58
   5  -4   6    7.82    0.56
   5  -4   6    6.84    0.46
  -6   4  -6    5.23    0.38
  -6   4  -6    5.35    0.60
   6  -4   6    5.10    0.45
   6  -4   6    4.57    0.44
  -7   4  -6   -0.27    0.49
  -7   4  -6    0.15    0.25
   7  -4   6   -0.25    0.44
   8   3  -6    1.63    0.37
   7   3  -6    9.52    0.57
  -7  -3   6    8.61    0.60
   6   3  -6    0.39    0.23
  -6  -3   6    0.11    0.19
   5   3  -6    0.40    0.15
   5   3  -6    0.23    0.14
  -5  -3   6    0.16    0.16
   4   3  -6    2.20    0.17
   4   3  -6    2.25    0.18
  -4  -3   6    2.48    0.21
   3   3  -6   18.59    0.78
   3   3  -6   20.21    0.97
  -3  -3   6   18.58    1.25
  -3  -3   6   19.75    0.87
   2   3  -6   79.79    3.04
   2   3  -6   77.72    3.06
  -2  -3   6   79.20    3.51
  -2  -3   6   74.23    3.13
  -2  -3   6   77.99    3.34
   1   3  -6   17.77    0.80
   1   3  -6   18.28    0.83
   1   3  -6   17.93    0.78
   1   3  -6   16.63    0.65
  -1  -3   6   15.67    0.65
  -1  -3   6   16.08    0.82
  -1  -3   6   18.48    0.78
  -1  -3   6   17.99    0.84
   0   3  -6   23.14    0.94
   0   3  -6   22.05    0.92
   0   3  -6   19.59    1.17
   0   3  -6   22.78    0.96
   0  -3   6   24.77    0.94
   0  -3   6   24.30    1.47
   0  -3   6   22.27    1.13
   0  -3   6   24.45    1.10
   0  -3   6   22.81    0.92
  -1   3  -6   85.85    5.12
  -1   3  -6   89.33    4.10
  -1   3  -6   85.43    3.47
   1  -3   6   90.03    4.56
   1  -3   6   87.69    3.70
   1  -3   6   81.33    3.99
   1  -3   6   89.72    4.41
   1  -3   6   92.00    4.17
  -2   3  -6   48.64    1.93
  -2   3  -6   50.47    2.62
  -2   3  -6   48.71    1.92
   2  -3   6   49.80    1.95
   2  -3   6   49.59    1.98
   2  -3   6   49.80    2.27
   2  -3   6   47.44    3.20
  -3   3  -6   21.26    0.92
  -3   3  -6   19.37    1.08
  -3   3  -6   21.21    0.81
   3  -3   6   18.44    0.98
   3  -3   6   21.51    0.87
   3  -3   6   21.33    0.83
  -4   3  -6   20.51    0.87
  -4   3  -6   14.93    1.08
  -4   3  -6   20.20    0.99
   4  -3   6   18.50    0.86
   4  -3   6   19.59    0.90
  -5   3  -6    1.60    0.24
   5  -3   6    1.28    0.24
   5  -3   6    1.57    0.41
  -6   3  -6    3.37    0.34
   6  -3   6    3.20    0.35
   6  -3   6    3.71    0.41
  -7   3  -6   11.16    0.66
   7  -3   6   10.77    0.74
   8   2  -6    0.48    0.24
  -8  -2   6    0.00    0.27
   7   2  -6   17.68    0.82
  -7  -2   6   16.38    0.84
   6   2  -6   17.77    0.81
  -6  -2   6   16.15    0.77
   5   2  -6   -0.03    0.14
   5   2  -6    0.23    0.14
  -5  -2   6    0.51    0.25
   4   2  -6   16.13    0.72
   4   2  -6   17.81    0.69
  -4  -2   6   17.07    0.70
   3   2  -6  182.78    7.65
   3   2  -6  195.21    7.59
  -3  -2   6  194.53    6.86
  -3  -2   6  185.04    8.69
   2   2  -6    0.92    0.13
   2   2  -6    1.18    0.15
  -2  -2   6    0.75    0.11
  -2  -2   6    0.86    0.16
  -2  -2   6    1.42    0.23
   1   2  -6   15.22    0.72
   1   2  -6   14.98    0.67
   1   2  -6   15.38    0.69
   1   2  -6   16.15    0.71
  -1  -2   6   15.62    0.72
  -1  -2   6   15.45    0.80
  -1  -2   6   14.97    0.62
   0   2  -6    0.96    0.13
   0   2  -6    1.05    0.14
   0   2  -6    1.31    0.22
   0  -2   6    1.06    0.17
   0  -2   6    0.89    0.15
  -1   2  -6    0.81    0.17
  -1   2  -6    0.55    0.13
  -1   2  -6    0.54    0.18
   1  -2   6    0.47    0.14
   1  -2   6    0.73    0.19
  -2   2  -6   20.71    1.11
  -2   2  -6   20.93    0.84
  -2   2  -6   22.88    0.98
   2  -2   6   22.84    0.94
   2  -2   6   20.29    0.99
   2  -2   6   22.30    0.86
  -3   2  -6   27.07    1.46
  -3   2  -6   29.68    1.12
   3  -2   6   29.89    1.14
   3  -2   6   27.59    2.21
   3  -2   6   31.92    1.20
  -4   2  -6    2.50    0.31
   4  -2   6    2.54    0.34
   4  -2   6    2.39    0.32
  -5   2  -6    9.90    0.54
   5  -2   6   10.03    0.59
   5  -2   6   10.56    0.58
  -6   2  -6    0.17    0.24
   6  -2   6    0.21    0.29
   6  -2   6    0.70    0.28
  -7   2  -6    0.46    0.29
   7  -2   6    0.14    0.30
   7  -2   6    0.28    0.35
   8   1  -6   14.17    0.81
  -8  -1   6   12.35    0.72
   7   1  -6   28.38    1.38
  -7  -1   6   26.43    1.37
   6   1  -6   18.24    0.77
  -6  -1   6   18.69    0.81
   5   1  -6   15.89    0.79
  -5  -1   6   16.04    0.70
   4   1  -6    0.18    0.17
   4   1  -6    0.29    0.13
  -4  -1   6    0.32    0.15
   3   1  -6    0.35    0.12
   3   1  -6    0.28    0.11
  -3  -1   6    0.22    0.13
  -3  -1   6    0.15    0.14
   2   1  -6    0.00    0.10
  -2  -1   6    0.24    0.17
  -2  -1   6    0.07    0.12
   1   1  -6   11.28    0.51
   1   1  -6   12.53    0.55
   1   1  -6   12.53    0.55
   1   1  -6   13.41    0.56
  -1  -1   6   11.32    0.60
  -1  -1   6   12.29    0.54
   0   1  -6  111.67    5.35
   0   1  -6  112.72    4.07
   0   1  -6  110.55    4.39
   0   1  -6  111.44    4.75
   0  -1   6  107.95    4.41
   0  -1   6  116.82    4.15
  -1   1  -6   84.84    3.11
  -1   1  -6   82.80    4.02
  -1   1  -6   83.94    3.24
   1  -1   6   89.56    3.22
   1  -1   6   79.06    3.19
  -2   1  -6   14.51    0.89
  -2   1  -6   16.39    0.69
   2  -1   6   16.35    0.71
   2  -1   6   16.19    0.90
   2  -1   6   16.79    0.71
  -3   1  -6    0.05    0.25
   3  -1   6   -0.20    0.32
   3  -1   6    0.17    0.20
   3  -1   6    0.15    0.29
  -4   1  -6   36.66    1.47
   4  -1   6   35.52    1.46
   4  -1   6   35.52    1.48
  -5   1  -6   -0.07    0.24
   5  -1   6    0.28    0.26
   5  -1   6    0.15    0.27
  -6   1  -6   13.99    0.75
   6  -1   6   15.02    0.83
   6  -1   6   13.51    0.85
  -9   0   6    1.57    0.50
   8   0  -6    0.23    0.24
  -8   0   6    0.14    0.28
   7   0  -6   15.91    0.76
   6   0  -6   10.48    0.62
  -6   0   6   10.35    0.62
   5   0  -6   21.40    0.97
  -5   0   6   21.94    1.00
   4   0  -6   95.83    4.05
   4   0  -6   83.36    5.06
  -4   0   6   98.58    3.96
   3   0  -6   26.04    1.16
   3   0  -6   23.46    1.36
  -3   0   6   27.33    1.08
  -3   0   6   24.52    1.20
   2   0  -6    3.25    0.22
   2   0  -6    3.79    0.25
  -2   0   6    4.32    0.31
   1   0  -6  114.25    4.80
   1   0  -6  118.99    4.73
   1   0  -6  104.21    5.20
   1   0  -6  106.14    4.69
  -1   0   6  112.55    4.14
  -1   0   6  112.45    4.23
   0   0  -6   86.67    3.88
   0   0  -6   88.06    3.36
   0   0  -6   85.32    3.97
   0   0  -6   82.11    3.80
   0   0   6   89.14    4.11
   0   0   6   84.74    3.66
  -1   0  -6    1.67    0.22
  -1   0  -6    1.60    0.22
  -1   0  -6    1.82    0.20
   1   0   6    2.04    0.24
   1   0   6    2.09    0.25
  -2   0  -6   18.54    0.82
   2   0   6   19.05    0.83
   2   0   6   18.73    0.88
  -3   0  -6    3.55    0.33
   3   0   6    3.36    0.35
   3   0   6    3.94    0.35
  -4   0  -6    1.17    0.27
   4   0   6    1.04    0.39
   4   0   6    1.59    0.31
  -5   0  -6    1.70    0.39
   5   0   6    2.07    0.45
   5   0   6    1.77    0.33
  -6   0  -6   -0.08    0.29
   6   0   6    0.34    0.32
   6   0   6    0.31    0.33
   9  -1  -6    0.65    0.28
   8  -1  -6    0.44    0.23
  -8   1   6    0.82    0.37
   7  -1  -6    0.51    0.22
  -7   1   6    0.07    0.24
   6  -1  -6   18.68    0.95
  -6   1   6   18.46    0.90
   5  -1  -6   36.90    1.86
  -5   1   6   37.44    1.81
   4  -1  -6   41.73    1.66
  -4   1   6   38.18    2.13
  -4   1   6   41.14    1.57
   3  -1  -6   53.77    2.33
  -3   1   6   53.81    2.60
   2  -1  -6    4.55    0.29
   2  -1  -6    4.75    0.33
  -2   1   6    5.02    0.28
  -2   1   6    5.06    0.37
   1  -1  -6   18.25    0.94
   1  -1  -6   22.86    0.88
   1  -1  -6   18.02    0.93
  -1   1   6   20.09    0.89
  -1   1   6   19.49    0.83
   0  -1  -6   10.01    0.49
   0  -1  -6    9.03    0.46
   0  -1  -6    9.46    0.41
   0   1   6    9.77    0.46
   0   1   6    9.70    0.52
  -1  -1  -6    3.19    0.29
   1   1   6    3.15    0.32
   1   1   6    3.22    0.34
  -2  -1  -6   33.74    1.30
   2   1   6   33.90    1.38
   2   1   6   31.43    1.46
  -3  -1  -6   54.10    2.25
   3   1   6   57.49    2.46
   3   1   6   54.94    2.26
  -4  -1  -6    0.73    0.27
   4   1   6    0.51    0.28
   4   1   6    0.73    0.29
  -5  -1  -6   11.55    0.70
   5   1   6   12.88    0.68
   5   1   6   11.60    0.72
   8  -2  -6   13.25    0.74
  -8   2   6   14.39    0.75
   7  -2  -6   18.28    1.06
  -7   2   6   19.38    1.09
   6  -2  -6    1.83    0.25
  -6   2   6    1.88    0.28
   5  -2  -6   -0.32    0.25
  -5   2   6    0.29    0.29
   4  -2  -6   43.71    2.03
  -4   2   6   47.43    2.24
   3  -2  -6    2.90    0.30
  -3   2   6    3.07    0.33
   2  -2  -6  143.63    6.06
  -2   2   6  150.20    6.95
  -2   2   6  144.38    5.90
   1  -2  -6   81.62    3.38
   1  -2  -6   74.27    4.17
  -1   2   6   82.52    3.62
  -1   2   6   81.11    3.42
   0  -2  -6    9.33    0.50
   0   2   6    9.49    0.52
   0   2   6    8.71    0.45
  -1  -2  -6   13.70    0.67
   1   2   6   13.20    0.69
   1   2   6   14.87    0.64
  -2  -2  -6   24.54    1.03
   2   2   6   23.70    1.01
   2   2   6   22.80    1.04
  -3  -2  -6    0.01    0.25
   3   2   6    0.06    0.27
   3   2   6   -0.12    0.23
  -4  -2  -6    5.08    0.46
   4   2   6    5.22    0.48
   4   2   6    5.46    0.43
  -5  -2  -6    1.34    0.38
   5   2   6    1.99    0.37
   5   2   6    1.32    0.38
   8  -3  -6    6.88    0.47
  -8   3   6    5.59    0.51
   7  -3  -6    0.06    0.23
  -7   3   6    0.02    0.26
   6  -3  -6    0.36    0.22
  -6   3   6    0.23    0.24
   5  -3  -6    1.52    0.24
  -5   3   6    1.58    0.27
   4  -3  -6   26.35    1.39
  -4   3   6   24.85    1.26
   3  -3  -6   23.45    1.14
  -3   3   6   22.57    1.18
  -3   3   6   22.72    1.07
   2  -3  -6   14.76    0.72
  -2   3   6   16.35    0.84
  -2   3   6   15.27    0.81
   1  -3  -6   36.28    1.70
   1  -3  -6   31.65    2.39
  -1   3   6   35.53    1.44
  -1   3   6   35.78    1.48
   0  -3  -6   21.17    0.91
   0   3   6   21.18    1.10
   0   3   6   20.70    0.92
  -1  -3  -6   40.34    1.84
   1   3   6   37.99    1.60
   1   3   6   38.55    2.00
  -2  -3  -6   39.35    1.71
   2   3   6   38.11    1.76
   2   3   6   38.49    1.60
  -3  -3  -6    0.01    0.27
   3   3   6    0.38    0.30
   3   3   6    0.14    0.32
  -4  -3  -6    0.10    0.45
   4   3   6    0.76    0.42
   4   3   6    0.81    0.46
   8  -4  -6    0.41    0.28
  -8   4   6    0.30    0.34
   7  -4  -6    2.40    0.32
  -7   4   6    2.57    0.36
   6  -4  -6    4.94    0.38
  -6   4   6    4.83    0.42
   5  -4  -6   37.62    2.09
  -5   4   6   37.79    1.89
   4  -4  -6    8.97    0.51
  -4   4   6    8.73    0.52
  -4   4   6    8.14    0.40
   3  -4  -6    7.77    0.51
  -3   4   6    8.70    0.51
  -3   4   6    8.39    0.49
   2  -4  -6    4.50    0.37
  -2   4   6    4.90    0.35
  -2   4   6    4.90    0.40
   1  -4  -6    0.70    0.25
  -1   4   6    1.04    0.26
  -1   4   6    1.20    0.17
   0  -4  -6   52.83    2.41
   0   4   6   48.49    2.37
   0   4   6   49.98    2.50
  -1  -4  -6   46.81    2.34
   1   4   6   42.12    2.54
   1   4   6   44.43    2.44
  -2  -4  -6    6.36    0.51
   2   4   6    6.43    0.41
   2   4   6    6.54    0.52
  -3  -4  -6    0.21    0.31
   3   4   6    0.24    0.25
   3   4   6    0.43    0.33
   7  -5  -6    0.25    0.27
  -7   5   6    0.41    0.30
   6  -5  -6   10.04    0.64
  -6   5   6   10.59    0.73
   5  -5  -6    2.47    0.34
  -5   5   6    3.28    0.38
   4  -5  -6    0.25    0.36
  -4   5   6    0.07    0.36
   3  -5  -6    2.24    0.31
  -3   5   6    1.60    0.30
   2  -5  -6   18.11    0.94
  -2   5   6   18.42    1.01
   1  -5  -6   13.85    0.85
  -1   5   6   13.39    0.75
   0  -5  -6    2.78    0.37
   0   5   6    3.05    0.37
  -1  -5  -6    0.43    0.33
   1   5   6    0.13    0.30
  -2  -5  -6    5.76    0.53
   2   5   6    5.72    0.50
   6  -6  -6    0.53    0.31
  -6   6   6    0.48    0.33
   5  -6  -6    2.25    0.37
  -5   6   6    2.12    0.40
   4  -6  -6   -0.14    0.27
  -4   6   6    0.05    0.27
   3  -6  -6   15.78    1.17
  -3   6   6   15.68    0.92
   2  -6  -6   27.85    2.05
  -2   6   6   26.02    1.66
   1  -6  -6    1.52    0.35
  -1   6   6    1.40    0.32
   0  -6  -6    3.35    0.54
   0   6   6    4.20    0.55
  -1  -6  -6    0.14    0.34
   1   6   6    0.41    0.33
   4  -7  -6    6.52    0.56
  -4   7   6    7.47    0.59
   3  -7  -6    0.57    0.48
  -3   7   6    0.94    0.45
   2  -7  -6    0.12    0.31
  -2   7   6    0.15    0.31
   1  11  -7    0.76    0.50
   0  11  -7    0.71    0.48
  -1  11  -7    1.34    0.50
  -2  11  -7    5.10    0.63
  -2  11  -7    5.66    0.74
  -3  11  -7    4.78    0.61
  -3  11  -7    5.41    0.72
   3  10  -7    0.40    0.32
   3  10  -7    0.71    0.49
   2  10  -7    0.87    0.47
   2  10  -7    0.38    0.29
   1  10  -7    0.20    0.43
   1  10  -7    0.19    0.29
   0  10  -7   10.18    0.75
   0 -10   7    8.76    0.64
  -1  10  -7   15.94    0.92
   1 -10   7   14.13    0.98
  -2  10  -7    0.29    0.44
  -2  10  -7    0.57    0.39
  -3  10  -7    0.73    0.48
  -3  10  -7    0.59    0.39
  -4  10  -7    5.12    0.69
   4   9  -7    1.83    0.37
   4   9  -7    2.09    0.52
   3   9  -7    0.00    0.42
   3   9  -7    0.17    0.28
   2   9  -7    2.08    0.36
   2   9  -7    1.66    0.46
   1   9  -7   36.35    1.79
   1   9  -7   35.86    2.21
   0   9  -7   21.60    1.09
  -1   9  -7    0.15    0.39
  -1   9  -7    0.11    0.35
   1  -9   7   -0.05    0.34
  -2   9  -7    0.79    0.37
  -2   9  -7    0.23    0.38
   2  -9   7    0.45    0.22
  -3   9  -7    2.54    0.52
  -4   9  -7    0.70    0.44
   4  -9   7    0.68    0.38
  -5   9  -7   10.49    0.83
   5  -9   7    8.11    0.59
   5   8  -7    7.08    0.66
   5   8  -7    7.79    0.71
   4   8  -7    3.93    0.37
   4   8  -7    4.37    0.43
   3   8  -7    9.67    0.70
   3   8  -7    8.27    0.68
   2   8  -7   11.15    0.68
   2   8  -7   10.74    0.80
   1   8  -7    2.10    0.42
   1   8  -7    2.59    0.35
   0   8  -7   -0.29    0.33
   0   8  -7   -0.47    0.35
  -1   8  -7    1.75    0.39
  -1   8  -7    1.94    0.38
   1  -8   7    1.84    0.27
  -2   8  -7   12.56    0.81
   2  -8   7   12.36    0.63
  -3   8  -7   27.98    1.74
  -3   8  -7   31.86    1.45
   3  -8   7   30.24    1.41
  -4   8  -7    3.51    0.54
  -4   8  -7    4.25    0.25
   4  -8   7    4.11    0.40
  -5   8  -7   -0.47    0.62
  -5   8  -7    0.03    0.17
   5  -8   7    0.27    0.40
  -6   8  -7    4.72    0.32
  -6   8  -7    4.63    0.68
   6  -8   7    4.81    0.54
   6   7  -7    0.23    0.16
   5   7  -7    3.81    0.27
   5   7  -7    3.46    0.41
   4   7  -7   31.04    1.37
   4   7  -7   28.23    2.15
   3   7  -7    2.27    0.33
   3   7  -7    2.78    0.16
   2   7  -7   18.99    1.09
   1   7  -7   10.86    0.63
   0   7  -7    0.24    0.25
   0   7  -7    0.43    0.32
  -1   7  -7   26.93    1.24
   1  -7   7   26.52    1.17
  -2   7  -7   53.55    2.38
   2  -7   7   55.03    2.10
  -3   7  -7    5.65    0.31
  -3   7  -7    6.19    0.56
   3  -7   7    5.56    0.41
  -4   7  -7    0.97    0.16
  -4   7  -7    0.79    0.39
   4  -7   7    0.99    0.29
  -5   7  -7    1.47    0.24
  -5   7  -7    1.76    0.49
   5  -7   7    1.64    0.33
  -6   7  -7    0.17    0.27
  -6   7  -7    0.05    0.49
   6  -7   7   -0.07    0.29
   7   6  -7   -0.02    0.19
   6   6  -7    0.51    0.18
   5   6  -7    4.86    0.31
   4   6  -7    0.06    0.13
   3   6  -7   41.83    2.17
   3   6  -7   40.20    1.72
   2   6  -7   13.15    0.90
   2   6  -7   14.41    0.56
   2   6  -7   14.87    0.70
  -2  -6   7   13.42    0.82
  -2  -6   7   12.64    0.78
   1   6  -7   20.67    0.94
   0   6  -7   33.74    1.49
   0   6  -7   33.73    1.35
  -1   6  -7    2.70    0.38
   1  -6   7    3.00    0.33
  -2   6  -7    0.60    0.30
  -2   6  -7    0.18    0.07
  -2   6  -7    0.32    0.08
   2  -6   7   -0.09    0.21
   2  -6   7    0.13    0.10
   2  -6   7    0.48    0.12
  -3   6  -7   -0.32    0.31
   3  -6   7    0.16    0.32
  -4   6  -7    2.49    0.44
  -4   6  -7    2.49    0.24
   4  -6   7    2.49    0.34
  -5   6  -7   35.63    2.19
  -5   6  -7   37.48    2.13
   5  -6   7   37.75    1.58
  -6   6  -7   13.72    0.92
  -6   6  -7   14.02    0.84
   6  -6   7   12.27    0.79
   7   5  -7    0.58    0.29
   6   5  -7    3.66    0.28
   5   5  -7   41.86    2.59
   4   5  -7    4.20    0.27
   3   5  -7    0.26    0.10
   3   5  -7    0.25    0.12
  -3  -5   7    0.25    0.09
   2   5  -7   44.37    1.92
   2   5  -7   45.66    1.84
  -2  -5   7   42.16    2.10
  -2  -5   7   40.70    1.67
   1   5  -7   53.31    2.22
   1   5  -7   49.34    2.53
   1   5  -7   51.14    2.05
  -1  -5   7   51.01    2.62
  -1  -5   7   50.39    2.23
   0   5  -7    8.79    0.35
   0   5  -7    9.76    0.53
   0   5  -7    9.06    0.56
   0   5  -7    8.56    0.54
   0  -5   7    9.26    0.48
   0  -5   7    8.89    0.51
   0  -5   7    8.66    0.38
  -1   5  -7   69.55    2.63
  -1   5  -7   70.08    3.18
   1  -5   7   63.85    3.57
   1  -5   7   70.96    3.62
   1  -5   7   69.74    3.34
  -2   5  -7    1.42    0.15
  -2   5  -7    0.90    0.15
  -2   5  -7    1.07    0.30
   2  -5   7    1.28    0.13
   2  -5   7    1.45    0.26
  -3   5  -7    5.66    0.49
  -3   5  -7    6.07    0.32
   3  -5   7    5.55    0.33
   3  -5   7    5.39    0.41
  -4   5  -7   61.24    2.69
  -4   5  -7   57.99    2.98
   4  -5   7   59.64    2.43
  -5   5  -7   15.47    0.68
  -5   5  -7   13.07    0.86
   5  -5   7   15.02    0.76
  -6   5  -7   -0.15    0.45
  -6   5  -7   -0.25    0.29
   6  -5   7    0.19    0.31
   7   4  -7    2.37    0.27
   6   4  -7   13.86    0.82
   5   4  -7    2.64    0.21
  -5  -4   7    1.96    0.24
   4   4  -7    5.01    0.29
  -4  -4   7    4.90    0.31
   3   4  -7    2.48    0.17
   3   4  -7    2.89    0.19
  -3  -4   7    2.81    0.20
   2   4  -7    1.11    0.12
   2   4  -7    1.01    0.12
   2   4  -7    0.96    0.24
  -2  -4   7    0.82    0.10
  -2  -4   7    0.78    0.11
   1   4  -7   43.06    2.12
   1   4  -7   41.87    1.67
   1   4  -7   41.51    1.98
   1   4  -7   44.18    1.54
  -1  -4   7   43.51    1.88
  -1  -4   7   38.50    2.68
  -1  -4   7   41.18    1.96
   0   4  -7   20.55    0.91
   0   4  -7   19.79    0.93
   0   4  -7   21.25    0.83
   0   4  -7   20.68    0.89
   0  -4   7   21.12    1.13
   0  -4   7   20.23    0.98
   0  -4   7   21.94    0.86
  -1   4  -7   33.61    1.33
  -1   4  -7   33.84    1.68
  -1   4  -7   31.85    2.13
   1  -4   7   34.28    1.36
   1  -4   7   30.63    2.39
   1  -4   7   35.02    1.36
  -2   4  -7   93.03    4.81
  -2   4  -7   93.98    3.98
  -2   4  -7   93.72    3.50
   2  -4   7   92.28    3.55
   2  -4   7   90.15    3.79
  -3   4  -7   10.04    0.67
  -3   4  -7   10.48    0.47
   3  -4   7   10.43    0.61
   3  -4   7   10.08    0.51
  -4   4  -7    0.99    0.34
  -4   4  -7    1.13    0.19
   4  -4   7    0.97    0.21
   4  -4   7    0.81    0.28
  -5   4  -7    0.35    0.20
  -5   4  -7   -0.09    0.52
   5  -4   7    0.67    0.29
  -6   4  -7    0.77    0.49
  -6   4  -7    0.70    0.24
   6  -4   7    1.04    0.45
   8   3  -7   -0.03    0.23
   7   3  -7    3.27    0.36
   6   3  -7    2.41    0.25
  -6  -3   7    2.58    0.29
   5   3  -7    0.32    0.13
  -5  -3   7    0.35    0.20
   4   3  -7    0.84    0.14
  -4  -3   7    0.76    0.21
   3   3  -7   77.21    3.13
   3   3  -7   77.25    3.62
  -3  -3   7   71.86    3.21
  -3  -3   7   73.88    3.95
   2   3  -7   29.69    1.35
   2   3  -7   30.16    1.14
  -2  -3   7   28.22    1.24
  -2  -3   7   27.93    1.93
   1   3  -7    2.83    0.16
   1   3  -7    3.68    0.35
   1   3  -7    2.63    0.20
   1   3  -7    2.93    0.28
  -1  -3   7    2.80    0.18
  -1  -3   7    2.97    0.21
  -1  -3   7    2.62    0.26
   0   3  -7    5.91    0.38
   0   3  -7    5.86    0.30
   0   3  -7    6.21    0.30
   0   3  -7    5.64    0.37
   0  -3   7    5.93    0.31
   0  -3   7    5.81    0.35
  -1   3  -7   61.45    2.56
  -1   3  -7   59.93    2.27
  -1   3  -7   60.19    2.75
   1  -3   7   58.84    2.29
   1  -3   7   63.97    2.46
  -2   3  -7   12.84    0.54
  -2   3  -7   12.84    0.65
  -2   3  -7   12.06    0.75
   2  -3   7   12.15    0.56
   2  -3   7   13.53    0.62
  -3   3  -7   69.71    2.89
  -3   3  -7   65.06    3.06
  -3   3  -7   59.10    4.38
   3  -3   7   66.76    2.50
   3  -3   7   65.33    2.62
  -4   3  -7   19.46    0.83
  -4   3  -7   20.10    1.04
   4  -3   7   18.59    0.85
   4  -3   7   21.07    0.90
  -5   3  -7    1.65    0.26
  -5   3  -7    1.43    0.43
   5  -3   7    2.11    0.30
   5  -3   7    1.64    0.35
  -6   3  -7   14.26    0.82
  -6   3  -7   15.24    0.95
   6  -3   7   16.10    0.88
   8   2  -7    4.40    0.45
   7   2  -7   23.25    1.27
  -7  -2   7   23.43    1.26
   6   2  -7    0.48    0.17
  -6  -2   7    0.78    0.26
   5   2  -7    1.23    0.22
  -5  -2   7    0.83    0.20
   4   2  -7    2.17    0.20
  -4  -2   7    2.51    0.40
  -4  -2   7    2.84    0.24
   3   2  -7    4.41    0.26
   3   2  -7    5.54    0.30
  -3  -2   7    4.79    0.35
  -3  -2   7    4.95    0.30
  -2  -2   7    0.21    0.13
   1   2  -7   20.65    1.17
   1   2  -7   22.17    0.97
   1   2  -7   22.15    0.96
   1   2  -7   20.58    1.12
  -1  -2   7   21.32    0.95
  -1  -2   7   22.44    1.18
   0   2  -7    0.14    0.16
   0   2  -7    0.38    0.22
   0   2  -7    0.00    0.14
   0   2  -7    0.15    0.13
   0  -2   7    0.33    0.15
   0  -2   7    0.05    0.21
  -1   2  -7   14.98    0.88
  -1   2  -7   15.69    0.69
  -1   2  -7   15.88    0.65
   1  -2   7   15.34    0.68
   1  -2   7   14.95    0.67
  -2   2  -7   17.97    0.82
  -2   2  -7   18.33    0.76
  -2   2  -7   16.92    1.08
   2  -2   7   18.81    0.77
   2  -2   7   15.75    1.07
   2  -2   7   17.53    0.78
  -3   2  -7   20.87    0.91
  -3   2  -7   20.78    1.04
   3  -2   7   21.94    1.00
   3  -2   7   21.73    1.09
  -4   2  -7   53.40    2.21
   4  -2   7   48.62    2.22
   4  -2   7   49.96    2.09
  -5   2  -7   11.63    0.63
   5  -2   7   12.73    0.68
   5  -2   7   11.58    0.66
  -6   2  -7    0.75    0.29
   6  -2   7    0.02    0.32
   6  -2   7    0.66    0.30
   8   1  -7   -0.01    0.22
  -8  -1   7   -0.05    0.35
   7   1  -7    0.32    0.18
  -7  -1   7    0.03    0.30
   6   1  -7    2.01    0.23
  -6  -1   7    1.60    0.26
   5   1  -7    5.47    0.33
  -5  -1   7    5.43    0.37
   4   1  -7   32.28    2.30
   4   1  -7   42.13    1.54
  -4  -1   7   39.52    1.59
  -4  -1   7   33.00    2.14
   3   1  -7    5.01    0.30
   3   1  -7    4.15    0.25
  -3  -1   7    3.90    0.32
  -3  -1   7    4.65    0.30
   2   1  -7   30.21    1.22
   2   1  -7   34.52    1.34
  -2  -1   7   31.71    1.65
  -2  -1   7   34.43    2.25
   1   1  -7   13.83    0.66
   1   1  -7   12.74    0.64
   1   1  -7   12.76    0.59
   1   1  -7   13.79    0.58
  -1  -1   7   13.51    1.58
  -1  -1   7   13.76    0.58
   0   1  -7   71.67    2.97
   0   1  -7   72.63    2.72
   0   1  -7   76.42    3.15
   0   1  -7   71.40    3.04
   0  -1   7   73.91    2.75
   0  -1   7   72.58    4.28
  -1   1  -7    2.62    0.25
  -1   1  -7    3.36    0.32
  -1   1  -7    2.85    0.30
   1  -1   7    3.11    0.29
   1  -1   7    2.86    0.33
  -2   1  -7    1.42    0.23
  -2   1  -7    1.32    0.31
   2  -1   7    1.48    0.32
   2  -1   7    1.36    0.27
  -3   1  -7    3.84    0.33
   3  -1   7    3.04    0.34
   3  -1   7    4.35    0.44
  -4   1  -7   19.11    0.84
   4  -1   7   17.80    0.85
   4  -1   7   17.88    0.96
  -5   1  -7    6.63    0.48
   5  -1   7    7.25    0.53
   5  -1   7    6.84    0.53
  -6   1  -7   23.19    1.28
   8   0  -7    6.29    0.43
  -8   0   7    4.70    0.46
   7   0  -7    1.43    0.34
  -7   0   7    1.92    0.39
   6   0  -7    0.25    0.18
  -6   0   7    0.35    0.22
   5   0  -7   52.78    2.50
  -5   0   7   52.62    2.66
   4   0  -7    0.72    0.17
  -4   0   7    0.39    0.17
  -4   0   7    0.69    0.20
   3   0  -7   11.38    0.53
  -3   0   7   11.46    0.54
  -3   0   7   11.06    0.61
   2   0  -7    0.10    0.15
   2   0  -7   -0.09    0.12
  -2   0   7    0.15    0.17
   1   0  -7    0.59    0.14
   1   0  -7    0.63    0.12
   1   0  -7    0.43    0.20
  -1   0   7    0.65    0.22
  -1   0   7    0.71    0.20
   0   0  -7    1.24    0.19
   0   0  -7    1.49    0.29
   0   0  -7    1.08    0.14
   0   0   7    1.06    0.22
   0   0   7    1.54    0.31
  -1   0  -7    0.08    0.19
  -1   0  -7   -0.11    0.20
   1   0   7    0.23    0.21
   1   0   7    0.90    0.49
  -2   0  -7    0.24    0.21
   2   0   7    0.67    0.35
   2   0   7    0.23    0.23
  -3   0  -7   17.32    0.80
   3   0   7   16.88    0.79
   3   0   7   16.39    0.83
  -4   0  -7   11.20    0.65
   4   0   7   11.75    0.69
   4   0   7   11.73    0.64
  -5   0  -7    0.22    0.28
   5   0   7    0.17    0.30
   5   0   7    0.10    0.43
   8  -1  -7    3.25    0.36
  -8   1   7    2.51    0.38
   7  -1  -7    7.14    0.45
  -7   1   7    7.14    0.52
   6  -1  -7    0.33    0.20
  -6   1   7    0.20    0.24
   5  -1  -7    7.04    0.44
  -5   1   7    6.66    0.49
   4  -1  -7    0.97    0.20
  -4   1   7    1.02    0.23
   3  -1  -7    2.89    0.31
  -3   1   7    3.05    0.29
   2  -1  -7   28.38    1.30
  -2   1   7   27.25    1.27
  -2   1   7   27.84    1.12
   1  -1  -7   27.88    1.14
   1  -1  -7   26.29    1.13
  -1   1   7   28.39    1.29
  -1   1   7   26.96    1.21
   0  -1  -7   31.87    1.28
   0  -1  -7   29.99    1.59
   0   1   7   31.33    1.45
   0   1   7   31.95    1.36
  -1  -1  -7    5.32    0.39
  -1  -1  -7    5.36    0.35
   1   1   7    4.92    0.41
   1   1   7    5.57    0.38
  -2  -1  -7   48.00    1.91
   2   1   7   47.20    1.94
   2   1   7   48.76    2.04
  -3  -1  -7   14.28    0.73
   3   1   7   13.59    0.76
   3   1   7   13.71    0.71
  -4  -1  -7    2.11    0.35
   4   1   7    1.98    0.44
   4   1   7    1.38    0.36
  -5  -1  -7    0.70    0.48
   5   1   7    1.75    0.59
   5   1   7    0.61    0.50
   8  -2  -7    4.03    0.39
  -8   2   7    4.03    0.45
   7  -2  -7    0.51    0.23
  -7   2   7    1.03    0.31
   6  -2  -7   27.53    1.57
  -6   2   7   27.03    1.52
   5  -2  -7    7.31    0.43
  -5   2   7    6.99    0.47
   4  -2  -7    1.21    0.22
  -4   2   7    1.20    0.26
   3  -2  -7    5.86    0.39
  -3   2   7    5.30    0.34
  -3   2   7    6.44    0.42
   2  -2  -7    9.15    0.50
  -2   2   7    8.46    0.51
  -2   2   7    9.65    0.50
   1  -2  -7    1.39    0.12
   1  -2  -7    1.83    0.26
  -1   2   7    2.10    0.36
  -1   2   7    1.19    0.21
   0  -2  -7   -0.04    0.22
   0  -2  -7    0.18    0.22
   0   2   7   -0.02    0.22
   0   2   7    0.15    0.19
  -1  -2  -7    0.10    0.23
   1   2   7    0.09    0.24
   1   2   7    0.69    0.23
  -2  -2  -7    0.02    0.26
   2   2   7    0.24    0.29
   2   2   7    0.34    0.24
  -3  -2  -7    0.56    0.30
   3   2   7    0.49    0.38
   3   2   7    1.55    0.36
  -4  -2  -7    0.30    0.32
   4   2   7    0.96    0.36
   4   2   7    0.86    0.30
   8  -3  -7    1.66    0.43
  -8   3   7    2.25    0.53
   7  -3  -7    3.88    0.37
  -7   3   7    3.97    0.42
   6  -3  -7    4.61    0.38
  -6   3   7    5.26    0.44
   5  -3  -7    9.63    0.53
  -5   3   7    9.41    0.56
   4  -3  -7   -0.07    0.30
  -4   3   7    0.39    0.15
  -4   3   7    1.14    0.37
   3  -3  -7   12.78    0.71
  -3   3   7   13.39    0.84
  -3   3   7   13.20    0.68
   2  -3  -7    4.02    0.41
  -2   3   7    3.94    0.43
  -2   3   7    3.36    0.26
   1  -3  -7    6.99    0.47
  -1   3   7    7.14    0.49
  -1   3   7    7.68    0.44
   0  -3  -7    0.08    0.24
   0   3   7    0.17    0.19
   0   3   7    0.75    0.26
  -1  -3  -7   19.38    1.01
   1   3   7   18.81    1.10
   1   3   7   18.07    0.98
  -2  -3  -7    1.42    0.34
   2   3   7    1.16    0.27
   2   3   7    1.46    0.36
  -3  -3  -7    8.43    0.69
   3   3   7    6.77    0.55
   3   3   7    8.23    0.64
   7  -4  -7    1.13    0.40
  -7   4   7    1.40    0.45
   6  -4  -7    2.34    0.35
  -6   4   7    2.55    0.37
   5  -4  -7    0.13    0.37
  -5   4   7   -0.22    0.37
   4  -4  -7   20.47    1.17
  -4   4   7   19.78    1.22
   3  -4  -7   16.60    1.00
  -3   4   7   16.43    0.73
  -3   4   7   15.34    0.92
   2  -4  -7    0.31    0.25
  -2   4   7   -0.18    0.24
  -2   4   7    0.33    0.16
   1  -4  -7    0.84    0.28
  -1   4   7    0.77    0.29
  -1   4   7    0.47    0.24
   0  -4  -7    5.08    0.47
   0   4   7    4.19    0.42
   0   4   7    4.41    0.32
  -1  -4  -7    0.83    0.35
   1   4   7    0.42    0.22
   1   4   7    0.88    0.33
  -2  -4  -7    0.07    0.31
   2   4   7    0.01    0.30
   2   4   7    0.01    0.23
   6  -5  -7    8.08    0.58
  -6   5   7    8.54    0.62
   5  -5  -7    1.38    0.34
  -5   5   7    1.54    0.38
   4  -5  -7    0.18    0.44
  -4   5   7    0.06    0.27
   3  -5  -7    2.26    0.38
  -3   5   7    2.36    0.37
   2  -5  -7    7.61    0.73
  -2   5   7    7.39    0.55
   1  -5  -7    2.91    0.49
  -1   5   7    3.43    0.49
   0  -5  -7   11.91    0.76
   0   5   7   13.62    0.77
  -1  -5  -7    0.28    0.34
   1   5   7    0.06    0.32
   5  -6  -7    5.92    0.54
  -5   6   7    5.28    0.55
   4  -6  -7   -0.04    0.33
  -4   6   7   -0.08    0.34
   3  -6  -7    0.67    0.35
  -3   6   7    0.66    0.33
   2  -6  -7    4.79    0.48
  -2   6   7    6.01    0.61
   1  -6  -7    4.23    0.48
  -1   6   7    5.58    0.52
   0  11  -8    0.22    0.50
  -1  11  -8    1.81    0.55
  -2  11  -8    0.91    0.50
  -2  11  -8    1.54    0.85
   2  10  -8    1.50    0.36
   2  10  -8    2.64    0.56
   1  10  -8    9.41    0.71
   1  10  -8    9.37    0.77
   0  10  -8    8.33    0.72
   0 -10   8    8.95    0.55
  -1  10  -8   -0.15    0.41
  -1  10  -8   -0.35    0.49
   1 -10   8   -0.14    0.24
  -2  10  -8    5.82    0.68
   2 -10   8    6.55    0.51
  -3  10  -8    0.58    0.49
  -4  10  -8   -0.09    0.51
   4   9  -8    8.26    0.98
   3   9  -8    0.63    0.43
   2   9  -8    5.84    0.50
   1   9  -8    8.26    0.61
   0  -9   8    3.85    0.45
  -1   9  -8   19.15    1.12
   1  -9   8   15.54    0.98
  -2   9  -8    5.76    0.62
   2  -9   8    5.42    0.43
  -3   9  -8    3.68    0.57
   3  -9   8    2.77    0.36
  -4   9  -8    1.09    0.66
   4  -9   8    0.64    0.34
  -5   9  -8   -0.08    0.50
   5  -9   8    0.28    0.32
   5   8  -8    3.13    0.55
   4   8  -8    1.91    0.36
   3   8  -8    1.72    0.43
   2   8  -8   11.98    0.78
   1   8  -8   44.40    2.65
   0   8  -8    8.06    0.69
   0   8  -8   10.98    0.74
   0  -8   8   10.74    0.71
  -1   8  -8    8.40    0.74
   1  -8   8    9.29    0.58
  -2   8  -8   27.50    1.29
   2  -8   8   27.46    1.44
  -3   8  -8    1.07    0.58
   3  -8   8    1.33    0.30
  -4   8  -8   11.96    0.65
  -4   8  -8   12.05    0.86
   4  -8   8   15.03    0.81
  -5   8  -8    5.87    0.67
  -5   8  -8    4.49    0.29
   5  -8   8    3.82    0.46
   6   7  -8    0.79    0.17
   5   7  -8    0.42    0.16
   5   7  -8    0.42    0.30
   4   7  -8    0.09    0.08
   4   7  -8   -0.17    0.27
   3   7  -8   49.79    2.89
   3   7  -8   46.46    2.37
   2   7  -8   92.81    5.69
   1   7  -8   11.53    0.70
   0   7  -8    1.61    0.32
   0   7  -8    2.02    0.39
   0  -7   8    2.54    0.38
  -1   7  -8    6.02    0.54
   1  -7   8    5.72    0.47
  -2   7  -8    4.65    0.60
  -2   7  -8    3.12    0.21
   2  -7   8    3.20    0.35
  -3   7  -8   29.40    1.68
  -3   7  -8   29.20    1.90
   3  -7   8   28.94    1.28
  -4   7  -8    8.50    0.40
  -4   7  -8    7.90    0.78
   4  -7   8    7.71    0.56
  -5   7  -8    3.79    0.74
  -5   7  -8    3.37    0.31
   5  -7   8    2.98    0.42
   6   6  -8    3.45    0.27
   5   6  -8   12.19    0.69
   4   6  -8   27.22    1.45
   4   6  -8   26.93    1.57
   3   6  -8   15.83    0.93
   3   6  -8   15.62    0.85
   2   6  -8    8.94    0.40
   2   6  -8    9.43    0.60
   2   6  -8    8.58    0.43
   1   6  -8    0.96    0.28
   0   6  -8   20.18    0.92
   0   6  -8   19.57    1.01
   0  -6   8   21.24    0.89
  -1   6  -8  119.70    4.81
  -1   6  -8  128.91    7.23
  -1   6  -8  130.91    6.15
   1  -6   8  132.58    5.51
  -2   6  -8   42.20    1.92
  -2   6  -8   41.60    1.93
   2  -6   8   40.85    1.82
  -3   6  -8    0.28    0.16
  -3   6  -8    0.06    0.32
   3  -6   8    0.35    0.27
  -4   6  -8   16.00    0.80
  -4   6  -8   13.84    0.86
   4  -6   8   14.08    0.76
  -5   6  -8    7.01    0.68
  -5   6  -8    8.08    0.49
   5  -6   8    7.25    0.55
  -6   6  -8    2.21    0.34
  -6   6  -8    1.51    0.56
   6  -6   8    2.38    0.42
   7   5  -8    1.55    0.24
   6   5  -8   33.87    1.87
   5   5  -8   20.45    1.25
   4   5  -8    0.20    0.11
   3   5  -8    8.01    0.44
   3   5  -8    9.60    0.60
   2   5  -8    0.61    0.25
   2   5  -8    0.54    0.08
  -2  -5   8    0.72    0.13
  -2  -5   8    0.30    0.11
   1   5  -8   39.55    1.94
   1   5  -8   38.79    1.58
  -1  -5   8   35.11    2.97
  -1  -5   8   36.19    2.27
   0   5  -8  149.96    7.10
   0   5  -8  146.89    8.79
   0   5  -8  153.71    5.60
   0  -5   8  151.02    5.89
   0  -5   8  143.05    7.50
   0  -5   8  128.98    5.64
  -1   5  -8   46.21    2.26
  -1   5  -8   47.84    2.46
  -1   5  -8   46.04    2.04
   1  -5   8   45.54    2.98
   1  -5   8   48.94    1.89
  -2   5  -8    0.46    0.12
  -2   5  -8    1.39    0.33
   2  -5   8    0.78    0.25
  -3   5  -8    3.59    0.44
  -3   5  -8    2.84    0.22
   3  -5   8    3.30    0.44
  -4   5  -8    1.48    0.41
  -4   5  -8    1.44    0.21
   4  -5   8    1.37    0.33
  -5   5  -8   10.86    0.77
  -5   5  -8   10.01    0.55
   5  -5   8   10.51    0.65
  -6   5  -8    4.36    0.37
  -6   5  -8    6.32    0.71
   6  -5   8    4.79    0.60
   7   4  -8    4.26    0.33
   6   4  -8    4.77    0.35
   5   4  -8    2.53    0.22
   4   4  -8   10.41    0.53
  -4  -4   8    8.93    0.56
   3   4  -8   50.58    2.82
   3   4  -8   56.09    2.23
  -3  -4   8   48.88    2.78
   2   4  -8   95.86    3.64
   2   4  -8   92.37    3.43
   2   4  -8   91.48    5.14
  -2  -4   8   79.35    3.82
   1   4  -8   16.90    0.76
   1   4  -8   18.20    0.89
   1   4  -8   16.51    1.03
   1   4  -8   16.88    0.79
  -1  -4   8   17.19    0.96
   0   4  -8    4.33    0.24
   0   4  -8    4.76    0.38
   0   4  -8    4.83    0.38
   0   4  -8    4.66    0.26
   0  -4   8    5.12    0.36
   0  -4   8    4.72    0.36
  -1   4  -8    0.03    0.09
  -1   4  -8    0.01    0.10
  -1   4  -8    0.19    0.24
   1  -4   8   -0.15    0.17
   1  -4   8   -0.06    0.21
  -2   4  -8    3.43    0.23
  -2   4  -8    3.75    0.40
   2  -4   8    3.11    0.25
   2  -4   8    3.83    0.35
  -3   4  -8   65.95    3.47
  -3   4  -8   67.13    2.81
   3  -4   8   67.50    2.85
   3  -4   8   61.92    3.23
  -4   4  -8   60.61    3.24
  -4   4  -8   58.86    2.85
   4  -4   8   57.69    2.67
  -5   4  -8    0.44    0.22
  -5   4  -8    0.35    0.42
   5  -4   8    0.02    0.30
  -6   4  -8   -0.11    0.47
  -6   4  -8    0.46    0.25
   6  -4   8    0.00    0.34
   8   3  -8    0.10    0.23
   7   3  -8   16.03    0.75
   6   3  -8    4.39    0.31
   5   3  -8    0.09    0.14
  -5  -3   8    0.32    0.18
   4   3  -8   62.64    2.99
  -4  -3   8   61.06    3.47
   3   3  -8  108.57    4.57
   3   3  -8  101.04    5.23
  -3  -3   8   85.55    7.47
  -3  -3   8   95.63    4.50
   2   3  -8    5.97    0.42
   2   3  -8    6.12    0.34
   2   3  -8    5.58    0.36
  -2  -3   8    6.34    0.35
  -2  -3   8    5.08    0.37
   1   3  -8   49.09    2.58
   1   3  -8   49.61    2.54
   1   3  -8   49.27    2.58
   1   3  -8   50.90    1.97
  -1  -3   8   45.48    2.45
  -1  -3   8   52.47    2.05
  -1  -3   8   47.71    2.15
   0   3  -8   11.63    0.59
   0   3  -8   12.38    0.59
   0   3  -8   11.42    0.55
   0   3  -8   11.34    0.62
   0  -3   8   12.14    0.60
   0  -3   8   11.57    0.64
  -1   3  -8   10.78    0.50
  -1   3  -8    9.76    0.63
  -1   3  -8   11.88    0.63
   1  -3   8   11.00    0.55
   1  -3   8   10.40    0.51
  -2   3  -8   63.57    2.88
  -2   3  -8   67.55    2.70
   2  -3   8   60.73    3.08
   2  -3   8   64.11    2.65
  -3   3  -8   35.94    1.60
  -3   3  -8   33.07    1.55
   3  -3   8   33.97    1.49
   3  -3   8   34.43    1.79
  -4   3  -8    6.89    0.42
  -4   3  -8    7.34    0.67
   4  -3   8    7.11    0.51
   4  -3   8    6.66    0.46
  -5   3  -8    1.75    0.29
  -5   3  -8    2.17    0.48
   5  -3   8    2.15    0.38
   8   2  -8    3.63    0.36
   7   2  -8    5.26    0.38
   6   2  -8    2.43    0.26
  -6  -2   8    2.62    0.30
   5   2  -8    4.74    0.34
  -5  -2   8    3.29    0.32
   4   2  -8    4.18    0.43
   4   2  -8    6.27    0.34
  -4  -2   8    5.94    0.39
  -4  -2   8    4.93    0.42
   3   2  -8   17.86    1.19
   3   2  -8   15.13    0.92
  -3  -2   8   13.85    1.03
  -3  -2   8   15.63    0.75
   2   2  -8   11.84    0.60
   2   2  -8    8.58    0.51
   2   2  -8   10.52    0.47
  -2  -2   8    9.66    0.49
  -2  -2   8    9.81    0.50
   1   2  -8   37.72    2.04
   1   2  -8   37.47    1.45
   1   2  -8   37.61    1.67
   1   2  -8   34.81    2.28
  -1  -2   8   36.77    1.54
  -1  -2   8   38.64    1.44
   0   2  -8  165.87    6.90
   0   2  -8  162.21    7.83
   0   2  -8  167.17    6.43
   0   2  -8  169.27    6.60
   0  -2   8  160.32    7.23
   0  -2   8  175.35    6.73
  -1   2  -8   29.42    1.32
  -1   2  -8   25.84    1.90
  -1   2  -8   29.90    1.26
   1  -2   8   29.92    1.43
   1  -2   8   28.86    1.28
  -2   2  -8    0.91    0.33
  -2   2  -8    0.78    0.20
   2  -2   8    0.74    0.35
   2  -2   8    0.72    0.22
  -3   2  -8    0.72    0.39
  -3   2  -8    0.80    0.29
   3  -2   8    0.83    0.29
   3  -2   8    0.51    0.24
  -4   2  -8    3.05    0.33
  -4   2  -8    3.03    0.54
   4  -2   8    2.97    0.36
   4  -2   8    2.31    0.38
  -5   2  -8    6.28    0.54
  -5   2  -8    6.23    0.73
   5  -2   8    5.97    0.51
   8   1  -8   -0.10    0.35
   7   1  -8    1.81    0.28
  -7  -1   8    1.34    0.31
   6   1  -8   10.91    0.71
  -6  -1   8    9.55    0.57
   5   1  -8   22.12    1.08
  -5  -1   8   21.01    1.16
   4   1  -8   59.66    2.60
  -4  -1   8   58.73    2.62
   3   1  -8    0.60    0.15
  -3  -1   8    0.65    0.17
  -3  -1   8    0.86    0.21
   2   1  -8   10.83    0.56
   2   1  -8    9.92    0.57
   2   1  -8   12.21    0.56
  -2  -1   8   11.69    0.61
   1   1  -8   63.37    3.46
   1   1  -8   69.35    4.22
   1   1  -8   74.65    2.81
   1   1  -8   72.73    3.48
  -1  -1   8   73.26    2.70
  -1  -1   8   69.56    3.30
   0   1  -8   28.88    1.19
   0   1  -8   24.76    1.48
   0   1  -8   28.95    1.12
   0   1  -8   28.52    1.31
   0  -1   8   30.08    1.25
   0  -1   8   27.35    1.15
  -1   1  -8   27.07    1.20
  -1   1  -8   27.36    1.09
   1  -1   8   27.30    1.10
   1  -1   8   26.78    1.12
  -2   1  -8   16.69    0.95
  -2   1  -8   18.10    0.80
   2  -1   8   15.56    0.86
   2  -1   8   18.80    0.83
  -3   1  -8    2.97    0.33
  -3   1  -8    3.07    0.46
   3  -1   8    3.20    0.39
   3  -1   8    3.30    0.38
  -4   1  -8   18.20    1.04
  -4   1  -8   19.20    0.90
   4  -1   8   19.68    0.98
   4  -1   8   17.78    1.10
  -5   1  -8    6.30    0.51
   5  -1   8    7.30    0.65
   5  -1   8    7.65    0.57
   8   0  -8    0.64    0.27
  -8   0   8    0.12    0.33
   7   0  -8    1.52    0.28
  -7   0   8    1.84    0.32
   6   0  -8    0.24    0.21
  -6   0   8    0.13    0.24
   5   0  -8    6.99    0.42
  -5   0   8    6.46    0.52
   4   0  -8   11.62    0.66
  -4   0   8   12.08    0.63
   3   0  -8    0.11    0.16
  -3   0   8    0.05    0.20
   2   0  -8    0.23    0.18
   2   0  -8    0.45    0.18
  -2   0   8    0.46    0.29
  -2   0   8    0.26    0.18
   1   0  -8   17.00    0.78
   1   0  -8   19.95    0.84
  -1   0   8   17.74    0.91
  -1   0   8   17.86    0.76
   0   0  -8   10.71    0.63
   0   0  -8   12.53    0.61
   0   0   8   12.31    0.64
   0   0   8   11.57    0.57
  -1   0  -8    1.33    0.27
  -1   0  -8    1.31    0.21
   1   0   8    1.03    0.35
   1   0   8    1.91    0.29
  -2   0  -8   53.60    3.45
  -2   0  -8   57.41    2.30
   2   0   8   53.25    2.43
   2   0   8   57.22    2.30
  -3   0  -8   44.53    2.07
  -3   0  -8   40.95    2.39
   3   0   8   47.48    2.12
   3   0   8   39.43    2.24
  -4   0  -8    0.31    0.28
   4   0   8    0.37    0.30
   4   0   8    0.09    0.31
   8  -1  -8    1.63    0.32
  -8   1   8    1.21    0.35
   7  -1  -8   -0.12    0.23
  -7   1   8   -0.11    0.27
   6  -1  -8    2.45    0.30
  -6   1   8    2.78    0.38
   5  -1  -8    0.87    0.23
  -5   1   8    0.55    0.26
   4  -1  -8   17.05    0.81
  -4   1   8   16.78    0.89
   3  -1  -8   -0.19    0.19
  -3   1   8    0.20    0.21
  -3   1   8   -0.05    0.16
   2  -1  -8   52.83    2.07
   2  -1  -8   44.58    2.02
  -2   1   8   46.73    2.33
  -2   1   8   48.94    1.99
   1  -1  -8   12.24    0.71
   1  -1  -8   15.36    0.72
  -1   1   8   14.09    0.74
  -1   1   8   12.81    0.62
   0  -1  -8    0.07    0.22
   0   1   8   -0.02    0.23
   0   1   8    0.31    0.31
  -1  -1  -8    2.02    0.40
   1   1   8    2.37    0.33
   1   1   8    2.53    0.43
  -2  -1  -8   24.56    1.11
   2   1   8   23.80    1.09
   2   1   8   23.33    1.26
  -3  -1  -8    0.28    0.41
   3   1   8   -0.06    0.45
   3   1   8    0.11    0.30
  -4  -1  -8    8.08    0.61
   4   1   8    9.30    0.70
   4   1   8    8.10    0.66
   7  -2  -8    2.22    0.32
  -7   2   8    1.72    0.38
   6  -2  -8    0.09    0.22
  -6   2   8    0.48    0.28
   5  -2  -8    1.48    0.27
  -5   2   8    0.85    0.28
   4  -2  -8   -0.14    0.21
  -4   2   8    0.09    0.25
  -4   2   8    0.07    0.16
   3  -2  -8    0.12    0.21
  -3   2   8   -0.08    0.22
  -3   2   8    0.46    0.28
   2  -2  -8    0.99    0.15
   2  -2  -8    1.54    0.27
  -2   2   8    1.52    0.29
  -2   2   8    1.80    0.28
   1  -2  -8    1.46    0.28
  -1   2   8    1.65    0.31
  -1   2   8    1.41    0.30
   0  -2  -8    1.46    0.29
   0   2   8    1.38    0.26
   0   2   8    0.96    0.29
  -1  -2  -8    1.76    0.34
   1   2   8    2.31    0.30
   1   2   8    1.79    0.35
  -2  -2  -8    8.81    0.60
   2   2   8    8.11    0.61
   2   2   8    9.12    0.61
  -3  -2  -8   -0.14    0.44
   3   2   8    0.25    0.28
   3   2   8    0.57    0.50
   7  -3  -8    5.62    0.45
  -7   3   8    4.81    0.49
   6  -3  -8    0.19    0.27
  -6   3   8    0.45    0.32
   5  -3  -8    5.66    0.46
  -5   3   8    6.31    0.51
   4  -3  -8    3.19    0.35
  -4   3   8    3.02    0.37
  -4   3   8    2.17    0.24
   3  -3  -8   10.89    0.72
  -3   3   8   11.86    0.76
  -3   3   8   10.40    0.69
   2  -3  -8    6.61    0.53
  -2   3   8    6.49    0.56
  -2   3   8    6.22    0.42
   1  -3  -8   15.79    0.82
  -1   3   8   15.12    0.77
  -1   3   8   15.26    0.85
   0  -3  -8    6.25    0.56
   0   3   8    5.50    0.58
   0   3   8    4.58    0.43
  -1  -3  -8   10.31    0.65
   1   3   8    8.58    0.56
   1   3   8    9.48    0.65
  -2  -3  -8    0.11    0.33
   2   3   8   -0.10    0.37
   2   3   8    0.37    0.33
   6  -4  -8    0.55    0.32
  -6   4   8    1.12    0.38
   5  -4  -8    0.30    0.30
  -5   4   8    0.23    0.35
   4  -4  -8    0.24    0.26
  -4   4   8   -0.08    0.28
   3  -4  -8    1.93    0.44
  -3   4   8    2.52    0.38
   2  -4  -8   -0.14    0.27
  -2   4   8   -0.11    0.28
   1  -4  -8   -0.23    0.29
  -1   4   8    0.06    0.28
   0  -4  -8    1.55    0.51
   0   4   8    1.81    0.41
  -1  -4  -8    1.94    0.41
   1   4   8    1.69    0.41
  -5   5   8    5.25    0.55
   4  -5  -8    3.00    0.43
  -4   5   8    4.08    0.49
   3  -5  -8    2.38    0.40
  -3   5   8    2.44    0.41
   2  -5  -8    0.45    0.44
  -2   5   8   -0.21    0.44
   1  -5  -8    3.94    0.47
  -1   5   8    3.24    0.46
   2  10  -9    4.21    0.47
   1  10  -9    2.25    0.53
   0 -10   9    0.39    0.42
  -1  10  -9    8.52    0.80
   1 -10   9    7.59    0.60
  -2  10  -9    0.41    0.49
   2 -10   9    0.09    0.29
  -3  10  -9    1.07    0.53
   3 -10   9    0.96    0.35
   3   9  -9    4.49    0.48
   2   9  -9    0.78    0.35
   1   9  -9    2.88    0.41
   0  -9   9    3.08    0.38
  -1   9  -9    0.54    0.44
   1  -9   9    0.18    0.28
  -2   9  -9   -0.35    0.43
   2  -9   9    0.05    0.28
  -3   9  -9    1.46    0.53
   3  -9   9    1.14    0.34
  -4   9  -9    0.63    0.50
   4  -9   9    0.58    0.50
   4   8  -9    1.68    0.38
   3   8  -9    8.38    0.74
   2   8  -9   19.71    1.47
   1   8  -9    0.99    0.33
   0   8  -9   10.21    0.65
   0   8  -9    9.28    0.73
   0  -8   9   10.04    0.66
  -1   8  -9   -0.38    0.36
   1  -8   9    0.18    0.28
  -2   8  -9    2.46    0.48
   2  -8   9    2.77    0.37
  -3   8  -9    6.00    0.62
   3  -8   9    5.85    0.50
  -4   8  -9    7.74    0.87
   4  -8   9    7.82    0.69
   5   7  -9    2.26    0.42
   5   7  -9    2.70    0.27
   4   7  -9    5.37    0.49
   3   7  -9    9.42    0.68
   2   7  -9    0.12    0.27
   1   7  -9    6.75    0.52
   0   7  -9    6.51    0.66
   0   7  -9    6.18    0.51
   0  -7   9    7.50    0.49
  -1   7  -9    8.13    0.71
   1  -7   9    6.75    0.56
  -2   7  -9    5.11    0.55
  -2   7  -9    5.10    0.27
   2  -7   9    4.77    0.44
  -3   7  -9   -0.06    0.37
  -3   7  -9    0.28    0.09
   3  -7   9    0.46    0.42
  -4   7  -9   -0.19    0.42
  -4   7  -9    0.03    0.13
   4  -7   9    0.34    0.35
  -5   7  -9    0.38    0.70
  -5   7  -9    0.78    0.25
   5  -7   9    0.12    0.49
   6   6  -9    4.74    0.38
   5   6  -9    4.51    0.38
   4   6  -9    5.94    0.33
   4   6  -9    6.31    0.53
   3   6  -9   30.46    1.60
   3   6  -9   28.04    2.34
   2   6  -9    6.46    0.45
   2   6  -9    6.91    0.56
   1   6  -9    5.90    0.51
   1   6  -9    5.95    0.47
   0   6  -9   50.04    2.08
   0   6  -9   49.87    2.82
   0   6  -9   49.60    2.62
   0  -6   9   49.52    2.05
  -1   6  -9   24.80    1.87
  -1   6  -9   24.67    1.24
   1  -6   9   25.74    1.10
  -2   6  -9    1.50    0.14
  -2   6  -9    1.27    0.37
   2  -6   9    1.48    0.30
  -3   6  -9    7.76    0.65
  -3   6  -9    8.66    0.48
   3  -6   9    8.89    0.58
  -4   6  -9    0.31    0.42
  -4   6  -9    0.16    0.16
   4  -6   9    0.13    0.34
  -5   6  -9    0.29    0.68
  -5   6  -9    0.16    0.19
   5  -6   9   -0.16    0.34
   6   5  -9    1.08    0.20
   5   5  -9   19.25    1.26
   4   5  -9   66.37    3.78
   3   5  -9   17.79    0.95
   3   5  -9   19.48    0.90
   2   5  -9   11.05    0.62
   2   5  -9    9.99    0.62
   1   5  -9   14.38    0.70
   1   5  -9   14.49    0.87
  -1  -5   9   16.02    0.73
   0   5  -9    1.01    0.40
   0   5  -9    1.00    0.37
   0   5  -9    1.21    0.14
   0  -5   9    1.11    0.27
  -1   5  -9    7.42    0.54
  -1   5  -9    7.07    0.42
   1  -5   9    7.18    0.47
  -2   5  -9    9.85    0.66
  -2   5  -9   11.51    0.60
   2  -5   9   10.08    0.64
  -3   5  -9   12.31    0.87
  -3   5  -9   13.19    0.75
   3  -5   9   14.75    0.74
  -4   5  -9   14.20    0.90
  -4   5  -9   16.25    0.70
   4  -5   9   14.63    0.80
  -5   5  -9    0.29    0.21
  -5   5  -9    0.01    0.62
   5  -5   9    0.70    0.37
   7   4  -9    5.61    0.40
   6   4  -9   18.03    1.17
   5   4  -9    5.22    0.32
   4   4  -9    6.70    0.37
   3   4  -9   21.35    1.16
   3   4  -9   21.80    1.14
   2   4  -9    0.11    0.24
   2   4  -9    0.06    0.11
   1   4  -9   88.95    4.15
   1   4  -9   90.65    4.60
   1   4  -9   88.91    4.06
  -1  -4   9   86.25    5.07
  -1  -4   9   94.56    3.81
   0   4  -9   58.06    3.12
   0   4  -9   55.15    2.32
   0   4  -9   58.79    2.65
   0  -4   9   56.62    2.33
   0  -4   9   55.04    3.61
  -1   4  -9    1.32    0.20
  -1   4  -9    1.20    0.30
   1  -4   9    0.96    0.35
  -2   4  -9   34.32    1.66
  -2   4  -9   33.62    1.59
   2  -4   9   35.59    1.63
  -3   4  -9   40.11    1.72
  -3   4  -9   36.61    1.95
   3  -4   9   38.21    1.63
  -4   4  -9    0.25    0.37
  -4   4  -9    0.24    0.20
   4  -4   9    0.45    0.32
  -5   4  -9   10.44    0.79
  -5   4  -9   10.09    0.57
   5  -4   9   11.22    0.70
   7   3  -9   15.05    0.86
   6   3  -9    0.76    0.26
   5   3  -9    4.18    0.34
   4   3  -9    1.01    0.23
  -4  -3   9    0.95    0.51
   3   3  -9    3.14    0.24
  -3  -3   9    2.95    0.34
   2   3  -9   93.74    3.70
   2   3  -9   86.11    3.57
  -2  -3   9   81.14    4.59
   1   3  -9   52.09    2.26
   1   3  -9   52.93    2.15
   1   3  -9   47.22    2.38
  -1  -3   9   46.74    2.13
  -1  -3   9   51.68    2.14
   0   3  -9   27.29    1.17
   0   3  -9   25.77    1.12
   0   3  -9   25.49    1.17
   0  -3   9   25.30    1.32
   0  -3   9   26.18    1.10
  -1   3  -9    8.34    0.44
  -1   3  -9    6.87    0.49
   1  -3   9    7.64    0.48
   1  -3   9    7.03    0.47
  -2   3  -9    0.08    0.17
  -2   3  -9    0.17    0.28
   2  -3   9    0.30    0.22
   2  -3   9    0.03    0.36
  -3   3  -9   15.56    0.85
  -3   3  -9   12.85    0.63
   3  -3   9   12.62    0.78
  -4   3  -9    6.97    0.70
  -4   3  -9    6.61    0.43
   4  -3   9    5.95    0.51
   7   2  -9   -0.04    0.22
   6   2  -9   -0.08    0.19
   5   2  -9   10.71    0.57
  -5  -2   9    9.33    0.60
   4   2  -9   49.92    2.55
  -4  -2   9   45.39    1.92
   3   2  -9   15.38    0.67
  -3  -2   9   13.54    0.71
   2   2  -9    7.70    0.43
   2   2  -9    7.80    0.49
  -2  -2   9    8.48    0.47
  -2  -2   9    6.90    0.46
   1   2  -9    9.61    0.54
   1   2  -9    8.21    0.65
   1   2  -9    9.85    0.52
  -1  -2   9    9.13    0.50
  -1  -2   9    8.79    0.52
   0   2  -9    9.31    0.60
   0   2  -9    8.98    0.48
   0   2  -9    8.19    0.49
   0  -2   9    9.47    0.51
   0  -2   9    8.79    0.53
  -1   2  -9   36.94    1.75
  -1   2  -9   37.03    1.72
   1  -2   9   37.45    1.79
   1  -2   9   34.95    1.71
  -2   2  -9  107.33    5.44
  -2   2  -9  114.54    4.54
   2  -2   9  102.58    5.92
   2  -2   9  114.78    4.66
  -3   2  -9    6.07    0.50
  -3   2  -9    5.60    0.42
   3  -2   9    5.45    0.48
   3  -2   9    5.72    0.46
  -4   2  -9    1.41    0.30
  -4   2  -9    0.98    0.39
   4  -2   9    1.42    0.38
   7   1  -9    1.13    0.33
   6   1  -9    7.40    0.52
  -6  -1   9    7.77    0.59
   5   1  -9   38.23    1.56
  -5  -1   9   38.19    1.57
   4   1  -9   30.62    1.38
  -4  -1   9   28.70    1.49
   3   1  -9    1.74    0.30
  -3  -1   9    1.58    0.33
   2   1  -9    2.77    0.29
   2   1  -9    2.97    0.30
  -2  -1   9    2.62    0.32
  -2  -1   9    2.93    0.29
   1   1  -9    1.12    0.23
   1   1  -9    0.88    0.20
  -1  -1   9    0.79    0.31
  -1  -1   9    0.76    0.25
   0   1  -9   36.58    1.94
   0   1  -9   37.53    1.49
   0   1  -9   38.66    1.73
   0  -1   9   41.23    1.87
   0  -1   9   36.37    1.82
  -1   1  -9   42.69    2.30
  -1   1  -9   44.84    1.74
   1  -1   9   45.97    1.88
   1  -1   9   42.44    2.22
  -2   1  -9   23.96    1.49
  -2   1  -9   25.87    1.13
   2  -1   9   26.09    1.14
   2  -1   9   24.03    1.40
  -3   1  -9    0.93    0.33
  -3   1  -9    1.60    0.31
   3  -1   9    1.18    0.34
   3  -1   9    1.79    0.35
  -4   1  -9    1.00    0.31
  -4   1  -9    0.10    0.51
   4  -1   9    0.61    0.35
   7   0  -9    1.30    0.28
  -7   0   9    1.84    0.36
   6   0  -9    3.01    0.33
  -6   0   9    3.01    0.38
   5   0  -9    0.23    0.21
  -5   0   9    0.47    0.26
   4   0  -9    1.22    0.25
  -4   0   9    1.14    0.29
   3   0  -9    0.85    0.23
  -3   0   9    1.34    0.27
  -3   0   9    0.87    0.30
   2   0  -9   75.75    3.39
   2   0  -9   86.55    3.76
  -2   0   9   82.77    4.28
  -2   0   9   85.10    3.48
   1   0  -9   53.85    2.37
   1   0  -9   46.16    2.87
  -1   0   9   48.19    2.68
  -1   0   9   48.74    2.41
   0   0  -9    5.42    0.41
   0   0   9    4.65    0.43
   0   0   9    4.30    0.38
  -1   0  -9    0.19    0.34
   1   0   9    0.09    0.38
   1   0   9   -0.04    0.26
  -2   0  -9    2.32    0.35
   2   0   9    2.19    0.36
   2   0   9    2.09    0.38
  -3   0  -9    0.38    0.42
   3   0   9    0.42    0.35
   3   0   9    0.49    0.33
   7  -1  -9    0.18    0.26
  -7   1   9    0.45    0.31
   6  -1  -9   11.40    0.72
  -6   1   9    9.73    0.65
   5  -1  -9    0.89    0.26
  -5   1   9    0.45    0.28
   4  -1  -9    1.25    0.26
  -4   1   9    1.95    0.34
   3  -1  -9   34.07    1.71
  -3   1   9   32.76    1.75
  -3   1   9   35.53    1.88
   2  -1  -9   47.64    2.23
   2  -1  -9   37.55    2.14
  -2   1   9   41.06    2.36
  -2   1   9   41.91    2.61
   1  -1  -9    0.99    0.26
  -1   1   9    0.25    0.30
  -1   1   9    0.44    0.28
   0  -1  -9    6.13    0.54
   0   1   9    5.83    0.58
   0   1   9    5.00    0.48
  -1  -1  -9    4.30    0.51
   1   1   9    4.55    0.51
   1   1   9    3.79    0.55
  -2  -1  -9   18.87    0.99
   2   1   9   16.32    1.53
   2   1   9   18.80    0.94
   6  -2  -9    1.88    0.35
  -6   2   9    1.58    0.38
   5  -2  -9    6.17    0.47
  -5   2   9    5.35    0.51
   4  -2  -9    7.13    0.49
  -4   2   9    6.82    0.53
  -4   2   9    6.37    0.44
   3  -2  -9    1.69    0.40
  -3   2   9    1.56    0.25
  -3   2   9    1.29    0.32
   2  -2  -9    0.93    0.29
  -2   2   9    1.23    0.32
  -2   2   9    1.61    0.34
   1  -2  -9    1.55    0.32
  -1   2   9    1.50    0.35
  -1   2   9    1.51    0.28
   0  -2  -9   31.06    1.58
   0   2   9   29.34    1.53
   0   2   9   31.11    1.36
  -1  -2  -9   55.83    2.84
   1   2   9   52.45    2.88
   1   2   9   53.75    2.58
   6  -3  -9    7.57    0.58
  -6   3   9    7.80    0.64
   5  -3  -9    5.80    0.60
  -5   3   9    5.78    0.65
   4  -3  -9    5.45    0.53
  -4   3   9    5.73    0.59
   3  -3  -9    4.16    0.42
  -3   3   9    3.95    0.45
   2  -3  -9    1.35    0.43
  -2   3   9    1.09    0.45
  -2   3   9    0.72    0.23
   1  -3  -9    6.03    0.51
  -1   3   9    5.63    0.42
  -1   3   9    6.12    0.53
   0  -3  -9   13.05    0.75
   0   3   9   11.22    0.67
   0   3   9   11.81    0.77
   4  -4  -9    0.16    0.32
  -4   4   9    0.08    0.34
   3  -4  -9    3.89    0.55
  -3   4   9    3.92    0.59
   2  -4  -9    5.43    0.51
  -2   4   9    5.34    0.54
   1  10 -10    0.82    0.54
  -1 -10  10    0.60    0.37
   0 -10  10    0.51    0.37
  -1  10 -10    3.26    0.66
   1 -10  10    2.96    0.43
   3   9 -10    0.74    0.37
   2   9 -10    1.07    0.51
   1   9 -10    1.43    0.37
   0  -9  10    0.21    0.46
  -1   9 -10    0.73    0.47
   1  -9  10    0.07    0.44
  -2   9 -10    2.45    0.56
   2  -9  10    4.32    0.57
  -3   9 -10    0.36    0.69
   3  -9  10   -0.20    0.51
   4   8 -10    1.44    0.52
   3   8 -10    3.74    0.56
   2   8 -10    1.48    0.35
   1   8 -10    9.15    0.63
   0   8 -10    2.45    0.52
   0   8 -10    4.01    0.47
   0  -8  10    3.93    0.53
  -1   8 -10   -0.20    0.39
   1  -8  10    0.39    0.42
  -2   8 -10    0.70    0.43
   2  -8  10    0.52    0.44
  -3   8 -10    2.17    0.69
   3  -8  10    2.27    0.42
   5   7 -10    0.52    0.36
   4   7 -10    0.58    0.33
   3   7 -10    5.06    0.52
   2   7 -10    5.46    0.50
   1   7 -10    0.06    0.30
  -1  -7  10   -0.05    0.28
   0   7 -10    0.48    0.42
   0   7 -10   -0.06    0.36
   0  -7  10   -0.03    0.29
  -1   7 -10    4.15    0.53
   1  -7  10    5.22    0.46
  -2   7 -10    0.22    0.57
   2  -7  10    0.54    0.30
  -3   7 -10    2.91    0.52
   3  -7  10    2.27    0.41
  -4   7 -10    1.91    0.20
  -4   7 -10    2.01    0.55
   4  -7  10    2.50    0.47
   5   6 -10    2.08    0.25
   5   6 -10    1.69    0.38
   4   6 -10   28.40    2.44
   4   6 -10   28.19    1.70
   3   6 -10   11.01    0.72
   3   6 -10    7.87    0.79
   2   6 -10    7.64    0.63
   2   6 -10    7.20    0.87
   1   6 -10    0.58    0.08
   1   6 -10    1.03    0.33
  -1  -6  10    0.23    0.39
   0   6 -10    4.93    0.59
   0   6 -10    5.66    0.29
   0   6 -10    5.35    0.47
   0  -6  10    5.57    0.59
  -1   6 -10    2.56    0.43
  -1   6 -10    2.48    0.18
   1  -6  10    2.64    0.45
  -2   6 -10    7.92    0.50
  -2   6 -10    7.85    0.63
   2  -6  10    7.26    0.55
  -3   6 -10    0.40    0.19
  -3   6 -10    0.35    0.40
   3  -6  10    0.17    0.32
  -4   6 -10   -0.03    0.23
  -4   6 -10   -0.01    0.62
   4  -6  10    0.56    0.52
   6   5 -10    4.08    0.35
   5   5 -10    9.04    0.71
   4   5 -10    2.02    0.20
   3   5 -10    1.03    0.14
   3   5 -10    1.27    0.33
   2   5 -10    2.90    0.22
   2   5 -10    2.68    0.38
   1   5 -10    7.53    0.60
   1   5 -10    8.74    0.63
  -1  -5  10    8.71    0.60
   0   5 -10    9.38    0.59
   0   5 -10    9.64    0.74
   0   5 -10   10.58    0.79
  -1   5 -10    1.41    0.37
  -1   5 -10    0.93    0.14
   1  -5  10    0.80    0.29
  -2   5 -10    1.38    0.37
  -2   5 -10    1.64    0.22
   2  -5  10    0.93    0.32
  -3   5 -10    5.14    0.56
  -3   5 -10    5.74    0.35
   3  -5  10    5.69    0.51
  -4   5 -10    2.99    0.54
  -4   5 -10    2.19    0.26
   4  -5  10    2.25    0.54
   6   4 -10    0.02    0.18
   5   4 -10   12.61    0.74
   4   4 -10    6.09    0.41
   3   4 -10    1.29    0.32
   3   4 -10    0.89    0.17
   2   4 -10   24.20    1.68
   2   4 -10   25.66    1.03
   1   4 -10   27.88    1.43
   1   4 -10   28.18    1.46
  -1  -4  10   29.97    1.27
   0   4 -10    0.37    0.26
   0   4 -10    0.30    0.18
   0   4 -10    0.32    0.24
   0  -4  10    0.03    0.24
  -1   4 -10    9.88    0.63
  -1   4 -10   11.98    0.53
   1  -4  10   10.17    0.61
  -2   4 -10    0.54    0.17
  -2   4 -10    0.63    0.34
   2  -4  10    0.54    0.31
  -3   4 -10    3.02    0.33
  -3   4 -10    2.51    0.46
   3  -4  10    2.68    0.41
  -4   4 -10    1.37    0.46
  -4   4 -10    1.71    0.28
   4  -4  10    2.29    0.53
   6   3 -10   22.06    1.40
   5   3 -10   17.56    0.79
   4   3 -10   19.06    0.84
   3   3 -10    5.66    0.36
   3   3 -10    5.95    0.54
   2   3 -10    0.54    1.59
   2   3 -10    0.44    0.24
  -2  -3  10    0.82    0.27
   1   3 -10    0.61    0.24
   1   3 -10    0.74    0.19
  -1  -3  10    0.24    0.25
   0   3 -10    2.18    0.31
   0   3 -10    2.36    0.36
   0   3 -10    2.46    0.30
   0  -3  10    2.77    0.41
  -1   3 -10    2.94    0.28
  -1   3 -10    2.00    0.33
   1  -3  10    2.07    0.42
  -2   3 -10   14.16    0.67
  -2   3 -10   11.12    0.70
   2  -3  10   13.23    0.78
  -3   3 -10    0.26    0.21
  -3   3 -10    0.10    0.34
   3  -3  10    0.63    0.37
   7   2 -10    0.92    0.27
   6   2 -10    1.68    0.27
   5   2 -10   16.13    1.07
   4   2 -10    3.47    0.37
   3   2 -10   32.94    1.68
   3   2 -10   31.64    1.67
   2   2 -10   46.29    1.85
   2   2 -10   41.57    1.89
  -2  -2  10   39.83    1.69
  -2  -2  10   44.91    2.09
   1   2 -10    0.12    0.26
   1   2 -10    0.12    0.20
  -1  -2  10   -0.01    0.24
  -1  -2  10    0.03    0.31
   0   2 -10    5.08    0.38
   0   2 -10    5.47    0.39
   0  -2  10    5.35    0.48
  -1   2 -10   20.77    0.98
  -1   2 -10   18.20    1.20
   1  -2  10   21.44    0.98
  -2   2 -10    5.21    0.48
  -2   2 -10    6.43    0.44
   2  -2  10    5.56    0.49
  -3   2 -10    1.27    0.29
   3  -2  10    1.21    0.36
   6   1 -10    0.39    0.24
   5   1 -10    0.65    0.23
   4   1 -10   33.84    1.35
  -4  -1  10   28.75    1.43
   3   1 -10   13.54    0.81
   3   1 -10   16.77    0.76
  -3  -1  10   12.54    0.79
  -3  -1  10   14.50    0.83
   2   1 -10   18.31    0.90
   2   1 -10   15.07    1.04
  -2  -1  10   18.51    0.86
  -2  -1  10   14.60    0.86
   1   1 -10    8.77    0.50
   1   1 -10    6.92    0.60
  -1  -1  10    7.68    0.53
  -1  -1  10    6.92    0.53
   0   1 -10    0.16    0.22
   0  -1  10    0.35    0.36
   0  -1  10    0.45    0.29
  -1   1 -10    4.32    0.40
   1  -1  10    3.21    0.44
   1  -1  10    4.84    0.52
  -2   1 -10    0.24    0.26
   2  -1  10    0.81    0.37
  -3   1 -10    0.69    0.31
   3  -1  10    0.13    0.34
   6   0 -10   22.12    1.49
   5   0 -10    7.04    0.50
  -5   0  10    6.57    0.55
   4   0 -10    0.19    0.24
  -4   0  10   -0.22    0.28
   3   0 -10    1.35    0.27
   3   0 -10    1.79    0.38
  -3   0  10    1.07    0.27
  -3   0  10    1.03    0.32
   2   0 -10   10.89    0.65
  -2   0  10    9.59    0.64
  -2   0  10    9.88    0.61
   1   0 -10    6.12    0.53
  -1   0  10    5.52    0.43
  -1   0  10    6.81    0.59
   0   0 -10   52.68    2.43
   0   0  10   53.11    2.66
   0   0  10   47.68    2.81
  -1   0 -10    1.63    0.35
   1   0  10    2.01    0.36
   1   0  10    2.14    0.42
  -2   0 -10    0.28    0.43
   2   0  10    0.53    0.45
   2   0  10    0.54    0.71
   6  -1 -10    9.32    0.66
  -6   1  10    8.85    0.73
   5  -1 -10    0.52    0.29
  -5   1  10   -0.09    0.35
   4  -1 -10    1.27    0.30
  -4   1  10    1.20    0.34
  -4   1  10    1.69    0.37
   3  -1 -10    0.49    0.38
  -3   1  10    0.39    0.42
  -3   1  10    0.51    0.25
   2  -1 -10   10.95    0.64
  -2   1  10   10.31    0.68
  -2   1  10    9.97    0.67
   1  -1 -10    6.04    0.49
  -1   1  10    4.68    0.49
  -1   1  10    5.31    0.42
   0  -1 -10    6.47    0.52
   0   1  10    5.34    0.55
   0   1  10    5.80    0.47
  -1  -1 -10    7.67    0.60
   1   1  10    8.09    0.63
   1   1  10    7.14    0.73
   5  -2 -10    0.67    0.45
  -5   2  10    0.32    0.35
   4  -2 -10   13.66    0.79
  -4   2  10   10.49    0.74
  -4   2  10   11.56    0.90
   3  -2 -10   14.34    1.05
  -3   2  10   14.28    0.91
  -3   2  10   13.52    0.93
   2  -2 -10    0.76    0.32
  -2   2  10    0.56    0.25
  -2   2  10    0.96    0.37
   1  -2 -10    0.80    0.33
  -1   2  10    1.06    0.38
  -1   2  10    0.17    0.38
   0  -2 -10    2.42    0.53
   0   2  10    1.17    0.32
   0   2  10    1.97    0.46
   1   9 -11    0.15    0.37
  -1  -9  11    0.28    0.36
   0  -9  11    1.62    0.56
   1  -9  11   -0.16    0.49
   3   8 -11    4.11    0.61
   2   8 -11    0.26    0.35
   1   8 -11    7.76    0.62
  -1  -8  11    7.48    0.69
   0  -8  11    2.71    0.54
  -1   8 -11    2.73    0.53
   1  -8  11    2.93    0.45
  -2   8 -11    8.82    0.77
   2  -8  11   10.28    0.80
   4   7 -11    0.82    0.38
   3   7 -11    5.34    0.55
   2   7 -11    1.14    0.36
   1   7 -11    1.12    0.35
  -1  -7  11    0.44    0.33
   0   7 -11   17.82    1.21
   0   7 -11   18.83    1.26
   0  -7  11   20.66    1.09
  -1   7 -11    3.72    0.53
   1  -7  11    5.20    0.50
  -2   7 -11    3.50    0.70
   2  -7  11    3.92    0.49
   5   6 -11    2.08    0.56
   4   6 -11    5.31    0.38
   3   6 -11    0.34    0.32
   2   6 -11    0.17    0.31
   1   6 -11    0.57    0.33
  -1  -6  11    0.72    0.44
   0   6 -11   -0.03    0.08
   0   6 -11   -0.05    0.32
   0   6 -11    0.26    0.30
   0  -6  11   -0.12    0.29
  -1   6 -11    5.43    0.32
  -1   6 -11    5.46    0.55
   1  -6  11    5.19    0.48
  -2   6 -11    7.03    0.65
  -2   6 -11    7.52    0.52
   2  -6  11    7.60    0.59
  -3   6 -11    3.18    0.30
  -3   6 -11    2.77    0.52
   3  -6  11    3.16    0.59
   5   5 -11    0.90    0.25
   5   5 -11    0.73    0.35
   4   5 -11    0.28    0.33
   4   5 -11   -0.06    0.13
   3   5 -11    0.95    0.16
   3   5 -11    1.21    0.35
   2   5 -11    0.97    0.48
   2   5 -11    0.68    0.14
  -2  -5  11    0.58    0.31
   1   5 -11   14.13    0.85
   1   5 -11   13.68    1.06
  -1  -5  11   17.54    0.88
   0   5 -11    4.47    0.29
   0   5 -11    3.26    0.43
   0   5 -11    3.92    0.43
   0  -5  11    4.22    0.43
  -1   5 -11    0.16    0.13
  -1   5 -11    0.23    0.32
   1  -5  11    0.36    0.31
  -2   5 -11    1.40    0.20
  -2   5 -11    2.29    0.56
   2  -5  11    1.84    0.38
  -3   5 -11    7.90    0.81
  -3   5 -11    9.09    0.52
   3  -5  11    9.54    0.76
   5   4 -11    2.71    0.31
   4   4 -11    2.94    0.28
   4   4 -11    3.63    0.44
   3   4 -11   -0.33    0.15
   3   4 -11    0.08    0.30
   2   4 -11    8.19    0.70
   2   4 -11    8.96    0.61
  -2  -4  11   10.00    0.60
   1   4 -11    1.05    0.24
   1   4 -11    0.90    0.30
  -1  -4  11    1.64    0.41
   0   4 -11    1.68    0.42
   0   4 -11    1.88    0.27
   0   4 -11    1.01    0.29
   0  -4  11    1.80    0.43
  -1   4 -11    0.18    0.32
  -1   4 -11   -0.01    0.15
   1  -4  11    0.10    0.28
  -2   4 -11   -0.22    0.33
  -2   4 -11   -0.08    0.17
   2  -4  11    0.38    0.34
   5   3 -11    0.42    0.22
   4   3 -11    1.66    0.26
   4   3 -11    1.47    0.46
   3   3 -11    0.13    0.27
   3   3 -11    0.35    0.30
  -3  -3  11    0.55    0.28
   2   3 -11    8.15    0.60
   2   3 -11    8.56    0.55
  -2  -3  11    9.88    0.58
   1   3 -11    1.17    0.23
   1   3 -11    1.17    0.28
  -1  -3  11    1.00    0.40
   0   3 -11    2.67    0.29
   0  -3  11    2.97    0.37
  -1   3 -11    6.83    0.51
   1  -3  11    8.64    0.57
  -2   3 -11    5.88    0.43
   2  -3  11    6.97    0.64
   5   2 -11    2.21    0.31
   4   2 -11    1.89    0.36
   4   2 -11    2.26    0.30
   3   2 -11   15.96    1.13
   3   2 -11   14.19    0.96
  -3  -2  11   15.81    0.80
   2   2 -11    0.25    0.21
   2   2 -11    0.19    0.23
  -2  -2  11    0.19    0.43
   1   2 -11    2.77    0.39
   1   2 -11    1.68    0.27
  -1  -2  11    2.81    0.35
   0   2 -11   -0.11    0.24
   0  -2  11    0.34    0.28
  -1   2 -11    1.49    0.30
   1  -2  11    1.61    0.36
  -2   2 -11    0.67    0.38
   2  -2  11    0.43    0.35
   5   1 -11    1.64    0.31
   4   1 -11    0.16    0.27
   4   1 -11    0.11    0.34
  -4  -1  11    0.21    0.27
   3   1 -11    0.25    0.25
   3   1 -11    0.28    0.25
  -3  -1  11   -0.01    0.26
   2   1 -11    0.18    0.24
  -2  -1  11    0.12    0.26
   1   1 -11    0.03    0.24
  -1  -1  11    0.35    0.39
   0   1 -11   11.30    0.66
   0  -1  11   11.09    0.68
  -1   1 -11    0.75    0.31
   1  -1  11    1.27    0.36
   5   0 -11    1.65    0.35
   4   0 -11   15.01    0.83
  -4   0  11   13.77    0.97
   3   0 -11   -0.04    0.27
  -3   0  11   -0.10    0.27
   2   0 -11    0.26    0.27
  -2   0  11    0.77    0.39
   1   0 -11    6.88    0.60
  -1   0  11    5.53    0.47
   0   0 -11    3.11    0.42
   0   0  11    3.54    0.52
   3  -1 -11    5.34    0.49
  -3   1  11    5.29    0.44
  -3   1  11    4.88    0.56
   2  -1 -11   -0.23    0.29
  -2   1  11   -0.20    0.34
  -2   1  11    0.16    0.27
   2   7 -12   -0.26    0.36
  -2  -7  12    0.38    0.52
   1   7 -12   -0.15    0.33
  -1  -7  12    0.19    0.36
   0   7 -12    0.39    0.44
   0  -7  12    0.27    0.36
   3   6 -12    1.01    0.52
   2   6 -12    1.04    0.36
  -2  -6  12    0.76    0.37
   1   6 -12    4.19    0.50
  -1  -6  12    4.98    0.70
   0   6 -12   13.06    1.68
   0  -6  12   15.89    1.02
   1  -6  12    3.34    0.58
   4   5 -12    0.26    0.18
   4   5 -12    0.37    0.36
   3   5 -12   -0.18    0.34
   3   5 -12    0.01    0.13
   2   5 -12   19.39    1.64
   2   5 -12   21.47    1.12
  -2  -5  12   22.50    1.46
   1   5 -12   22.59    1.49
   1   5 -12   23.20    1.38
  -1  -5  12   26.49    1.27
   0   5 -12   -0.03    0.19
   0  -5  12    0.30    0.33
  -1   5 -12    0.93    0.23
   1  -5  12    1.27    0.51
   4   4 -12    0.19    0.33
   4   4 -12    0.30    0.27
   3   4 -12    1.99    0.25
   3   4 -12    2.67    0.43
  -3  -4  12    2.46    0.41
   2   4 -12    2.72    0.31
   2   4 -12    1.78    0.38
  -2  -4  12    2.48    0.51
   1   4 -12   -0.07    0.26
   1   4 -12    0.10    0.17
  -1  -4  12   -0.04    0.30
   0   4 -12    1.48    0.23
   0  -4  12    1.41    0.36
   4   3 -12    1.26    0.27
   4   3 -12    1.21    0.36
   3   3 -12    2.43    0.41
   3   3 -12    2.62    0.32
  -3  -3  12    2.14    0.38
   2   3 -12    3.69    0.43
   2   3 -12    4.44    0.42
  -2  -3  12    4.32    0.54
   1   3 -12   -0.06    0.35
   1   3 -12    0.00    0.20
  -1  -3  12   -0.16    0.29
   0   3 -12    3.67    0.36
   0  -3  12    3.57    0.44
   4   2 -12    0.31    0.31
  -4  -2  12   -0.02    0.44
   3   2 -12    2.41    0.34
   3   2 -12    1.48    0.36
  -3  -2  12    2.83    0.50
   2   2 -12    0.79    0.27
  -2  -2  12    1.00    0.33
   1   2 -12    1.60    0.34
  -1  -2  12    1.38    0.35
   0   0   0    0.00    0.00
;
_shelx_hkl_checksum              43620
loop_
_space_group_symop_operation_xyz
'x, y, z'
'-x, -y, -z'
loop_
_atom_site_label
_atom_site_type_symbol
_atom_site_fract_x
_atom_site_fract_y
_atom_site_fract_z
_atom_site_U_iso_or_equiv
_atom_site_adp_type
_atom_site_occupancy
_atom_site_site_symmetry_order
_atom_site_calc_flag
C1 C 0.4900(4) 0.1825(4) 0.6969(3) 0.0495(6) Uani 1 1 d
C2 C 0.1683(4) 0.2375(4) 0.6843(3) 0.0482(6) Uani 1 1 d
C3 C 0.9190(4) 0.3497(4) 0.1015(3) 0.0480(6) Uani 1 1 d
C4 C 0.7607(4) 0.1022(3) 0.1292(4) 0.0533(6) Uani 1 1 d
Cl1 Cl 0.21919(7) 0.08194(6) 0.29358(5) 0.03452(12) Uani 1 1 d
Cl2 Cl 0.72985(7) 0.42898(7) 0.49783(6) 0.04065(14) Uani 1 1 d
Cl3 Cl 0.40283(8) 0.35478(6) 0.09959(5) 0.03913(13) Uani 1 1 d
Cu1 Cu 0.43331(4) 0.31373(4) 0.31806(3) 0.05399(12) Uani 1 1 d
H1 H 0.505(4) 0.200(3) 0.803(3) 0.054(7) Uiso 1 1 d
H2 H 0.614(5) 0.218(4) 0.679(3) 0.072(9) Uiso 1 1 d
H3 H 0.426(4) 0.063(4) 0.629(3) 0.053(7) Uiso 1 1 d
H4 H 0.342(4) 0.260(3) 0.565(3) 0.053(7) Uiso 1 1 d
H5 H 0.418(4) 0.389(4) 0.720(4) 0.066(9) Uiso 1 1 d
H6 H 0.090(4) 0.294(3) 0.647(3) 0.052(7) Uiso 1 1 d
H7 H 0.181(4) 0.273(3) 0.797(4) 0.065(8) Uiso 1 1 d
H8 H 0.108(4) 0.121(4) 0.632(4) 0.068(9) Uiso 1 1 d
H9 H 0.933(4) 0.273(4) 0.003(4) 0.082(10) Uiso 1 1 d
H10 H 1.020(4) 0.450(4) 0.153(3) 0.060(8) Uiso 1 1 d
H11 H 0.800(4) 0.383(3) 0.084(3) 0.050(7) Uiso 1 1 d
H12 H 1.029(5) 0.260(4) 0.241(3) 0.071(9) Uiso 1 1 d
H13 H 0.889(4) 0.336(3) 0.295(3) 0.053(7) Uiso 1 1 d
H14 H 0.785(4) 0.029(4) 0.033(4) 0.079(10) Uiso 1 1 d
H15 H 0.632(4) 0.125(4) 0.111(3) 0.065(8) Uiso 1 1 d
H16 H 0.758(5) 0.061(4) 0.203(4) 0.083(11) Uiso 1 1 d
N1 N 0.3611(3) 0.2786(2) 0.6603(2) 0.0394(4) Uani 1 1 d
N2 N 0.9094(3) 0.2662(2) 0.2046(2) 0.0401(4) Uani 1 1 d
loop_
_atom_site_aniso_label
_atom_site_aniso_U_11
_atom_site_aniso_U_22
_atom_site_aniso_U_33
_atom_site_aniso_U_23
_atom_site_aniso_U_13
_atom_site_aniso_U_12
C1 0.0565(16) 0.0563(16) 0.0385(13) 0.0202(12) 0.0131(12) 0.0235(13)
C2 0.0425(13) 0.0555(16) 0.0377(13) 0.0159(12) 0.0054(10) 0.0097(11)
C3 0.0384(13) 0.0580(16) 0.0466(14) 0.0207(13) 0.0150(11) 0.0131(12)
C4 0.0495(15) 0.0375(13) 0.0524(15) 0.0078(12) 0.0002(12) 0.0058(11)
Cl1 0.0348(3) 0.0308(2) 0.0308(2) 0.01053(19) 0.00411(19) 0.00419(19)
Cl2 0.0270(3) 0.0496(3) 0.0321(3) 0.0101(2) 0.00225(19) 0.0041(2)
Cl3 0.0421(3) 0.0425(3) 0.0259(2) 0.0114(2) 0.0068(2) 0.0067(2)
Cu1 0.03855(17) 0.0703(2) 0.04243(17) 0.02971(16) -0.00046(13) -0.00983(14)
N1 0.0477(11) 0.0372(10) 0.0273(9) 0.0121(8) 0.0050(8) 0.0081(8)
N2 0.0332(10) 0.0380(10) 0.0342(10) 0.0052(8) -0.0008(8) 0.0105(8)
loop_
_atom_type_symbol
_atom_type_description
_atom_type_scat_dispersion_real
_atom_type_scat_dispersion_imag
_atom_type_scat_source
C C 0.0033 0.0016 'International Tables Vol C Tables 4.2.6.8 and 6.1.1.4'
H H 0.0000 0.0000 'International Tables Vol C Tables 4.2.6.8 and 6.1.1.4'
N N 0.0061 0.0033 'International Tables Vol C Tables 4.2.6.8 and 6.1.1.4'
Cl Cl 0.1484 0.1585 'International Tables Vol C Tables 4.2.6.8 and 6.1.1.4'
Cu Cu 0.3201 1.2651 'International Tables Vol C Tables 4.2.6.8 and 6.1.1.4'
loop_
_geom_angle_atom_site_label_1
_geom_angle_atom_site_label_2
_geom_angle_atom_site_label_3
_geom_angle
Cl3 Cu1 Cl1 115.39(4)
Cl3 Cu1 Cl2 117.39(3)
Cl1 Cu1 Cl2 122.04(4)
C2 N1 C1 114.3(2)
C3 N2 C4 112.8(2)
loop_
_geom_bond_atom_site_label_1
_geom_bond_atom_site_label_2
_geom_bond_distance
C1 N1 1.474(3)
C2 N1 1.472(3)
C3 N2 1.471(3)
C4 N2 1.477(3)
Cl1 Cu1 2.2719(10)
Cl2 Cu1 2.2814(12)
Cl3 Cu1 2.2667(7)
