#------------------------------------------------------------------------------
#$Date: 2019-11-23 03:13:22 +0200 (Sat, 23 Nov 2019) $
#$Revision: 231974 $
#$URL: file:///home/coder/svn-repositories/cod/cif/4/34/67/4346771.cif $
#------------------------------------------------------------------------------
#
# This file is available in the Crystallography Open Database (COD),
# http://www.crystallography.net/
#
# All data on this site have been placed in the public domain by the
# contributors.
#
data_4346771
loop_
_publ_author_name
'Sengupta, Debabrata'
'Chowdhury, Nabanita Saha'
'Samanta, Subhas'
'Ghosh, Pradip'
'Seth, Saikat Kumar'
'Demeshko, Serhiy'
'Meyer, Franc'
'Goswami, Sreebrata'
_publ_section_title
;
 Regioselective ortho Amination of Coordinated 2-(Arylazo)pyridine.
 Isolation of Monoradical Palladium Complexes of a New Series of
 Azo-Aromatic Pincer Ligands.
;
_journal_issue                   23
_journal_name_full               'Inorganic chemistry'
_journal_page_first              11465
_journal_page_last               11476
_journal_paper_doi               10.1021/acs.inorgchem.5b02110
_journal_volume                  54
_journal_year                    2015
_chemical_formula_moiety         'C18 H15 Cl2 N4 Pd'
_chemical_formula_sum            'C18 H15 Cl2 N4 Pd'
_chemical_formula_weight         464.64
_space_group_crystal_system      triclinic
_space_group_IT_number           2
_space_group_name_Hall           '-P 1'
_space_group_name_H-M_alt        'P -1'
_atom_sites_solution_hydrogens   geom
_audit_creation_method           SHELXL-2014
_cell_angle_alpha                91.937(5)
_cell_angle_beta                 91.401(5)
_cell_angle_gamma                91.477(5)
_cell_formula_units_Z            2
_cell_length_a                   7.245(5)
_cell_length_b                   9.789(5)
_cell_length_c                   12.606(5)
_cell_measurement_temperature    150(2)
_cell_volume                     892.9(8)
_computing_cell_refinement       'Bruker SMART'
_computing_data_collection       'Bruker SMART'
_computing_data_reduction        'Bruker SAINT'
_computing_molecular_graphics    'Bruker SHELXTL'
_computing_publication_material  'Bruker SHELXTL'
_computing_structure_refinement  'SHELXL-2013 (Sheldrick, 2013)'
_computing_structure_solution    'SHELXL-97 (Sheldrick, 1997)'
_diffrn_ambient_temperature      150(2)
_diffrn_measured_fraction_theta_full 0.915
_diffrn_measured_fraction_theta_max 0.992
_diffrn_measurement_device_type  'CCD area detector'
_diffrn_measurement_method       'phi SCANS'
_diffrn_radiation_type           MoK\a
_diffrn_radiation_wavelength     0.71073
_diffrn_reflns_av_R_equivalents  0.0885
_diffrn_reflns_av_unetI/netI     0.0907
_diffrn_reflns_Laue_measured_fraction_full 0.915
_diffrn_reflns_Laue_measured_fraction_max 0.992
_diffrn_reflns_limit_h_max       8
_diffrn_reflns_limit_h_min       -8
_diffrn_reflns_limit_k_max       11
_diffrn_reflns_limit_k_min       -11
_diffrn_reflns_limit_l_max       14
_diffrn_reflns_limit_l_min       -14
_diffrn_reflns_number            10094
_diffrn_reflns_point_group_measured_fraction_full 0.915
_diffrn_reflns_point_group_measured_fraction_max 0.992
_diffrn_reflns_theta_full        25.242
_diffrn_reflns_theta_max         24.513
_diffrn_reflns_theta_min         1.617
_diffrn_source                   'fine-focus sealed tube'
_exptl_absorpt_coefficient_mu    1.346
_exptl_absorpt_correction_T_max  0.876
_exptl_absorpt_correction_T_min  0.851
_exptl_absorpt_correction_type   empirical
_exptl_absorpt_process_details   SADABS
_exptl_crystal_colour            violet
_exptl_crystal_density_diffrn    1.728
_exptl_crystal_description       plate
_exptl_crystal_F_000             462
_refine_diff_density_max         0.462
_refine_diff_density_min         -0.534
_refine_diff_density_rms         0.104
_refine_ls_extinction_method     none
_refine_ls_goodness_of_fit_ref   1.008
_refine_ls_hydrogen_treatment    constr
_refine_ls_matrix_type           full
_refine_ls_number_parameters     226
_refine_ls_number_reflns         2962
_refine_ls_number_restraints     0
_refine_ls_restrained_S_all      1.008
_refine_ls_R_factor_all          0.0850
_refine_ls_R_factor_gt           0.0470
_refine_ls_shift/su_max          0.000
_refine_ls_shift/su_mean         0.000
_refine_ls_structure_factor_coef Fsqd
_refine_ls_weighting_details
'w=1/[\s^2^(Fo^2^)+(0.0279P)^2^] where P=(Fo^2^+2Fc^2^)/3'
_refine_ls_weighting_scheme      calc
_refine_ls_wR_factor_gt          0.0795
_refine_ls_wR_factor_ref         0.0941
_reflns_Friedel_coverage         0.000
_reflns_number_gt                1962
_reflns_number_total             2962
_reflns_threshold_expression     'I > 2\s(I)'
_cod_data_source_file            ic5b02110_si_002.cif
_cod_data_source_block           1f
_cod_depositor_comments
;
The following automatic conversions were performed:

data item '_exptl_absorpt_correction_type' value 'Empirical' was
changed to 'empirical' in accordance with the
/home/saulius/struct/COD-crude-data/automatic-downloads/DataCite-retrospective/ACS/depositions/lib/dictionaries/cif_core.dic
dictionary named 'cif_core.dic' version 2.4.2 last updated on
2011-04-26.

Automatic conversion script
Id: cif_fix_values 6909 2019-04-08 15:41:33Z antanas 
;
_cod_database_code               4346771
_shelx_space_group_comment
;
The symmetry employed for this shelxl refinement is uniquely defined
by the following loop, which should always be used as a source of
symmetry information in preference to the above space-group names.
They are only intended as comments.
;
_shelxl_version_number           2014-1
_shelx_res_file
;
TITL DS200314_0m in P1           New: P-1
CELL  0.71073   7.2450   9.7890  12.6060   91.937   91.401   91.477
ZERR     2.00   0.0050   0.0050   0.0050    0.005    0.005    0.005
LATT   1
SFAC  C    H    CL   N    PD
UNIT  36   30   4    8    2
MERG   2
OMIT    -3.00  55.00
FMAP   2
ACTA
BOND   $H
CONF
L.S.   5
WGHT    0.027900
FVAR       0.14149
PD1   5    0.607022    0.758262    0.351718    11.00000    0.03918    0.05792 =
         0.04137    0.00797    0.00015    0.00601
CL2   3    0.843795    0.653024    0.263653    11.00000    0.05799    0.10586 =
         0.06819    0.01620    0.01424    0.03107
CL1   3    0.015166    1.239638    0.177226    11.00000    0.06483    0.08153 =
         0.09900    0.03921   -0.01104    0.01450
N4    4    0.519530    0.881354    0.228476    11.00000    0.03709    0.06220 =
         0.03657    0.00811   -0.00098   -0.00445
N3    4    0.416197    0.845206    0.428670    11.00000    0.04271    0.05475 =
         0.04135    0.00518   -0.00164    0.00741
N2    4    0.377289    0.810741    0.526902    11.00000    0.04977    0.05329 =
         0.03734    0.00589    0.00357    0.00401
N1    4    0.628093    0.667285    0.490356    11.00000    0.03470    0.05395 =
         0.04938    0.00409   -0.00482    0.00351
C12   1    0.456602    0.796416    0.136287    11.00000    0.04864    0.06039 =
         0.03913    0.01407   -0.00466    0.00298
C3    1    0.604219    0.561540    0.689211    11.00000    0.08369    0.05134 =
         0.04159    0.01281   -0.00537   -0.00203
AFIX  43
H3    2    0.596271    0.523952    0.755773    11.00000   -1.20000
AFIX   0
C7    1    0.182362    1.022787    0.420300    11.00000    0.04204    0.05956 =
         0.04772    0.00524    0.00361    0.00463
AFIX  43
H7    2    0.152139    1.013011    0.490967    11.00000   -1.20000
AFIX   0
C5    1    0.497171    0.713585    0.558611    11.00000    0.04525    0.04800 =
         0.04076    0.00416   -0.00173    0.00231
C8    1    0.089507    1.115759    0.359232    11.00000    0.04106    0.05967 =
         0.06775    0.01017   -0.00214    0.01012
AFIX  43
H8    2   -0.001867    1.169016    0.388715    11.00000   -1.20000
AFIX   0
C14   1    0.223991    0.645209    0.054476    11.00000    0.07331    0.07990 =
         0.05947    0.01107   -0.01233   -0.00324
AFIX  43
H14   2    0.109013    0.600964    0.056212    11.00000   -1.20000
AFIX   0
C9    1    0.134324    1.128037    0.254807    11.00000    0.03536    0.05313 =
         0.07533    0.01837   -0.01500   -0.00149
C11   1    0.366804    0.962148    0.272080    11.00000    0.03788    0.04742 =
         0.04286    0.00847   -0.00239    0.00096
C16   1    0.504503    0.689797   -0.032299    11.00000    0.11078    0.08131 =
         0.04619   -0.00046    0.00095    0.01521
AFIX  43
H16   2    0.578995    0.674679   -0.090356    11.00000   -1.20000
AFIX   0
C6    1    0.320929    0.943811    0.376269    11.00000    0.03340    0.04336 =
         0.05099    0.00991   -0.00284    0.00054
C17   1    0.567248    0.775151    0.050699    11.00000    0.05942    0.06341 =
         0.05228    0.01233    0.01082    0.00268
AFIX  43
H17   2    0.683206    0.817883    0.048792    11.00000   -1.20000
AFIX   0
C1    1    0.747547    0.573785    0.523342    11.00000    0.04569    0.06233 =
         0.05188    0.00401   -0.00986    0.01887
AFIX  43
H1    2    0.838490    0.544506    0.477668    11.00000   -1.20000
AFIX   0
C10   1    0.272229    1.052200    0.210548    11.00000    0.04929    0.05860 =
         0.05212    0.01309   -0.00335   -0.00360
AFIX  43
H10   2    0.301286    1.061701    0.139678    11.00000   -1.20000
AFIX   0
C13   1    0.286290    0.730612    0.137953    11.00000    0.05418    0.06373 =
         0.05186    0.00602    0.00196    0.00237
AFIX  43
H13   2    0.211974    0.743945    0.196326    11.00000   -1.20000
AFIX   0
C4    1    0.482235    0.656822    0.658854    11.00000    0.06646    0.05455 =
         0.04405    0.00743    0.00199    0.00107
AFIX  43
H4    2    0.389669    0.684151    0.704142    11.00000   -1.20000
AFIX   0
C2    1    0.739330    0.520921    0.621239    11.00000    0.06442    0.05707 =
         0.05181    0.00614   -0.01759    0.00865
AFIX  43
H2    2    0.824890    0.457363    0.642310    11.00000   -1.20000
AFIX   0
C15   1    0.334315    0.627225   -0.030244    11.00000    0.10619    0.06234 =
         0.06179   -0.01052   -0.03355    0.01283
AFIX  43
H15   2    0.293168    0.571449   -0.087643    11.00000   -1.20000
AFIX   0
C18   1    0.675222    0.979164    0.206302    11.00000    0.05279    0.05978 =
         0.07190    0.01007    0.00494   -0.00848
AFIX  33
H18A  2    0.709215    1.031292    0.269982    11.00000   -1.50000
H18B  2    0.636783    1.039873    0.152252    11.00000   -1.50000
H18C  2    0.779419    0.928993    0.182467    11.00000   -1.50000
AFIX   0
HKLF    4

REM  DS200314_0m in P1           New: P-1
REM R1 =  0.0470 for    1962 Fo > 4sig(Fo)  and  0.0850 for all    2962 data
REM    226 parameters refined using      0 restraints

END

WGHT      0.0331      0.0000

REM Highest difference peak  0.462,  deepest hole -0.534,  1-sigma level  0.104
Q1    1   0.7440  0.7435  0.2599  11.00000  0.05    0.46
Q2    1   0.7789  0.6662  0.3693  11.00000  0.05    0.46
Q3    1   0.4649  0.7792  0.4460  11.00000  0.05    0.42
Q4    1   0.6649  0.6256  0.2849  11.00000  0.05    0.41
Q5    1   0.8607  0.7199  0.1339  11.00000  0.05    0.38
Q6    1   0.9166  0.7093  0.3296  11.00000  0.05    0.36
Q7    1   0.4713  0.8519  0.1827  11.00000  0.05    0.35
Q8    1   0.5208  0.9713  0.3815  11.00000  0.05    0.35
Q9    1  -0.0074  1.2013  0.0821  11.00000  0.05    0.35
Q10   1   0.1740  0.5906 -0.0109  11.00000  0.05    0.34
Q11   1   0.0119  0.5392  0.1808  11.00000  0.05    0.34
Q12   1   0.3161  0.9003  0.3064  11.00000  0.05    0.34
Q13   1   0.1703  1.1477  0.1546  11.00000  0.05    0.34
Q14   1   0.7152  0.7523  0.4495  11.00000  0.05    0.33
Q15   1   0.9326  0.9414  0.0142  11.00000  0.05    0.33
Q16   1  -0.0097  1.1094  0.1635  11.00000  0.05    0.33
Q17   1  -0.1522  1.1890  0.2167  11.00000  0.05    0.33
Q18   1   0.1741  1.3197  0.1659  11.00000  0.05    0.33
Q19   1   0.1424  0.6162 -0.1288  11.00000  0.05    0.33
Q20   1   0.4406  0.8522  0.3515  11.00000  0.05    0.33
;
_shelx_res_checksum              8466
_shelx_hkl_file
;
  -1   0   0  321.93    8.06
  -1   0   0  307.96    8.82
  -2   0   0    8.92    1.19
  -2   0   0   11.68    1.10
  -3   0   0   12.93    1.16
  -3   0   0   13.21    1.09
  -3   0   0   11.97    1.73
  -3   0   0   14.65    1.74
  -4   0   0   34.31    2.65
  -4   0   0   34.91    2.16
  -4   0   0   34.10    3.30
  -5   0   0   35.87    2.46
  -5   0   0   36.50    3.11
  -5   0   0   32.64    3.63
   5   0   0   34.44    2.17
  -6   0   0    0.14    1.13
  -6   0   0    0.43    0.86
   6   0   0   -0.18    0.50
   6   0   0    0.37    0.54
  -7   0   0   -0.59    0.99
   7   0   0    0.68    0.74
   7   0   0   -0.37    0.66
  -8   0   0    6.30    2.32
  -8   1   0    4.68    1.98
   7  -1   0    8.53    1.59
   7  -1   0    6.43    1.46
  -7   1   0    9.99    2.44
   6  -1   0   14.34    1.96
   6  -1   0   13.60    1.79
  -6   1   0   12.18    1.85
  -6   1   0   16.23    3.46
  -6   1   0   11.21    2.33
   5  -1   0    5.31    1.06
   5  -1   0    6.08    1.17
  -5   1   0    5.59    1.68
  -5   1   0    6.40    2.04
  -5   1   0    7.31    1.37
   4  -1   0   22.11    1.61
  -4   1   0   22.09    2.55
  -4   1   0   21.41    1.68
   3  -1   0  153.62    4.94
  -3   1   0  142.75    7.89
  -3   1   0  149.18    5.14
  -3   1   0  156.92    5.84
   2  -1   0    3.35    0.57
   2  -1   0    4.06    0.58
  -2   1   0    3.22    0.75
   1  -1   0   68.52    2.20
  -1   1   0   67.91    2.36
  -1   1   0   67.70    2.45
   0  -1   0    7.70    0.37
   0   1   0    8.13    0.52
   0   1   0    6.79    0.48
  -1  -1   0  112.11    3.73
  -1  -1   0  106.89    2.89
   1   1   0  110.61    3.45
  -2  -1   0   25.99    1.13
  -2  -1   0   26.35    1.86
   2   1   0   24.86    1.46
  -3  -1   0   53.50    3.03
  -3  -1   0   54.98    2.18
   3   1   0   48.85    2.45
   3   1   0   45.28    3.46
  -4  -1   0    5.07    1.08
  -4  -1   0    4.84    1.38
  -4  -1   0    5.06    0.92
   4   1   0    5.89    1.76
   4   1   0    3.73    0.71
  -5  -1   0    3.15    1.48
  -5  -1   0    2.84    1.53
  -5  -1   0    1.13    0.83
   5   1   0    0.91    0.50
   5   1   0    2.08    0.67
  -6  -1   0   12.08    2.58
   6   1   0   11.79    1.59
  -7  -1   0    8.72    2.45
  -8  -1   0    7.05    2.55
   8  -2   0    6.03    1.57
   8  -2   0    9.50    1.95
  -8   2   0    8.40    2.47
   7  -2   0    0.82    0.73
   7  -2   0    1.49    1.00
  -7   2   0    1.43    1.40
   6  -2   0    0.88    0.72
   6  -2   0    1.76    0.81
  -6   2   0    0.91    1.74
  -6   2   0    1.67    1.30
  -6   2   0    1.85    1.06
   5  -2   0   24.79    2.12
   5  -2   0   24.17    1.92
  -5   2   0   31.20    4.45
  -5   2   0   17.67    2.61
  -5   2   0   24.60    2.09
   4  -2   0   36.92    2.30
   4  -2   0   33.17    2.08
  -4   2   0   31.70    3.31
  -4   2   0   32.81    2.61
  -4   2   0   37.70    2.26
   3  -2   0   14.91    1.21
   3  -2   0   14.39    1.26
  -3   2   0   14.28    1.73
   2  -2   0  101.01    3.42
   2  -2   0   94.36    3.54
  -2   2   0   98.93    5.61
  -2   2   0   94.95    3.79
  -2   2   0   96.80    3.64
   1  -2   0   48.10    1.99
   1  -2   0   53.17    1.95
  -1   2   0   49.68    2.20
  -1   2   0   50.93    2.21
  -1   2   0   55.40    3.68
   0  -2   0  255.14    6.62
   0   2   0  240.11    7.51
   0   2   0  258.90    7.68
  -1  -2   0   94.70    3.53
  -1  -2   0   92.93    2.59
   1   2   0   93.88    3.35
  -2  -2   0  189.67    5.07
  -2  -2   0  186.96    6.69
   2   2   0  200.80    9.94
   2   2   0  187.07    6.16
  -3  -2   0    3.05    1.12
  -3  -2   0    2.53    0.47
   3   2   0    2.00    1.17
   3   2   0    1.44    0.60
  -4  -2   0    4.99    1.49
  -4  -2   0   12.14    1.22
   4   2   0    6.80    1.87
   4   2   0    6.85    0.87
   4   2   0    6.28    1.23
  -5  -2   0   52.47    4.09
  -5  -2   0   62.87    3.55
   5   2   0   59.19    2.67
   5   2   0   60.21    4.70
  -6  -2   0    5.12    2.06
  -7  -2   0   -1.29    1.04
  -8  -2   0    0.67    1.52
   8  -3   0    2.67    1.31
   8  -3   0    3.84    1.34
  -8   3   0    3.03    1.65
   7  -3   0    4.88    1.45
   7  -3   0    2.85    1.14
  -7   3   0    2.40    1.41
   6  -3   0    2.51    1.00
   6  -3   0    0.66    0.77
  -6   3   0    2.01    1.86
  -6   3   0    1.73    1.25
  -6   3   0    1.95    1.02
   5  -3   0   -0.24    0.51
   5  -3   0   -0.26    0.45
  -5   3   0   -0.58    0.66
  -5   3   0    1.26    1.04
  -5   3   0   -0.27    1.25
   4  -3   0    2.83    0.80
   4  -3   0    1.59    0.66
  -4   3   0    0.23    0.69
  -4   3   0    0.24    0.40
  -4   3   0    1.36    0.98
   3  -3   0  105.23    4.00
   3  -3   0   97.29    4.14
  -3   3   0  100.97    6.47
  -3   3   0  101.86    4.21
  -3   3   0  100.37    4.42
   2  -3   0   31.15    1.84
   2  -3   0   33.29    1.79
  -2   3   0   33.66    2.00
  -2   3   0   32.87    2.02
  -2   3   0   35.33    3.29
   1  -3   0    2.18    0.51
   1  -3   0    2.76    0.53
  -1   3   0    4.95    0.83
  -1   3   0    5.88    1.77
   0  -3   0   12.34    0.81
   0   3   0   15.95    2.48
   0   3   0    9.85    1.21
   0   3   0   12.67    1.17
  -1  -3   0    7.55    0.54
  -1  -3   0    5.11    0.90
   1   3   0    7.33    1.01
  -2  -3   0  178.76    4.83
  -2  -3   0  182.61    6.64
   2   3   0  174.30    6.17
   2   3   0  198.05   10.08
  -3  -3   0   36.29    1.44
  -3  -3   0   36.82    2.69
   3   3   0   36.18    2.19
  -4  -3   0    1.72    0.56
  -4  -3   0    2.88    1.41
   4   3   0    2.00    0.91
   4   3   0    0.76    1.35
  -5  -3   0    6.96    2.14
   5   3   0    4.71    1.96
   5   3   0    4.53    1.26
  -6  -3   0   23.81    3.41
  -7  -3   0    3.54    2.09
  -8  -3   0    2.01    1.84
   7  -4   0    0.83    0.98
   7  -4   0    0.62    0.87
  -7   4   0    1.48    1.28
   6  -4   0    7.80    1.64
   6  -4   0    7.02    1.57
  -6   4   0    7.13    1.66
  -6   4   0    6.81    1.88
  -6   4   0    7.95    2.89
   5  -4   0   13.18    1.90
   5  -4   0   19.94    2.42
  -5   4   0   18.33    2.54
  -5   4   0   10.17    2.87
  -5   4   0    6.04    1.35
   4  -4   0   11.05    1.63
   4  -4   0    9.84    1.54
  -4   4   0   10.13    1.71
  -4   4   0   10.36    1.62
   3  -4   0   58.09    2.96
   3  -4   0   54.97    2.81
  -3   4   0   57.23    3.18
  -3   4   0   38.01    4.38
  -3   4   0   52.49    2.98
   2  -4   0   25.40    1.74
   2  -4   0   23.80    1.62
  -2   4   0   24.67    3.30
  -2   4   0   27.77    2.02
  -2   4   0   26.32    1.96
   1  -4   0   26.20    1.54
   1  -4   0   28.93    1.72
  -1   4   0   27.64    1.93
  -1   4   0   30.80    2.03
  -1   4   0   35.82    3.60
   0  -4   0   68.22    2.54
   0  -4   0   68.31    2.68
   0   4   0   67.29    3.19
   0   4   0   73.94    5.38
   0   4   0   64.38    3.24
  -1  -4   0   27.80    1.28
  -1  -4   0   28.34    1.97
   1   4   0   32.92    3.29
   1   4   0   25.59    1.88
  -2  -4   0    0.11    0.25
  -2  -4   0    0.14    0.53
   2   4   0    0.53    1.33
   2   4   0   -0.14    0.43
  -3  -4   0   35.74    2.75
  -3  -4   0   34.85    1.33
   3   4   0   37.40    2.45
  -4  -4   0    2.63    1.34
   4   4   0    0.63    1.45
   4   4   0    0.84    0.76
  -5  -4   0   27.06    3.65
   5   4   0   34.39    4.14
   5   4   0   26.27    2.45
  -6  -4   0    0.13    1.33
  -7  -4   0   -0.26    1.36
   7  -5   0    5.77    1.68
   7  -5   0    5.66    1.57
  -7   5   0    6.16    1.98
   6  -5   0    9.91    1.91
   6  -5   0    7.72    1.72
  -6   5   0    9.75    2.18
   5  -5   0   18.56    2.37
   5  -5   0   20.95    2.56
  -5   5   0   23.61    2.78
  -5   5   0   18.76    2.64
   4  -5   0   15.17    2.03
   4  -5   0   16.57    2.04
  -4   5   0   11.57    2.07
  -4   5   0   15.37    2.17
   3  -5   0   53.17    2.85
   3  -5   0   52.53    3.03
  -3   5   0   35.80    4.72
  -3   5   0   49.38    3.11
  -3   5   0   54.72    3.31
   2  -5   0   69.17    3.38
   2  -5   0   70.40    3.19
  -2   5   0   72.49    3.73
  -2   5   0   69.62    6.07
  -2   5   0   68.31    3.68
   1  -5   0    9.59    1.25
   1  -5   0   10.79    1.31
  -1   5   0    7.71    1.32
  -1   5   0    5.96    2.07
  -1   5   0    9.57    1.53
   0  -5   0    5.57    0.86
   0  -5   0    5.16    0.86
   0   5   0    3.98    1.06
   0   5   0    3.97    1.85
   0   5   0    5.91    1.30
  -1  -5   0   28.82    1.54
  -1  -5   0   24.63    2.04
  -1  -5   0   27.72    1.44
   1   5   0   30.19    2.24
   1   5   0   30.35    3.60
  -2  -5   0   43.70    1.73
  -2  -5   0   44.67    2.98
   2   5   0   47.05    2.90
  -3  -5   0    5.19    1.41
   3   5   0    3.72    1.12
  -4  -5   0    0.11    1.05
   4   5   0   -0.13    1.68
   4   5   0    0.38    0.79
  -5  -5   0   -0.26    1.22
   5   5   0    1.34    1.85
   5   5   0    1.16    0.91
  -6  -5   0    4.43    2.13
  -7  -5   0    4.35    2.04
   7  -6   0    0.02    0.84
   7  -6   0   -0.41    0.79
  -7   6   0   -0.91    1.09
   6  -6   0    9.14    1.99
   6  -6   0    5.40    1.47
  -6   6   0    6.75    1.93
  -6   6   0    7.80    1.91
   5  -6   0   10.29    1.94
   5  -6   0    9.26    1.70
  -5   6   0   11.67    2.08
  -5   6   0    2.60    2.34
  -5   6   0    8.03    1.93
   4  -6   0   -0.42    0.47
   4  -6   0   -0.08    0.54
  -4   6   0    1.55    2.44
  -4   6   0    0.87    0.91
  -4   6   0   -0.08    0.91
   3  -6   0   17.61    2.23
   3  -6   0   17.75    2.09
  -3   6   0   21.42    2.73
  -3   6   0    9.69    3.07
  -3   6   0   18.05    2.42
   2  -6   0    7.82    1.30
   2  -6   0    6.69    1.25
  -2   6   0    4.23    2.41
  -2   6   0    4.44    1.29
  -2   6   0    5.42    1.39
   1  -6   0    4.13    0.94
   1  -6   0    7.34    1.19
  -1   6   0    2.60    2.11
  -1   6   0    6.27    1.41
  -1   6   0    5.61    1.44
   0  -6   0   19.51    1.41
   0  -6   0   17.36    1.45
   0   6   0   15.79    2.11
   0   6   0   17.27    2.25
   0   6   0   14.44    3.32
  -1  -6   0    3.91    1.13
  -1  -6   0    4.14    0.74
  -1  -6   0    6.34    0.97
   1   6   0    3.38    1.81
   1   6   0    4.09    1.25
  -2  -6   0    1.23    0.89
   2   6   0   -0.10    1.67
   2   6   0    2.25    1.02
  -3  -6   0   11.90    2.13
   3   6   0    6.27    2.93
   3   6   0   12.04    2.04
  -4  -6   0    4.39    1.73
   4   6   0   -0.06    1.83
   4   6   0    3.91    1.32
  -5  -6   0    2.98    1.61
   5   6   0    0.88    1.75
   5   6   0    6.16    1.60
  -6  -6   0    0.95    1.48
  -7  -6   0    1.15    1.69
   6  -7   0    4.48    1.67
   6  -7   0    3.36    1.30
  -6   7   0    3.16    1.56
  -6   7   0    6.71    1.94
  -6   7   0    0.11    1.93
   5  -7   0    2.08    1.01
   5  -7   0    4.17    1.42
  -5   7   0    2.61    1.45
  -5   7   0    1.50    2.25
  -5   7   0    4.92    1.66
   4  -7   0    7.23    1.50
   4  -7   0    7.61    1.79
  -4   7   0    1.41    2.18
  -4   7   0    5.24    1.59
  -4   7   0    4.04    1.43
   3  -7   0   32.66    2.51
   3  -7   0   34.36    2.72
  -3   7   0   37.64    3.21
  -3   7   0   33.68    3.07
   2  -7   0   17.22    2.08
   2  -7   0   16.94    1.99
  -2   7   0   19.32    2.78
  -2   7   0   16.82    2.46
   1  -7   0    2.29    0.85
   1  -7   0    0.65    0.58
  -1   7   0    0.40    0.94
  -1   7   0    2.36    1.26
  -1   7   0    1.15    2.07
   0  -7   0    7.24    1.13
   0  -7   0    7.69    1.21
   0   7   0    7.60    1.56
   0   7   0    4.00    2.56
  -1  -7   0    6.75    1.06
  -1  -7   0    4.85    1.34
  -1  -7   0    7.20    1.08
   1   7   0    7.22    1.78
   1   7   0    5.67    2.36
  -2  -7   0   14.61    2.39
   2   7   0   13.69    2.21
   2   7   0   12.22    3.92
  -3  -7   0    7.14    1.73
   3   7   0   10.29    1.94
   3   7   0    2.90    2.79
  -4  -7   0    1.93    1.21
   4   7   0    1.45    0.98
   4   7   0   -0.23    1.82
  -5  -7   0    3.97    1.90
   5   7   0   -0.19    2.20
   5   7   0    1.75    1.10
  -6  -7   0    2.13    1.75
   6  -8   0    2.42    1.27
   6  -8   0    1.94    1.18
  -6   8   0    0.71    1.38
  -6   8   0    1.18    2.24
  -6   8   0    3.46    1.56
   5  -8   0    7.42    1.81
   5  -8   0    9.00    1.88
  -5   8   0   10.70    2.38
  -5   8   0    9.05    2.24
   4  -8   0    1.82    1.00
   4  -8   0    0.06    0.67
  -4   8   0   -1.82    1.66
  -4   8   0    1.86    1.23
  -4   8   0    0.84    1.23
   3  -8   0    1.74    0.93
   3  -8   0    1.08    0.72
  -3   8   0   -0.69    0.88
  -3   8   0    0.90    2.50
  -3   8   0    1.47    1.07
   2  -8   0    8.32    1.63
   2  -8   0    9.16    1.65
  -2   8   0    8.39    2.04
  -2   8   0    0.18    2.28
  -2   8   0    7.79    1.96
   1  -8   0    6.87    1.38
   1  -8   0    7.70    1.40
  -1   8   0    3.69    1.48
  -1   8   0    1.86    2.45
  -1   8   0    5.00    1.63
   0  -8   0   16.87    1.86
   0  -8   0   11.58    1.65
   0  -8   0   10.79    2.03
   0   8   0    6.56    3.00
   0   8   0   14.03    2.45
  -1  -8   0   -0.09    0.65
   1   8   0   -0.47    0.97
   1   8   0    0.25    1.97
  -2  -8   0    0.49    0.98
   2   8   0    0.52    2.38
   2   8   0   -0.56    0.94
  -3  -8   0    8.88    2.19
   3   8   0    3.81    2.86
   3   8   0    7.15    1.83
  -4  -8   0    4.85    1.77
   4   8   0    1.94    1.19
   4   8   0    1.77    2.34
  -5  -8   0    0.95    1.27
   5   8   0    1.01    2.51
   5   8   0    1.66    1.33
   5  -9   0    0.45    0.89
   5  -9   0   -0.97    0.79
  -5   9   0   -0.24    1.14
  -5   9   0   -0.62    2.03
  -5   9   0    0.16    1.02
   4  -9   0    5.32    1.54
   4  -9   0    2.93    1.29
  -4   9   0    1.16    2.58
  -4   9   0    5.45    1.89
  -4   9   0    2.63    1.60
   3  -9   0    4.03    1.38
   3  -9   0    5.12    1.44
  -3   9   0    3.29    1.55
  -3   9   0    4.11    1.68
  -3   9   0   -1.33    2.26
   2  -9   0    0.09    0.64
   2  -9   0    0.05    0.61
  -2   9   0    0.25    0.97
  -2   9   0   -0.24    2.16
  -2   9   0    0.08    0.93
   1  -9   0    0.93    0.75
   1  -9   0    2.49    0.96
  -1   9   0    2.94    2.57
  -1   9   0    3.26    1.61
  -1   9   0    3.68    1.48
   0  -9   0    6.90    1.93
   0   9   0    2.92    2.43
   0   9   0    4.92    1.67
  -1  -9   0    4.96    1.57
   1   9   0    6.61    1.91
   1   9   0    0.30    1.82
  -2  -9   0    9.50    2.19
   2   9   0    1.29    2.30
   2   9   0    4.52    1.54
  -3  -9   0    8.30    2.20
   3   9   0    0.80    2.69
   3   9   0    1.88    1.24
  -4  -9   0    0.36    1.11
   4   9   0   -0.46    0.92
   4   9   0   -0.13    2.35
   4 -10   0    1.77    1.31
   4 -10   0    0.09    0.89
  -4  10   0    1.45    1.45
  -4  10   0    1.44    1.42
  -4  10   0    0.98    2.64
   3 -10   0    0.06    0.75
   3 -10   0    0.41    0.82
  -3  10   0    0.61    1.05
  -3  10   0    1.28    2.75
  -3  10   0   -0.54    1.17
   2 -10   0    0.69    1.02
   2 -10   0    2.66    1.22
  -2  10   0    1.47    1.40
  -2  10   0    0.78    2.56
  -2  10   0    0.76    1.17
  -1  10   0    3.69    1.65
  -1  10   0    6.12    1.91
  -1  10   0    1.15    2.71
   0 -10   0    5.66    1.69
   0  10   0    3.14    2.44
   0  10   0    7.15    1.88
  -1 -10   0   -0.35    0.82
   1  10   0    0.44    2.40
   1  10   0    0.35    1.12
  -2 -10   0    1.78    1.29
   2  10   0    1.92    2.76
   2  10   0    0.38    1.04
  -3 -10   0    4.25    1.67
   3  10   0   -1.49    2.47
   3  10   0    3.46    1.56
   2 -11   0    0.89    1.04
  -2  11   0    1.00    1.51
  -2  11   0    1.87    1.47
   1 -11   0    0.63    1.09
  -1  11   0    1.16    2.59
  -1  11   0    0.26    1.12
   0 -11   0    1.14    1.27
   0  11   0    0.71    2.43
   0  11   0    0.41    1.28
  -1 -11   0    1.43    1.23
   1  11   0    2.79    1.66
   1  11   0    2.36    2.99
   2  11  -1    0.40    1.06
   1  11  -1   -1.28    2.49
   1  11  -1   -0.25    1.16
  -1 -11   1   -0.14    1.10
   0  11  -1    2.82    1.54
   0  11  -1   -0.04    2.54
   0 -11   1    2.60    1.55
  -1  11  -1   -0.83    2.31
  -1  11  -1   -0.68    1.07
  -2  11  -1   -0.55    1.31
  -2  11  -1   -0.72    1.08
   3  10  -1   -0.33    2.58
   3  10  -1    1.94    1.40
  -3 -10   1    1.61    1.20
   2  10  -1    0.61    1.21
   2  10  -1    0.89    2.85
  -2 -10   1    0.54    0.94
   1  10  -1    0.44    2.33
   1  10  -1    0.78    1.26
  -1 -10   1    0.18    0.98
   0  10  -1    1.63    1.33
   0  10  -1   -0.43    2.29
   0 -10   1    0.37    0.88
  -1  10  -1    0.30    1.18
  -1  10  -1    3.44    1.80
  -1  10  -1   -0.61    2.09
  -2  10  -1    2.08    1.37
  -2  10  -1    2.52    1.57
  -2  10  -1   -0.21    2.20
   2 -10   1    1.74    0.99
   2 -10   1    2.44    1.16
  -3  10  -1    3.16    1.56
  -3  10  -1    0.91    2.84
  -3  10  -1    1.58    1.45
   3 -10   1    5.92    1.71
   3 -10   1    1.66    1.01
  -4  10  -1    0.21    2.48
  -4  10  -1   -0.09    1.14
  -4  10  -1    1.23    1.19
   4 -10   1   -0.31    0.85
   4 -10   1    0.66    0.95
   5   9  -1    1.53    1.51
   4   9  -1    4.82    1.71
   4   9  -1   -0.13    2.42
  -4  -9   1    5.37    1.84
   3   9  -1   -0.60    2.47
   3   9  -1    0.38    1.14
  -3  -9   1    0.40    0.97
   2   9  -1   -0.20    0.94
   2   9  -1    0.75    2.30
  -2  -9   1    2.45    1.27
   1   9  -1    6.25    3.13
   1   9  -1    9.75    2.21
  -1  -9   1    5.14    1.72
   0   9  -1    6.29    1.88
   0   9  -1    3.87    2.46
   0  -9   1    3.95    1.43
  -1   9  -1    3.63    2.66
  -1   9  -1    6.24    1.80
  -1   9  -1    2.85    1.39
   1  -9   1    7.32    1.47
   1  -9   1    6.72    1.42
  -2   9  -1   -0.34    2.26
  -2   9  -1    0.42    1.08
  -2   9  -1   -0.98    0.79
   2  -9   1    0.01    0.57
   2  -9   1    1.13    0.78
  -3   9  -1    2.15    1.33
  -3   9  -1   -0.56    2.15
  -3   9  -1    0.75    1.06
   3  -9   1    1.70    0.88
   3  -9   1    1.25    0.96
  -4   9  -1    7.97    2.12
  -4   9  -1    8.53    2.31
   4  -9   1    9.54    2.12
   4  -9   1    9.19    1.91
  -5   9  -1    3.11    1.55
  -5   9  -1    2.74    1.68
  -5   9  -1   -0.73    1.85
   5  -9   1    0.89    1.06
   5  -9   1    2.28    1.29
   5   8  -1    1.01    1.01
   5   8  -1   -1.20    2.20
  -5  -8   1    1.07    1.33
   4   8  -1   -1.00    2.06
   4   8  -1    0.88    1.06
  -4  -8   1    3.65    1.59
   3   8  -1    2.42    2.92
   3   8  -1    7.12    1.85
  -3  -8   1    5.63    1.81
   2   8  -1   15.89    4.63
   2   8  -1   15.47    2.59
  -2  -8   1   13.31    2.45
   1   8  -1    3.72    2.84
   1   8  -1    4.80    1.58
  -1  -8   1    4.50    1.44
   0   8  -1   -1.04    2.05
   0   8  -1    0.59    1.03
   0   8  -1    0.60    0.97
   0  -8   1   -0.30    0.54
   0  -8   1    0.02    0.49
  -1   8  -1    9.57    2.14
  -1   8  -1   12.53    2.17
  -1   8  -1    4.30    2.56
   1  -8   1    9.55    1.62
   1  -8   1   13.16    1.81
  -2   8  -1   29.65    3.64
  -2   8  -1   36.52    3.93
   2  -8   1   33.13    2.62
   2  -8   1   36.95    2.62
  -3   8  -1   -0.36    1.89
  -3   8  -1    5.60    1.78
  -3   8  -1    4.01    1.59
   3  -8   1    6.73    1.43
   3  -8   1    4.40    1.29
  -4   8  -1    0.68    1.16
  -4   8  -1    3.01    2.63
  -4   8  -1    1.48    1.19
   4  -8   1    3.46    1.21
   4  -8   1    0.62    0.86
  -5   8  -1    0.32    1.13
  -5   8  -1    0.68    2.12
  -5   8  -1    1.20    1.30
   5  -8   1    0.01    0.82
   5  -8   1   -0.09    0.77
  -6   8  -1   -0.39    2.02
  -6   8  -1    7.40    2.17
  -6   8  -1    7.34    2.32
   6  -8   1    1.41    1.16
   6  -8   1    2.40    1.20
  -6  -7   1    0.30    1.34
   5   7  -1   -0.43    2.17
   5   7  -1    2.31    1.29
  -5  -7   1    0.46    1.21
   4   7  -1    1.99    2.35
   4   7  -1   10.23    2.15
  -4  -7   1    6.79    1.83
   3   7  -1   -0.35    2.22
   3   7  -1    0.45    0.92
  -3  -7   1    0.70    0.91
   2   7  -1    3.96    1.33
   2   7  -1    2.55    2.45
  -2  -7   1    4.13    1.33
   1   7  -1   21.41    2.62
   1   7  -1   11.05    3.51
  -1  -7   1   25.68    2.94
   0   7  -1    2.99    1.20
   0   7  -1    4.90    1.50
   0   7  -1    2.56    2.04
   0  -7   1    4.76    0.98
   0  -7   1    2.86    0.78
  -1   7  -1   25.04    3.06
  -1   7  -1   21.46    2.68
  -1   7  -1   14.55    3.61
   1  -7   1   20.82    1.81
   1  -7   1   23.07    1.81
  -2   7  -1    7.52    1.83
  -2   7  -1   12.13    2.21
  -2   7  -1    6.23    2.68
   2  -7   1    5.97    1.25
   2  -7   1   11.94    1.62
  -3   7  -1    2.91    1.34
  -3   7  -1    1.90    1.22
  -3   7  -1    1.49    2.45
   3  -7   1    2.06    0.84
   3  -7   1    2.38    0.95
  -4   7  -1    4.75    1.68
  -4   7  -1    3.44    1.36
  -4   7  -1    0.08    1.93
   4  -7   1    3.55    1.20
   4  -7   1    3.51    1.17
  -5   7  -1    4.23    1.61
  -5   7  -1   -0.09    1.87
  -5   7  -1    5.97    1.73
   5  -7   1    5.37    1.52
   5  -7   1    5.31    1.45
  -6   7  -1   -0.29    1.06
  -6   7  -1    0.29    1.04
  -6   7  -1   -0.56    1.89
   6  -7   1    0.81    0.85
   6  -7   1    1.99    1.24
  -7  -6   1    2.75    1.93
   6   6  -1    2.28    2.32
  -6  -6   1    0.43    1.50
   5   6  -1   -0.26    1.62
   5   6  -1   -0.61    0.74
  -5  -6   1   -1.36    0.98
   4   6  -1    5.52    1.58
   4   6  -1    1.00    2.12
  -4  -6   1    2.62    1.27
   3   6  -1   10.23    1.89
  -3  -6   1   11.86    2.17
   2   6  -1    5.81    2.67
   2   6  -1   15.00    2.03
  -2  -6   1   13.96    2.04
   1   6  -1    0.82    1.59
   1   6  -1   -0.54    0.61
  -1  -6   1   -0.08    0.27
  -1  -6   1    0.16    0.30
  -1  -6   1    0.10    0.59
   0   6  -1    3.30    1.16
   0   6  -1    3.69    2.00
   0   6  -1    2.11    0.97
   0  -6   1    2.00    0.60
   0  -6   1    3.48    0.77
  -1   6  -1    1.34    1.92
  -1   6  -1    3.73    1.20
  -1   6  -1    3.50    1.14
   1  -6   1    3.91    0.91
   1  -6   1    3.62    0.85
  -2   6  -1   29.43    2.58
  -2   6  -1   15.95    3.49
  -2   6  -1   32.46    2.62
   2  -6   1   25.56    1.88
   2  -6   1   27.99    2.08
  -3   6  -1    6.63    2.75
  -3   6  -1    8.35    1.71
  -3   6  -1    8.09    1.72
   3  -6   1    8.59    1.53
   3  -6   1    9.51    1.52
  -4   6  -1   19.23    2.53
  -4   6  -1   17.93    2.64
   4  -6   1   16.29    2.15
   4  -6   1   17.42    2.29
  -5   6  -1   -0.81    1.61
  -5   6  -1   -0.50    0.78
  -5   6  -1    0.27    0.81
   5  -6   1    0.16    0.61
   5  -6   1   -0.26    0.62
  -6   6  -1    9.34    2.26
   6  -6   1    9.19    1.80
   6  -6   1   10.72    2.10
  -7   6  -1    3.80    1.92
   7  -6   1    3.32    1.36
   7  -6   1    3.46    1.39
  -7  -5   1   -0.01    1.48
   6   5  -1    6.04    2.39
   6   5  -1    3.79    1.30
  -6  -5   1    4.02    2.04
   5   5  -1    4.40    1.45
   5   5  -1    4.48    2.38
  -5  -5   1    4.09    1.80
   4   5  -1    5.02    1.31
  -4  -5   1    4.65    1.55
   3   5  -1    1.39    1.72
   3   5  -1   -1.21    0.54
  -3  -5   1   -0.11    0.56
   2   5  -1    1.10    1.60
   2   5  -1    3.20    0.97
  -2  -5   1    3.93    0.44
  -2  -5   1    4.26    1.19
   1   5  -1   47.51    2.92
  -1  -5   1   51.53    2.05
  -1  -5   1   48.68    1.91
  -1  -5   1   49.62    2.99
   0   5  -1    6.11    1.27
   0   5  -1    4.40    1.74
   0   5  -1    8.78    1.50
   0  -5   1    5.96    0.83
   0  -5   1    8.56    1.04
  -1   5  -1   52.14    4.87
  -1   5  -1   43.99    2.86
  -1   5  -1   49.85    2.92
   1  -5   1   46.94    2.40
   1  -5   1   45.17    2.26
  -2   5  -1    8.54    1.61
  -2   5  -1   10.30    1.61
  -2   5  -1    8.09    2.49
   2  -5   1    7.27    1.13
   2  -5   1    9.11    1.28
  -3   5  -1   21.26    2.34
  -3   5  -1   24.96    2.32
  -3   5  -1   17.87    3.77
   3  -5   1   23.87    1.97
   3  -5   1   21.70    1.81
  -4   5  -1   66.40    4.13
  -4   5  -1   66.74    3.78
  -4   5  -1   64.90    6.31
   4  -5   1   71.40    3.89
   4  -5   1   63.76    3.52
  -5   5  -1    6.90    1.80
   5  -5   1    9.44    1.83
   5  -5   1    9.52    1.70
  -6   5  -1    0.66    1.96
  -6   5  -1    4.43    1.50
  -6   5  -1    3.17    1.51
   6  -5   1    3.18    1.20
   6  -5   1    3.07    1.21
  -7   5  -1    4.72    1.61
   7  -5   1    2.11    1.13
   7  -5   1    3.62    1.48
  -7  -4   1    6.75    2.35
   6   4  -1    2.55    1.24
   6   4  -1    0.45    1.59
  -6  -4   1    3.25    1.82
   5   4  -1    1.07    0.98
   5   4  -1    2.14    1.78
  -5  -4   1    1.19    1.32
   4   4  -1   10.99    1.78
  -4  -4   1   13.22    2.26
   3   4  -1   26.73    2.17
  -3  -4   1   24.29    2.22
   2   4  -1   82.65    6.17
   2   4  -1   79.71    3.74
  -2  -4   1   80.09    3.93
   1   4  -1    1.73    0.73
   1   4  -1    0.40    1.08
  -1  -4   1    1.04    0.29
  -1  -4   1    0.45    0.43
   0   4  -1   19.66    2.69
   0   4  -1   18.63    1.63
   0   4  -1   18.40    1.58
   0  -4   1   20.97    1.13
   0  -4   1   21.14    1.21
  -1   4  -1   13.03    1.60
  -1   4  -1   11.63    2.55
  -1   4  -1    9.57    1.35
   1  -4   1   11.12    1.15
   1  -4   1   11.41    1.21
  -2   4  -1   10.36    1.45
  -2   4  -1    9.65    1.54
  -2   4  -1   12.76    2.85
   2  -4   1    8.07    1.13
   2  -4   1    9.79    1.26
  -3   4  -1    7.79    1.46
  -3   4  -1    7.47    1.30
  -3   4  -1   10.13    2.68
   3  -4   1    6.82    1.11
   3  -4   1    7.33    1.21
  -4   4  -1    6.61    1.53
   4  -4   1    7.09    1.36
   4  -4   1    6.80    1.28
  -5   4  -1    4.98    1.64
  -5   4  -1    0.61    1.66
  -5   4  -1    7.81    1.62
   5  -4   1    8.03    1.55
   5  -4   1    5.70    1.34
  -6   4  -1   -0.54    1.56
  -6   4  -1    1.83    1.05
  -6   4  -1    2.75    1.45
   6  -4   1    1.50    0.95
   6  -4   1    1.46    0.91
  -7   4  -1    8.01    2.20
   7  -4   1   11.84    2.15
   7  -4   1   13.24    2.32
  -8  -3   1    0.48    1.81
  -7  -3   1    0.05    1.48
   6   3  -1   24.98    3.50
  -6  -3   1   17.62    3.09
   5   3  -1   24.71    3.50
   5   3  -1   19.82    2.54
  -5  -3   1   24.43    3.46
   4   3  -1   21.86    3.55
   4   3  -1   17.15    2.11
   4   3  -1   16.22    0.95
  -4  -3   1   15.30    2.45
   3   3  -1    1.62    0.75
   3   3  -1    1.77    0.25
   3   3  -1    1.08    1.27
  -3  -3   1    0.05    0.63
   2   3  -1    0.77    1.19
   2   3  -1    1.43    0.62
  -2  -3   1    0.23    0.49
   1   3  -1  143.61    5.21
   1   3  -1  148.39    8.20
  -1  -3   1  144.06    3.90
  -1  -3   1  151.72    5.36
   0   3  -1   79.66    3.29
   0   3  -1   88.32    5.39
   0   3  -1   75.28    3.32
   0  -3   1   80.93    2.58
  -1   3  -1   27.59    1.73
  -1   3  -1   31.00    2.96
  -1   3  -1   25.97    1.77
   1  -3   1   28.56    1.46
  -2   3  -1   28.88    1.79
  -2   3  -1   29.37    3.08
  -2   3  -1   25.67    1.84
   2  -3   1   28.00    1.65
   2  -3   1   28.16    1.67
  -3   3  -1   45.97    2.82
   3  -3   1   49.33    2.53
   3  -3   1   49.72    2.58
  -4   3  -1   74.94    5.43
  -4   3  -1   72.39    3.44
  -4   3  -1   64.15    3.85
   4  -3   1   74.69    3.57
   4  -3   1   65.18    3.37
  -5   3  -1    1.85    1.76
  -5   3  -1    1.27    1.15
  -5   3  -1    1.55    0.82
   5  -3   1    0.99    0.59
   5  -3   1    0.39    0.54
  -6   3  -1   29.63    3.62
   6  -3   1   31.95    2.73
   6  -3   1   29.61    3.00
  -7   3  -1   -0.33    0.87
   7  -3   1    0.70    0.85
   7  -3   1    0.15    0.71
  -8   3  -1    3.30    1.74
   8  -3   1    3.23    1.43
   8  -3   1    4.55    1.52
  -8  -2   1    6.38    2.24
  -7  -2   1    8.50    2.48
  -6  -2   1    0.31    0.87
  -6  -2   1    2.55    1.60
   5   2  -1    1.36    1.62
   5   2  -1    0.55    0.43
  -5  -2   1   -0.08    1.21
  -5  -2   1   -0.08    0.76
   4   2  -1   97.52    4.59
   4   2  -1   97.85    3.56
   4   2  -1  105.66    6.75
   4   2  -1  106.70    3.42
  -4  -2   1  105.08    5.20
   3   2  -1   45.17    1.62
   3   2  -1   43.85    2.50
   3   2  -1   46.01    3.79
  -3  -2   1   45.95    2.83
   2   2  -1   31.45    1.79
   2   2  -1   28.98    0.92
   2   2  -1   23.36    2.79
  -2  -2   1   30.94    1.89
   1   2  -1   28.45    1.55
   1   2  -1   21.29    2.37
  -1  -2   1   25.03    1.48
   0   2  -1    1.50    0.54
   0   2  -1    0.74    0.38
   0  -2   1    0.56    0.20
  -1   2  -1    2.53    0.57
  -1   2  -1    3.18    0.72
  -1   2  -1    2.92    0.59
   1  -2   1    3.97    0.57
  -2   2  -1    5.10    1.51
  -2   2  -1    4.98    0.84
  -2   2  -1    3.46    0.85
  -2   2  -1    4.46    0.76
   2  -2   1    4.33    0.72
  -3   2  -1   35.12    2.37
  -3   2  -1   37.91    2.19
  -3   2  -1   34.77    3.03
  -3   2  -1   37.50    2.00
   3  -2   1   38.93    2.05
  -4   2  -1   17.15    2.80
  -4   2  -1   13.98    2.14
  -4   2  -1   13.31    1.52
   4  -2   1   13.32    1.59
  -5   2  -1   23.52    3.01
  -5   2  -1   20.04    2.79
  -5   2  -1   21.19    1.87
   5  -2   1   20.17    2.16
   5  -2   1   25.11    2.48
  -6   2  -1   10.57    2.38
   6  -2   1    7.12    1.41
  -7   2  -1   10.43    2.67
   7  -2   1   16.53    2.45
   7  -2   1   10.05    1.80
  -8   2  -1   -0.80    1.10
   8  -2   1   -0.38    0.74
   8  -2   1    0.02    0.86
  -8  -1   1    1.45    1.63
  -7  -1   1    7.39    2.05
   6   1  -1    8.12    1.45
  -6  -1   1    6.62    1.61
  -6  -1   1   12.52    3.42
  -6  -1   1    9.89    2.24
   5   1  -1   42.52    2.24
  -5  -1   1   38.22    4.25
  -5  -1   1   39.36    3.38
  -5  -1   1   40.47    2.88
   4   1  -1   48.95    2.32
   4   1  -1   50.40    2.20
   4   1  -1   51.46    4.21
  -4  -1   1   50.83    2.97
  -4  -1   1   52.31    3.37
   3   1  -1   12.83    0.84
   3   1  -1   11.25    0.86
   3   1  -1   15.48    2.51
   3   1  -1   14.83    1.69
  -3  -1   1   18.05    2.04
   2   1  -1    8.61    1.71
   2   1  -1    5.50    0.45
   2   1  -1    7.91    1.09
  -2  -1   1    5.93    1.05
   1   1  -1  456.99   10.97
   1   1  -1  436.12   12.59
  -1  -1   1  438.69   12.73
   0   1  -1  120.45    3.69
   0   1  -1  115.72    3.61
  -1   1  -1    0.43    0.34
  -1   1  -1    0.56    0.36
  -1   1  -1    0.80    0.29
  -2   1  -1   10.30    1.06
  -2   1  -1    7.26    0.88
  -2   1  -1   10.10    0.81
  -2   1  -1    9.22    1.18
  -3   1  -1    6.48    1.43
  -3   1  -1    4.09    0.82
  -3   1  -1    4.81    0.79
  -3   1  -1    4.10    1.10
  -4   1  -1   95.82    4.82
  -4   1  -1   96.44    5.88
  -4   1  -1  101.79    3.86
  -4   1  -1  100.68    4.16
   4  -1   1   95.96    3.89
  -5   1  -1    4.76    1.77
  -5   1  -1    2.24    0.88
  -5   1  -1    3.61    1.54
   5  -1   1    2.05    0.75
  -6   1  -1    1.21    1.18
   6  -1   1    0.61    0.69
   6  -1   1   -0.09    0.46
  -7   1  -1    3.11    1.60
   7  -1   1    5.35    1.37
   7  -1   1    2.51    0.99
  -8   1  -1    2.00    1.58
   8  -1   1    1.30    1.07
   8  -1   1    1.33    1.06
  -8   0   1    6.55    2.28
  -7   0   1    9.51    2.31
   6   0  -1   -0.38    0.49
   6   0  -1    0.01    0.48
  -6   0   1   -0.69    1.12
  -6   0   1   -1.17    1.35
  -6   0   1    0.32    0.99
   5   0  -1    0.23    0.47
   5   0  -1    0.36    0.40
  -5   0   1   -0.12    0.73
  -5   0   1   -0.41    0.93
  -5   0   1    0.66    1.34
   4   0  -1  130.48    4.44
   4   0  -1  128.63    4.66
  -4   0   1  127.24    5.53
  -4   0   1  127.02    5.17
  -4   0   1  120.93    7.82
   3   0  -1   54.71    2.27
   3   0  -1   61.51    2.48
  -3   0   1   60.62    3.08
   2   0  -1   38.15    1.55
  -2   0   1   38.97    2.03
  -2   0   1   43.90    2.12
  -1   0   1   37.15    1.47
  -1   0   1   37.81    1.65
   0   0  -1  118.28    3.38
   0   0  -1  118.95    3.17
  -1   0  -1   85.75    2.44
  -1   0  -1   87.25    3.04
  -2   0  -1   30.14    1.47
  -2   0  -1   31.82    1.36
  -2   0  -1   31.14    1.53
  -2   0  -1   31.37    1.97
  -3   0  -1   24.79    1.52
  -3   0  -1   21.28    1.38
  -3   0  -1   22.43    1.33
  -3   0  -1   23.12    1.88
  -4   0  -1    4.38    0.90
  -4   0  -1    4.52    0.96
  -4   0  -1    5.15    1.51
  -4   0  -1    3.57    1.21
  -5   0  -1   41.16    3.39
  -5   0  -1   46.40    2.53
  -5   0  -1   38.19    3.66
  -5   0  -1   42.73    2.63
  -6   0  -1   20.38    3.18
  -7   0  -1    2.86    1.68
   7   0   1    0.67    0.61
   7   0   1    1.16    0.71
  -8   0  -1   -0.79    1.27
  -8   1   1    0.60    1.39
   7  -1  -1    1.97    0.84
   7  -1  -1    2.51    1.00
  -7   1   1    9.61    2.21
   6  -1  -1   24.43    2.54
   6  -1  -1   19.82    2.33
  -6   1   1   21.48    2.61
  -6   1   1   24.00    3.35
  -6   1   1   28.68    4.71
   5  -1  -1    8.93    1.41
   5  -1  -1   12.94    1.68
  -5   1   1   10.40    2.00
  -5   1   1   13.29    3.05
  -5   1   1   10.94    1.79
   4  -1  -1   22.44    1.65
   4  -1  -1   17.90    1.47
  -4   1   1   24.80    2.15
   3  -1  -1    5.18    0.81
   3  -1  -1    5.18    0.79
  -3   1   1    6.76    1.25
  -3   1   1    7.02    1.09
  -3   1   1    9.65    2.03
   2  -1  -1   20.48    1.14
   2  -1  -1   20.22    1.20
  -2   1   1   19.06    2.13
  -2   1   1   19.26    1.36
  -2   1   1   20.18    1.38
   1  -1  -1  240.75    6.54
  -1   1   1  246.88    7.21
  -1   1   1  240.53    7.06
   0  -1  -1   72.64    2.20
   0   1   1   73.43    2.40
  -1  -1  -1   65.70    2.07
  -1  -1  -1   66.52    2.62
   1   1   1   67.48    2.18
  -2  -1  -1  110.13    3.30
  -2  -1  -1  102.84    4.31
   2   1   1  107.67    3.53
  -3  -1  -1    0.55    0.38
  -3  -1  -1    0.30    0.31
  -3  -1  -1    0.06    0.72
   3   1   1   -0.11    0.32
   3   1   1   -0.30    0.64
  -4  -1  -1   33.91    1.95
  -4  -1  -1   35.08    2.06
  -4  -1  -1   33.90    1.94
  -4  -1  -1   35.97    2.93
  -5  -1  -1   10.17    2.31
  -5  -1  -1   12.85    2.62
  -5  -1  -1   11.75    1.61
  -5  -1  -1    9.81    1.47
   5   1   1   12.37    1.48
  -6  -1  -1   -0.97    1.18
   6   1   1    0.47    0.59
  -7  -1  -1    5.02    2.06
  -8  -1  -1    1.27    1.65
   8  -2  -1    8.99    1.99
   8  -2  -1    7.39    1.79
  -8   2   1    6.76    2.18
   7  -2  -1   26.40    2.91
   7  -2  -1   26.85    3.10
  -7   2   1   23.17    3.49
   6  -2  -1   -0.19    0.47
   6  -2  -1    1.06    0.79
  -6   2   1    1.17    1.84
  -6   2   1    0.44    0.92
  -6   2   1    1.40    1.30
   5  -2  -1    0.32    0.49
   5  -2  -1    0.21    0.52
  -5   2   1   -0.57    0.90
  -5   2   1   -0.23    0.39
  -5   2   1   -0.06    0.71
   4  -2  -1   49.20    2.76
   4  -2  -1   57.14    2.78
  -4   2   1   51.20    2.88
  -4   2   1   52.83    3.15
  -4   2   1   45.88    4.25
   3  -2  -1   93.25    3.62
   3  -2  -1   96.68    3.84
  -3   2   1   92.96    4.01
  -3   2   1   93.40    3.90
  -3   2   1   95.89    6.07
   2  -2  -1   29.67    1.55
   2  -2  -1   30.35    1.67
  -2   2   1   30.04    2.78
  -2   2   1   30.95    1.69
  -2   2   1   29.93    1.78
   1  -2  -1    6.12    0.72
   1  -2  -1    7.75    0.80
  -1   2   1    6.26    0.80
  -1   2   1    8.43    1.06
  -1   2   1    8.57    1.69
   0  -2  -1    1.84    0.38
   0   2   1    1.42    0.54
  -1  -2  -1 1000.00   24.71
  -1  -2  -1  989.43   27.95
   1   2   1  981.41   27.18
  -2  -2  -1  292.59    7.92
  -2  -2  -1  308.55    9.81
   2   2   1  295.26   13.97
   2   2   1  300.58    8.89
  -3  -2  -1    1.75    0.46
  -3  -2  -1    1.46    0.94
  -3  -2  -1    2.35    0.50
   3   2   1    1.09    0.49
   3   2   1    1.06    0.91
  -4  -2  -1   -0.26    0.85
  -4  -2  -1    0.19    0.37
  -4  -2  -1    0.70    0.45
   4   2   1    1.63    0.74
   4   2   1    0.65    0.94
  -5  -2  -1   24.94    3.19
  -5  -2  -1   22.85    2.05
  -5  -2  -1   19.79    1.67
   5   2   1   25.38    2.88
  -6  -2  -1   23.24    3.49
  -7  -2  -1    5.57    2.15
  -8  -2  -1   -1.60    1.19
   8  -3  -1    0.73    0.94
   8  -3  -1   -0.19    0.94
  -8   3   1   -0.46    1.17
   7  -3  -1    6.24    1.59
   7  -3  -1    4.32    1.45
  -7   3   1    4.16    1.67
   6  -3  -1   23.27    2.73
   6  -3  -1   26.23    2.69
  -6   3   1   27.16    3.41
   5  -3  -1    5.69    1.26
   5  -3  -1    5.37    1.18
  -5   3   1    5.88    1.43
  -5   3   1    5.88    1.53
  -5   3   1    7.34    2.45
   4  -3  -1   24.70    1.85
   4  -3  -1   20.75    1.84
  -4   3   1   22.24    3.05
  -4   3   1   21.22    2.00
  -4   3   1   21.29    1.98
   3  -3  -1    5.02    0.94
   3  -3  -1    6.89    1.10
  -3   3   1    7.50    1.28
  -3   3   1   10.88    2.53
  -3   3   1    5.50    1.05
   2  -3  -1   76.47    3.22
   2  -3  -1   73.66    2.97
  -2   3   1   75.22    3.25
  -2   3   1   75.42    3.36
   1  -3  -1   27.57    1.55
   1  -3  -1   26.25    1.45
  -1   3   1   26.10    1.63
  -1   3   1   27.27    2.89
  -1   3   1   27.26    1.74
   0  -3  -1   14.87    1.02
   0  -3  -1   15.24    0.98
   0   3   1   16.15    2.24
   0   3   1   14.90    1.25
   0   3   1   15.05    1.22
  -1  -3  -1   54.25    1.99
  -1  -3  -1   54.42    2.66
   1   3   1   59.16    4.13
   1   3   1   55.19    2.52
  -2  -3  -1   75.30    2.51
  -2  -3  -1   75.45    3.61
   2   3   1   76.21    5.09
   2   3   1   74.47    3.17
  -3  -3  -1    4.64    0.70
  -3  -3  -1    3.62    0.58
  -3  -3  -1    4.63    1.29
   3   3   1    3.31    0.81
  -4  -3  -1   25.82    1.56
  -4  -3  -1   22.36    2.86
  -4  -3  -1   25.13    1.48
   4   3   1   27.86    1.99
   4   3   1   31.09    3.20
  -5  -3  -1    3.60    1.81
   5   3   1    2.37    1.56
   5   3   1    2.44    1.04
  -6  -3  -1   -0.86    1.21
  -7  -3  -1    3.31    1.96
  -8  -3  -1    5.98    2.49
   7  -4  -1   16.57    2.36
   7  -4  -1   14.63    2.48
  -7   4   1   11.51    3.27
  -7   4   1   12.23    2.42
  -7   4   1    9.87    2.37
   6  -4  -1   -0.23    0.63
   6  -4  -1   -0.89    0.58
  -6   4   1   -0.57    0.77
  -6   4   1    0.01    0.82
  -6   4   1    0.08    1.59
   5  -4  -1    1.40    0.77
   5  -4  -1    1.01    0.73
  -5   4   1    0.59    0.93
  -5   4   1   -0.35    1.60
  -5   4   1    1.11    1.02
   4  -4  -1   14.22    1.88
   4  -4  -1   15.02    1.91
  -4   4   1   18.95    3.83
  -4   4   1   14.95    2.08
  -4   4   1   14.85    2.08
   3  -4  -1   33.12    2.31
   3  -4  -1   38.45    2.29
  -3   4   1   35.72    2.48
  -3   4   1   37.44    4.00
  -3   4   1   36.37    2.45
   2  -4  -1   31.64    1.99
   2  -4  -1   32.53    1.91
  -2   4   1   25.54    3.41
  -2   4   1   35.26    2.20
  -2   4   1   27.51    2.09
   1  -4  -1   21.99    1.50
   1  -4  -1   21.59    1.42
  -1   4   1   19.48    1.67
  -1   4   1   23.02    3.05
  -1   4   1   20.51    1.64
   0  -4  -1    5.54    0.82
   0  -4  -1    6.14    0.82
   0   4   1    6.26    1.12
   0   4   1    6.13    1.14
   0   4   1    6.18    1.83
  -1  -4  -1   58.24    2.25
  -1  -4  -1   58.52    2.35
  -1  -4  -1   57.30    2.98
   1   4   1   63.71    4.79
   1   4   1   58.51    2.91
  -2  -4  -1   29.97    1.44
  -2  -4  -1   29.68    1.52
  -2  -4  -1   33.07    2.31
   2   4   1   20.92    3.46
   2   4   1   31.00    2.03
  -3  -4  -1   33.26    1.50
  -3  -4  -1   36.97    2.84
  -3  -4  -1   33.02    1.62
   3   4   1   37.19    2.30
   3   4   1   22.84    3.29
  -4  -4  -1    0.79    1.23
   4   4   1    0.48    0.59
   4   4   1   -0.69    1.32
  -5  -4  -1   14.52    2.84
   5   4   1    9.69    1.70
   5   4   1   16.76    3.39
  -6  -4  -1   10.83    2.54
  -7  -4  -1    1.89    1.77
   7  -5  -1    3.30    1.30
   7  -5  -1    1.12    0.98
  -7   5   1   -0.08    1.85
  -7   5   1    1.31    1.24
  -7   5   1    0.82    1.14
   6  -5  -1   10.10    2.01
   6  -5  -1   11.11    1.86
  -6   5   1   14.80    2.42
  -6   5   1   12.37    2.28
   5  -5  -1    0.77    0.70
   5  -5  -1    0.68    0.77
  -5   5   1    1.05    1.01
  -5   5   1    3.35    1.28
  -5   5   1   -0.05    1.88
   4  -5  -1    3.60    0.98
   4  -5  -1    2.96    1.01
  -4   5   1    0.69    1.96
  -4   5   1    2.03    1.09
  -4   5   1    4.69    1.37
   3  -5  -1    0.00    0.41
   3  -5  -1   -0.33    0.33
  -3   5   1    0.76    0.79
  -3   5   1   -0.99    1.70
  -3   5   1    0.61    0.76
   2  -5  -1   33.26    2.22
   2  -5  -1   33.00    2.11
  -2   5   1   35.28    2.47
  -2   5   1   32.66    2.40
  -2   5   1   24.21    3.96
   1  -5  -1   90.96    3.63
   1  -5  -1   86.50    3.79
  -1   5   1  100.78    7.25
  -1   5   1   83.32    4.14
  -1   5   1   91.06    4.24
   0  -5  -1    8.56    1.10
   0  -5  -1    5.99    0.94
   0   5   1    5.49    1.95
   0   5   1    5.85    1.22
  -1  -5  -1    3.09    0.66
  -1  -5  -1    2.64    0.57
  -1  -5  -1    2.58    0.84
   1   5   1    1.64    1.35
   1   5   1    4.11    1.03
  -2  -5  -1    8.90    1.60
  -2  -5  -1   11.85    1.16
  -2  -5  -1    9.32    0.98
   2   5   1    8.23    1.43
  -3  -5  -1   24.15    2.87
   3   5   1   23.41    2.07
  -4  -5  -1   16.15    2.57
   4   5   1   18.63    2.27
  -5  -5  -1    0.80    1.33
   5   5   1    0.73    1.60
   5   5   1    0.23    0.78
  -6  -5  -1   -0.55    1.04
  -7  -5  -1    4.15    2.10
   7  -6  -1    4.35    1.52
   7  -6  -1    5.91    1.73
  -7   6   1    3.87    1.50
  -7   6   1    0.78    2.09
  -7   6   1    4.51    1.89
   6  -6  -1    0.04    0.73
   6  -6  -1   -0.46    0.66
  -6   6   1   -0.06    1.76
  -6   6   1   -0.95    0.76
  -6   6   1   -0.16    0.89
   5  -6  -1    3.39    1.19
   5  -6  -1    1.92    1.02
  -5   6   1    0.55    2.08
  -5   6   1    5.33    1.56
  -5   6   1    3.38    1.44
   4  -6  -1   23.19    2.73
   4  -6  -1   17.32    2.20
  -4   6   1   23.86    2.99
  -4   6   1   21.64    2.73
   3  -6  -1    4.99    1.14
   3  -6  -1    9.42    1.60
  -3   6   1    3.33    2.40
  -3   6   1    6.56    1.58
  -3   6   1    6.16    1.54
   2  -6  -1   21.27    1.79
   2  -6  -1   22.34    1.95
  -2   6   1   25.68    2.31
  -2   6   1   11.38    3.14
  -2   6   1   16.69    2.15
   1  -6  -1    4.52    0.99
   1  -6  -1    6.87    1.21
  -1   6   1    5.88    2.39
  -1   6   1    6.20    1.45
  -1   6   1    4.90    1.29
   0  -6  -1   14.82    1.57
   0  -6  -1   17.14    1.47
   0   6   1   19.37    2.35
   0   6   1   13.68    3.10
  -1  -6  -1   19.64    1.43
  -1  -6  -1   15.96    1.27
  -1  -6  -1   23.41    2.66
   1   6   1   15.60    3.33
   1   6   1   18.86    2.25
  -2  -6  -1   10.14    1.24
  -2  -6  -1    8.39    1.04
  -2  -6  -1   10.35    1.81
   2   6   1    9.17    2.90
   2   6   1   15.46    2.17
  -3  -6  -1    1.44    1.03
   3   6   1    4.34    1.26
   3   6   1    0.52    2.08
  -4  -6  -1   10.79    2.40
   4   6   1   10.39    1.87
  -5  -6  -1    1.79    1.49
   5   6   1   -0.93    1.71
  -6  -6  -1    2.24    1.87
   6  -7  -1   12.67    2.29
   6  -7  -1    7.60    1.97
  -6   7   1    8.14    2.01
  -6   7   1    1.80    2.60
  -6   7   1    8.90    2.07
   5  -7  -1    8.49    1.89
   5  -7  -1    5.82    1.56
  -5   7   1    8.63    2.00
  -5   7   1    6.92    1.88
   4  -7  -1    2.29    1.06
   4  -7  -1    2.19    0.99
  -4   7   1    1.68    1.10
  -4   7   1   -1.21    2.01
  -4   7   1    2.15    1.15
   3  -7  -1   21.75    2.67
   3  -7  -1   18.23    2.33
  -3   7   1   17.86    2.61
  -3   7   1   16.84    2.61
   2  -7  -1    8.76    1.50
   2  -7  -1   12.08    1.82
  -2   7   1   11.50    2.13
  -2   7   1   12.80    2.23
  -2   7   1    3.40    2.35
   1  -7  -1   50.77    2.86
   1  -7  -1   49.86    3.04
  -1   7   1   46.46    3.41
  -1   7   1   51.45    3.60
   0  -7  -1    5.61    1.44
   0  -7  -1    7.88    1.29
   0  -7  -1    8.39    1.31
   0   7   1    3.29    2.38
   0   7   1    8.34    1.73
  -1  -7  -1    0.00    0.43
  -1  -7  -1    0.67    0.51
  -1  -7  -1   -0.44    0.59
   1   7   1    0.65    0.91
   1   7   1   -0.41    1.57
  -2  -7  -1    5.21    1.50
   2   7   1    1.22    1.88
   2   7   1    8.73    1.83
  -3  -7  -1    8.73    2.04
   3   7   1    4.43    2.79
   3   7   1    6.68    1.64
  -4  -7  -1    1.14    1.16
   4   7   1    0.91    1.94
   4   7   1    3.58    1.31
  -5  -7  -1   -0.02    1.20
  -6  -7  -1    1.42    1.65
   6  -8  -1    0.27    1.02
   6  -8  -1    1.10    0.92
  -6   8   1    0.04    1.12
  -6   8   1   -0.40    0.99
  -6   8   1    0.16    2.37
   5  -8  -1    1.48    1.18
   5  -8  -1    5.10    1.58
  -5   8   1    0.42    0.90
  -5   8   1    0.06    2.23
  -5   8   1    1.40    1.22
   4  -8  -1   11.18    2.04
   4  -8  -1   10.57    2.09
  -4   8   1    1.94    2.47
  -4   8   1    9.53    2.10
  -4   8   1    8.96    2.14
   3  -8  -1   -0.13    0.68
   3  -8  -1    0.01    0.66
  -3   8   1    0.77    0.98
  -3   8   1    0.43    2.34
  -3   8   1    0.73    0.99
   2  -8  -1    2.42    1.03
   2  -8  -1    4.08    1.19
  -2   8   1    1.15    1.28
  -2   8   1    0.20    2.43
  -2   8   1    1.87    1.29
   1  -8  -1   -0.22    0.54
   1  -8  -1    0.42    0.60
  -1   8   1    0.41    0.92
  -1   8   1   -0.60    2.30
  -1   8   1   -0.26    0.85
   0  -8  -1    2.90    0.91
   0  -8  -1    3.29    1.22
   0  -8  -1    1.33    0.75
   0   8   1    0.22    0.97
   0   8   1    1.23    2.57
  -1  -8  -1    8.55    1.88
   1   8   1    8.02    1.90
   1   8   1    5.85    2.75
   1   8   1    5.78    2.75
  -2  -8  -1    5.20    1.55
   2   8   1    5.98    1.62
   2   8   1    1.73    2.22
  -3  -8  -1    3.88    1.44
   3   8   1    4.97    1.58
   3   8   1    0.40    2.06
  -4  -8  -1    2.82    1.48
   4   8   1    0.08    0.91
   4   8   1    1.00    2.12
  -5  -8  -1    2.92    1.71
   5  -9  -1    3.42    1.49
   5  -9  -1    5.12    1.67
  -5   9   1    0.28    2.53
  -5   9   1    2.69    1.47
  -5   9   1    3.55    1.71
   4  -9  -1   -0.06    0.79
   4  -9  -1   -0.18    0.79
  -4   9   1    0.47    1.14
  -4   9   1   -0.69    0.96
  -4   9   1    0.04    2.35
   3  -9  -1    1.49    0.91
   3  -9  -1    2.73    1.14
  -3   9   1    3.41    1.54
  -3   9   1    0.19    2.39
  -3   9   1   -0.29    1.08
   2  -9  -1   12.18    2.14
   2  -9  -1    8.36    1.67
  -2   9   1   13.34    2.70
  -2   9   1    7.52    1.95
  -2   9   1    3.33    2.94
   1  -9  -1   17.91    2.20
   1  -9  -1   18.70    2.37
  -1   9   1   14.10    2.54
  -1   9   1   17.90    2.92
   0  -9  -1   -0.20    0.86
   0   9   1   -0.85    1.87
   0   9   1    2.22    1.14
  -1  -9  -1    0.14    0.81
   1   9   1   -0.59    1.91
   1   9   1    0.40    1.10
  -2  -9  -1    3.52    1.56
   2   9   1    5.06    3.08
   2   9   1    2.71    1.32
  -3  -9  -1    2.71    1.26
   3   9   1    1.48    1.21
   3   9   1    0.59    2.32
  -4  -9  -1    3.42    1.61
   4   9   1    0.79    2.09
   4   9   1    1.02    1.03
   4 -10  -1    6.00    1.73
   4 -10  -1    4.93    1.70
  -4  10   1    3.16    1.89
  -4  10   1    6.11    2.16
   3 -10  -1    0.72    0.94
   3 -10  -1    0.04    1.01
  -3  10   1    0.12    1.13
  -3  10   1    0.08    2.72
  -3  10   1    1.28    1.27
   2 -10  -1    0.81    0.86
   2 -10  -1    0.29    0.80
  -2  10   1   -0.49    0.81
  -2  10   1   -0.26    1.06
  -2  10   1   -1.37    2.39
   1 -10  -1    5.05    1.71
   1 -10  -1    4.48    1.33
   1 -10  -1    3.96    1.18
  -1  10   1    5.54    1.83
  -1  10   1    2.38    3.09
   0 -10  -1    2.46    1.35
   0  10   1    2.01    2.67
   0  10   1    2.17    1.38
  -1 -10  -1    6.21    1.85
   1  10   1    4.04    1.55
   1  10   1    3.13    2.98
  -2 -10  -1    1.71    1.28
   2  10   1   -0.81    2.29
   2  10   1    0.25    1.05
  -3 -10  -1    0.04    1.09
   3  10   1    0.06    0.96
   3  10   1    3.42    3.35
   2 -11  -1    1.58    0.98
   2 -11  -1    1.38    0.97
  -2  11   1    2.62    1.84
  -2  11   1    3.01    1.74
   1 -11  -1   -0.93    0.89
  -1  11   1    0.57    1.31
  -1  11   1   -0.79    2.73
   0 -11  -1   -0.05    1.01
   0  11   1   -1.39    2.13
   0  11   1   -1.33    2.13
   0  11   1   -0.20    1.14
  -1 -11  -1    0.45    0.94
   1  11   1   -0.75    1.02
   1  11   1    0.86    2.84
   1  11  -2    3.39    3.30
   1  11  -2    0.10    1.22
  -1 -11   2   -0.70    0.90
   0  11  -2    0.20    1.16
   0  11  -2    1.61    2.46
   0 -11   2    1.73    1.28
  -1  11  -2   -0.78    2.29
  -1  11  -2    2.85    1.90
  -1  11  -2    1.86    1.57
  -2  11  -2    0.29    1.32
  -2  11  -2    2.13    1.69
   3  10  -2    0.29    2.32
   3  10  -2   -0.25    1.04
  -3 -10   2    0.35    0.98
   2  10  -2    1.14    1.25
   2  10  -2    2.84    3.07
  -2 -10   2    3.14    1.40
   1  10  -2    3.69    2.96
   1  10  -2    3.56    1.54
  -1 -10   2    2.91    1.33
   0  10  -2    4.37    1.68
   0  10  -2    2.01    2.69
   0 -10   2    5.57    1.78
  -1  10  -2    0.60    1.15
  -1  10  -2   -0.13    1.11
  -1  10  -2    0.80    2.25
  -2  10  -2   -0.31    1.09
  -2  10  -2   -0.68    1.08
  -2  10  -2   -0.46    1.90
   2 -10   2    1.13    0.88
   2 -10   2    1.21    1.00
  -3  10  -2    3.94    1.70
  -3  10  -2    4.19    1.79
  -3  10  -2    0.69    2.73
   3 -10   2    2.08    1.08
   3 -10   2    3.39    1.29
  -4  10  -2    2.51    1.88
  -4  10  -2    0.36    1.28
   4 -10   2    1.30    0.97
   4 -10   2    0.32    0.95
   4   9  -2    4.01    1.82
   4   9  -2    1.92    3.00
  -4  -9   2    3.58    1.42
   3   9  -2    1.83    2.30
   3   9  -2    7.12    1.89
  -3  -9   2    4.33    1.60
   2   9  -2    0.16    2.26
   2   9  -2   -0.19    0.95
  -2  -9   2    0.90    0.94
   1   9  -2   -1.24    1.95
   1   9  -2    0.38    1.02
  -1  -9   2    0.52    0.80
   0   9  -2    0.72    2.08
   0   9  -2    1.35    1.10
  -1   9  -2    5.10    2.70
  -1   9  -2   15.64    2.78
  -1   9  -2   10.82    2.39
   1  -9   2   12.35    1.83
   1  -9   2   14.69    2.08
  -2   9  -2    1.86    2.37
  -2   9  -2    4.52    1.63
  -2   9  -2    2.36    1.36
   2  -9   2    3.58    1.14
   2  -9   2    3.45    1.07
  -3   9  -2   -0.49    0.87
  -3   9  -2   -0.93    2.05
  -3   9  -2   -0.13    1.04
   3  -9   2   -0.12    0.52
   3  -9   2   -0.36    0.74
  -4   9  -2   -1.12    1.92
  -4   9  -2    1.95    1.40
  -4   9  -2    0.32    1.12
   4  -9   2   -0.39    0.72
   4  -9   2    0.62    0.87
  -5   9  -2    4.16    1.78
  -5   9  -2   -0.92    1.85
  -5   9  -2    3.46    1.88
   5  -9   2    2.48    1.22
   5  -9   2    5.65    1.75
   5   8  -2   -1.03    2.23
   5   8  -2    2.84    1.52
  -5  -8   2    3.25    1.72
   4   8  -2    1.04    1.05
   4   8  -2   -0.04    2.34
  -4  -8   2    1.74    1.15
   3   8  -2    0.90    2.17
   3   8  -2    0.81    1.10
  -3  -8   2    1.05    0.94
   2   8  -2   17.53    2.70
   2   8  -2    9.66    3.40
  -2  -8   2   18.54    2.70
   1   8  -2   -0.87    2.05
   1   8  -2    2.89    1.31
  -1  -8   2    4.25    1.45
   0   8  -2   13.07    2.38
   0   8  -2    6.46    3.01
   0   8  -2   11.69    2.20
   0  -8   2   10.87    1.51
  -1   8  -2   -0.33    0.83
  -1   8  -2    1.30    2.34
  -1   8  -2    0.36    0.97
   1  -8   2    0.20    0.52
   1  -8   2   -0.20    0.49
  -2   8  -2    8.62    2.08
  -2   8  -2    3.67    2.58
  -2   8  -2    5.22    1.68
   2  -8   2    5.64    1.23
   2  -8   2    6.28    1.38
  -3   8  -2    4.70    2.72
  -3   8  -2   12.39    2.37
  -3   8  -2   13.70    2.40
   3  -8   2   13.13    2.06
   3  -8   2   12.72    2.06
  -4   8  -2    1.36    1.21
  -4   8  -2    0.88    2.09
  -4   8  -2    1.07    1.15
   4  -8   2    0.66    0.81
   4  -8   2    2.03    1.03
  -5   8  -2    3.98    1.78
  -5   8  -2    1.25    1.41
  -5   8  -2    1.27    2.36
   5  -8   2    2.35    1.06
   5  -8   2    3.21    1.30
  -6   8  -2    1.29    1.37
   6  -8   2    1.70    1.28
   6  -8   2    2.84    1.33
   6   7  -2    1.07    2.13
   6   7  -2   -0.28    1.28
  -6  -7   2   -0.63    1.30
   5   7  -2    6.45    3.08
   5   7  -2    4.13    1.58
  -5  -7   2    3.91    1.70
   4   7  -2   12.16    2.35
  -4  -7   2    8.90    2.14
   3   7  -2   26.17    3.16
  -3  -7   2   26.07    3.32
   2   7  -2   -1.03    2.23
   2   7  -2    0.87    1.01
  -2  -7   2    1.08    0.88
   1   7  -2    1.04    2.06
   1   7  -2    1.19    1.10
  -1  -7   2   -0.02    0.60
   0   7  -2   12.00    2.22
   0   7  -2   14.93    2.38
   0   7  -2   14.05    3.56
   0  -7   2   14.92    1.56
   0  -7   2   11.50    1.42
  -1   7  -2   22.07    2.87
  -1   7  -2   19.34    3.90
  -1   7  -2   27.59    3.05
   1  -7   2   27.79    1.89
   1  -7   2   24.85    1.94
  -2   7  -2    8.71    2.96
  -2   7  -2   17.34    2.67
  -2   7  -2   19.07    2.78
   2  -7   2   17.99    2.04
   2  -7   2   15.91    1.94
  -3   7  -2    0.76    0.98
  -3   7  -2    2.04    1.21
  -3   7  -2   -1.77    1.80
   3  -7   2    0.61    0.62
   3  -7   2    0.00    0.47
  -4   7  -2    1.58    1.18
  -4   7  -2    1.15    1.16
  -4   7  -2   -0.33    1.93
   4  -7   2    0.96    0.77
   4  -7   2    1.03    0.83
  -5   7  -2    9.60    2.17
  -5   7  -2   11.88    2.36
   5  -7   2    9.84    1.96
   5  -7   2    8.91    1.80
  -6   7  -2    3.64    1.73
   6  -7   2    8.70    1.96
   6  -7   2    7.58    1.88
  -7  -6   2    1.42    1.92
   6   6  -2    3.51    1.55
   6   6  -2    2.19    2.24
  -6  -6   2    3.15    1.75
   5   6  -2    4.99    1.78
   5   6  -2    6.47    2.77
  -5  -6   2    3.22    1.50
   4   6  -2   -0.61    0.72
   4   6  -2    2.13    2.21
  -4  -6   2   -0.75    0.79
   3   6  -2   -0.26    0.78
   3   6  -2   -1.01    1.92
  -3  -6   2    0.14    0.72
   2   6  -2   27.09    2.96
   2   6  -2   27.77    5.10
  -2  -6   2   28.38    2.52
   1   6  -2   25.95    4.91
   1   6  -2   20.82    2.52
  -1  -6   2   18.82    1.26
  -1  -6   2   19.66    2.44
  -1  -6   2   18.98    1.18
   0   6  -2   33.79    2.77
   0   6  -2   36.50    4.35
   0   6  -2   32.30    2.64
   0  -6   2   31.95    1.77
   0  -6   2   34.36    1.94
  -1   6  -2    0.08    1.71
  -1   6  -2   -0.42    0.52
  -1   6  -2    0.47    0.75
   1  -6   2   -0.20    0.32
   1  -6   2   -0.09    0.29
  -2   6  -2    6.24    2.54
  -2   6  -2    9.08    1.85
  -2   6  -2    8.09    1.65
   2  -6   2    8.28    1.37
   2  -6   2    7.49    1.29
  -3   6  -2   72.59    6.97
  -3   6  -2   91.96    4.69
  -3   6  -2   76.13    4.68
   3  -6   2   77.43    3.85
   3  -6   2   89.61    4.32
  -4   6  -2    9.26    1.93
  -4   6  -2    2.58    2.17
  -4   6  -2    7.07    1.84
   4  -6   2   10.64    1.83
   4  -6   2    7.04    1.46
  -5   6  -2   -0.34    1.22
  -5   6  -2    3.00    1.30
  -5   6  -2    0.22    0.67
   5  -6   2    7.32    1.60
   5  -6   2    6.29    1.60
  -6   6  -2    0.12    1.02
   6  -6   2    0.54    0.83
   6  -6   2    0.95    0.85
  -7   6  -2    6.89    2.29
   7  -6   2    7.48    1.96
   7  -6   2    4.09    1.56
  -7  -5   2    1.89    1.81
   6   5  -2    0.00    1.47
   6   5  -2    0.00    0.97
  -6  -5   2    0.06    1.26
   5   5  -2   10.15    2.03
   5   5  -2   25.17    4.75
  -5  -5   2   13.67    2.71
   4   5  -2    2.87    1.23
   4   5  -2    0.16    1.65
  -4  -5   2    4.82    1.60
   3   5  -2   24.04    2.77
  -3  -5   2   22.17    2.74
   2   5  -2    4.32    1.14
   2   5  -2    5.48    2.48
  -2  -5   2    4.61    1.28
   1   5  -2   10.66    3.00
   1   5  -2    8.26    1.53
  -1  -5   2    7.57    1.37
  -1  -5   2    8.41    0.69
   0   5  -2   66.50    3.59
   0   5  -2   61.91    3.42
   0   5  -2   66.50    5.43
   0  -5   2   64.57    2.54
   0  -5   2   63.49    2.63
  -1   5  -2    1.01    1.43
  -1   5  -2    1.32    0.72
  -1   5  -2    2.78    0.92
   1  -5   2    2.11    0.58
   1  -5   2    2.23    0.61
  -2   5  -2   39.77    2.66
  -2   5  -2   38.91    2.89
  -2   5  -2   41.11    4.48
   2  -5   2   44.19    2.44
   2  -5   2   38.39    2.27
  -3   5  -2   -0.73    1.46
  -3   5  -2    0.61    0.76
  -3   5  -2   -0.14    0.58
   3  -5   2   -0.05    0.45
   3  -5   2   -0.03    0.34
  -4   5  -2   18.24    2.68
   4  -5   2   15.77    2.02
   4  -5   2   20.36    2.34
  -5   5  -2    1.49    1.91
  -5   5  -2    2.86    1.17
  -5   5  -2    4.95    1.64
   5  -5   2    3.25    1.09
   5  -5   2    4.44    1.29
  -6   5  -2    7.17    2.15
   6  -5   2   10.95    2.01
   6  -5   2    9.27    1.87
  -7   5  -2    2.61    1.48
   7  -5   2    1.01    1.03
   7  -5   2    3.02    1.30
  -7  -4   2    2.90    1.91
   6   4  -2    4.56    1.56
   6   4  -2    5.24    2.41
  -6  -4   2    6.74    2.16
   5   4  -2    4.21    2.07
   5   4  -2    5.04    1.51
  -5  -4   2    9.22    2.27
   4   4  -2    0.02    0.79
   4   4  -2    1.13    1.67
  -4  -4   2    0.20    0.95
   3   4  -2    3.44    1.03
   3   4  -2   -0.39    1.37
  -3  -4   2    2.54    0.93
   2   4  -2   15.12    1.87
   2   4  -2   14.62    3.03
  -2  -4   2   13.20    1.75
   1   4  -2   32.26    2.16
   1   4  -2   26.43    3.30
  -1  -4   2   31.55    1.21
  -1  -4   2   32.84    2.12
   0   4  -2   15.12    2.84
   0   4  -2   11.82    1.58
   0   4  -2   11.30    1.45
   0  -4   2    8.96    0.76
  -1   4  -2   11.90    2.49
  -1   4  -2   10.09    1.46
  -1   4  -2    8.48    1.22
   1  -4   2   12.34    1.24
  -2   4  -2    1.20    0.72
  -2   4  -2    2.68    0.82
  -2   4  -2    1.96    1.53
   2  -4   2    1.63    0.59
  -4   4  -2    6.02    1.56
  -4   4  -2    3.24    1.00
  -4   4  -2    3.09    2.03
   4  -4   2    3.85    0.99
   4  -4   2    3.00    0.91
  -5   4  -2    8.81    2.76
  -5   4  -2   17.41    2.71
  -5   4  -2   17.69    2.15
   5  -4   2   13.90    2.03
   5  -4   2   14.06    1.87
  -6   4  -2    2.06    1.16
   6  -4   2    0.12    0.66
   6  -4   2    0.41    0.68
  -7   4  -2    4.47    1.81
   7  -4   2    4.69    1.46
   7  -4   2    5.93    1.62
  -8  -3   2    1.99    1.91
  -7  -3   2   -1.74    1.05
   6   3  -2    1.47    1.82
  -6  -3   2    1.57    1.50
   5   3  -2   20.02    3.69
   5   3  -2   17.12    2.54
  -5  -3   2   13.97    2.60
   4   3  -2   26.04    3.35
   4   3  -2   25.47    2.25
  -4  -3   2   24.11    2.78
   3   3  -2   33.95    3.72
   3   3  -2   31.57    2.30
  -3  -3   2   32.06    2.36
   2   3  -2    1.69    0.65
   2   3  -2    0.79    1.23
  -2  -3   2    2.95    0.80
   1   3  -2    4.90    1.67
   1   3  -2    6.25    1.04
  -1  -3   2    5.96    0.99
  -1  -3   2    5.61    0.38
   0   3  -2  108.51    4.16
   0   3  -2  106.20    4.22
   0   3  -2  111.96    6.50
  -1   3  -2    0.19    0.44
  -1   3  -2    0.38    0.37
  -1   3  -2    0.83    0.51
  -1   3  -2    0.09    0.98
  -1   3  -2   -0.64    0.26
  -2   3  -2   29.11    2.06
  -2   3  -2   28.11    1.82
   2  -3   2   35.37    1.85
  -3   3  -2    2.75    1.64
  -3   3  -2    3.64    0.88
  -3   3  -2    2.15    0.77
  -3   3  -2    3.16    1.00
   3  -3   2    1.27    0.57
  -4   3  -2   36.90    2.56
  -4   3  -2   35.47    2.79
  -4   3  -2   36.63    2.28
   4  -3   2   37.37    2.37
  -5   3  -2   50.23    3.72
  -5   3  -2   55.72    3.02
   5  -3   2   50.84    3.13
  -6   3  -2   23.81    3.23
   6  -3   2   23.59    2.80
   6  -3   2   21.85    2.57
  -7   3  -2    1.47    1.29
   7  -3   2    3.87    1.33
   7  -3   2    1.95    0.99
  -8   3  -2    0.57    1.40
   8  -3   2    0.64    1.07
   8  -3   2    0.80    0.95
  -8  -2   2    2.72    1.67
  -7  -2   2    4.69    2.02
  -6  -2   2   12.32    2.16
  -6  -2   2   11.55    2.49
   5   2  -2   28.28    3.58
  -5  -2   2   22.38    2.78
  -5  -2   2   20.59    2.86
   4   2  -2    9.11    0.94
   4   2  -2    8.27    1.62
   4   2  -2    8.37    0.91
   4   2  -2    6.88    2.19
  -4  -2   2    6.98    1.63
   3   2  -2   19.58    1.76
   3   2  -2   17.77    0.89
   3   2  -2   18.15    2.55
  -3  -2   2   16.88    1.96
   2   2  -2   35.94    2.15
   2   2  -2   37.62    1.17
   2   2  -2   39.24    3.44
  -2  -2   2   35.80    2.05
   1   2  -2   78.44    2.17
   1   2  -2   78.24    5.09
   1   2  -2   73.27    3.09
  -1  -2   2   77.45    3.06
   0   2  -2    4.72    0.78
   0   2  -2    4.79    1.29
   0   2  -2    5.59    0.61
   0   2  -2    4.28    0.75
  -1   2  -2  264.02    7.66
  -1   2  -2  254.13    8.23
  -1   2  -2  264.53    7.35
  -2   2  -2   37.36    1.98
  -2   2  -2   37.82    2.23
  -2   2  -2   36.64    1.79
  -2   2  -2   39.64    1.97
  -3   2  -2   40.75    3.39
  -3   2  -2   44.06    2.75
  -3   2  -2   43.78    2.10
  -3   2  -2   41.79    2.36
  -3   2  -2   45.92    2.38
  -4   2  -2    3.35    0.92
  -4   2  -2    4.86    0.95
  -4   2  -2    5.33    1.44
  -4   2  -2    5.16    1.60
   4  -2   2    3.70    0.87
  -5   2  -2    0.83    1.09
  -5   2  -2    0.82    0.72
  -5   2  -2    0.22    0.67
   5  -2   2    0.23    0.50
  -6   2  -2    8.06    2.09
   6  -2   2   11.38    1.89
  -7   2  -2    0.11    1.26
   7  -2   2    0.64    0.64
   7  -2   2    0.32    0.83
  -8   2  -2    9.86    2.65
   8  -2   2    8.53    2.01
   8  -2   2    5.98    1.47
  -8  -1   2    3.71    1.96
  -7  -1   2   -0.03    1.00
  -7  -1   2    1.51    1.40
  -6  -1   2   -0.04    1.57
  -6  -1   2    0.28    1.32
  -6  -1   2    0.98    1.00
   5   1  -2   57.45    2.81
   5   1  -2   55.95    2.58
  -5  -1   2   51.26    3.77
  -5  -1   2   53.87    5.39
  -5  -1   2   56.80    3.62
   4   1  -2   82.30    3.21
   4   1  -2   81.47    3.00
   4   1  -2   76.55    5.73
  -4  -1   2   83.68    4.20
  -4  -1   2   83.44    4.24
   3   1  -2   41.01    3.57
   3   1  -2   40.60    1.70
   3   1  -2   41.57    2.55
   3   1  -2   42.40    1.80
  -3  -1   2   40.99    2.53
   2   1  -2   15.46    0.80
   2   1  -2   17.96    2.13
   2   1  -2   18.00    1.49
  -2  -1   2   15.15    1.28
   1   1  -2   23.25    1.48
   1   1  -2   22.65    0.92
   1   1  -2   24.70    2.35
  -1  -1   2   21.37    1.14
  -1   1  -2   25.57    1.14
  -1   1  -2   26.08    1.51
  -1   1  -2   26.54    1.34
  -1   1  -2   27.34    1.31
  -2   1  -2   30.58    1.66
  -2   1  -2   30.79    1.32
  -2   1  -2   30.00    1.59
  -2   1  -2   30.03    1.92
  -3   1  -2    6.02    1.21
  -3   1  -2    4.33    0.80
  -3   1  -2    6.09    0.76
  -3   1  -2    5.65    0.97
  -4   1  -2   36.13    1.88
  -4   1  -2   37.59    2.26
  -4   1  -2   36.15    2.86
  -4   1  -2   33.94    2.23
  -4   1  -2   37.16    2.86
  -5   1  -2   75.68    3.35
  -5   1  -2   79.40    4.75
  -5   1  -2   78.35    3.89
   5  -1   2   78.34    3.68
  -6   1  -2    6.74    1.55
  -6   1  -2    5.18    1.71
   6  -1   2    5.38    1.25
  -7   1  -2    4.15    1.82
   7  -1   2    2.78    0.98
   7  -1   2    5.71    1.50
  -8   1  -2   -1.32    1.08
   8  -1   2    0.30    0.87
   8  -1   2   -0.03    0.83
  -8   0   2   -0.11    1.53
  -7   0   2   18.45    3.04
  -7   0   2   18.84    4.61
  -7   0   2   18.23    2.71
   6   0  -2    2.74    0.90
   6   0  -2    2.43    0.92
  -6   0   2    0.09    0.53
  -6   0   2    0.03    0.98
  -6   0   2    5.10    1.72
   5   0  -2    0.20    0.45
   5   0  -2    0.89    0.54
  -5   0   2    0.44    0.92
  -5   0   2    1.29    1.13
  -5   0   2    2.13    1.72
   4   0  -2    0.53    0.43
   4   0  -2    0.74    0.38
  -4   0   2    0.35    1.11
  -4   0   2    0.86    0.82
  -4   0   2    2.37    1.03
   3   0  -2   44.86    2.07
   3   0  -2   41.80    1.92
  -3   0   2   49.79    2.61
  -3   0   2   45.56    4.00
  -3   0   2   45.42    2.63
   2   0  -2   74.18    4.87
   2   0  -2   80.66    2.81
   2   0  -2   81.02    2.67
  -2   0   2   80.96    3.11
  -2   0   2   81.42    3.45
  -1   0   2    0.57    0.46
  -1   0   2    0.88    0.29
   0   0  -2   45.27    1.61
   0   0  -2   45.46    1.54
  -1   0  -2   62.10    2.49
  -1   0  -2   63.00    2.17
  -2   0  -2   33.48    1.60
  -2   0  -2   34.13    2.05
  -2   0  -2   35.57    1.18
  -2   0  -2   33.48    1.69
  -3   0  -2   46.93    1.79
  -3   0  -2   47.59    2.81
  -3   0  -2   42.98    2.15
  -3   0  -2   45.94    2.26
  -4   0  -2   21.38    1.62
  -4   0  -2   23.86    1.79
  -4   0  -2   26.03    2.43
  -4   0  -2   23.93    1.41
  -5   0  -2   -0.36    0.98
  -5   0  -2   -0.22    0.60
  -5   0  -2    0.03    0.52
  -6   0  -2   16.36    2.82
  -6   0  -2   19.83    2.32
   6   0   2   20.36    2.28
  -7   0  -2    0.74    1.44
   7   0   2   -0.41    0.54
  -8   0  -2    5.90    2.25
  -8   1   2    5.48    2.15
   7  -1  -2    0.12    0.69
   7  -1  -2    0.28    0.55
  -7   1   2    1.24    1.20
  -7   1   2    0.76    1.10
  -7   1   2   -0.63    1.50
   6  -1  -2   -0.07    0.56
   6  -1  -2    1.50    0.68
  -6   1   2    0.36    0.67
  -6   1   2    3.16    1.60
  -6   1   2   -0.20    1.08
   5  -1  -2   11.80    1.54
   5  -1  -2    7.89    1.34
  -5   1   2   14.61    2.11
  -5   1   2   13.39    3.39
  -5   1   2    9.70    1.97
   4  -1  -2   37.05    2.26
   4  -1  -2   45.24    2.25
  -4   1   2   39.12    2.67
  -4   1   2   36.09    3.93
  -4   1   2   40.11    2.69
   3  -1  -2  187.21    5.75
   3  -1  -2  181.42    6.02
  -3   1   2  176.62    6.42
  -3   1   2  185.68   10.15
  -3   1   2  188.15    6.63
   2  -1  -2   13.70    1.01
   2  -1  -2   12.89    0.96
  -2   1   2   14.24    1.49
  -2   1   2   12.03    1.00
  -2   1   2   14.91    2.36
   1  -1  -2    5.10    0.65
   1  -1  -2    3.36    0.54
  -1   1   2    4.91    0.46
  -1   1   2    4.96    1.34
  -1   1   2    3.37    0.72
   0  -1  -2  187.68    5.24
   0  -1  -2  186.62    5.50
   0   1   2  187.42    5.60
  -1  -1  -2  174.69    5.06
  -1  -1  -2  181.51    5.88
   1   1   2  175.27    5.09
  -2  -1  -2    0.11    0.30
  -2  -1  -2   -0.12    0.25
  -2  -1  -2   -0.38    0.49
   2   1   2   -0.05    0.22
  -3  -1  -2   17.62    2.09
  -3  -1  -2   17.20    1.21
  -3  -1  -2   17.05    1.26
  -4  -1  -2   11.37    1.92
  -4  -1  -2   11.52    1.39
  -4  -1  -2   11.52    2.07
  -4  -1  -2    9.50    1.10
  -4  -1  -2    8.89    1.26
  -5  -1  -2   49.76    2.77
  -5  -1  -2   47.80    2.70
  -5  -1  -2   54.50    3.99
  -6  -1  -2    4.69    1.19
  -6  -1  -2    5.87    1.89
   6   1   2    5.84    1.22
  -7  -1  -2   -0.59    1.13
  -8  -1  -2    1.02    1.59
   8  -2  -2    1.18    1.03
   8  -2  -2    1.59    1.30
  -8   2   2    3.98    1.85
   7  -2  -2   14.96    2.30
   7  -2  -2   14.87    2.36
  -7   2   2   15.04    2.84
   6  -2  -2    9.10    1.56
   6  -2  -2    7.41    1.59
  -6   2   2   10.13    2.09
  -6   2   2    8.45    1.86
  -6   2   2    8.28    2.83
   5  -2  -2   -0.25    0.40
   5  -2  -2   -0.15    0.41
  -5   2   2   -0.09    0.79
  -5   2   2   -0.81    1.35
  -5   2   2    0.88    1.06
   4  -2  -2    0.09    0.41
   4  -2  -2   -0.28    0.35
  -4   2   2    1.26    1.41
  -4   2   2   -0.45    0.51
  -4   2   2    0.61    0.69
   3  -2  -2   85.68    3.48
   3  -2  -2   89.73    3.71
  -3   2   2   93.66    6.14
  -3   2   2   87.06    3.68
  -3   2   2   87.80    3.89
   2  -2  -2  179.68    5.66
   2  -2  -2  187.49    5.99
  -2   2   2  187.66    5.91
  -2   2   2  181.08    9.68
  -2   2   2  180.06    6.24
   1  -2  -2    5.45    0.74
   1  -2  -2    5.74    0.80
  -1   2   2    5.50    0.91
  -1   2   2    7.85    1.82
  -1   2   2    4.52    0.64
   0  -2  -2    6.30    0.80
   0  -2  -2    6.61    0.83
   0  -2  -2    7.13    0.80
   0   2   2    7.30    0.96
   0   2   2    8.42    1.73
  -1  -2  -2  421.43   11.71
  -1  -2  -2  419.82   11.19
  -1  -2  -2  422.61   12.69
   1   2   2  428.43   12.09
  -2  -2  -2  122.90    4.96
  -2  -2  -2  118.96    4.00
  -2  -2  -2  120.27    3.82
   2   2   2  124.32    4.04
  -3  -2  -2   31.24    1.71
  -3  -2  -2   30.81    1.62
  -3  -2  -2   30.15    2.57
   3   2   2   34.48    1.72
  -4  -2  -2    4.24    0.80
  -4  -2  -2    3.52    0.78
  -4  -2  -2    2.87    1.27
   4   2   2    3.92    0.87
   4   2   2    2.61    1.20
  -5  -2  -2    4.44    1.79
  -5  -2  -2    3.02    0.92
  -5  -2  -2    1.17    0.66
  -6  -2  -2    8.11    2.41
  -7  -2  -2    4.91    2.07
  -8  -2  -2    0.39    1.75
   8  -3  -2    3.09    1.39
   8  -3  -2    4.83    1.57
   7  -3  -2    2.03    1.16
   7  -3  -2    5.77    1.69
  -7   3   2    5.59    1.82
  -7   3   2    5.36    1.65
  -7   3   2    2.82    2.21
   6  -3  -2    1.46    0.88
   6  -3  -2    2.13    1.02
  -6   3   2    1.89    1.22
  -6   3   2    2.59    1.23
  -6   3   2    1.70    2.01
   5  -3  -2   40.64    2.67
   5  -3  -2   40.33    2.87
  -5   3   2   39.37    3.00
  -5   3   2   37.06    4.56
  -5   3   2   36.52    2.86
   4  -3  -2    8.14    1.29
   4  -3  -2    9.16    1.50
  -4   3   2    9.53    1.53
  -4   3   2   10.02    2.78
  -4   3   2    8.02    1.56
   3  -3  -2   15.37    1.74
   3  -3  -2   11.69    1.42
  -3   3   2   13.90    1.79
  -3   3   2   19.99    3.59
  -3   3   2   15.91    1.71
   2  -3  -2   33.62    1.88
   2  -3  -2   32.52    1.96
  -2   3   2   33.23    3.23
  -2   3   2   32.77    2.12
  -2   3   2   33.03    1.87
   1  -3  -2    8.94    1.02
   1  -3  -2    8.69    1.06
  -1   3   2    8.62    1.07
  -1   3   2   10.14    1.35
  -1   3   2   11.59    2.24
   0  -3  -2   71.12    2.78
   0  -3  -2   77.10    2.97
   0   3   2   71.47    3.13
   0   3   2   82.92    5.31
  -1  -3  -2   11.41    0.93
  -1  -3  -2   10.98    0.89
  -1  -3  -2   10.75    1.32
   1   3   2   11.03    1.97
   1   3   2   10.24    1.16
  -2  -3  -2   40.92    1.83
  -2  -3  -2   37.35    2.50
  -2  -3  -2   39.30    1.91
   2   3   2   41.81    2.11
  -3  -3  -2    6.47    0.93
  -3  -3  -2    4.67    0.79
  -3  -3  -2    4.63    1.35
   3   3   2    5.72    0.91
   3   3   2    1.59    1.17
  -4  -3  -2    9.05    2.00
  -4  -3  -2    8.26    1.07
  -4  -3  -2    8.45    1.17
   4   3   2    9.28    2.16
   4   3   2    6.59    1.12
  -5  -3  -2   11.72    2.63
  -5  -3  -2   16.33    1.66
  -6  -3  -2    7.93    2.32
  -7  -3  -2   -0.77    1.36
   7  -4  -2    8.71    1.97
   7  -4  -2    7.42    1.86
  -7   4   2    5.94    1.78
  -7   4   2    7.69    2.94
  -7   4   2    9.52    2.27
   6  -4  -2   28.58    3.14
   6  -4  -2   25.61    2.93
  -6   4   2   28.20    4.76
  -6   4   2   24.38    3.07
  -6   4   2   22.36    2.88
   5  -4  -2    2.34    1.01
   5  -4  -2    1.92    0.89
  -5   4   2    0.94    0.99
  -5   4   2    3.56    2.45
  -5   4   2    3.79    1.24
   4  -4  -2    0.88    0.66
   4  -4  -2    0.12    0.50
  -4   4   2   -0.29    1.49
  -4   4   2    1.31    0.92
  -4   4   2    1.34    0.81
   3  -4  -2    8.00    1.28
   3  -4  -2    7.72    1.29
  -3   4   2    9.13    1.42
  -3   4   2   10.79    2.92
  -3   4   2   12.34    1.81
   2  -4  -2   81.94    3.49
   2  -4  -2   82.62    3.70
  -2   4   2   80.84    6.10
  -2   4   2   83.14    3.94
  -2   4   2   84.87    3.70
   1  -4  -2   33.80    2.00
   1  -4  -2   31.90    1.84
  -1   4   2   33.16    2.05
  -1   4   2   35.18    2.25
  -1   4   2   35.54    3.79
   0  -4  -2    4.31    0.80
   0  -4  -2    4.55    0.78
   0  -4  -2    3.70    0.80
   0   4   2    3.59    1.58
   0   4   2    4.05    0.94
  -1  -4  -2    3.19    0.63
  -1  -4  -2    2.95    0.62
  -1  -4  -2    3.57    0.91
   1   4   2    2.55    1.34
   1   4   2    2.00    0.70
  -2  -4  -2  116.73    3.94
  -2  -4  -2  118.01    4.18
  -2  -4  -2  113.90    5.07
   2   4   2  115.72    4.61
  -3  -4  -2  196.91    5.95
  -3  -4  -2  195.57    8.01
  -3  -4  -2  203.69    6.28
   3   4   2  199.07    6.97
  -4  -4  -2    4.10    0.82
  -4  -4  -2    5.95    1.89
  -4  -4  -2    3.55    0.90
   4   4   2   -0.65    1.28
   4   4   2    3.40    0.95
  -5  -4  -2    0.78    1.36
  -6  -4  -2    2.73    1.69
  -7  -4  -2    8.64    2.93
   7  -5  -2    0.60    0.91
   7  -5  -2    0.90    0.91
  -7   5   2    0.38    1.11
  -7   5   2   -0.41    1.69
   6  -5  -2    0.27    0.71
   6  -5  -2   -0.08    0.70
  -6   5   2    0.41    0.95
  -6   5   2    0.65    1.84
  -6   5   2    1.15    0.98
   5  -5  -2   14.59    2.21
   5  -5  -2   14.67    2.20
  -5   5   2   18.27    2.64
  -5   5   2   16.79    3.98
  -5   5   2   15.13    2.30
   4  -5  -2    1.31    0.73
   4  -5  -2    0.52    0.69
  -4   5   2    0.59    0.80
  -4   5   2    0.69    1.86
  -4   5   2    1.20    1.00
   3  -5  -2   15.29    1.88
   3  -5  -2   11.42    1.65
  -3   5   2   16.74    2.34
  -3   5   2   14.76    1.92
   2  -5  -2    1.01    0.60
   2  -5  -2    1.55    0.63
  -2   5   2    0.33    0.65
  -2   5   2    1.04    0.73
  -2   5   2   -1.34    1.37
   1  -5  -2   33.63    2.00
   1  -5  -2   30.04    2.02
  -1   5   2   25.59    3.74
  -1   5   2   31.53    2.28
  -1   5   2   30.31    2.28
   0  -5  -2   34.63    2.07
   0  -5  -2   28.84    1.85
   0  -5  -2   34.48    2.29
   0   5   2   34.24    2.43
   0   5   2   38.34    4.21
  -1  -5  -2    1.84    0.60
  -1  -5  -2    1.63    0.54
  -1  -5  -2    2.98    0.89
   1   5   2    1.43    1.30
   1   5   2    1.71    0.77
  -2  -5  -2   26.19    1.60
  -2  -5  -2   25.94    1.69
  -2  -5  -2   28.04    2.33
   2   5   2   26.39    2.13
   2   5   2   23.95    3.26
  -3  -5  -2   18.11    1.29
  -3  -5  -2   18.28    1.38
  -3  -5  -2   15.19    2.39
   3   5   2   18.61    2.15
   3   5   2    9.27    2.79
  -4  -5  -2   11.97    2.42
   4   5   2   10.88    1.77
  -5  -5  -2    3.73    1.84
  -6  -5  -2    1.20    1.48
  -7  -5  -2   -0.41    1.42
   7  -6  -2    1.67    1.25
   7  -6  -2    2.23    1.27
  -7   6   2   -0.59    1.97
  -7   6   2   -0.05    1.13
   6  -6  -2   11.22    2.16
   6  -6  -2    6.87    1.78
  -6   6   2    9.99    2.28
  -6   6   2    6.17    1.73
   5  -6  -2    3.64    1.34
   5  -6  -2    5.62    1.58
  -5   6   2    5.07    1.57
  -5   6   2   -0.18    1.87
  -5   6   2    2.32    1.21
   4  -6  -2    0.34    0.66
   4  -6  -2    1.23    0.96
  -4   6   2    1.66    1.06
  -4   6   2    0.12    0.94
  -4   6   2    0.60    2.43
   3  -6  -2    2.73    1.00
   3  -6  -2    4.31    1.12
  -3   6   2    4.59    1.29
  -3   6   2   -0.89    2.11
  -3   6   2    5.72    1.47
   2  -6  -2   38.41    2.66
   2  -6  -2   35.88    2.44
  -2   6   2   37.71    2.83
  -2   6   2   39.60    2.97
   1  -6  -2   27.99    1.95
   1  -6  -2   29.30    2.14
  -1   6   2   18.05    3.66
  -1   6   2   31.87    2.52
  -1   6   2   31.16    2.57
   0  -6  -2   -0.22    0.36
   0  -6  -2   -0.11    0.43
   0  -6  -2    0.05    0.43
   0   6   2   -0.74    1.42
   0   6   2   -0.53    0.62
  -1  -6  -2    8.57    1.20
  -1  -6  -2    9.14    1.25
  -1  -6  -2    8.76    1.55
   1   6   2    9.75    1.72
   1   6   2    7.12    2.57
  -2  -6  -2    8.37    1.21
  -2  -6  -2    8.61    1.76
  -2  -6  -2    8.33    1.12
   2   6   2    7.31    2.47
   2   6   2    8.47    1.62
  -3  -6  -2    6.00    1.72
   3   6   2    3.15    2.27
   3   6   2    4.74    1.33
  -4  -6  -2   -0.06    1.08
   4   6   2   -0.20    0.70
   4   6   2    0.43    1.73
  -5  -6  -2    3.12    1.71
  -6  -6  -2    4.97    2.29
   6  -7  -2   -0.51    0.74
   6  -7  -2    0.69    0.99
  -6   7   2    0.43    1.90
  -6   7   2    1.01    1.27
   5  -7  -2   13.38    2.38
   5  -7  -2   11.91    2.11
  -5   7   2   10.01    2.10
  -5   7   2   12.73    2.37
   4  -7  -2   -0.02    0.71
   4  -7  -2    0.39    0.84
  -4   7   2    0.61    0.97
  -4   7   2   -0.50    2.24
  -4   7   2    0.55    0.97
   3  -7  -2    0.37    0.76
   3  -7  -2    0.43    0.67
  -3   7   2   -0.55    0.80
  -3   7   2   -0.90    0.75
  -3   7   2   -0.68    2.20
   2  -7  -2    1.40    0.85
   2  -7  -2    1.41    0.77
  -2   7   2    0.53    2.31
  -2   7   2    0.52    1.03
  -2   7   2    3.03    1.30
   1  -7  -2    8.51    1.49
   1  -7  -2    7.31    1.38
  -1   7   2    7.37    1.68
  -1   7   2    6.20    2.84
  -1   7   2    8.64    1.88
   0  -7  -2   23.19    2.71
   0  -7  -2   26.70    2.11
   0  -7  -2   25.81    1.96
   0   7   2   25.01    2.89
  -1  -7  -2    4.01    1.22
  -1  -7  -2    2.70    0.82
  -1  -7  -2    1.16    0.66
   1   7   2    0.80    1.94
   1   7   2    1.34    1.00
  -2  -7  -2    1.39    1.03
   2   7   2    0.67    0.88
   2   7   2    1.25    2.22
  -3  -7  -2    0.09    0.94
   3   7   2    1.50    1.01
   3   7   2    1.21    2.20
  -4  -7  -2    4.87    1.80
   4   7   2    4.31    1.35
   4   7   2   -0.53    1.52
  -5  -7  -2    4.01    1.76
  -6  -7  -2    0.68    1.56
   6  -8  -2    1.43    1.27
   6  -8  -2    2.60    1.39
  -6   8   2    0.56    1.16
   5  -8  -2    0.03    0.91
   5  -8  -2    0.75    1.04
  -5   8   2   -0.71    0.89
  -5   8   2   -2.12    1.83
  -5   8   2    0.42    1.06
   4  -8  -2    2.83    1.15
   4  -8  -2    1.58    1.07
  -4   8   2   -0.02    0.94
  -4   8   2    0.08    2.29
  -4   8   2    1.20    1.13
   3  -8  -2    6.92    1.63
   3  -8  -2    4.07    1.43
  -3   8   2    6.40    1.85
  -3   8   2    5.44    1.69
  -3   8   2    0.88    2.35
   2  -8  -2    9.51    1.66
   2  -8  -2    7.90    1.61
  -2   8   2    8.93    2.12
  -2   8   2   11.23    2.22
  -2   8   2    2.47    2.50
   1  -8  -2    8.53    1.52
   1  -8  -2    8.70    1.56
  -1   8   2    7.97    1.87
  -1   8   2    2.27    2.78
   0  -8  -2    0.49    0.66
   0  -8  -2    1.52    0.80
   0  -8  -2    1.32    0.81
   0   8   2   -1.65    2.49
   0   8   2   -0.39    0.99
  -1  -8  -2    4.11    1.45
  -1  -8  -2    2.57    0.96
   1   8   2    2.94    2.62
   1   8   2    2.24    1.28
  -2  -8  -2    2.87    1.30
   2   8   2   -1.21    1.40
   2   8   2    2.50    1.25
  -3  -8  -2    1.85    1.29
   3   8   2   -0.84    1.97
   3   8   2    0.55    0.92
  -4  -8  -2    0.66    1.13
   4   8   2    0.05    0.87
   4   8   2    0.49    2.29
  -5  -8  -2    1.37    1.60
   5  -9  -2    8.27    2.13
   5  -9  -2    4.21    1.59
  -5   9   2   -0.06    2.56
  -5   9   2    5.17    1.88
   4  -9  -2    5.99    1.65
   4  -9  -2    1.41    0.99
  -4   9   2    1.21    1.28
  -4   9   2   -0.43    2.55
  -4   9   2    3.86    1.64
   3  -9  -2    0.50    0.73
   3  -9  -2    0.57    0.75
  -3   9   2   -1.69    1.92
  -3   9   2    1.33    1.26
  -3   9   2   -0.61    0.95
   2  -9  -2    6.33    1.46
   2  -9  -2    9.20    1.79
  -2   9   2    8.97    2.21
  -2   9   2   10.28    2.25
  -2   9   2    0.85    2.30
   1  -9  -2    2.76    1.12
   1  -9  -2    1.88    0.89
   1  -9  -2    2.86    1.30
  -1   9   2    4.16    1.60
  -1   9   2    1.50    2.28
   0  -9  -2   10.55    2.18
   0  -9  -2   10.64    1.69
   0  -9  -2   10.72    1.79
   0   9   2    3.09    2.75
   0   9   2    7.42    2.02
  -1  -9  -2    4.04    1.46
   1   9   2    1.80    2.32
   1   9   2    1.90    1.16
  -2  -9  -2    1.19    1.05
   2   9   2    0.09    1.08
   2   9   2    0.51    2.39
  -3  -9  -2    2.35    1.32
   3   9   2   -0.78    1.83
   3   9   2    0.42    0.97
  -4  -9  -2    2.13    1.53
   4   9   2   -0.89    2.51
   4   9   2    4.49    1.80
   4 -10  -2    0.05    0.88
  -4  10   2   -0.97    1.13
  -4  10   2    1.75    1.50
   3 -10  -2    4.92    1.59
   3 -10  -2    1.96    1.10
  -3  10   2    3.08    1.73
  -3  10   2    0.43    2.56
  -3  10   2    1.08    1.50
   2 -10  -2    0.29    0.81
   2 -10  -2    0.26    0.85
  -2  10   2    0.42    1.34
  -2  10   2    0.50    1.23
  -2  10   2   -1.56    2.03
   1 -10  -2    0.23    0.86
   1 -10  -2    0.91    1.09
   1 -10  -2    1.28    0.96
  -1  10   2   -0.54    2.59
  -1  10   2    0.38    1.06
   0 -10  -2   -0.24    0.82
   0  10   2    0.75    1.13
   0  10   2   -0.75    2.41
  -1 -10  -2    1.45    1.12
   1  10   2   -0.36    2.46
   1  10   2   -0.54    1.08
  -2 -10  -2    1.15    1.17
   2  10   2    2.40    2.75
   2  10   2    0.37    1.06
  -3 -10  -2    2.27    1.37
   3  10   2    0.94    2.40
   3  10   2    0.27    1.13
   2 -11  -2    0.85    1.03
   1 -11  -2    1.13    1.09
  -1  11   2    0.41    1.32
  -1  11   2   -0.57    2.47
   0 -11  -2    4.17    1.79
   0  11   2    2.23    1.56
   0  11   2    1.57    2.90
  -1 -11  -2    3.17    1.55
   1  11   2    1.63    1.37
   1  11  -3    0.84    1.22
  -1 -11   3    1.10    1.25
   0  11  -3    0.85    1.30
   0  11  -3    3.07    3.14
   0 -11   3    0.20    1.12
  -1  11  -3   -0.37    1.16
  -1  11  -3   -0.29    1.05
   3  10  -3    1.11    1.17
   3  10  -3    0.24    2.66
  -3 -10   3    1.55    1.29
   2  10  -3   -0.58    2.36
   2  10  -3    0.13    1.07
  -2 -10   3    0.85    1.08
   1  10  -3    3.15    1.65
   1  10  -3    6.34    3.42
  -1 -10   3    4.97    1.62
   0  10  -3    3.74    1.61
   0  10  -3    0.95    2.67
  -1  10  -3    6.21    2.07
  -1  10  -3    1.97    2.59
  -1  10  -3    7.73    2.32
  -2  10  -3   -0.55    2.25
  -2  10  -3    0.39    1.24
  -2  10  -3    0.56    1.25
   2 -10   3   -0.51    0.61
   2 -10   3    0.50    0.91
  -3  10  -3    1.52    1.44
  -3  10  -3    1.63    2.16
  -3  10  -3   -0.77    1.10
   3 -10   3    0.98    0.83
   3 -10   3    0.04    0.82
   4   9  -3    0.03    1.03
   4   9  -3   -0.54    2.37
  -4  -9   3    0.60    1.02
   3   9  -3    3.38    1.53
   3   9  -3    2.36    2.83
  -3  -9   3    4.60    1.77
   2   9  -3    2.15    1.33
   2   9  -3    1.36    2.63
  -2  -9   3    5.49    1.73
   1   9  -3    3.83    2.93
   1   9  -3    6.31    1.94
  -1  -9   3    3.69    1.39
   0   9  -3    1.87    2.34
   0   9  -3    0.20    1.00
   0   9  -3   -0.25    0.79
  -1   9  -3   -0.81    1.79
  -1   9  -3   -0.08    0.86
  -1   9  -3    0.83    1.16
  -2   9  -3   11.37    2.51
  -2   9  -3    4.63    1.74
  -2   9  -3    5.30    2.83
   2  -9   3    8.13    1.64
   2  -9   3   10.58    1.74
  -3   9  -3    0.70    2.04
  -3   9  -3    0.19    1.25
  -3   9  -3    3.51    1.66
   3  -9   3    0.45    0.71
   3  -9   3    0.57    0.68
  -4   9  -3    3.92    1.94
  -4   9  -3    0.30    2.36
  -4   9  -3    2.86    1.72
   4  -9   3    3.41    1.34
   4  -9   3    2.19    1.15
  -5   9  -3    1.19    1.33
  -5   9  -3   -0.99    1.15
   5  -9   3   -1.03    0.79
   5  -9   3    0.47    0.98
   5   8  -3    5.07    1.85
   5   8  -3    2.10    2.63
  -5  -8   3    2.96    1.64
   4   8  -3    4.86    1.66
   4   8  -3    0.86    2.33
  -4  -8   3    5.10    1.63
   3   8  -3   -0.58    0.96
   3   8  -3   -0.75    2.06
  -3  -8   3    2.14    1.28
   2   8  -3    1.47    1.12
   2   8  -3   -0.29    1.98
  -2  -8   3    0.35    0.82
   1   8  -3    4.60    3.10
   1   8  -3    6.46    1.74
  -1  -8   3    9.50    2.10
   0   8  -3    7.95    1.93
   0   8  -3    9.01    2.19
   0   8  -3    6.16    2.94
  -1   8  -3   22.36    4.79
  -1   8  -3   26.74    3.52
  -1   8  -3   23.42    3.15
   1  -8   3   21.89    1.82
   1  -8   3   22.33    1.97
  -2   8  -3   -0.43    0.87
  -2   8  -3   -0.53    0.90
  -2   8  -3   -0.21    2.03
   2  -8   3    0.17    0.55
   2  -8   3   -0.06    0.51
  -3   8  -3    1.54    1.20
  -3   8  -3    1.07    2.02
  -3   8  -3    0.23    0.93
   3  -8   3    1.34    0.89
   3  -8   3    1.81    0.95
  -4   8  -3    0.65    2.32
  -4   8  -3    9.33    2.16
  -4   8  -3    6.44    1.96
   4  -8   3    5.51    1.44
   4  -8   3    7.76    1.82
  -5   8  -3    0.44    1.82
  -5   8  -3    1.94    1.41
  -5   8  -3    1.70    1.46
   5  -8   3    3.34    1.41
   5  -8   3    3.13    1.29
   6   7  -3    6.04    3.26
   6   7  -3    2.15    1.66
  -6  -7   3    1.88    1.52
   5   7  -3    2.55    2.55
   5   7  -3    1.30    1.27
  -5  -7   3    2.51    1.42
   4   7  -3   -0.03    2.18
   4   7  -3    3.19    1.44
  -4  -7   3    1.84    1.11
   3   7  -3   12.75    2.36
  -3  -7   3   10.47    2.14
   2   7  -3   11.73    3.56
   2   7  -3   20.70    2.85
  -2  -7   3   16.74    2.55
   1   7  -3   13.55    2.32
   1   7  -3   18.45    4.50
  -1  -7   3   14.49    2.29
   0   7  -3    0.36    0.88
   0   7  -3    1.56    2.12
   0   7  -3    0.73    0.96
   0  -7   3    0.29    0.37
   0  -7   3    0.20    0.39
  -1   7  -3    2.84    1.30
  -1   7  -3    0.37    0.93
  -1   7  -3    1.90    2.26
   1  -7   3    1.53    0.64
   1  -7   3    1.79    0.66
  -2   7  -3   41.22    3.49
  -2   7  -3   41.78    5.35
  -2   7  -3   41.61    3.33
   2  -7   3   46.10    2.87
   2  -7   3   40.55    2.58
  -3   7  -3    6.11    1.70
  -3   7  -3   11.23    2.27
  -3   7  -3    4.30    2.52
   3  -7   3    8.49    1.61
   3  -7   3    8.21    1.50
  -4   7  -3    1.98    2.14
  -4   7  -3    0.07    0.99
  -4   7  -3    0.38    0.94
   4  -7   3   -0.22    0.55
   4  -7   3   -0.04    0.51
  -5   7  -3    1.61    1.26
  -5   7  -3    0.24    1.36
  -5   7  -3    0.11    0.83
   5  -7   3    1.89    1.01
   5  -7   3    1.67    1.07
  -6   7  -3    2.38    1.46
   6  -7   3    0.35    0.66
   6  -7   3    2.25    1.22
   6   6  -3    0.64    1.40
   6   6  -3    2.76    2.28
  -6  -6   3    0.40    1.33
   5   6  -3    5.85    3.01
   5   6  -3    5.66    1.80
  -5  -6   3    3.79    1.60
   4   6  -3    8.86    1.98
  -4  -6   3   10.87    2.21
   3   6  -3   -1.01    1.75
   3   6  -3    4.11    1.47
  -3  -6   3    4.05    1.34
   2   6  -3    3.36    1.25
  -2  -6   3    1.88    0.93
   1   6  -3   95.26    7.75
   1   6  -3   93.30    4.78
  -1  -6   3   90.52    3.12
   0   6  -3   17.54    2.46
   0   6  -3   18.18    3.88
   0   6  -3   14.48    2.12
   0  -6   3   13.89    1.39
   0  -6   3   15.29    1.24
  -1   6  -3   22.01    4.07
  -1   6  -3   16.84    2.20
  -1   6  -3   20.52    2.60
   1  -6   3   18.14    1.52
   1  -6   3   19.15    1.49
  -2   6  -3    5.85    1.55
  -2   6  -3    2.96    2.25
  -2   6  -3    3.01    1.18
   2  -6   3    3.22    0.82
   2  -6   3    1.84    0.76
  -3   6  -3    4.65    1.37
  -3   6  -3    2.20    2.13
  -3   6  -3    3.01    1.37
   3  -6   3    3.73    1.10
   3  -6   3    4.58    1.12
  -4   6  -3   14.42    2.44
   4  -6   3   17.65    2.20
   4  -6   3   19.81    2.44
  -5   6  -3    3.93    1.36
  -5   6  -3    0.63    1.94
  -5   6  -3    3.13    1.38
   5  -6   3    2.30    1.10
   5  -6   3    4.20    1.22
  -6   6  -3    5.59    1.90
   6  -6   3    8.47    1.78
   6  -6   3    6.78    1.74
  -7   6  -3    2.58    1.50
   7  -6   3    0.60    0.92
   7  -6   3    0.99    1.02
   7   5  -3    3.08    2.40
   7   5  -3    0.20    1.36
  -7  -5   3    5.78    2.36
   6   5  -3    5.31    1.81
   6   5  -3    4.71    2.31
  -6  -5   3    5.30    2.10
   5   5  -3   -0.12    0.96
   5   5  -3    2.06    2.18
  -5  -5   3   -0.58    0.97
   4   5  -3    5.66    1.61
   4   5  -3    9.09    3.15
  -4  -5   3    3.48    1.42
   3   5  -3   28.55    2.58
  -3  -5   3   30.07    2.62
   2   5  -3   44.40    3.02
  -2  -5   3   44.09    2.97
   1   5  -3   17.21    2.10
   1   5  -3   23.17    2.01
   1   5  -3   25.39    4.51
  -1  -5   3   20.58    1.12
  -1  -5   3   20.14    1.06
   0   5  -3   14.73    2.08
   0   5  -3   13.34    1.83
   0   5  -3   18.86    3.66
   0  -5   3   12.77    1.02
  -1   5  -3    8.45    1.52
  -1   5  -3    6.57    2.22
  -1   5  -3    4.56    1.16
   1  -5   3    6.86    1.03
  -2   5  -3   86.95    4.15
  -2   5  -3  100.20    4.96
  -2   5  -3   94.47    4.46
  -2   5  -3  100.78    7.29
   2  -5   3   96.00    3.96
  -3   5  -3   29.77    2.69
   3  -5   3   30.78    2.20
  -4   5  -3    6.83    1.74
  -4   5  -3    7.15    1.64
  -4   5  -3    3.01    2.07
   4  -5   3    4.48    1.11
   4  -5   3    4.54    1.14
  -5   5  -3   -0.89    0.76
  -5   5  -3   -0.53    1.64
  -5   5  -3    0.93    0.88
   5  -5   3    0.66    0.75
   5  -5   3   -0.54    0.45
  -6   5  -3    3.05    1.59
   6  -5   3    1.06    0.84
   6  -5   3    2.48    1.08
  -7   5  -3   11.29    2.47
   7  -5   3   15.21    2.55
   7  -5   3   12.53    2.30
   7   4  -3   -1.90    1.93
  -7  -4   3   -1.27    1.23
  -7  -4   3    0.19    0.95
   6   4  -3    3.15    1.53
   6   4  -3    4.56    2.39
  -6  -4   3    7.65    2.25
   5   4  -3   13.75    2.31
   5   4  -3   14.74    3.20
  -5  -4   3    7.45    2.05
   4   4  -3   29.41    4.03
   4   4  -3   27.44    2.55
  -4  -4   3   24.19    2.92
   3   4  -3    1.22    1.72
   3   4  -3    2.29    0.96
  -3  -4   3    2.62    1.02
   2   4  -3   -0.14    0.55
   2   4  -3   -1.88    1.27
  -2  -4   3   -0.23    0.32
   1   4  -3   75.27    3.58
   1   4  -3   60.93    5.43
   1   4  -3   71.02    3.48
  -1  -4   3   69.22    2.26
   0   4  -3   40.63    2.52
   0   4  -3   42.09    3.95
   0   4  -3   38.63    2.42
   0   4  -3   39.40    1.82
   0   4  -3   36.70    1.85
  -1   4  -3  133.24    5.20
  -1   4  -3  128.92    4.52
  -1   4  -3  126.58    4.70
  -1   4  -3  133.93    5.42
  -1   4  -3  135.31    8.09
  -2   4  -3   32.35    2.36
  -2   4  -3   24.99    3.11
  -2   4  -3   29.45    1.95
  -2   4  -3   22.33    1.78
  -3   4  -3    0.35    1.22
  -3   4  -3   -0.11    0.52
  -3   4  -3   -0.06    0.54
  -3   4  -3    0.64    0.65
   3  -4   3    0.03    0.39
  -4   4  -3   71.35    3.92
  -4   4  -3   75.70    3.72
  -4   4  -3   70.19    4.28
  -4   4  -3   77.53    6.11
   4  -4   3   74.57    3.73
  -5   4  -3   25.27    3.34
   5  -4   3   29.26    2.97
  -6   4  -3    7.37    1.98
   6  -4   3    4.84    1.30
   6  -4   3    2.36    1.04
  -7   4  -3    0.85    1.08
   7  -4   3    1.08    0.89
   7  -4   3    0.74    0.86
  -7  -3   3    1.83    1.65
  -7  -3   3    2.79    1.40
   6   3  -3    4.99    2.40
  -6  -3   3    2.08    1.40
  -6  -3   3    3.37    1.71
   5   3  -3    2.43    1.39
   5   3  -3    4.44    2.29
  -5  -3   3    2.41    1.60
   4   3  -3   12.89    2.94
   4   3  -3   12.97    2.12
  -4  -3   3   10.24    1.85
   3   3  -3    9.18    2.60
   3   3  -3    9.67    1.59
  -3  -3   3    8.90    1.54
   2   3  -3   10.32    1.45
  -2  -3   3   13.28    1.61
   1   3  -3   72.50    3.32
   1   3  -3   78.86    5.69
   1   3  -3   76.90    2.37
   1   3  -3   72.07    3.33
   0   3  -3   32.18    1.55
   0   3  -3   32.33    3.19
   0   3  -3   34.90    2.02
   0   3  -3   33.75    1.60
   0   3  -3   32.19    1.93
  -1   3  -3  194.13    6.25
  -1   3  -3  190.44    6.86
  -1   3  -3  198.67    6.00
  -1   3  -3  193.45   10.11
  -1   3  -3  196.03    6.52
  -2   3  -3   82.35    3.48
  -2   3  -3   85.14    3.38
  -2   3  -3   80.02    3.82
  -2   3  -3   84.85    3.40
  -2   3  -3   71.64    5.22
  -3   3  -3   18.36    2.60
  -3   3  -3   19.57    1.55
  -3   3  -3   20.50    2.06
  -3   3  -3   23.78    2.26
  -3   3  -3   21.35    2.44
  -4   3  -3   10.91    2.71
  -4   3  -3   15.55    1.66
  -4   3  -3   16.90    2.51
  -4   3  -3   18.01    2.12
  -5   3  -3   22.23    2.50
  -5   3  -3   28.54    3.42
   5  -3   3   22.88    2.49
  -6   3  -3    2.64    1.40
   6  -3   3    1.15    0.85
  -7   3  -3    5.73    1.97
   7  -3   3    7.71    1.72
   7  -3   3    1.74    0.95
  -8  -2   3    0.18    1.49
  -7  -2   3    0.90    1.76
  -7  -2   3    2.88    1.83
  -7  -2   3    2.06    1.22
  -6  -2   3    9.80    2.07
  -6  -2   3    5.47    1.96
   5   2  -3   16.37    3.65
  -5  -2   3   10.30    2.22
  -5  -2   3   12.31    2.27
   4   2  -3   44.13    2.00
   4   2  -3   46.53    4.56
   4   2  -3   45.31    3.20
   4   2  -3   45.10    1.89
  -4  -2   3   47.67    3.22
   3   2  -3    1.85    0.39
   3   2  -3    2.58    1.46
   3   2  -3    2.23    0.89
  -3  -2   3    1.83    0.79
   2   2  -3    0.16    0.24
   2   2  -3    1.65    1.24
   2   2  -3    0.96    0.63
  -2  -2   3    0.88    0.48
   1   2  -3   73.47    3.11
   1   2  -3   74.55    2.27
   1   2  -3   64.53    4.91
   0   2  -3   79.79    2.78
   0   2  -3   82.10    3.14
   0   2  -3   78.41    3.15
   0   2  -3   71.93    2.63
   0   2  -3   89.23    5.17
  -1   2  -3   65.12    2.59
  -1   2  -3   63.72    2.86
  -1   2  -3   63.29    2.49
  -1   2  -3   64.77    4.01
  -1   2  -3   61.43    2.53
  -2   2  -3    7.54    0.90
  -2   2  -3    6.40    1.15
  -2   2  -3    7.94    1.12
  -2   2  -3    8.32    1.12
  -2   2  -3    6.79    1.54
  -3   2  -3    6.86    1.34
  -3   2  -3    6.71    1.76
  -3   2  -3    9.69    1.06
  -3   2  -3   10.17    1.42
  -3   2  -3    9.20    1.29
  -4   2  -3   52.44    2.43
  -4   2  -3   54.76    3.53
  -4   2  -3   50.25    2.91
  -4   2  -3   52.18    2.94
  -5   2  -3    7.50    1.84
  -5   2  -3    9.42    1.62
  -6   2  -3    7.13    1.95
  -6   2  -3    5.03    1.37
   6  -2   3    2.48    0.96
  -7   2  -3    0.24    1.23
   7  -2   3    0.92    0.88
  -8   2  -3    0.00    1.35
   8  -2   3    1.82    1.01
   8  -2   3    2.96    1.32
  -8  -1   3    1.97    1.70
  -7  -1   3    3.90    1.72
  -7  -1   3    8.59    3.46
  -7  -1   3    6.85    1.85
  -6  -1   3    0.11    1.76
  -6  -1   3    0.37    1.30
  -6  -1   3    1.12    1.18
   5   1  -3    0.03    0.44
   5   1  -3   -0.21    0.40
  -5  -1   3    0.67    1.10
  -5  -1   3   -0.21    0.87
   4   1  -3   24.28    3.38
   4   1  -3   24.57    1.47
   4   1  -3   23.47    1.53
  -4  -1   3   27.04    2.40
  -4  -1   3   22.92    2.49
   3   1  -3   93.84    3.11
   3   1  -3   85.03    5.96
   3   1  -3   94.37    3.28
   3   1  -3   90.89    4.32
  -3  -1   3   94.48    4.07
   2   1  -3   32.63    3.09
   2   1  -3   30.06    2.10
   2   1  -3   33.40    1.42
  -2  -1   3   33.26    1.76
   1   1  -3    7.98    1.09
   1   1  -3   11.98    2.11
   1   1  -3    9.94    0.76
  -1  -1   3    9.66    0.74
   0   1  -3   39.14    1.71
   0   1  -3   39.84    1.61
   0   1  -3   35.46    1.76
  -1   1  -3  161.63    4.93
  -1   1  -3  166.41    5.19
  -1   1  -3  162.51    4.95
  -1   1  -3  165.76    5.53
  -2   1  -3   39.43    2.32
  -2   1  -3   41.40    2.00
  -2   1  -3   41.59    2.09
  -2   1  -3   41.54    1.56
  -3   1  -3   12.34    0.83
  -3   1  -3   12.57    1.46
  -3   1  -3   16.27    2.04
  -3   1  -3   10.99    1.32
  -4   1  -3   17.90    2.44
  -4   1  -3   13.19    1.02
  -4   1  -3   15.81    1.84
  -4   1  -3   11.19    1.45
  -5   1  -3   20.09    2.19
  -5   1  -3   14.38    2.36
  -5   1  -3   16.57    2.04
  -6   1  -3   15.70    2.13
  -6   1  -3   13.88    2.62
   6  -1   3   13.09    1.95
  -7   1  -3   28.55    3.15
  -7   1  -3   22.37    3.68
  -8   1  -3    4.84    2.20
   8  -1   3    4.83    1.53
  -8   0   3    0.64    1.73
  -7   0   3    2.59    1.45
  -7   0   3    2.87    2.59
  -7   0   3    4.40    1.81
   6   0  -3   26.06    2.50
   6   0  -3   19.98    2.24
  -6   0   3   22.49    5.00
  -6   0   3   24.09    3.23
  -6   0   3   30.15    3.50
   5   0  -3   10.82    1.48
   5   0  -3   15.74    1.74
  -5   0   3   10.27    1.99
  -5   0   3   12.96    2.18
  -5   0   3   14.28    3.63
   4   0  -3   71.25    3.00
   4   0  -3   74.12    3.21
  -4   0   3   72.45    3.73
  -4   0   3   66.02    5.91
  -4   0   3   68.55    3.95
   3   0  -3   16.83    1.17
   3   0  -3   17.08    1.25
  -3   0   3   18.91    3.43
  -3   0   3   16.86    2.11
  -3   0   3   18.09    1.55
   2   0  -3   55.76    4.18
   2   0  -3   52.77    2.27
   2   0  -3   49.02    2.12
  -2   0   3   66.98    3.11
  -2   0   3   64.60    2.42
   1   0  -3   36.75    1.59
   1   0  -3   39.05    1.68
   1   0  -3   33.94    2.94
  -1   0   3   36.69    1.29
  -1   0   3   34.91    2.09
   0   0  -3   47.57    1.94
   0   0  -3   49.01    1.78
   0   0  -3   47.06    2.04
   0   0   3   50.28    2.15
  -1   0  -3  149.91    4.89
  -1   0  -3  143.61    4.60
  -1   0  -3  141.41    4.38
   1   0   3  137.71    4.23
  -2   0  -3   30.27    1.99
  -2   0  -3   30.71    1.63
  -2   0  -3   32.06    1.75
  -3   0  -3   11.15    1.68
  -3   0  -3   12.80    1.40
  -3   0  -3   12.85    1.38
  -4   0  -3   46.69    2.53
  -4   0  -3   44.50    2.56
  -4   0  -3   46.71    1.84
  -4   0  -3   45.33    3.21
  -5   0  -3    9.13    2.15
  -5   0  -3    5.84    1.28
  -5   0  -3    7.13    1.33
  -6   0  -3    1.07    0.76
  -6   0  -3    1.38    0.87
  -6   0  -3    2.44    1.50
  -7   0  -3    5.76    1.55
  -7   0  -3   11.08    2.85
   7   0   3    5.99    1.38
  -8   0  -3    0.36    1.32
   7  -1  -3    4.80    1.37
   7  -1  -3    4.89    1.41
  -7   1   3    6.97    1.87
  -7   1   3    5.12    1.76
  -7   1   3    5.48    2.85
   6  -1  -3   -0.21    0.41
   6  -1  -3   -0.04    0.45
  -6   1   3    0.69    1.13
  -6   1   3    0.21    1.12
  -6   1   3    2.18    2.32
   5  -1  -3    1.92    0.71
   5  -1  -3    1.66    0.74
  -5   1   3    4.17    1.42
  -5   1   3    3.59    2.36
  -5   1   3    2.29    1.30
   4  -1  -3   38.69    2.30
   4  -1  -3   40.84    2.25
  -4   1   3   34.76    2.47
  -4   1   3   35.04    2.68
  -4   1   3   37.97    4.26
   3  -1  -3  195.26    6.39
   3  -1  -3  189.64    6.03
  -3   1   3  197.70    7.11
  -3   1   3  189.64    6.53
  -3   1   3  183.65   10.80
   2  -1  -3  110.58    3.94
   2  -1  -3  105.97    3.70
  -2   1   3  112.09    3.70
  -2   1   3  109.36    4.44
  -2   1   3  112.11    6.86
   1  -1  -3   12.39    1.00
   1  -1  -3   11.79    0.97
  -1   1   3   15.16    2.33
  -1   1   3   14.00    1.28
   0  -1  -3    2.23    0.51
   0  -1  -3    2.14    0.54
   0   1   3    3.44    0.71
  -1  -1  -3   22.50    1.40
  -1  -1  -3   24.52    1.39
   1   1   3   25.17    1.12
  -2  -1  -3  111.51    3.97
  -2  -1  -3  108.38    4.53
  -2  -1  -3  114.04    3.80
  -3  -1  -3   16.57    1.27
  -3  -1  -3   16.10    2.14
  -3  -1  -3   15.82    0.80
  -3  -1  -3   16.59    1.34
  -4  -1  -3    1.41    0.42
  -4  -1  -3    0.28    0.46
  -4  -1  -3    0.66    0.95
  -4  -1  -3   -0.22    0.37
  -5  -1  -3   12.25    2.47
  -5  -1  -3   13.67    1.77
  -5  -1  -3   12.34    1.63
  -6  -1  -3   14.13    1.90
  -6  -1  -3   16.60    2.87
  -6  -1  -3   19.28    2.16
  -7  -1  -3    7.66    2.50
  -7  -1  -3    6.38    1.56
  -8  -1  -3    0.95    1.56
   8  -2  -3    0.39    0.94
   7  -2  -3    0.55    0.83
   7  -2  -3    0.49    0.79
  -7   2   3    0.90    1.24
  -7   2   3    1.31    2.26
  -7   2   3   -0.54    0.87
   6  -2  -3   31.71    2.69
   6  -2  -3   32.48    2.56
  -6   2   3   33.52    5.85
  -6   2   3   31.48    3.51
  -6   2   3   29.12    3.31
   5  -2  -3   10.74    1.59
   5  -2  -3    6.11    1.26
  -5   2   3   13.68    3.71
  -5   2   3   10.21    1.91
  -5   2   3   11.46    1.98
   4  -2  -3   11.71    1.57
   4  -2  -3    9.21    1.36
  -4   2   3   11.43    1.81
  -4   2   3   13.53    1.78
   3  -2  -3    2.27    0.65
   3  -2  -3    5.02    0.94
  -3   2   3    1.30    0.81
  -3   2   3    4.88    1.82
  -3   2   3    4.24    0.84
   2  -2  -3   34.47    1.92
   2  -2  -3   32.42    1.78
  -2   2   3   32.49    1.56
  -2   2   3   31.54    2.06
  -2   2   3   30.92    3.17
   1  -2  -3  169.32    5.62
   1  -2  -3  176.58    5.40
  -1   2   3  170.24    5.85
  -1   2   3  168.98    5.22
  -1   2   3  171.44    9.04
   0  -2  -3    0.07    0.27
   0  -2  -3    0.15    0.30
   0  -2  -3    0.05    0.31
   0   2   3    1.02    1.00
   0   2   3    0.28    0.42
  -1  -2  -3   11.09    1.20
  -1  -2  -3    8.24    1.18
  -1  -2  -3   11.07    1.13
   1   2   3   10.08    0.86
  -2  -2  -3   19.19    1.35
  -2  -2  -3   16.28    1.22
  -2  -2  -3   20.30    2.21
   2   2   3   18.74    1.08
  -3  -2  -3   20.01    1.42
  -3  -2  -3   23.70    1.59
  -3  -2  -3   20.60    2.53
   3   2   3   20.46    1.18
  -4  -2  -3   23.53    1.73
  -4  -2  -3   23.24    1.64
  -4  -2  -3   20.93    2.73
   4   2   3   21.66    1.42
  -5  -2  -3    7.65    2.02
  -5  -2  -3    9.43    1.42
  -5  -2  -3    8.37    1.36
  -6  -2  -3    1.22    0.75
  -6  -2  -3    0.88    0.80
  -6  -2  -3    1.09    1.44
  -7  -2  -3    6.10    2.18
  -8  -2  -3   -0.03    1.50
   8  -3  -3   -0.24    0.99
   8  -3  -3    0.86    1.12
  -8   3   3    1.57    2.33
   7  -3  -3    9.68    1.96
   7  -3  -3   10.27    1.98
  -7   3   3    8.02    3.01
  -7   3   3    9.69    2.27
   6  -3  -3   -0.49    0.68
   6  -3  -3    0.85    0.87
  -6   3   3   -0.22    0.91
  -6   3   3   -0.68    0.81
  -6   3   3   -0.29    1.77
   5  -3  -3   10.43    1.72
   5  -3  -3   12.17    1.84
  -5   3   3   12.97    1.94
  -5   3   3   14.09    3.86
  -5   3   3   13.35    2.18
   4  -3  -3   16.20    1.96
   4  -3  -3   17.37    1.92
  -4   3   3   19.85    2.14
  -4   3   3   21.08    2.43
  -4   3   3   26.26    4.53
   3  -3  -3   47.11    2.55
   3  -3  -3   48.19    2.72
  -3   3   3   44.76    4.35
  -3   3   3   45.08    2.41
  -3   3   3   47.34    2.91
   2  -3  -3  185.71    6.24
   2  -3  -3  179.07    5.87
  -2   3   3  176.39    6.43
  -2   3   3  170.48    9.86
  -2   3   3  175.08    5.90
   1  -3  -3    8.48    1.10
   1  -3  -3    7.47    1.03
  -1   3   3   10.53    1.40
  -1   3   3   11.15    2.44
  -1   3   3    9.50    1.07
   0  -3  -3   19.50    1.30
   0  -3  -3   20.08    1.39
   0  -3  -3   17.08    1.26
   0   3   3   19.97    1.49
   0   3   3   19.71    2.47
  -1  -3  -3   41.00    2.01
  -1  -3  -3   40.36    2.31
  -1  -3  -3   43.58    2.13
   1   3   3   41.54    2.11
   1   3   3   45.60    3.53
  -2  -3  -3  113.07    4.97
  -2  -3  -3  113.10    3.99
  -2  -3  -3  116.40    4.23
   2   3   3  114.11    6.49
   2   3   3  112.68    4.14
  -3  -3  -3    1.58    0.58
  -3  -3  -3    0.47    1.01
  -3  -3  -3    1.81    0.63
   3   3   3    2.36    0.62
   3   3   3    0.93    0.96
  -4  -3  -3    1.40    1.32
  -4  -3  -3    0.52    0.46
  -4  -3  -3    0.83    0.56
   4   3   3    1.03    0.60
  -5  -3  -3    1.56    0.73
  -5  -3  -3    1.47    1.47
  -5  -3  -3    1.96    0.75
  -6  -3  -3    5.01    2.02
  -7  -3  -3    4.57    2.12
   7  -4  -3   -0.22    0.78
   7  -4  -3    0.30    0.95
  -7   4   3   -1.24    1.63
  -7   4   3   -0.02    1.15
   6  -4  -3   29.64    3.39
   6  -4  -3   30.25    3.17
  -6   4   3   29.97    2.75
  -6   4   3   22.78    4.37
  -6   4   3   30.54    3.51
   5  -4  -3   16.15    2.22
   5  -4  -3   13.46    2.03
  -5   4   3   19.52    2.64
  -5   4   3   19.01    2.45
  -5   4   3   19.74    4.21
   4  -4  -3    0.33    0.59
   4  -4  -3    0.90    0.76
  -4   4   3    1.68    0.92
  -4   4   3    0.89    1.85
  -4   4   3    0.37    0.93
   3  -4  -3    4.98    1.12
   3  -4  -3    3.27    0.89
  -3   4   3    2.91    0.86
  -3   4   3    2.80    1.10
  -3   4   3    2.94    2.03
   2  -4  -3   23.14    1.72
   2  -4  -3   20.99    1.74
  -2   4   3   23.32    1.70
  -2   4   3   26.58    4.07
  -2   4   3   21.27    1.95
   1  -4  -3  120.71    4.48
   1  -4  -3  119.37    4.69
  -1   4   3  123.07    5.01
  -1   4   3  121.60    4.64
   0  -4  -3    0.59    0.45
   0  -4  -3    0.62    0.43
   0  -4  -3    1.18    0.50
   0   4   3    0.27    0.50
   0   4   3    1.33    1.58
  -1  -4  -3    1.29    0.53
  -1  -4  -3    0.64    0.55
  -1  -4  -3    0.49    0.45
   1   4   3    0.17    0.49
   1   4   3   -0.22    1.04
  -2  -4  -3   68.36    2.98
  -2  -4  -3   73.20    3.20
  -2  -4  -3   73.14    3.92
   2   4   3   74.76    5.29
   2   4   3   73.66    3.34
  -3  -4  -3   65.45    2.84
  -3  -4  -3   68.22    3.06
  -3  -4  -3   69.97    4.19
   3   4   3   68.36    3.22
  -4  -4  -3   36.05    2.05
  -4  -4  -3   34.78    2.15
  -4  -4  -3   25.79    3.39
   4   4   3   33.31    2.19
  -5  -4  -3    3.34    1.83
  -6  -4  -3    0.62    1.50
  -7  -4  -3    1.95    1.80
   7  -5  -3    0.91    1.14
   7  -5  -3    1.26    1.25
  -7   5   3    1.21    1.30
  -7   5   3    1.94    2.27
   6  -5  -3    5.34    1.51
   6  -5  -3    4.51    1.44
  -6   5   3    2.51    1.36
  -6   5   3    1.51    2.05
   5  -5  -3    0.92    0.77
   5  -5  -3    1.79    0.91
  -5   5   3    1.76    1.13
  -5   5   3    1.09    1.17
  -5   5   3    0.77    2.10
   4  -5  -3   30.40    2.45
   4  -5  -3   25.36    2.74
  -4   5   3   31.53    2.48
  -4   5   3   33.06    4.57
  -4   5   3   29.09    3.19
   3  -5  -3   20.08    2.25
   3  -5  -3   19.99    2.25
  -3   5   3   24.39    4.48
  -3   5   3   18.01    2.12
  -3   5   3   15.49    2.15
   2  -5  -3   19.72    2.08
   2  -5  -3   21.48    1.86
  -2   5   3   20.50    1.87
  -2   5   3   19.52    2.41
   1  -5  -3   -0.48    0.34
   1  -5  -3   -0.08    0.38
  -1   5   3    0.32    0.53
  -1   5   3   -0.60    0.57
  -1   5   3   -0.50    1.41
   0  -5  -3    7.81    1.25
   0  -5  -3    8.95    1.34
   0  -5  -3    8.49    1.24
   0   5   3    6.09    2.04
   0   5   3    8.27    1.47
  -1  -5  -3   25.59    1.66
  -1  -5  -3   24.78    1.75
  -1  -5  -3   26.55    2.09
   1   5   3   24.76    2.06
   1   5   3   23.43    3.37
  -2  -5  -3   25.19    1.72
  -2  -5  -3   27.19    2.37
  -2  -5  -3   26.19    1.85
   2   5   3   25.04    2.06
   2   5   3   25.62    3.36
  -3  -5  -3    5.22    1.61
  -3  -5  -3    5.58    1.05
  -3  -5  -3    5.91    1.03
   3   5   3    3.79    2.10
   3   5   3    5.93    1.30
  -4  -5  -3    0.69    1.26
   4   5   3   -0.10    0.72
  -5  -5  -3    3.25    1.85
  -6  -5  -3    3.28    1.92
  -7  -5  -3    2.60    1.96
   7  -6  -3   -0.44    0.95
   7  -6  -3   -0.28    1.01
  -7   6   3   -1.22    0.94
   6  -6  -3    2.47    1.32
   6  -6  -3    3.93    1.49
  -6   6   3   -0.58    1.93
  -6   6   3    1.57    1.23
   5  -6  -3   20.02    2.80
   5  -6  -3   25.40    3.02
  -5   6   3   17.12    2.68
  -5   6   3   13.41    2.25
   4  -6  -3   12.23    1.93
   4  -6  -3    9.76    1.92
  -4   6   3   12.14    1.96
  -4   6   3   11.43    2.18
   3  -6  -3    2.58    1.02
   3  -6  -3    1.05    0.84
  -3   6   3    0.73    0.74
  -3   6   3    0.64    2.15
  -3   6   3    1.98    1.09
   2  -6  -3    0.34    0.52
   2  -6  -3    0.92    0.65
  -2   6   3    1.17    2.08
  -2   6   3    0.12    0.79
  -2   6   3    0.43    0.91
   1  -6  -3   29.91    2.24
   1  -6  -3   29.23    2.15
  -1   6   3   27.16    2.49
  -1   6   3   30.68    2.47
   0  -6  -3    8.68    1.43
   0  -6  -3    6.70    1.32
   0  -6  -3    7.55    1.30
   0   6   3    6.48    1.52
   0   6   3    5.75    2.56
  -1  -6  -3    2.47    0.78
  -1  -6  -3    4.50    1.28
  -1  -6  -3    2.82    0.80
   1   6   3    1.75    0.98
   1   6   3    1.27    1.60
  -2  -6  -3    3.58    1.26
  -2  -6  -3    5.53    1.08
  -2  -6  -3    6.28    1.15
   2   6   3    5.31    1.35
   2   6   3    5.68    2.31
  -3  -6  -3   23.53    3.22
   3   6   3   18.74    2.36
   3   6   3    9.70    3.11
  -4  -6  -3   67.37    4.83
  -5  -6  -3    6.58    2.18
  -6  -6  -3   -0.38    1.34
   6  -7  -3   -0.46    0.67
   6  -7  -3   -0.51    0.68
  -6   7   3   -0.15    2.09
  -6   7   3    1.25    1.23
   5  -7  -3    0.48    0.79
   5  -7  -3   -0.23    0.61
  -5   7   3    0.56    1.10
  -5   7   3   -1.25    1.91
   4  -7  -3   10.67    1.98
   4  -7  -3   12.12    2.13
  -4   7   3    7.69    1.79
  -4   7   3    6.02    1.69
  -4   7   3    1.56    2.45
   3  -7  -3    6.15    1.45
   3  -7  -3    5.08    1.33
  -3   7   3    5.48    1.61
  -3   7   3    5.15    1.67
  -3   7   3    0.00    2.37
   2  -7  -3    6.94    1.39
   2  -7  -3    6.27    1.41
  -2   7   3   -0.79    2.18
  -2   7   3    7.25    1.77
  -2   7   3    5.33    1.59
   1  -7  -3    1.04    0.71
   1  -7  -3   -0.52    0.48
  -1   7   3    0.59    0.95
  -1   7   3    0.83    2.39
   0  -7  -3   14.46    1.83
   0  -7  -3   13.04    2.05
   0  -7  -3   14.44    1.87
   0   7   3    4.65    2.73
   0   7   3   15.22    2.39
  -1  -7  -3   15.77    1.83
  -1  -7  -3   19.62    2.60
  -1  -7  -3   14.49    1.67
   1   7   3   16.97    2.41
   1   7   3    9.79    3.16
  -2  -7  -3   -0.08    0.75
  -2  -7  -3    0.38    0.59
   2   7   3    0.93    2.05
   2   7   3    1.78    1.09
   2   7   3    0.87    2.05
  -3  -7  -3    3.20    1.43
   3   7   3   -0.43    1.88
   3   7   3    0.68    0.83
  -4  -7  -3    0.04    1.00
  -5  -7  -3    4.53    1.87
  -6  -7  -3    2.51    1.91
   5  -8  -3    3.71    1.39
   5  -8  -3    1.04    1.00
  -5   8   3   -1.19    2.17
  -5   8   3    3.54    1.63
   4  -8  -3    2.68    1.25
   4  -8  -3    2.61    1.25
  -4   8   3    0.66    2.45
  -4   8   3    0.36    1.09
  -4   8   3    1.05    1.30
   3  -8  -3    0.72    0.85
   3  -8  -3    3.17    1.25
  -3   8   3    1.24    1.14
  -3   8   3    0.53    1.00
  -3   8   3   -1.17    2.23
   2  -8  -3    1.16    0.87
   2  -8  -3    0.70    0.72
  -2   8   3    0.54    2.44
  -2   8   3    1.36    1.17
  -2   8   3    1.63    1.19
   1  -8  -3    8.49    1.80
   1  -8  -3    5.93    1.40
   1  -8  -3    6.45    1.44
  -1   8   3    8.52    1.97
   0  -8  -3    6.56    1.34
   0  -8  -3    6.97    1.70
   0  -8  -3    5.43    1.23
   0   8   3    2.44    2.58
   0   8   3    5.06    1.55
  -1  -8  -3   -0.21    0.56
  -1  -8  -3    0.11    0.58
  -1  -8  -3    0.08    0.66
   1   8   3   -0.56    0.80
   1   8   3   -0.88    1.80
  -2  -8  -3    2.51    1.20
   2   8   3    3.74    2.52
   2   8   3    3.26    1.35
  -3  -8  -3    2.34    1.27
   3   8   3    3.04    1.33
   3   8   3    1.05    2.12
  -4  -8  -3    6.99    2.20
  -5  -8  -3    1.30    1.59
   5  -9  -3    1.06    1.08
  -5   9   3    0.15    1.22
   4  -9  -3    4.15    1.40
   4  -9  -3    3.77    1.49
  -4   9   3   -1.20    2.21
  -4   9   3    4.86    1.76
   3  -9  -3    1.58    1.03
   3  -9  -3    0.68    0.86
  -3   9   3   -0.67    2.16
  -3   9   3   -0.34    1.07
  -3   9   3    0.05    1.01
   2  -9  -3   -0.42    0.64
   2  -9  -3   -0.22    0.75
  -2   9   3    0.00    2.42
  -2   9   3   -0.95    0.93
  -2   9   3   -1.32    0.76
   1  -9  -3    0.19    0.76
   1  -9  -3    0.09    0.67
   1  -9  -3   -0.52    0.71
  -1   9   3    2.30    2.48
  -1   9   3   -0.08    0.99
   0  -9  -3    0.59    0.83
   0  -9  -3    2.14    0.94
   0  -9  -3    0.81    0.80
   0   9   3    1.46    1.21
   0   9   3    0.26    2.33
  -1  -9  -3    7.38    1.91
   1   9   3    1.04    2.51
   1   9   3    4.73    1.67
  -2  -9  -3    0.26    0.82
   2   9   3    1.15    1.11
   2   9   3    1.05    2.43
  -3  -9  -3    2.15    1.39
   3   9   3    0.55    1.09
   3   9   3   -0.54    2.25
  -4  -9  -3   -0.16    1.16
   3 -10  -3    0.33    0.92
   3 -10  -3    0.74    0.99
  -3  10   3   -1.78    1.98
  -3  10   3    0.70    1.23
  -3  10   3    1.11    1.22
   2 -10  -3    0.78    0.98
   2 -10  -3    1.77    1.06
  -2  10   3    0.48    1.23
  -2  10   3   -0.26    2.35
   1 -10  -3    1.64    1.09
   1 -10  -3    3.38    1.29
   1 -10  -3    2.21    1.13
  -1  10   3    0.92    1.09
  -1  10   3    0.55    2.51
   0 -10  -3    2.74    1.29
   0  10   3    0.95    1.28
   0  10   3    1.25    2.72
  -1 -10  -3    1.01    1.09
   1  10   3    0.57    1.19
   1  10   3    0.42    2.29
  -2 -10  -3    1.99    1.17
   2  10   3    0.55    1.14
   2  10   3    0.01    2.57
  -3 -10  -3    2.54    1.41
   3  10   3    1.57    1.28
   1 -11  -3    1.30    1.27
  -1  11   3    1.26    1.40
   0 -11  -3    4.54    1.75
   0  11   3    1.75    1.61
   0  11  -4    1.32    1.50
   0 -11   4    2.32    1.53
  -1  11  -4   -0.22    1.00
  -1  11  -4   -0.64    1.11
   3  10  -4    0.60    1.28
   3  10  -4   -0.84    2.48
  -3 -10   4    1.85    1.26
   2  10  -4    2.13    1.41
  -2 -10   4    1.23    1.15
   1  10  -4    1.03    2.57
   1  10  -4    0.03    1.03
  -1 -10   4    0.51    1.04
   0  10  -4   -0.70    1.12
   0  10  -4   -0.26    2.31
   0  10  -4   -0.69    0.92
  -1  10  -4    6.92    3.19
  -1  10  -4    7.27    2.09
  -1  10  -4    3.42    1.67
  -2  10  -4    1.19    2.59
  -2  10  -4    1.65    1.30
  -2  10  -4    2.65    1.59
  -3  10  -4    2.11    2.50
  -3  10  -4    4.28    1.82
  -3  10  -4    1.02    1.30
   3 -10   4    0.97    0.91
   3 -10   4    2.33    1.21
   4   9  -4    0.77    1.24
   4   9  -4    1.86    3.16
  -4  -9   4    0.76    1.00
   3   9  -4   -1.18    0.88
   3   9  -4   -1.48    2.36
  -3  -9   4    0.51    0.90
   2   9  -4    8.51    2.24
   2   9  -4    2.38    2.56
  -2  -9   4    9.02    2.34
   1   9  -4    1.71    1.40
   1   9  -4    1.02    2.27
  -1  -9   4    2.59    1.25
   0   9  -4    4.14    2.87
   0   9  -4    3.63    1.54
   0   9  -4    3.10    1.46
  -1   9  -4    0.97    1.11
  -1   9  -4   -0.89    0.81
  -1   9  -4    0.15    2.27
  -2   9  -4    1.86    1.26
  -2   9  -4   -0.36    0.86
  -2   9  -4    1.06    2.37
   2  -9   4    0.78    0.73
   2  -9   4    0.18    0.55
  -3   9  -4    1.15    2.18
  -3   9  -4    3.08    1.51
  -3   9  -4    5.59    1.85
   3  -9   4    4.44    1.35
   3  -9   4    1.71    1.00
  -4   9  -4    0.39    1.99
  -4   9  -4   -0.03    1.06
  -4   9  -4    0.31    1.12
   4  -9   4    1.44    1.02
   4  -9   4   -0.26    0.78
   5   8  -4    0.85    2.49
   5   8  -4    1.19    1.54
  -5  -8   4    3.07    1.52
   4   8  -4    2.05    1.31
   4   8  -4    1.35    2.95
  -4  -8   4    3.51    1.47
   3   8  -4    3.67    1.61
   3   8  -4   -1.41    1.94
  -3  -8   4    4.37    1.59
   2   8  -4    9.25    2.10
   2   8  -4    1.95    2.32
  -2  -8   4    4.59    1.56
   1   8  -4    0.39    2.29
   1   8  -4    0.21    0.86
  -1  -8   4   -0.06    0.63
   0   8  -4    1.10    1.08
   0   8  -4    4.32    1.66
   0   8  -4    2.45    2.62
  -1   8  -4   10.98    2.25
  -1   8  -4   10.94    3.50
  -1   8  -4   12.53    2.36
   1  -8   4   13.20    1.80
   1  -8   4   12.78    1.69
  -2   8  -4    8.62    3.01
  -2   8  -4   12.71    2.48
  -2   8  -4    8.47    2.06
   2  -8   4   12.75    1.87
   2  -8   4   11.56    1.77
  -3   8  -4    0.97    1.22
  -3   8  -4    0.64    1.73
  -3   8  -4    4.09    1.53
   3  -8   4    1.48    0.84
   3  -8   4    1.88    0.88
  -4   8  -4   -0.05    1.19
  -4   8  -4   -0.53    1.81
  -4   8  -4    3.15    1.45
   4  -8   4    0.21    0.71
   4  -8   4    0.61    0.77
  -5   8  -4    1.18    1.31
   5  -8   4   -0.25    0.76
   5  -8   4    0.06    0.81
   6   7  -4    2.63    1.62
   6   7  -4    1.46    2.36
  -6  -7   4    0.93    1.34
   5   7  -4    2.47    1.59
   5   7  -4    7.68    3.48
  -5  -7   4    5.51    1.88
   4   7  -4    0.40    2.16
   4   7  -4   -0.58    0.89
  -4  -7   4    1.05    1.00
   3   7  -4   -1.35    1.91
   3   7  -4    0.15    0.95
  -3  -7   4    0.00    0.77
   2   7  -4   19.57    2.76
  -2  -7   4   16.40    2.42
   1   7  -4   22.31    2.91
   1   7  -4   10.95    3.34
   0   7  -4   15.06    2.43
   0   7  -4   15.04    4.12
   0   7  -4   16.28    2.69
   0  -7   4   18.08    1.48
   0  -7   4   16.80    1.64
  -1   7  -4   -0.29    1.80
  -1   7  -4   -0.45    0.79
  -1   7  -4    0.74    0.92
   1  -7   4    0.72    0.52
   1  -7   4    2.01    0.77
  -2   7  -4    0.49    1.00
  -2   7  -4    2.19    1.27
  -2   7  -4    2.10    2.25
   2  -7   4    0.56    0.50
   2  -7   4    1.42    0.79
  -3   7  -4    9.63    2.97
  -3   7  -4   16.65    2.69
  -3   7  -4   22.21    2.97
   3  -7   4   18.50    2.35
   3  -7   4   18.89    2.27
  -4   7  -4    1.21    1.96
  -4   7  -4    0.82    0.92
  -4   7  -4    2.26    1.33
   4  -7   4    0.92    0.82
   4  -7   4    0.86    0.71
  -5   7  -4    4.47    1.79
   5  -7   4    4.77    1.32
   5  -7   4    3.75    1.36
  -6   7  -4   -0.54    0.96
   6  -7   4   -0.32    0.61
   6  -7   4    0.53    0.75
   6   6  -4    2.95    1.49
   6   6  -4    3.80    2.38
  -6  -6   4    2.54    1.65
   5   6  -4   -0.48    0.95
   5   6  -4    0.73    1.87
  -5  -6   4    0.57    0.91
   4   6  -4   11.62    2.30
   4   6  -4   15.05    4.08
  -4  -6   4    8.24    1.89
   3   6  -4   14.73    2.54
  -3  -6   4   18.33    2.70
   2   6  -4   19.04    2.63
  -2  -6   4   18.66    2.56
   1   6  -4   -0.49    0.75
   1   6  -4    0.22    0.82
   1   6  -4   -1.22    1.71
  -1  -6   4    0.60    0.33
   0   6  -4    5.91    1.43
   0   6  -4    5.15    1.40
   0   6  -4    7.02    2.92
   0  -6   4    7.23    1.02
  -1   6  -4   29.94    4.95
  -1   6  -4   21.69    2.63
  -1   6  -4   24.38    2.95
   1  -6   4   25.72    1.80
  -2   6  -4   26.31    4.60
  -2   6  -4   29.34    2.60
  -2   6  -4   29.83    3.46
   2  -6   4   26.45    2.02
  -3   6  -4    0.72    1.84
  -3   6  -4    2.16    1.16
  -3   6  -4    2.07    1.14
   3  -6   4    1.91    0.88
  -4   6  -4   12.90    2.14
  -4   6  -4    4.29    2.38
  -4   6  -4    8.29    1.96
   4  -6   4   12.54    1.91
   4  -6   4   15.04    2.14
  -5   6  -4    2.65    1.50
   5  -6   4    2.17    1.04
   5  -6   4    0.63    0.77
  -6   6  -4    5.04    1.95
   6  -6   4    8.28    1.83
   6  -6   4    6.24    1.67
   7   5  -4   -0.02    1.56
   7   5  -4   -0.22    1.99
  -7  -5   4   -0.43    1.35
   6   5  -4    2.55    1.51
   6   5  -4    2.59    2.44
  -6  -5   4    6.61    2.25
   5   5  -4   18.33    2.80
   5   5  -4   12.49    3.18
  -5  -5   4   17.87    2.69
   4   5  -4   -0.74    0.95
   4   5  -4    0.43    1.88
  -4  -5   4   -0.52    0.76
   3   5  -4    7.06    1.57
  -3  -5   4    7.52    1.60
   2   5  -4   62.55    3.79
  -2  -5   4   64.49    3.70
   1   5  -4   45.50    1.98
   1   5  -4   48.33    3.06
   1   5  -4   44.63    2.98
   1   5  -4   38.90    4.66
  -1  -5   4   44.44    1.82
   0   5  -4   61.61    5.57
   0   5  -4   61.59    3.54
   0   5  -4   56.47    2.60
   0   5  -4   53.46    3.27
  -1   5  -4    0.13    0.31
  -1   5  -4    0.64    0.70
  -1   5  -4    1.38    0.80
  -1   5  -4    2.06    1.71
  -2   5  -4    7.57    2.43
  -2   5  -4    9.16    1.56
  -2   5  -4    7.70    1.67
  -2   5  -4    7.52    1.33
   2  -5   4    7.13    1.26
  -3   5  -4   22.98    3.99
  -3   5  -4   29.47    2.38
  -3   5  -4   32.06    2.82
  -3   5  -4   33.08    2.49
   3  -5   4   28.33    2.15
  -4   5  -4    7.21    1.76
  -4   5  -4   16.23    2.12
  -4   5  -4   14.54    2.15
   4  -5   4   11.75    1.83
  -5   5  -4    0.99    1.01
   5  -5   4    1.83    0.93
  -6   5  -4    2.74    1.53
   6  -5   4    2.14    1.08
   6  -5   4    0.49    0.82
  -7   5  -4    0.38    1.20
   7  -5   4    1.15    0.90
   7  -5   4    0.57    0.98
   7   4  -4   -0.04    2.28
  -7  -4   4   -0.33    1.55
  -7  -4   4    0.87    1.12
   6   4  -4   -0.02    1.93
   6   4  -4    0.37    1.21
  -6  -4   4    1.64    1.40
   5   4  -4    4.40    1.65
   5   4  -4    4.22    2.37
  -5  -4   4    2.84    1.59
   4   4  -4   12.29    2.12
   4   4  -4   21.90    4.15
  -4  -4   4   24.53    2.94
   3   4  -4   19.98    3.93
   3   4  -4    8.46    1.66
  -3  -4   4    7.15    1.43
   2   4  -4   18.03    0.86
   2   4  -4   16.44    2.03
  -2  -4   4   20.28    2.23
   1   4  -4    3.12    1.91
   1   4  -4    4.00    0.63
   1   4  -4    3.64    0.62
   1   4  -4    2.35    0.86
   1   4  -4    2.10    0.92
   0   4  -4   92.88    6.66
   0   4  -4   89.37    3.31
   0   4  -4   88.81    4.02
   0   4  -4   92.24    4.21
   0   4  -4   88.14    3.42
  -1   4  -4   88.62    6.07
  -1   4  -4   81.98    4.06
  -1   4  -4   87.71    3.87
  -1   4  -4   78.82    3.33
  -1   4  -4   79.37    3.48
  -2   4  -4    6.77    2.09
  -2   4  -4    6.60    1.18
  -2   4  -4    5.11    0.99
  -2   4  -4    8.45    1.55
  -2   4  -4    8.14    1.29
  -3   4  -4   19.09    1.99
  -3   4  -4   17.45    2.42
  -3   4  -4   13.11    2.79
  -3   4  -4   17.36    2.07
  -3   4  -4   18.67    2.08
  -4   4  -4    7.37    1.80
  -4   4  -4    7.53    1.33
  -4   4  -4    7.41    1.52
  -4   4  -4    4.71    2.05
  -5   4  -4   13.67    2.09
  -5   4  -4   12.99    2.47
   5  -4   4   15.54    2.11
  -6   4  -4    3.48    1.48
  -6   4  -4    5.30    1.67
   6  -4   4    5.40    1.42
  -7   4  -4    4.76    1.90
   7  -4   4    4.06    1.34
   7  -4   4    3.99    1.52
  -7  -3   4    1.92    1.38
  -7  -3   4    3.44    1.93
   6   3  -4    4.44    2.64
  -6  -3   4    3.19    1.70
  -6  -3   4    4.55    1.71
   5   3  -4   34.67    4.45
   5   3  -4   37.39    3.91
  -5  -3   4   27.59    3.41
   4   3  -4    3.33    1.32
   4   3  -4    3.66    2.07
  -4  -3   4    1.53    0.95
   3   3  -4    0.41    0.81
   3   3  -4    0.69    1.31
   3   3  -4    0.75    0.32
  -3  -3   4    0.43    0.53
   2   3  -4   52.86    1.84
   2   3  -4   59.18    3.20
   2   3  -4   47.74    4.59
  -2  -3   4   55.06    2.84
   1   3  -4   59.96    5.28
   1   3  -4   72.27    2.56
   1   3  -4   70.06    3.36
   1   3  -4   71.85    3.27
   1   3  -4   74.00    2.50
   0   3  -4  171.99    6.19
   0   3  -4  173.86    5.36
   0   3  -4  186.54    9.96
   0   3  -4  177.95    6.36
   0   3  -4  180.15    5.63
  -1   3  -4    0.39    0.59
  -1   3  -4    2.71    0.64
  -1   3  -4    1.90    0.59
  -1   3  -4    2.97    0.87
  -2   3  -4    3.45    1.00
  -2   3  -4    3.54    0.78
  -2   3  -4    2.85    0.77
  -2   3  -4    4.27    0.92
  -2   3  -4    2.41    1.26
  -3   3  -4   51.50    3.26
  -3   3  -4   51.94    2.97
  -3   3  -4   53.07    2.60
  -3   3  -4   55.61    2.89
  -4   3  -4   35.76    2.12
  -4   3  -4   32.50    2.46
  -4   3  -4   40.30    2.67
  -4   3  -4   32.04    2.84
  -5   3  -4    5.23    1.57
  -5   3  -4    4.97    1.39
  -6   3  -4    0.02    0.96
  -6   3  -4    0.92    1.00
   6  -3   4    1.23    0.90
  -7   3  -4    1.33    1.37
   7  -3   4    0.89    0.90
  -7  -2   4    1.91    1.39
  -7  -2   4    3.38    2.49
  -7  -2   4    1.18    1.62
  -6  -2   4    1.23    1.04
  -6  -2   4   -0.62    1.11
   5   2  -4    1.96    2.14
  -5  -2   4    0.31    0.97
  -5  -2   4    3.61    1.54
   4   2  -4   16.60    2.33
   4   2  -4   18.00    1.24
   4   2  -4   21.75    3.83
  -4  -2   4   19.81    2.48
   3   2  -4   66.17    2.51
   3   2  -4   65.68    3.71
   3   2  -4   68.37    2.42
   3   2  -4   66.35    5.33
  -3  -2   4   69.16    3.37
   2   2  -4    7.79    2.16
   2   2  -4    9.44    0.90
   2   2  -4    7.20    1.31
  -2  -2   4    7.68    1.07
   1   2  -4    7.55    1.02
   1   2  -4    6.91    0.80
   1   2  -4   10.94    2.37
   1   2  -4    6.38    0.75
   1   2  -4    5.49    1.06
  -1   2  -4  102.85    3.79
  -1   2  -4  105.35    4.21
  -1   2  -4  112.08    6.13
  -1   2  -4  106.33    3.92
  -1   2  -4  104.82    3.74
  -2   2  -4   44.71    2.25
  -2   2  -4   40.54    3.05
  -2   2  -4   45.01    2.00
  -2   2  -4   44.60    2.34
  -2   2  -4   44.44    2.61
  -3   2  -4   37.70    2.28
  -3   2  -4   36.45    2.31
  -3   2  -4   37.04    1.80
  -3   2  -4   38.91    2.69
  -4   2  -4    0.42    0.52
  -4   2  -4   -0.15    0.53
  -4   2  -4    1.12    0.92
  -4   2  -4    0.24    0.64
  -5   2  -4   20.27    2.87
  -5   2  -4   25.12    2.64
  -5   2  -4   19.44    2.25
  -6   2  -4   27.05    3.56
  -6   2  -4   28.10    2.97
  -7   2  -4    2.90    1.30
  -7   2  -4    4.64    1.84
   7  -2   4    2.64    1.08
  -8  -1   4   -1.24    1.81
  -7  -1   4   10.46    2.28
  -7  -1   4   11.68    2.45
  -7  -1   4    7.87    3.64
  -6  -1   4   17.24    4.50
  -6  -1   4   11.22    2.39
  -6  -1   4   13.53    2.47
   5   1  -4   28.56    1.83
   5   1  -4   26.87    1.88
  -5  -1   4   21.79    2.75
  -5  -1   4   25.27    3.20
   4   1  -4   23.99    4.19
   4   1  -4   14.34    1.20
   4   1  -4   14.07    1.24
  -4  -1   4   13.43    1.90
  -4  -1   4   15.22    2.37
   3   1  -4    5.76    0.85
   3   1  -4    7.92    0.99
   3   1  -4    5.47    1.93
  -3  -1   4    5.57    1.12
   2   1  -4   82.74    3.88
   2   1  -4   78.86    2.79
   2   1  -4   72.19    5.31
   2   1  -4   79.28    2.92
  -2  -1   4   79.63    3.04
   1   1  -4    0.79    0.62
   1   1  -4    3.84    1.36
   1   1  -4    0.97    0.42
   1   1  -4    1.51    0.44
   1   1  -4    0.58    0.37
   0   1  -4  104.22    3.64
   0   1  -4  101.86    3.45
   0   1  -4   99.87    3.57
  -1   1  -4    8.62    0.78
  -1   1  -4    7.87    1.08
  -1   1  -4    7.69    0.94
  -1   1  -4    7.29    0.94
  -2   1  -4   35.11    2.04
  -2   1  -4   37.96    1.47
  -2   1  -4   37.19    1.99
  -2   1  -4   37.21    2.34
  -3   1  -4   64.06    2.13
  -3   1  -4   60.43    2.91
  -3   1  -4   67.08    3.59
  -3   1  -4   61.01    3.02
  -4   1  -4    4.06    1.05
  -4   1  -4    3.33    0.93
  -4   1  -4    4.10    1.36
  -5   1  -4   13.46    1.89
  -5   1  -4   14.31    1.95
  -5   1  -4   10.11    2.02
  -6   1  -4   11.73    1.95
  -6   1  -4   10.88    2.42
  -6   1  -4   13.01    2.02
  -7   1  -4    4.70    1.47
  -7   1  -4    4.50    1.99
   7  -1   4    5.70    1.47
  -8   1  -4    1.77    1.61
   8  -1   4    5.25    1.63
  -8   0   4    5.64    3.38
  -8   0   4    3.70    1.90
  -7   0   4    1.27    2.40
  -7   0   4   -0.16    0.94
   6   0  -4    3.30    1.02
   6   0  -4    1.50    0.78
  -6   0   4    3.36    1.50
  -6   0   4    4.80    2.99
  -6   0   4    4.27    1.67
   5   0  -4   14.17    1.69
   5   0  -4   18.55    1.93
  -5   0   4   21.16    4.97
  -5   0   4   16.47    2.32
  -5   0   4   20.03    2.85
   4   0  -4   16.53    1.42
   4   0  -4   17.10    1.37
  -4   0   4   18.18    2.46
  -4   0   4   16.32    2.04
  -4   0   4   19.98    4.10
   3   0  -4   70.48    2.83
   3   0  -4   72.95    3.00
  -3   0   4   66.28    3.03
  -3   0   4   68.17    3.79
  -3   0   4   55.31    5.37
   2   0  -4    0.07    0.15
   2   0  -4    0.01    0.15
  -2   0   4    0.06    0.51
  -2   0   4    0.09    0.33
   1   0  -4    0.29    0.36
   1   0  -4    1.42    1.10
   1   0  -4    0.01    0.26
  -1   0   4    0.40    0.18
  -1   0   4    1.09    0.64
   0   0  -4   10.78    0.77
   0   0  -4    8.30    1.57
   0   0  -4   11.26    1.18
   0   0  -4    9.29    1.04
   0   0   4   10.02    1.20
  -1   0  -4   83.45    3.12
  -1   0  -4   86.92    3.31
   1   0   4   83.40    2.93
  -2   0  -4   39.47    2.37
  -2   0  -4   39.46    2.06
  -2   0  -4   41.18    2.21
  -3   0  -4    0.71    0.50
  -3   0  -4    1.36    0.83
  -3   0  -4    1.81    0.71
  -4   0  -4   -0.08    0.43
  -4   0  -4   -0.09    0.49
  -4   0  -4    0.52    0.96
  -5   0  -4    5.81    1.75
  -5   0  -4    8.77    1.51
  -5   0  -4    7.22    1.43
  -6   0  -4   15.11    2.80
  -6   0  -4   19.66    2.38
  -6   0  -4   18.03    2.33
  -7   0  -4    2.39    1.73
  -7   0  -4    3.31    1.33
  -8   0  -4    0.67    1.09
  -8   0  -4    1.50    1.63
  -8   1   4    0.67    1.42
  -8   1   4    0.31    2.15
  -7   1   4    9.29    2.23
  -7   1   4   10.64    3.90
   6  -1  -4   18.22    2.27
   6  -1  -4   19.83    2.35
  -6   1   4   24.11    2.97
  -6   1   4   30.03    3.56
  -6   1   4   33.19    5.89
  -5   1   4    9.37    1.84
  -5   1   4   11.64    3.77
  -5   1   4   10.87    2.21
   4  -1  -4    0.67    0.55
   4  -1  -4    1.24    0.57
  -4   1   4    0.73    0.96
  -4   1   4    1.08    0.81
  -4   1   4    0.32    1.55
   3  -1  -4    4.49    0.90
   3  -1  -4    4.20    0.86
  -3   1   4    5.10    1.26
  -3   1   4    4.73    2.09
  -3   1   4    5.56    0.93
   2  -1  -4   96.85    3.79
   2  -1  -4   96.73    3.62
  -2   1   4   98.75    3.11
  -2   1   4   97.24    6.66
  -2   1   4   95.97    4.29
   1  -1  -4    5.92    0.86
   1  -1  -4    6.26    0.92
  -1   1   4    8.84    1.28
  -1   1   4    5.65    1.73
   0  -1  -4   35.94    1.84
   0  -1  -4   39.01    1.96
   0  -1  -4   35.90    1.57
   0   1   4   37.28    2.97
   0   1   4   36.91    1.91
  -1  -1  -4    0.44    0.47
  -1  -1  -4    0.85    0.47
  -1  -1  -4    0.69    0.53
   1   1   4    0.84    0.38
  -2  -1  -4   21.77    1.45
  -2  -1  -4   23.39    1.87
  -2  -1  -4   19.32    1.44
  -3  -1  -4   65.23    2.93
  -3  -1  -4   64.56    3.06
  -3  -1  -4   61.67    3.65
  -4  -1  -4    5.13    1.01
  -4  -1  -4    5.94    1.69
  -4  -1  -4    6.29    1.18
  -5  -1  -4    9.46    1.60
  -5  -1  -4   10.28    1.63
  -5  -1  -4    8.28    1.92
  -6  -1  -4   11.77    2.62
  -6  -1  -4   11.44    1.89
  -6  -1  -4   11.96    1.78
  -7  -1  -4    6.07    1.64
  -7  -1  -4    6.63    1.50
  -7  -1  -4    8.19    2.48
  -8   2   4    1.19    1.54
  -8   2   4    1.99    2.75
   7  -2  -4    1.29    0.93
   7  -2  -4    0.28    0.67
  -7   2   4    0.42    1.22
  -7   2   4    1.06    2.37
   6  -2  -4    1.84    1.00
   6  -2  -4    1.78    0.93
  -6   2   4    2.37    2.51
  -6   2   4    3.12    1.43
   5  -2  -4   31.70    2.48
   5  -2  -4   27.01    2.20
  -5   2   4   44.39    6.75
  -5   2   4   32.29    3.47
  -5   2   4   29.40    2.48
   4  -2  -4   15.13    1.71
   4  -2  -4   10.40    1.54
  -4   2   4   14.80    2.16
  -4   2   4   15.08    3.74
  -4   2   4   18.03    1.86
   3  -2  -4   93.79    4.02
   3  -2  -4   99.05    3.86
  -3   2   4   91.11    6.84
  -3   2   4   92.34    3.52
  -3   2   4   94.21    4.49
   2  -2  -4   14.98    1.55
   2  -2  -4   15.70    1.37
  -2   2   4   14.13    0.92
  -2   2   4   15.38    1.85
  -2   2   4   15.87    2.96
   1  -2  -4   43.68    2.26
   1  -2  -4   44.34    1.60
   1  -2  -4   41.95    2.13
  -1   2   4   40.86    3.61
  -1   2   4   43.99    2.39
   0  -2  -4   52.03    2.39
   0  -2  -4   57.53    2.58
   0  -2  -4   54.14    2.26
   0   2   4   55.65    3.90
   0   2   4   53.10    2.48
  -1  -2  -4   74.63    3.02
  -1  -2  -4   73.79    3.20
  -1  -2  -4   71.31    3.30
   1   2   4   71.16    2.81
   1   2   4   77.55    4.52
  -2  -2  -4   78.37    3.39
  -2  -2  -4   75.20    3.78
  -2  -2  -4   79.42    3.21
   2   2   4   76.90    2.74
  -3  -2  -4    1.41    0.63
  -3  -2  -4    0.73    0.54
  -3  -2  -4    2.58    1.17
   3   2   4    0.98    0.34
  -4  -2  -4   14.48    1.74
  -4  -2  -4   12.33    2.34
  -4  -2  -4    9.10    1.40
  -5  -2  -4   10.42    1.61
  -5  -2  -4    9.45    1.51
  -5  -2  -4    7.38    2.11
  -6  -2  -4    4.65    2.03
  -6  -2  -4    6.89    1.48
  -6  -2  -4    6.73    1.39
  -7  -2  -4    0.29    1.38
   7  -3  -4    3.28    1.35
   7  -3  -4    4.62    1.62
  -7   3   4    3.41    1.67
  -7   3   4    5.36    2.94
   6  -3  -4   14.02    2.23
   6  -3  -4   12.67    1.99
  -6   3   4   14.28    2.54
  -6   3   4   14.85    3.80
   5  -3  -4    6.77    1.42
   5  -3  -4    3.77    1.12
  -5   3   4    6.32    1.43
  -5   3   4    5.34    2.91
  -5   3   4    5.91    1.77
   4  -3  -4    2.86    0.99
   4  -3  -4    3.05    0.93
  -4   3   4    3.56    1.32
  -4   3   4    4.00    1.01
  -4   3   4    5.51    2.70
   3  -3  -4    7.39    1.23
   3  -3  -4    5.84    1.12
  -3   3   4    6.59    1.03
  -3   3   4    5.65    1.33
  -3   3   4    6.75    2.52
   2  -3  -4  165.18    5.69
   2  -3  -4  163.21    5.97
  -2   3   4  165.28    5.39
  -2   3   4  157.71    6.21
  -2   3   4  162.84    9.64
   1  -3  -4   68.35    2.70
   1  -3  -4   68.30    3.22
   1  -3  -4   69.91    3.09
  -1   3   4   72.30    3.39
  -1   3   4   73.45    5.20
   0  -3  -4    8.07    1.03
   0  -3  -4    7.21    1.08
   0  -3  -4    9.34    1.23
   0   3   4    7.79    1.20
   0   3   4    8.39    2.00
  -1  -3  -4    1.36    0.56
  -1  -3  -4    1.47    0.56
  -1  -3  -4    2.21    0.66
   1   3   4    2.17    0.68
   1   3   4    1.90    1.26
  -2  -3  -4    2.28    0.69
  -2  -3  -4    2.41    1.08
  -2  -3  -4    3.61    0.86
   2   3   4    3.31    1.28
   2   3   4    3.67    0.73
  -3  -3  -4   47.37    2.39
  -3  -3  -4   52.92    3.56
  -3  -3  -4   50.09    2.59
   3   3   4   34.52    3.31
   3   3   4   47.54    2.16
  -4  -3  -4    8.12    1.29
  -4  -3  -4   11.34    2.30
  -4  -3  -4    8.43    1.43
  -5  -3  -4    2.92    0.97
  -5  -3  -4    0.91    1.50
  -5  -3  -4    0.14    0.60
  -6  -3  -4    1.68    1.67
  -7  -3  -4    3.93    2.17
   7  -4  -4    0.99    0.90
   7  -4  -4    1.23    1.06
  -7   4   4    0.58    1.21
  -7   4   4    1.21    2.16
   6  -4  -4   -0.05    0.79
   6  -4  -4    0.69    0.79
  -6   4   4    1.67    2.16
  -6   4   4    0.37    0.93
   5  -4  -4   20.82    2.57
   5  -4  -4   30.71    2.55
  -5   4   4   28.68    5.14
  -5   4   4   29.04    3.28
   4  -4  -4   20.07    2.35
   4  -4  -4   18.85    2.27
  -4   4   4   18.45    2.44
  -4   4   4   24.04    4.53
  -4   4   4   19.82    1.84
   3  -4  -4   15.06    1.76
   3  -4  -4   13.07    1.82
  -3   4   4   13.78    1.58
  -3   4   4   13.75    2.10
  -3   4   4   15.93    3.46
   2  -4  -4   -0.27    0.36
   2  -4  -4    0.28    0.49
  -2   4   4    0.17    0.69
  -2   4   4    0.26    0.50
  -2   4   4    0.73    1.45
   1  -4  -4   19.28    1.61
   1  -4  -4   19.18    1.67
   1  -4  -4   18.91    1.38
  -1   4   4   27.36    4.08
  -1   4   4   18.10    2.01
   0  -4  -4   91.07    3.78
   0  -4  -4   86.11    3.66
   0  -4  -4   81.76    3.53
   0   4   4   86.59    3.91
   0   4   4   84.76    6.33
  -1  -4  -4   20.23    1.53
  -1  -4  -4   20.60    1.62
   1   4   4   21.15    2.82
   1   4   4   19.40    1.65
  -2  -4  -4    0.87    0.53
  -2  -4  -4    0.48    0.79
  -2  -4  -4    1.31    0.61
   2   4   4    1.49    0.68
   2   4   4    1.98    1.30
  -3  -4  -4   -0.35    0.47
  -3  -4  -4    0.38    0.59
  -3  -4  -4    0.12    1.04
   3   4   4   -0.69    1.25
   3   4   4   -0.02    0.54
  -4  -4  -4    1.45    0.77
  -4  -4  -4    2.23    0.92
  -4  -4  -4    4.18    1.95
  -5  -4  -4   -0.13    1.38
  -6  -4  -4    2.98    2.01
  -7  -4  -4   -1.05    1.39
   7  -5  -4    2.36    1.26
   7  -5  -4    1.20    1.07
  -7   5   4    0.24    1.19
  -7   5   4    0.58    1.96
   6  -5  -4    8.98    1.95
   6  -5  -4   13.16    2.37
  -6   5   4    6.63    2.84
  -6   5   4    3.34    1.41
   5  -5  -4    7.15    1.57
   5  -5  -4    5.91    1.52
  -5   5   4    6.40    2.95
  -5   5   4    5.54    1.60
   4  -5  -4   12.59    1.87
   4  -5  -4   11.16    1.89
  -4   5   4   14.67    2.05
  -4   5   4   12.44    3.52
  -4   5   4    9.54    1.85
   3  -5  -4    7.36    1.48
   3  -5  -4    6.33    1.30
  -3   5   4    6.64    1.63
  -3   5   4   12.41    3.42
  -3   5   4    9.61    1.53
   2  -5  -4   16.57    1.97
   2  -5  -4   13.89    1.84
  -2   5   4   16.32    3.65
  -2   5   4   15.90    1.87
  -2   5   4   14.94    2.20
   1  -5  -4   31.41    2.30
   1  -5  -4   32.00    2.09
   1  -5  -4   32.98    2.23
  -1   5   4   29.87    2.46
   0  -5  -4   23.10    1.81
   0  -5  -4   19.44    1.95
   0  -5  -4   24.21    1.89
   0   5   4   22.06    2.41
  -1  -5  -4    3.65    0.88
  -1  -5  -4    5.97    1.20
  -1  -5  -4    3.32    0.87
   1   5   4    6.75    1.34
   1   5   4    5.06    2.03
  -2  -5  -4    4.57    1.40
  -2  -5  -4    7.48    1.28
  -2  -5  -4    6.20    1.13
   2   5   4    5.32    1.94
   2   5   4    7.36    1.33
  -3  -5  -4   53.94    2.80
  -3  -5  -4   53.20    3.86
  -3  -5  -4   46.65    2.82
   3   5   4   51.48    3.00
  -4  -5  -4   11.28    2.70
  -5  -5  -4   -1.20    1.25
  -6  -5  -4    0.84    1.40
  -7  -5  -4    1.61    1.82
   6  -6  -4    0.46    0.85
   6  -6  -4    0.66    0.98
  -6   6   4   -1.20    1.72
  -6   6   4   -0.67    0.91
   5  -6  -4   11.97    2.25
   5  -6  -4   16.17    2.58
  -5   6   4   15.18    2.55
  -5   6   4   15.96    4.19
   4  -6  -4   23.79    2.86
   4  -6  -4   13.29    2.09
  -4   6   4   15.24    2.39
  -4   6   4   15.56    3.98
   3  -6  -4    3.78    1.09
   3  -6  -4    5.64    1.44
  -3   6   4   -0.25    1.98
  -3   6   4    6.92    1.53
  -3   6   4    3.59    1.19
   2  -6  -4   -0.32    0.52
   2  -6  -4   -0.47    0.59
  -2   6   4    0.34    0.75
  -2   6   4   -0.17    2.07
  -2   6   4    0.34    0.91
   1  -6  -4    4.57    1.15
   1  -6  -4    3.46    1.10
   1  -6  -4    3.64    1.02
  -1   6   4   -0.08    2.00
  -1   6   4    3.98    1.31
   0  -6  -4   56.04    3.05
   0  -6  -4   57.45    3.23
   0   6   4   63.66    3.72
   0   6   4   53.07    5.89
  -1  -6  -4   15.19    2.17
  -1  -6  -4   14.60    1.72
  -1  -6  -4   13.32    1.64
   1   6   4    9.72    2.66
   1   6   4   14.87    2.11
  -2  -6  -4    2.42    0.88
  -2  -6  -4    0.77    0.72
  -2  -6  -4    4.20    1.36
   2   6   4    0.85    0.84
   2   6   4   -0.42    1.78
  -3  -6  -4    4.30    1.08
  -3  -6  -4    4.79    1.20
  -3  -6  -4    4.63    1.67
   3   6   4    3.61    1.24
   3   6   4    1.42    2.05
  -4  -6  -4   18.70    3.20
  -5  -6  -4    5.88    2.39
  -6  -6  -4   -1.60    1.30
   6  -7  -4    1.14    1.09
   6  -7  -4    1.26    1.21
  -6   7   4    0.24    1.10
  -6   7   4   -0.40    2.23
   5  -7  -4    5.10    1.39
   5  -7  -4    5.38    1.63
  -5   7   4   -0.63    2.00
  -5   7   4    3.08    1.42
   4  -7  -4   -0.25    0.61
   4  -7  -4    0.72    0.90
  -4   7   4   -0.18    2.32
  -4   7   4   -0.85    0.78
   3  -7  -4    8.17    1.67
   3  -7  -4    8.96    1.81
  -3   7   4    6.49    1.77
  -3   7   4    9.34    1.86
  -3   7   4    0.81    2.28
   2  -7  -4   16.15    2.31
   2  -7  -4   12.85    2.01
  -2   7   4   14.65    2.20
  -2   7   4   14.80    2.46
   1  -7  -4    7.28    1.53
   1  -7  -4    8.09    1.64
   1  -7  -4    6.12    1.43
  -1   7   4    6.77    1.61
  -1   7   4    3.85    2.95
   0  -7  -4    1.35    0.87
   0  -7  -4    1.92    0.85
   0  -7  -4    1.86    0.86
   0   7   4    0.05    2.20
   0   7   4    1.15    1.01
  -1  -7  -4    5.20    1.40
  -1  -7  -4    5.32    1.19
  -1  -7  -4    3.89    1.01
   1   7   4    1.43    1.90
   1   7   4    3.90    1.31
  -2  -7  -4    8.33    1.79
  -2  -7  -4    4.53    1.10
  -2  -7  -4    5.27    1.18
   2   7   4    3.09    2.01
   2   7   4    4.81    1.45
  -3  -7  -4   15.94    2.80
   3   7   4   16.32    2.36
  -4  -7  -4    0.82    1.33
  -5  -7  -4   -0.02    1.46
   5  -8  -4    4.77    1.64
   5  -8  -4    1.91    1.14
  -5   8   4   -0.65    2.38
  -5   8   4    1.10    1.17
   4  -8  -4   10.37    2.11
   4  -8  -4    6.74    1.77
  -4   8   4    6.99    1.86
   3  -8  -4   10.83    2.13
   3  -8  -4   11.85    2.12
  -3   8   4   14.55    2.63
   2  -8  -4    0.15    0.70
   2  -8  -4    0.66    0.81
  -2   8   4    0.03    0.78
  -2   8   4   -2.13    1.84
   1  -8  -4    2.39    1.13
   1  -8  -4    0.73    0.62
   1  -8  -4    1.80    0.97
  -1   8   4    1.54    1.29
  -1   8   4    1.96    2.66
   0  -8  -4    9.26    1.55
   0  -8  -4    9.05    1.85
   0  -8  -4    8.17    1.57
   0   8   4    7.05    1.77
   0   8   4    2.11    2.52
  -1  -8  -4    6.11    1.37
  -1  -8  -4    5.41    1.57
  -1  -8  -4    3.07    0.97
   1   8   4    1.69    2.38
   1   8   4    5.20    1.48
  -2  -8  -4    1.89    1.03
   2   8   4   -0.34    0.87
   2   8   4    0.06    1.86
  -3  -8  -4   -0.31    0.91
   3   8   4    0.20    2.04
   3   8   4    1.51    1.12
  -4  -8  -4    0.36    1.30
  -5  -8  -4    3.72    2.11
   4  -9  -4    0.54    0.91
   4  -9  -4    0.44    0.97
  -4   9   4   -1.45    2.18
  -4   9   4   -0.20    1.02
   3  -9  -4    1.33    1.04
   3  -9  -4    3.04    1.43
  -3   9   4    0.49    2.44
  -3   9   4    2.38    1.39
   2  -9  -4    1.29    1.06
   2  -9  -4    2.16    1.07
   2  -9  -4    4.49    1.55
  -2   9   4    3.43    1.52
  -2   9   4    1.76    2.75
   1  -9  -4    0.61    0.80
   1  -9  -4    0.60    0.90
   1  -9  -4   -0.46    0.68
  -1   9   4    0.94    1.22
  -1   9   4   -0.31    2.48
   0  -9  -4    0.87    0.78
   0  -9  -4    0.03    0.78
   0  -9  -4    0.65    0.92
   0   9   4    0.90    2.35
   0   9   4   -0.40    0.81
  -1  -9  -4    0.80    1.00
   1   9   4   -0.54    2.38
   1   9   4    0.03    1.13
  -2  -9  -4    5.23    1.61
   2   9   4    0.51    1.98
   2   9   4    3.99    1.55
  -3  -9  -4    4.23    1.74
   3   9   4    0.99    2.54
  -4  -9  -4    1.95    1.61
   3 -10  -4    2.09    1.24
   3 -10  -4    3.54    1.46
  -3  10   4    1.32    2.84
  -3  10   4    1.46    1.29
   2 -10  -4   -0.20    0.78
   2 -10  -4    0.39    0.94
  -2  10   4   -1.68    1.09
  -2  10   4   -1.23    2.57
   1 -10  -4    1.23    1.18
   1 -10  -4    0.02    0.70
   1 -10  -4   -0.18    0.90
  -1  10   4   -0.17    2.61
  -1  10   4    0.13    1.09
   0 -10  -4    2.29    1.36
   0  10   4    2.24    1.53
   0  10   4   -1.34    2.24
  -1 -10  -4    4.21    1.67
   1  10   4    2.59    3.11
   1  10   4    3.18    1.57
  -2 -10  -4    2.17    1.13
   2  10   4    0.98    2.61
   2  10   4   -0.83    0.90
   2  10  -5   -0.83    2.38
   2  10  -5    0.89    1.24
  -2 -10   5    0.26    1.10
   1  10  -5   -0.07    2.56
   1  10  -5    1.31    1.36
  -1 -10   5    3.40    1.59
   0  10  -5    1.48    2.63
   0  10  -5    0.74    1.24
   0  10  -5   -0.68    1.13
  -1  10  -5    0.52    1.19
  -1  10  -5    0.67    1.37
  -1  10  -5   -0.29    2.01
  -2  10  -5    6.64    3.33
  -2  10  -5    6.17    2.03
  -2  10  -5    7.01    2.35
  -3  10  -5    0.46    1.40
  -3  10  -5    1.82    1.49
   3 -10   5    1.28    1.05
   3 -10   5    1.12    0.96
   4   9  -5   -1.85    2.22
   4   9  -5    2.93    1.69
  -4  -9   5    2.78    1.54
   3   9  -5    2.45    1.49
   3   9  -5    0.86    2.69
  -3  -9   5    0.35    0.76
   2   9  -5   -0.10    2.22
   2   9  -5   -0.71    0.87
  -2  -9   5    0.39    0.98
   1   9  -5    0.16    2.42
   1   9  -5    1.81    1.23
  -1  -9   5    0.68    0.88
   0   9  -5    0.48    0.97
   0   9  -5    0.83    2.17
   0   9  -5    0.84    1.12
  -1   9  -5    1.48    1.28
  -1   9  -5    0.86    1.03
  -1   9  -5    0.83    2.24
  -2   9  -5    3.82    1.75
  -2   9  -5    2.63    2.30
  -2   9  -5    1.52    1.30
   2  -9   5    2.03    0.97
   2  -9   5    3.98    1.20
  -3   9  -5    0.96    2.05
  -3   9  -5    1.98    1.34
  -3   9  -5    0.12    0.95
   3  -9   5   -0.33    0.69
   3  -9   5    1.23    0.95
  -4   9  -5    1.39    2.01
  -4   9  -5    1.18    1.34
  -4   9  -5    4.16    1.80
   4  -9   5    2.21    1.15
   4  -9   5    3.22    1.27
   5   8  -5    0.32    2.21
   5   8  -5    0.15    1.35
  -5  -8   5    1.12    1.06
   4   8  -5   -0.78    1.05
   4   8  -5   -1.64    2.19
  -4  -8   5    0.30    0.87
   3   8  -5    2.15    1.31
   3   8  -5    3.01    2.53
  -3  -8   5    2.10    1.26
   2   8  -5    2.08    1.21
   2   8  -5   -0.54    1.82
  -2  -8   5    4.57    1.56
   1   8  -5    6.13    1.72
   1   8  -5    2.02    2.56
   0   8  -5    2.69    2.39
   0   8  -5    2.92    1.29
   0   8  -5    5.81    1.83
  -1   8  -5   -0.84    1.87
  -1   8  -5    1.63    1.17
  -1   8  -5    0.09    0.88
   1  -8   5    0.66    0.59
   1  -8   5    0.36    0.53
  -2   8  -5   13.77    2.59
  -2   8  -5   11.28    2.43
  -2   8  -5    7.74    3.10
   2  -8   5   12.78    1.91
   2  -8   5   11.17    1.74
  -3   8  -5    8.33    2.29
  -3   8  -5    9.23    2.14
  -3   8  -5    6.24    2.81
   3  -8   5    8.49    1.68
   3  -8   5   10.98    1.91
  -4   8  -5    8.52    2.09
  -4   8  -5    6.42    2.03
  -4   8  -5    3.42    2.11
   4  -8   5   13.38    2.28
   4  -8   5    7.58    1.68
  -5   8  -5   -0.39    1.10
   5  -8   5    0.64    0.90
   5  -8   5   -0.22    0.69
   6   7  -5    0.25    1.34
  -6  -7   5    2.46    1.62
   5   7  -5    5.54    1.91
   5   7  -5    7.79    3.45
  -5  -7   5    1.72    1.34
   4   7  -5    3.47    1.57
   4   7  -5    9.57    3.55
  -4  -7   5    5.86    1.67
   3   7  -5   -0.67    2.00
   3   7  -5    2.63    1.27
  -3  -7   5    2.67    1.16
   2   7  -5    3.92    1.39
   2   7  -5    0.92    2.21
  -2  -7   5    9.80    2.03
   1   7  -5    2.21    2.23
   1   7  -5    5.06    1.64
   1   7  -5    6.79    1.84
   0   7  -5    9.89    2.03
   0   7  -5   11.00    3.52
   0   7  -5   10.23    2.01
   0  -7   5   12.20    1.50
  -1   7  -5    6.04    1.63
  -1   7  -5    6.32    1.73
  -1   7  -5    9.26    3.30
   1  -7   5    8.42    1.40
  -2   7  -5    0.40    0.86
  -2   7  -5   -1.76    1.61
  -2   7  -5    0.03    0.84
   2  -7   5    0.36    0.57
  -3   7  -5    3.73    1.43
  -3   7  -5    8.96    1.99
  -3   7  -5    6.99    2.73
   3  -7   5    8.17    1.55
   3  -7   5    6.97    1.53
  -4   7  -5    5.94    2.50
  -4   7  -5    6.34    1.90
  -4   7  -5    6.40    1.75
   4  -7   5   12.07    2.01
   4  -7   5    9.99    1.99
  -5   7  -5    3.01    1.55
   5  -7   5    3.57    1.35
   5  -7   5    8.01    1.80
  -6   7  -5    0.68    1.27
   6  -7   5    6.19    1.73
   6  -7   5    3.84    1.43
   6   6  -5    3.51    1.86
   6   6  -5    7.37    3.02
  -6  -6   5    4.93    1.97
   5   6  -5    4.91    2.82
   5   6  -5    0.39    1.16
  -5  -6   5    2.58    1.35
   4   6  -5    0.53    1.00
   4   6  -5    1.38    1.93
  -4  -6   5   -0.61    0.85
   3   6  -5   -0.21    2.23
   3   6  -5    7.88    1.86
  -3  -6   5    6.60    1.67
   2   6  -5   11.87    2.13
  -2  -6   5   12.46    2.10
   1   6  -5   20.15    3.91
   1   6  -5   34.17    2.86
   1   6  -5   34.32    2.87
   0   6  -5    0.68    0.94
   0   6  -5    0.40    0.53
   0   6  -5    1.17    0.93
   0   6  -5    0.54    2.00
   0  -6   5    0.69    0.49
  -1   6  -5   -0.08    1.78
  -1   6  -5    1.07    0.96
  -1   6  -5    1.50    0.77
  -1   6  -5   -0.04    0.78
   1  -6   5    1.15    0.56
  -2   6  -5   29.58    2.35
  -2   6  -5   35.92    3.84
  -2   6  -5   28.62    2.63
  -2   6  -5   31.64    4.40
   2  -6   5   29.11    2.17
  -3   6  -5   20.12    2.47
  -3   6  -5   15.50    2.28
  -3   6  -5   15.03    2.60
   3  -6   5   15.84    2.11
  -4   6  -5   10.63    1.98
  -4   6  -5    6.52    1.76
  -4   6  -5    4.95    2.20
  -4   6  -5   11.14    2.01
   4  -6   5    9.48    1.73
  -5   6  -5    3.38    1.48
   5  -6   5    2.58    1.18
  -6   6  -5   -0.67    0.94
   6  -6   5   -0.16    0.82
   6  -6   5   -0.35    0.61
  -7  -5   5   -0.38    1.60
   6   5  -5    1.49    2.08
   6   5  -5   -0.19    1.12
  -6  -5   5    0.28    1.35
   5   5  -5    4.63    1.75
   5   5  -5    6.76    2.76
  -5  -5   5    6.40    1.78
   4   5  -5   18.58    2.79
  -4  -5   5   15.39    2.50
   3   5  -5    0.62    0.92
   3   5  -5    0.02    1.64
  -3  -5   5   -0.21    0.65
   2   5  -5    1.28    1.01
   2   5  -5    0.26    1.62
  -2  -5   5    0.32    0.68
   1   5  -5   23.15    2.61
   1   5  -5   19.51    1.30
   1   5  -5   18.98    1.32
   1   5  -5   21.24    2.55
   0   5  -5   45.56    3.11
   0   5  -5   48.59    2.37
   0   5  -5   43.34    2.95
   0   5  -5   43.32    2.33
   0   5  -5   47.58    5.06
  -1   5  -5   12.69    1.62
  -1   5  -5   15.39    2.26
  -1   5  -5   15.06    1.71
  -1   5  -5   11.03    1.72
  -1   5  -5   16.21    3.53
  -2   5  -5    1.44    0.93
  -2   5  -5    0.02    0.58
  -2   5  -5    0.17    0.43
  -2   5  -5   -0.02    0.47
  -2   5  -5   -0.32    0.85
  -3   5  -5    0.21    0.75
  -3   5  -5    0.37    0.69
  -3   5  -5   -0.15    0.76
  -3   5  -5   -0.08    1.44
  -3   5  -5    0.10    0.60
  -4   5  -5   17.02    2.28
  -4   5  -5   16.99    2.31
  -4   5  -5   18.36    2.84
   4  -5   5   17.97    2.32
  -5   5  -5   11.65    2.47
  -5   5  -5    8.67    1.75
   5  -5   5    9.72    1.79
  -6   5  -5    2.27    1.29
  -6   5  -5   -0.31    0.98
   6  -5   5    1.84    1.07
  -7   5  -5    0.36    1.02
   7  -5   5    0.34    0.92
   7  -5   5    1.58    1.08
   7   4  -5    0.36    2.37
  -7  -4   5    0.30    1.55
  -7  -4   5    3.36    1.69
   6   4  -5   12.74    3.66
   6   4  -5   14.17    2.75
  -6  -4   5    6.27    2.06
   5   4  -5    6.39    1.87
   5   4  -5   10.84    3.25
  -5  -4   5    8.68    2.07
   4   4  -5    1.89    1.24
   4   4  -5   -0.50    1.70
  -4  -4   5    0.18    0.76
   3   4  -5   40.25    3.11
  -3  -4   5   40.86    2.84
   2   4  -5   19.15    1.10
   2   4  -5   21.11    2.43
  -2  -4   5   21.06    1.86
   1   4  -5   34.35    2.47
   1   4  -5   33.78    1.72
   1   4  -5   32.31    2.39
   1   4  -5   34.49    1.70
   0   4  -5    1.42    0.53
   0   4  -5    1.26    1.54
   0   4  -5    0.56    0.47
   0   4  -5   -0.46    0.47
   0   4  -5    2.50    0.93
  -1   4  -5    0.61    0.46
  -1   4  -5   -0.28    0.55
  -1   4  -5    0.59    0.57
  -1   4  -5    1.59    1.54
  -1   4  -5    0.59    0.54
  -2   4  -5   28.08    2.40
  -2   4  -5   26.81    2.08
  -2   4  -5   26.68    2.08
  -2   4  -5   27.23    2.04
  -2   4  -5   30.39    3.34
  -3   4  -5   16.47    1.91
  -3   4  -5   23.94    2.93
  -3   4  -5   21.19    2.27
  -3   4  -5   19.98    3.30
  -3   4  -5   20.62    1.76
  -4   4  -5   18.08    2.22
  -4   4  -5   20.36    2.35
  -4   4  -5   25.17    3.17
  -5   4  -5    9.67    2.20
  -5   4  -5    9.08    1.72
  -6   4  -5    1.90    1.37
  -6   4  -5    0.57    1.00
   6  -4   5    1.43    0.95
  -7   4  -5    4.92    1.79
   7  -4   5    6.70    1.65
  -7  -3   5    0.63    1.02
   6   3  -5   10.89    3.61
  -6  -3   5    3.24    1.72
  -6  -3   5    4.29    1.69
   5   3  -5    5.39    1.79
   5   3  -5    4.06    2.40
  -5  -3   5    4.16    1.64
   4   3  -5   38.42    4.45
   4   3  -5   24.06    2.96
  -4  -3   5   28.38    2.59
   3   3  -5    0.32    0.86
   3   3  -5    0.70    1.50
   3   3  -5   -0.10    0.34
  -3  -3   5   -0.11    0.52
   2   3  -5   15.95    1.03
   2   3  -5   22.49    3.69
   2   3  -5   15.19    1.06
   2   3  -5   15.66    1.94
  -2  -3   5   16.97    1.50
   1   3  -5   61.15    2.42
   1   3  -5   55.44    3.11
   1   3  -5   63.62    2.58
   0   3  -5   93.07    3.56
   0   3  -5   78.71    6.16
   0   3  -5   93.31    4.02
   0   3  -5   96.75    4.05
   0   3  -5   95.84    3.45
  -1   3  -5   79.69    5.35
  -1   3  -5   66.86    3.50
  -1   3  -5   66.17    3.11
  -1   3  -5   72.94    3.25
  -1   3  -5   72.63    3.08
  -2   3  -5    1.76    0.68
  -2   3  -5    1.50    0.67
  -2   3  -5    1.43    0.60
  -2   3  -5    3.05    1.36
  -2   3  -5    2.99    1.00
  -3   3  -5   -0.67    0.93
  -3   3  -5   -0.03    0.55
  -3   3  -5    0.34    0.50
  -3   3  -5    0.13    0.55
  -3   3  -5   -0.53    0.59
  -4   3  -5   26.57    2.74
  -4   3  -5   30.06    3.38
  -4   3  -5   27.31    2.26
  -5   3  -5   30.78    2.59
  -5   3  -5   29.23    3.46
  -5   3  -5   28.58    2.54
  -6   3  -5    1.18    1.13
  -6   3  -5    2.94    1.27
  -7   3  -5    0.06    0.90
  -7   3  -5   -0.85    1.02
   7  -3   5    0.39    0.76
  -7  -2   5   10.43    2.44
  -7  -2   5    8.74    3.79
  -6  -2   5    4.63    1.76
  -6  -2   5    4.24    1.67
   5   2  -5    2.28    2.38
  -5  -2   5    1.29    1.23
  -5  -2   5    2.96    1.44
   4   2  -5    0.53    1.05
   4   2  -5   -0.65    1.58
   4   2  -5    0.31    0.43
  -4  -2   5   -0.53    0.81
   3   2  -5   51.79    4.90
   3   2  -5   56.48    2.28
   3   2  -5   53.84    2.34
   3   2  -5   56.86    3.58
  -3  -2   5   55.20    2.91
   2   2  -5    1.91    0.54
   2   2  -5    4.23    0.76
   2   2  -5    3.05    1.54
   2   2  -5    2.06    0.87
  -2  -2   5    3.47    0.74
   1   2  -5   32.03    1.67
   1   2  -5   34.62    1.78
   1   2  -5   34.41    2.24
   1   2  -5   34.57    1.93
   0   2  -5    7.63    1.02
   0   2  -5    7.60    1.09
   0   2  -5    6.24    0.89
   0   2  -5    6.34    1.04
   0   2  -5    4.81    1.39
  -1   2  -5   36.96    1.98
  -1   2  -5   31.45    2.05
  -1   2  -5   32.97    1.84
  -1   2  -5   33.30    3.08
  -1   2  -5   31.56    1.94
  -2   2  -5  179.18    6.18
  -2   2  -5  146.35    8.54
  -2   2  -5  171.96    5.56
  -2   2  -5  175.20    6.58
  -2   2  -5  173.49    5.85
  -2   2  -5  190.33    8.91
  -3   2  -5    6.14    1.41
  -3   2  -5   12.33    1.92
  -3   2  -5    6.69    0.83
  -3   2  -5   11.71    1.60
  -3   2  -5    8.89    1.40
  -4   2  -5   21.50    2.29
  -4   2  -5   28.87    3.19
  -4   2  -5   24.36    2.42
  -5   2  -5    7.67    1.99
  -5   2  -5    4.48    1.38
  -5   2  -5    2.42    1.00
  -6   2  -5   10.89    1.94
  -6   2  -5    6.96    2.00
  -6   2  -5    9.01    1.83
  -7   2  -5    7.55    2.29
  -7   2  -5    5.28    1.71
   7  -2   5    8.66    1.86
  -7  -1   5    1.22    1.21
  -7  -1   5   -0.29    2.02
  -6  -1   5    4.56    3.08
  -6  -1   5    5.03    1.70
  -6  -1   5    2.58    1.49
   5   1  -5    0.44    0.59
  -5  -1   5    0.54    1.13
  -5  -1   5    0.06    0.97
  -5  -1   5    1.06    2.04
   4   1  -5   45.25    4.88
   4   1  -5   41.05    2.29
   4   1  -5   43.16    2.26
  -4  -1   5   43.13    3.38
  -4  -1   5   35.71    2.62
   3   1  -5   14.59    1.23
   3   1  -5   15.55    1.24
   3   1  -5   24.20    3.96
  -3  -1   5   16.74    1.74
  -3  -1   5   11.11    1.91
   2   1  -5    0.16    0.32
   2   1  -5   -0.04    0.70
   2   1  -5   -0.41    1.07
   2   1  -5   -0.12    0.27
  -2  -1   5    0.27    0.33
  -1   1  -5  170.58    5.56
  -1   1  -5  167.34    8.45
  -1   1  -5  175.06    5.86
  -1   1  -5  177.58    5.64
  -2   1  -5    1.16    0.62
  -2   1  -5    2.15    0.71
  -2   1  -5    2.15    0.48
  -2   1  -5    2.01    0.84
  -3   1  -5   10.12    1.43
  -3   1  -5    6.87    1.20
  -3   1  -5    5.22    1.26
  -4   1  -5   11.89    2.10
  -4   1  -5   13.58    1.79
  -4   1  -5   12.22    1.69
  -5   1  -5   26.54    2.76
  -5   1  -5   35.62    3.24
  -5   1  -5   30.01    2.57
  -6   1  -5    2.48    1.53
  -6   1  -5    6.18    1.52
  -6   1  -5    5.27    1.34
  -7   1  -5   -0.14    0.97
  -7   1  -5   -0.21    0.97
  -8   0   5    0.91    1.39
  -7   0   5   10.90    2.53
  -7   0   5    9.88    4.00
  -6   0   5   14.53    2.70
  -6   0   5   24.13    5.76
   5   0  -5    0.22    0.52
   5   0  -5    1.01    0.68
  -5   0   5   -0.01    2.03
  -5   0   5    0.68    1.07
  -5   0   5    0.77    1.13
   4   0  -5   -0.35    0.35
   4   0  -5    0.03    0.45
  -4   0   5   -0.28    0.67
  -4   0   5    0.52    0.95
  -4   0   5   -0.78    1.54
   3   0  -5   31.45    1.95
   3   0  -5   28.87    1.81
  -3   0   5   29.23    2.57
  -3   0   5   30.78    4.90
  -3   0   5   29.53    1.82
   2   0  -5   31.04    1.80
  -2   0   5   37.26    2.62
  -2   0   5   35.82    1.56
   1   0  -5   14.32    1.18
   1   0  -5   12.91    1.38
  -1   0   5   12.60    1.70
   0   0  -5    5.99    0.73
   0   0  -5    5.26    0.96
   0   0  -5    5.72    0.96
   0   0   5    5.80    1.05
  -1   0  -5    0.78    0.47
  -1   0  -5    0.46    0.40
  -1   0  -5    0.79    0.50
   1   0   5    0.05    0.38
  -2   0  -5   72.70    3.33
  -2   0  -5   73.26    3.16
  -2   0  -5   68.88    3.50
  -3   0  -5    9.18    1.39
  -3   0  -5    9.24    1.62
  -3   0  -5    9.52    1.40
  -4   0  -5   35.70    2.50
  -4   0  -5   41.19    3.23
  -4   0  -5   37.26    2.46
  -5   0  -5    0.61    1.21
  -5   0  -5    0.44    0.80
  -5   0  -5    0.23    0.70
  -6   0  -5    8.02    2.18
  -6   0  -5    6.59    1.48
  -6   0  -5    7.12    1.62
  -7   0  -5   14.44    2.26
  -7   0  -5   13.90    2.25
  -7   0  -5   17.81    3.35
  -7   1   5   -0.45    2.05
  -7   1   5   -0.95    0.96
   6  -1  -5   10.14    1.63
   6  -1  -5   17.46    2.22
  -6   1   5    9.25    2.22
  -6   1   5   19.95    5.13
  -5   1   5   14.07    2.53
  -5   1   5   16.17    4.69
   4  -1  -5   13.46    1.76
   4  -1  -5   14.71    1.76
  -4   1   5   13.60    2.19
  -4   1   5   16.85    4.15
  -4   1   5   13.95    1.65
   3  -1  -5   10.09    1.39
   3  -1  -5   11.38    1.40
  -3   1   5   13.01    3.43
  -3   1   5    7.88    1.55
  -3   1   5   11.06    0.99
   2  -1  -5    1.83    0.66
   2  -1  -5    1.33    0.54
  -2   1   5    0.84    0.73
  -2   1   5    1.41    1.49
   1  -1  -5  102.29    3.96
   1  -1  -5  100.81    3.74
  -1   1   5   99.26    4.27
  -1   1   5   96.89    6.56
   0  -1  -5    1.40    0.57
   0  -1  -5    2.20    0.49
   0  -1  -5    0.97    0.51
   0   1   5    1.35    0.67
   0   1   5    2.59    1.30
  -1  -1  -5   50.99    2.48
  -1  -1  -5   49.84    2.42
  -1  -1  -5   48.64    2.56
   1   1   5   49.35    2.12
  -2  -1  -5    1.29    0.59
  -2  -1  -5    2.38    0.74
  -2  -1  -5    2.13    0.88
   2   1   5    1.99    0.34
  -3  -1  -5   18.85    1.98
  -3  -1  -5   15.92    2.14
  -3  -1  -5   15.05    1.72
  -4  -1  -5   33.41    3.57
  -4  -1  -5   27.44    2.19
  -4  -1  -5   25.30    2.00
  -5  -1  -5    4.85    1.19
  -5  -1  -5    6.58    1.42
  -5  -1  -5    5.66    1.94
  -6  -1  -5    3.88    1.17
  -6  -1  -5    5.25    1.37
  -6  -1  -5    3.06    1.65
  -7  -1  -5    1.99    1.54
  -7  -1  -5   -0.56    0.78
  -7  -1  -5    0.10    0.78
   7  -2  -5    5.20    1.50
   7  -2  -5    5.00    1.54
  -7   2   5    2.23    1.42
  -7   2   5    4.73    3.00
   6  -2  -5    7.77    1.49
   6  -2  -5    8.27    1.60
  -6   2   5    5.70    1.79
  -6   2   5   16.99    4.64
   5  -2  -5    2.29    0.84
   5  -2  -5    2.47    0.95
  -5   2   5    3.13    2.74
  -5   2   5   -0.06    1.08
   4  -2  -5    6.46    1.26
   4  -2  -5    6.17    1.20
  -4   2   5    8.68    1.88
  -4   2   5    8.99    1.26
  -4   2   5   11.48    3.62
   3  -2  -5    9.20    1.34
   3  -2  -5    5.97    1.13
  -3   2   5    9.53    1.67
  -3   2   5   10.17    2.88
  -3   2   5    9.66    0.99
   2  -2  -5   26.03    1.89
   2  -2  -5   25.11    1.80
  -2   2   5   23.28    2.12
  -2   2   5   25.19    3.33
  -2   2   5   23.80    1.02
   1  -2  -5    5.57    0.50
   1  -2  -5    4.37    0.83
   1  -2  -5    6.66    1.10
  -1   2   5    7.73    1.32
  -1   2   5    7.51    2.24
   0  -2  -5    0.72    0.47
   0  -2  -5    0.65    0.49
   0  -2  -5    1.89    0.59
   0   2   5    1.80    0.68
   0   2   5    1.55    1.26
  -1  -2  -5    5.65    1.06
  -1  -2  -5    6.16    1.10
  -1  -2  -5    4.87    1.07
   1   2   5    6.12    1.47
   1   2   5    5.33    0.87
  -2  -2  -5   47.87    2.49
  -2  -2  -5   41.14    2.49
  -2  -2  -5   44.20    2.83
   2   2   5   42.01    1.84
  -3  -2  -5   21.65    2.62
  -3  -2  -5   20.26    1.79
  -3  -2  -5   21.32    1.69
  -4  -2  -5    0.16    0.63
  -4  -2  -5    0.55    0.64
  -4  -2  -5   -0.26    1.06
  -5  -2  -5    7.09    2.18
  -5  -2  -5    5.87    1.32
  -5  -2  -5    7.23    1.42
  -6  -2  -5    2.89    1.09
  -6  -2  -5    3.99    1.24
  -6  -2  -5    2.25    1.46
  -7  -2  -5   11.65    2.97
   7  -3  -5   -0.10    0.78
   7  -3  -5    0.23    0.93
  -7   3   5   -1.89    1.83
  -7   3   5    0.79    1.20
   6  -3  -5    3.81    1.23
   6  -3  -5    2.91    1.18
  -6   3   5    3.55    2.68
  -6   3   5    2.95    1.47
   5  -3  -5   18.60    2.43
   5  -3  -5   20.08    2.35
  -5   3   5   14.80    2.46
  -5   3   5   18.33    4.39
   4  -3  -5    9.57    1.56
   4  -3  -5   16.05    2.01
  -4   3   5   14.77    2.23
  -4   3   5   12.44    3.49
   3  -3  -5    0.36    0.54
   3  -3  -5    0.28    0.52
  -3   3   5   -0.04    0.77
  -3   3   5    0.50    0.46
  -3   3   5    0.32    1.65
   2  -3  -5    3.64    0.97
   2  -3  -5    1.70    0.66
  -2   3   5    7.44    2.54
  -2   3   5    5.63    1.30
  -2   3   5    4.16    0.68
   1  -3  -5   94.00    4.09
   1  -3  -5   94.10    3.34
   1  -3  -5   97.72    3.95
  -1   3   5   95.07    4.21
  -1   3   5   92.50    6.50
   0  -3  -5   53.90    2.50
   0  -3  -5   50.56    2.60
   0  -3  -5   51.00    2.72
   0   3   5   50.14    4.17
   0   3   5   54.15    2.77
  -1  -3  -5   37.53    2.24
  -1  -3  -5   36.96    2.34
  -1  -3  -5   35.57    2.37
   1   3   5   43.13    3.63
   1   3   5   35.92    2.09
  -2  -3  -5    0.82    0.60
  -2  -3  -5    0.11    0.80
  -2  -3  -5    0.06    0.47
   2   3   5    0.57    0.45
   2   3   5    0.44    0.94
  -3  -3  -5    4.35    1.62
  -3  -3  -5    5.94    1.11
  -3  -3  -5    7.98    1.31
  -4  -3  -5   15.41    1.98
  -4  -3  -5   14.09    1.84
  -4  -3  -5   14.27    2.71
  -5  -3  -5    0.59    0.77
  -5  -3  -5    1.03    1.40
  -5  -3  -5    0.68    0.70
  -6  -3  -5    2.56    1.72
  -7  -3  -5    0.93    1.64
   7  -4  -5    3.75    1.40
   7  -4  -5    1.72    1.22
  -7   4   5    3.13    1.73
  -7   4   5    1.97    2.59
   6  -4  -5    9.05    1.89
   6  -4  -5    6.06    1.57
  -6   4   5    5.91    1.82
  -6   4   5    2.66    2.73
   5  -4  -5    0.20    0.73
   5  -4  -5    0.66    0.69
  -5   4   5    1.34    1.11
  -5   4   5   -0.04    2.19
   4  -4  -5   16.48    2.09
   4  -4  -5   16.37    2.17
  -4   4   5   15.09    2.39
  -4   4   5   17.45    4.25
   3  -4  -5   19.26    2.17
   3  -4  -5   16.94    2.20
  -3   4   5   20.56    1.60
  -3   4   5   21.67    2.59
  -3   4   5   23.40    4.39
   2  -4  -5   29.00    2.17
   2  -4  -5   29.77    2.30
  -2   4   5   27.74    2.42
  -2   4   5   31.00    4.70
  -2   4   5   26.88    1.71
   1  -4  -5   21.09    1.42
   1  -4  -5   22.26    1.81
   1  -4  -5   20.41    2.18
  -1   4   5   20.36    2.26
  -1   4   5   27.28    4.11
   0  -4  -5   14.02    1.29
   0  -4  -5   15.37    1.79
   0  -4  -5   13.64    1.68
   0   4   5   11.18    2.71
   0   4   5   18.83    2.11
  -1  -4  -5    7.52    1.36
  -1  -4  -5    9.87    1.45
  -1  -4  -5    8.01    1.35
   1   4   5   10.91    2.47
   1   4   5    8.16    1.31
  -2  -4  -5   15.79    2.26
  -2  -4  -5   15.11    1.86
  -2  -4  -5   12.36    1.61
   2   4   5   11.19    2.30
   2   4   5   13.32    1.55
  -3  -4  -5   12.82    2.41
  -3  -4  -5   10.61    1.56
  -3  -4  -5   11.94    1.66
  -4  -4  -5    0.75    0.71
  -4  -4  -5    0.44    0.62
  -4  -4  -5    0.86    1.44
  -5  -4  -5    3.13    1.78
  -5  -4  -5    9.98    1.69
  -5  -4  -5    4.05    1.04
  -6  -4  -5    4.96    2.19
  -7  -4  -5   -0.01    1.56
   7  -5  -5    1.61    1.21
   7  -5  -5    0.86    0.93
  -7   5   5    1.08    2.37
  -7   5   5   -1.07    0.96
   6  -5  -5    4.82    1.57
   6  -5  -5    4.46    1.52
  -6   5   5    4.24    1.55
  -6   5   5    3.06    2.65
   5  -5  -5    7.63    1.68
   5  -5  -5    7.15    1.64
  -5   5   5    3.76    2.60
  -5   5   5    8.07    1.93
   4  -5  -5    4.88    1.32
   4  -5  -5    4.87    1.35
  -4   5   5    7.71    1.84
  -4   5   5    5.56    2.92
   3  -5  -5    2.52    1.07
   3  -5  -5    2.14    0.89
  -3   5   5    1.11    2.10
  -3   5   5    2.17    1.15
   2  -5  -5    1.70    0.87
   2  -5  -5    0.53    0.62
  -2   5   5   -0.57    1.86
  -2   5   5    1.42    0.92
  -2   5   5    1.98    0.88
   1  -5  -5   61.85    3.24
   1  -5  -5   61.59    3.43
   1  -5  -5   58.48    2.94
  -1   5   5   56.07    3.50
   0  -5  -5   57.75    2.94
   0  -5  -5   52.77    3.01
   0   5   5   47.26    3.08
   0   5   5   39.56    4.85
  -1  -5  -5    5.93    1.19
  -1  -5  -5    8.11    1.35
  -1  -5  -5    6.67    1.38
   1   5   5    5.17    1.24
   1   5   5    4.83    2.06
  -2  -5  -5    0.23    0.63
  -2  -5  -5    0.48    0.60
  -2  -5  -5    0.11    0.94
   2   5   5   -0.49    1.40
   2   5   5    0.32    0.62
  -3  -5  -5   -0.53    0.57
  -3  -5  -5    0.29    0.65
  -3  -5  -5    0.32    1.21
  -4  -5  -5    5.51    1.26
  -4  -5  -5    3.78    1.79
  -4  -5  -5    4.91    1.21
  -5  -5  -5    5.19    2.09
  -6  -5  -5    0.69    1.55
   6  -6  -5    1.16    0.84
   6  -6  -5    0.51    0.97
  -6   6   5   -1.10    1.91
  -6   6   5   -0.02    1.20
   5  -6  -5    0.97    0.85
   5  -6  -5    0.78    0.86
  -5   6   5   -0.74    2.02
  -5   6   5   -0.76    0.92
   4  -6  -5   12.05    2.12
   4  -6  -5    6.40    1.58
  -4   6   5    6.33    2.99
  -4   6   5    8.58    1.95
   3  -6  -5   17.39    2.41
   3  -6  -5   16.17    2.25
  -3   6   5   10.14    1.95
  -3   6   5   12.36    3.48
   2  -6  -5    2.17    1.01
   2  -6  -5    3.31    1.08
  -2   6   5   -0.51    2.00
  -2   6   5    1.84    1.16
   1  -6  -5    0.13    0.61
   1  -6  -5    0.75    0.59
   1  -6  -5    0.64    0.73
  -1   6   5    0.11    1.96
  -1   6   5    1.19    0.97
   0  -6  -5    3.02    1.03
   0  -6  -5    3.53    1.04
   0  -6  -5    2.55    0.92
   0   6   5    2.34    1.11
   0   6   5    2.14    2.30
  -1  -6  -5    8.02    1.37
  -1  -6  -5    8.14    1.45
   1   6   5    7.90    1.68
  -2  -6  -5   11.06    2.07
  -2  -6  -5    9.02    1.50
  -2  -6  -5    9.80    1.59
   2   6   5   11.35    1.82
   2   6   5    6.28    2.34
  -3  -6  -5    0.32    0.69
  -3  -6  -5    0.57    1.20
  -3  -6  -5    1.79    0.85
  -4  -6  -5    0.30    1.25
  -5  -6  -5    2.28    1.88
  -6  -6  -5   -0.12    1.61
   6  -7  -5    1.96    1.26
   6  -7  -5    2.77    1.40
  -6   7   5    0.86    1.30
   5  -7  -5    6.11    1.73
   5  -7  -5    3.41    1.40
  -5   7   5   -1.14    2.17
  -5   7   5    3.33    1.61
   4  -7  -5    9.16    2.05
   4  -7  -5    9.86    1.95
  -4   7   5    8.69    1.95
  -4   7   5    2.19    2.55
   3  -7  -5   -0.25    0.72
   3  -7  -5    0.84    0.80
  -3   7   5   -0.03    0.64
  -3   7   5   -1.31    1.89
   2  -7  -5    3.67    1.34
   2  -7  -5    3.26    1.22
  -2   7   5    0.34    2.23
  -2   7   5    1.06    1.16
   1  -7  -5    7.14    1.47
   1  -7  -5    9.49    1.72
   1  -7  -5    5.34    1.36
  -1   7   5    2.20    2.69
  -1   7   5    5.18    1.60
   0  -7  -5    7.94    1.54
   0  -7  -5    9.00    1.73
   0  -7  -5    6.96    1.37
   0   7   5    8.09    1.70
   0   7   5    0.42    2.29
  -1  -7  -5    8.86    1.52
  -1  -7  -5   11.73    1.74
  -1  -7  -5    9.46    1.84
   1   7   5    4.21    2.43
   1   7   5    8.55    1.84
  -2  -7  -5    0.82    0.79
  -2  -7  -5    0.53    0.68
  -2  -7  -5    0.41    0.85
   2   7   5    1.91    2.16
   2   7   5   -0.63    0.71
  -3  -7  -5    1.27    1.17
  -4  -7  -5    6.07    2.11
  -5  -7  -5    6.41    2.27
   5  -8  -5    0.01    0.86
   5  -8  -5    0.26    0.87
  -5   8   5   -1.75    2.35
  -5   8   5   -0.14    1.03
   4  -8  -5    6.83    1.84
   4  -8  -5    4.46    1.58
  -4   8   5    2.79    1.50
  -4   8   5    1.11    2.49
   3  -8  -5   13.04    2.26
   3  -8  -5   14.85    2.49
  -3   8   5   14.62    2.66
   2  -8  -5    3.22    1.17
   2  -8  -5    3.79    1.32
  -2   8   5    1.88    1.14
  -2   8   5   -1.72    2.14
   1  -8  -5    0.89    0.75
   1  -8  -5    0.95    0.77
   1  -8  -5    0.03    0.72
  -1   8   5   -0.63    2.19
  -1   8   5    0.16    1.00
   0  -8  -5    0.61    0.69
   0  -8  -5    0.52    0.77
   0  -8  -5    1.28    0.77
   0   8   5    0.06    0.97
   0   8   5   -0.33    2.14
  -1  -8  -5    6.76    1.44
  -1  -8  -5    8.98    1.75
   1   8   5    3.01    2.37
   1   8   5    5.88    1.60
  -2  -8  -5    8.88    2.05
   2   8   5    5.67    1.62
   2   8   5    4.20    2.32
  -3  -8  -5    0.50    1.13
  -4  -8  -5   -0.42    1.06
   4  -9  -5    2.63    1.30
   4  -9  -5    3.01    1.34
  -4   9   5    1.12    1.26
  -4   9   5    0.13    2.57
   3  -9  -5   -0.17    0.87
   3  -9  -5    1.14    1.03
  -3   9   5   -0.15    0.93
  -3   9   5   -0.99    2.63
   2  -9  -5    0.56    0.92
   2  -9  -5    0.09    0.82
  -2   9   5    1.52    2.90
  -2   9   5   -1.11    0.91
   1  -9  -5    4.59    1.34
   1  -9  -5    5.08    1.49
  -1   9   5    5.85    1.92
  -1   9   5    0.16    2.17
   0  -9  -5    1.84    0.99
   0  -9  -5    2.29    1.00
   0  -9  -5    0.45    0.90
   0   9   5   -1.10    2.47
   0   9   5    0.83    1.10
  -1  -9  -5    0.73    0.90
   1   9   5   -1.26    2.27
   1   9   5    1.00    1.10
  -2  -9  -5    3.36    1.50
   2   9   5   -0.48    2.05
   2   9   5    0.53    1.12
  -3  -9  -5    0.33    1.10
   2 -10  -5    3.04    1.37
   2 -10  -5    2.96    1.51
  -2  10   5   -0.11    2.51
  -2  10   5    2.20    1.62
   1 -10  -5    1.16    1.01
   1 -10  -5    0.08    0.85
  -1  10   5    0.19    1.33
  -1  10   5    2.40    3.00
   0 -10  -5    0.13    0.80
   0 -10  -5    1.14    1.07
   0  10   5    0.39    2.58
   0  10   5    1.24    1.36
  -1 -10  -5    3.29    1.41
   1  10   5    1.56    1.38
   1  10   5   -1.36    2.63
  -2 -10  -5    2.29    1.36
   2  10   5    2.07    1.43
   2  10  -6    0.49    2.86
   2  10  -6   -0.94    0.93
  -2 -10   6    0.64    1.21
   1  10  -6    0.59    1.31
   1  10  -6    2.78    2.47
  -1 -10   6    2.21    1.52
   0  10  -6    7.00    2.36
   0  10  -6    0.47    2.59
   0  10  -6    4.71    1.73
  -1  10  -6    1.97    2.79
  -1  10  -6    2.23    1.68
  -1  10  -6    1.47    1.31
  -2  10  -6    0.68    1.35
  -2  10  -6    3.25    1.84
  -2  10  -6    0.89    2.38
   3   9  -6   -0.88    1.94
   3   9  -6    1.68    1.46
  -3  -9   6    1.14    1.04
   2   9  -6   10.11    2.47
  -2  -9   6   11.27    2.47
   1   9  -6    1.38    2.28
   1   9  -6    0.34    1.15
  -1  -9   6    0.68    1.00
   0   9  -6    2.25    2.79
   0   9  -6    0.23    1.13
   0   9  -6   -0.93    1.06
  -1   9  -6    3.47    1.60
  -1   9  -6    2.21    2.49
  -1   9  -6    1.95    1.28
  -2   9  -6    7.56    3.46
  -2   9  -6   12.70    2.74
  -2   9  -6    5.13    2.06
   2  -9   6   10.13    1.86
   2  -9   6    9.28    1.77
  -3   9  -6    7.28    3.24
  -3   9  -6    7.00    2.17
  -3   9  -6   13.60    2.74
   3  -9   6   14.42    2.43
   3  -9   6   13.77    2.25
  -4   9  -6    0.09    1.08
   4  -9   6   -0.06    0.72
   4  -9   6   -0.12    0.64
   4   8  -6    2.57    1.53
   4   8  -6    3.26    2.99
  -4  -8   6    1.68    1.13
   3   8  -6   -0.14    2.34
   3   8  -6    0.84    1.22
  -3  -8   6    0.15    0.83
   2   8  -6    0.08    2.27
   2   8  -6    3.41    1.41
  -2  -8   6    3.11    1.35
   1   8  -6    5.71    1.69
   1   8  -6    0.63    1.95
   0   8  -6    6.73    2.00
   0   8  -6    3.21    2.76
   0   8  -6    1.56    1.22
  -1   8  -6   -0.52    0.91
  -1   8  -6    0.08    0.84
  -1   8  -6    0.74    2.01
   1  -8   6   -0.15    0.47
   1  -8   6   -0.25    0.53
  -2   8  -6    0.79    1.05
  -2   8  -6   -0.21    1.00
  -2   8  -6    1.00    2.30
   2  -8   6   -0.17    0.64
   2  -8   6   -0.35    0.51
  -3   8  -6    4.87    2.45
  -3   8  -6   13.58    2.54
  -3   8  -6    9.85    2.42
   3  -8   6   10.93    2.08
  -4   8  -6    2.32    1.54
   4  -8   6    7.10    1.83
   4  -8   6    5.14    1.43
  -5   8  -6    0.53    1.18
   5  -8   6    5.57    1.66
   5  -8   6    3.66    1.48
   5   7  -6    0.95    2.35
   5   7  -6    0.89    1.26
  -5  -7   6    1.27    1.10
   4   7  -6    3.72    1.75
   4   7  -6   11.24    3.99
  -4  -7   6    5.24    1.74
   3   7  -6    8.54    2.09
   3   7  -6   -0.59    1.93
  -3  -7   6    5.57    1.54
   2   7  -6    0.95    2.15
   2   7  -6    7.74    1.99
  -2  -7   6    5.72    1.59
   1   7  -6   -0.35    1.06
   1   7  -6   -0.37    2.00
   1   7  -6    1.12    1.07
   0   7  -6    0.82    0.98
   0   7  -6    0.16    1.05
   0   7  -6    0.36    2.16
  -1   7  -6    4.97    1.61
  -1   7  -6    5.22    2.83
  -1   7  -6    5.92    1.81
  -1   7  -6    3.37    1.05
   1  -7   6    4.70    1.13
  -2   7  -6    0.35    1.10
  -2   7  -6    0.45    1.80
  -2   7  -6    0.26    0.94
  -2   7  -6    0.85    0.90
   2  -7   6    0.57    0.68
  -3   7  -6   25.99    2.92
  -3   7  -6   19.80    3.18
   3  -7   6   24.73    2.80
  -4   7  -6   -1.34    0.77
   4  -7   6   -0.29    0.62
  -5   7  -6    1.86    1.44
   5  -7   6    0.25    0.81
   5  -7   6   -0.75    0.63
   6   6  -6    3.17    2.53
   6   6  -6    2.70    1.82
  -6  -6   6    1.31    1.44
   5   6  -6    6.72    2.12
   5   6  -6    6.46    2.83
  -5  -6   6    6.24    1.89
   4   6  -6    0.49    1.11
   4   6  -6    2.52    2.06
  -4  -6   6    2.32    1.14
   3   6  -6    2.30    2.32
   3   6  -6    1.78    1.14
  -3  -6   6    0.07    0.68
   2   6  -6    1.28    1.08
   2   6  -6   -0.24    2.13
  -2  -6   6    2.45    1.11
   1   6  -6    1.86    2.33
   1   6  -6    9.97    1.96
   1   6  -6    9.49    1.98
   0   6  -6   33.03    2.20
   0   6  -6   32.55    2.17
   0   6  -6   35.31    3.06
   0   6  -6   35.75    4.85
   0   6  -6   33.62    2.88
  -1   6  -6    0.99    0.69
  -1   6  -6    0.79    0.61
  -1   6  -6    2.02    2.12
  -1   6  -6    3.58    1.38
  -1   6  -6    4.63    1.38
  -2   6  -6    1.41    0.89
  -2   6  -6    1.58    1.01
  -2   6  -6    0.67    1.06
  -2   6  -6    3.29    1.30
  -2   6  -6    0.05    2.01
  -3   6  -6   14.67    3.45
  -3   6  -6   17.17    2.45
  -3   6  -6   14.94    2.64
  -3   6  -6   15.61    2.30
  -4   6  -6   22.48    2.82
  -4   6  -6   18.60    3.12
   4  -6   6   21.74    2.72
  -5   6  -6    7.29    1.79
  -5   6  -6    8.12    2.09
   5  -6   6    9.36    1.85
  -6   6  -6   -0.76    1.01
   6  -6   6   -0.02    0.85
   6   5  -6    0.07    1.34
   6   5  -6   -1.99    1.67
  -6  -5   6    2.48    1.57
   5   5  -6    0.23    1.20
   5   5  -6    1.07    2.13
  -5  -5   6    0.28    1.01
   4   5  -6   12.97    2.45
   4   5  -6   28.06    5.12
  -4  -5   6   15.93    2.45
   3   5  -6   36.87    5.87
   3   5  -6   19.56    2.92
  -3  -5   6   21.42    2.67
   2   5  -6   14.73    2.24
  -2  -5   6   12.58    1.92
   1   5  -6    4.05    1.30
   1   5  -6    3.50    0.83
   1   5  -6    6.58    1.01
   1   5  -6    1.24    2.12
   1   5  -6    6.31    1.51
   0   5  -6    5.54    1.03
   0   5  -6    4.41    2.16
   0   5  -6    3.91    1.35
   0   5  -6    4.91    1.29
   0   5  -6    7.20    1.23
  -1   5  -6   62.39    3.19
  -1   5  -6   64.89    5.98
  -1   5  -6   58.00    3.48
  -1   5  -6   61.45    3.27
  -1   5  -6   58.67    3.80
  -2   5  -6   10.85    1.78
  -2   5  -6   14.89    3.42
  -2   5  -6   12.22    1.75
  -2   5  -6   11.34    1.76
  -2   5  -6    9.58    2.01
  -3   5  -6   17.83    2.35
  -3   5  -6   19.50    2.80
  -3   5  -6   19.74    3.64
  -3   5  -6   16.96    2.21
  -3   5  -6   20.38    2.38
  -4   5  -6    2.56    1.13
  -4   5  -6    3.15    1.18
  -4   5  -6    2.17    1.32
  -5   5  -6    2.77    1.45
  -5   5  -6    4.87    1.41
   5  -5   6    2.15    1.10
  -6   5  -6    1.61    1.51
  -6   5  -6    6.13    1.64
   6  -5   6    2.61    1.26
   7   4  -6    8.18    3.81
  -7  -4   6    1.82    1.31
   6   4  -6   10.84    3.46
  -6  -4   6    9.43    2.50
   5   4  -6   19.19    3.09
   5   4  -6   20.73    4.13
  -5  -4   6   17.95    2.77
   4   4  -6   11.63    3.24
   4   4  -6   13.20    2.33
  -4  -4   6   10.45    1.91
   3   4  -6   -0.04    1.06
   3   4  -6   -2.10    1.24
  -3  -4   6    0.21    0.71
   2   4  -6   23.83    1.46
   2   4  -6   33.85    4.22
   2   4  -6   25.61    2.77
  -2  -4   6   27.51    2.17
   1   4  -6   17.82    1.36
   1   4  -6   16.83    2.15
   1   4  -6   17.90    1.38
   1   4  -6   17.68    2.25
   0   4  -6   85.06    3.45
   0   4  -6   81.74    4.10
   0   4  -6   83.44    3.57
   0   4  -6   83.25    4.10
  -1   4  -6   -0.60    0.51
  -1   4  -6    0.24    0.37
  -1   4  -6    0.42    0.57
  -1   4  -6    0.94    0.66
  -1   4  -6    0.49    0.92
  -2   4  -6    1.64    0.98
  -2   4  -6    3.12    0.96
  -2   4  -6    3.00    1.00
  -2   4  -6    2.38    0.86
  -2   4  -6    4.39    2.02
  -3   4  -6   21.64    2.31
  -3   4  -6   22.23    2.51
  -3   4  -6   24.08    1.96
  -3   4  -6   25.86    3.13
  -3   4  -6   22.37    3.12
  -4   4  -6   16.39    2.47
  -4   4  -6   21.71    2.52
  -4   4  -6   21.11    2.49
  -5   4  -6    7.92    1.99
  -5   4  -6   12.48    2.10
  -5   4  -6   11.10    1.97
  -6   4  -6   -0.53    0.72
  -6   4  -6    0.57    0.97
   6  -4   6    0.14    0.74
  -7   4  -6    0.80    1.04
  -7   4  -6   -0.61    1.13
   7  -4   6   -0.24    0.83
  -7  -3   6    2.47    1.60
   6   3  -6   -0.07    2.26
  -6  -3   6    1.82    1.17
   5   3  -6    0.81    2.04
   5   3  -6   -0.32    1.07
  -5  -3   6    0.41    1.10
   4   3  -6   40.17    4.79
   4   3  -6   32.59    3.72
  -4  -3   6   30.32    2.68
   3   3  -6   47.61    4.76
   3   3  -6   38.09    3.10
  -3  -3   6   37.00    2.55
   2   3  -6   -0.63    0.72
   2   3  -6    1.53    0.52
   2   3  -6    0.05    1.25
   2   3  -6    1.48    0.55
  -2  -3   6    0.55    0.51
   1   3  -6    3.84    1.00
   1   3  -6    3.62    1.07
   1   3  -6    3.50    0.76
   1   3  -6    4.59    0.83
   1   3  -6    4.87    1.92
   0   3  -6   -0.09    0.92
   0   3  -6    5.50    1.12
   0   3  -6    0.01    0.25
   0   3  -6    0.28    0.28
   0   3  -6   -0.27    0.25
  -1   3  -6   81.07    3.98
  -1   3  -6   82.90    5.93
  -1   3  -6   78.94    3.60
  -1   3  -6   76.87    3.59
  -1   3  -6   81.24    3.49
  -2   3  -6   21.10    1.79
  -2   3  -6   22.57    2.55
  -2   3  -6   19.80    2.64
  -2   3  -6   20.76    1.80
  -2   3  -6   22.57    1.64
  -3   3  -6   14.50    2.29
  -3   3  -6   14.58    1.95
  -3   3  -6   12.65    1.79
  -3   3  -6   13.09    1.41
  -4   3  -6   -0.76    0.63
  -4   3  -6   -0.40    0.63
  -4   3  -6    0.56    0.85
  -5   3  -6    4.07    1.34
  -5   3  -6    3.11    1.25
  -5   3  -6    1.61    1.18
  -6   3  -6   12.19    2.16
  -6   3  -6   11.90    2.50
  -6   3  -6   13.88    2.29
  -7   3  -6    0.24    1.38
  -7   3  -6   -0.14    0.85
   7  -3   6   -0.40    0.82
  -7  -2   6    1.90    1.37
  -7  -2   6    2.87    3.12
  -6  -2   6    1.62    1.27
   5   2  -6   11.34    3.75
  -5  -2   6    6.02    1.71
  -5  -2   6    4.08    1.65
   4   2  -6   10.55    3.13
  -4  -2   6    8.44    1.62
   3   2  -6    3.61    0.82
   3   2  -6    2.63    0.71
   3   2  -6    8.12    2.67
   3   2  -6    3.47    1.35
  -3  -2   6    3.07    0.87
   2   2  -6   57.62    3.42
   2   2  -6   55.44    2.52
   2   2  -6   57.05    2.65
   2   2  -6   55.11    4.84
  -2  -2   6   57.35    2.70
   1   2  -6   54.83    2.62
   1   2  -6   54.29    3.06
   1   2  -6   54.69    2.59
   1   2  -6   50.43    4.35
   1   2  -6   52.30    2.45
   0   2  -6  100.34    3.71
   0   2  -6   94.77    3.80
   0   2  -6   99.53    3.95
   0   2  -6  101.39    4.12
   0   2  -6   81.52    5.81
  -1   2  -6    5.63    0.98
  -1   2  -6    8.81    1.90
  -1   2  -6    4.95    1.01
  -1   2  -6    3.38    0.88
  -1   2  -6    5.07    1.04
  -2   2  -6    7.00    1.33
  -2   2  -6    3.90    0.92
  -2   2  -6    6.78    0.93
  -2   2  -6    6.12    1.12
  -3   2  -6   30.79    2.29
  -3   2  -6   30.20    2.54
  -3   2  -6   27.59    2.17
  -4   2  -6   19.03    2.55
  -4   2  -6   18.91    2.22
  -4   2  -6   20.05    2.29
  -5   2  -6   18.63    2.36
  -5   2  -6   22.56    2.67
  -5   2  -6   22.72    3.19
  -6   2  -6    0.51    0.94
  -6   2  -6    0.46    1.14
  -6   2  -6    0.86    0.89
  -7   2  -6    1.00    1.05
  -7   2  -6    1.87    1.07
  -7   2  -6    3.17    1.73
  -7  -1   6   10.85    4.36
  -7  -1   6    6.63    2.16
  -6  -1   6    2.42    2.72
  -6  -1   6   -0.56    0.97
  -5  -1   6    5.01    1.83
  -5  -1   6    7.50    3.61
   4   1  -6   23.60    4.34
   4   1  -6   19.40    1.63
   4   1  -6   19.72    1.63
  -4  -1   6   17.81    2.11
  -4  -1   6   18.63    2.79
   3   1  -6   42.24    4.56
   3   1  -6   44.10    2.38
   3   1  -6   47.81    2.33
  -3  -1   6   41.94    3.28
  -3  -1   6   44.66    2.36
   2   1  -6   29.97    1.82
   2   1  -6   29.14    1.86
   2   1  -6   35.96    3.66
  -2  -1   6   29.35    1.57
   1   1  -6   18.57    1.52
   1   1  -6   21.02    1.28
   1   1  -6   18.17    2.57
   1   1  -6   21.71    1.98
   1   1  -6   18.80    1.47
   0   1  -6   23.12    2.55
   0   1  -6   29.19    1.81
   0   1  -6   30.41    1.66
   0   1  -6   18.05    1.65
   0   1  -6   30.64    1.93
  -1   1  -6  120.31    4.26
  -1   1  -6   99.55    6.02
  -1   1  -6  118.17    4.46
  -1   1  -6  109.18    4.19
  -1   1  -6  105.89    4.33
  -2   1  -6   50.07    2.80
  -2   1  -6   49.75    2.88
  -2   1  -6   45.52    2.61
  -2   1  -6   48.92    2.12
  -3   1  -6   14.56    1.82
  -3   1  -6   16.66    2.04
  -3   1  -6   13.20    2.02
  -4   1  -6    1.10    0.82
  -4   1  -6    1.44    1.16
  -4   1  -6    1.32    0.76
  -5   1  -6    6.32    1.87
  -5   1  -6    6.86    1.54
  -5   1  -6    7.38    1.61
  -6   1  -6   15.20    2.75
  -6   1  -6   26.45    2.98
  -6   1  -6   26.51    3.00
  -7   1  -6    0.63    0.99
  -7   1  -6    3.25    1.29
  -7   1  -6    0.93    1.28
  -7   0   6    2.76    1.66
  -7   0   6   -0.79    2.07
  -6   0   6    8.57    2.14
  -6   0   6    8.99    3.92
   5   0  -6    9.07    1.51
   5   0  -6    9.57    1.54
  -5   0   6   11.17    4.24
  -5   0   6    9.46    2.29
   4   0  -6    0.37    0.51
   4   0  -6    0.35    0.58
  -4   0   6   -0.38    2.04
  -4   0   6   -0.28    0.93
   3   0  -6    2.27    0.71
   3   0  -6    0.33    0.39
  -3   0   6    4.82    2.82
  -3   0   6    3.51    1.31
  -3   0   6    2.88    0.73
   2   0  -6  107.39    4.21
   2   0  -6  110.35    4.06
  -2   0   6   99.12    3.32
  -2   0   6  104.39    5.06
  -2   0   6  106.42    7.78
   1   0  -6   43.59    2.43
   1   0  -6   42.59    2.32
   1   0  -6   45.50    1.66
  -1   0   6   46.26    2.90
   0   0  -6   33.71    2.05
   0   0  -6   33.47    2.13
   0   0  -6   33.55    1.66
   0   0   6   35.86    2.26
  -1   0  -6    6.29    1.08
  -1   0  -6    6.72    1.11
  -1   0  -6    6.35    1.05
   1   0   6    9.13    1.97
   1   0   6    5.67    0.97
  -2   0  -6   15.58    1.70
  -2   0  -6   15.02    1.72
  -2   0  -6   18.98    1.75
   2   0   6   16.12    1.00
  -3   0  -6  116.99    4.72
  -3   0  -6  110.90    4.90
  -3   0  -6  113.62    5.33
  -4   0  -6   12.77    1.75
  -4   0  -6   13.48    2.34
  -4   0  -6   18.11    2.22
  -5   0  -6   11.34    2.33
  -5   0  -6   12.30    1.99
  -5   0  -6   13.72    1.98
  -6   0  -6    0.33    0.77
  -6   0  -6   -0.34    0.82
  -6   0  -6    0.33    1.05
  -7   0  -6    2.19    1.17
  -7   0  -6    1.31    1.11
  -7   0  -6    0.70    1.36
  -7   1   6   15.87    5.01
   6  -1  -6    1.19    0.83
   6  -1  -6    1.97    0.94
  -6   1   6    1.26    1.37
  -6   1   6    2.21    2.84
  -5   1   6   10.97    4.09
  -5   1   6   10.51    2.21
   4  -1  -6    6.73    1.32
   4  -1  -6    5.72    1.19
  -4   1   6    8.93    3.67
  -4   1   6    8.17    2.00
   3  -1  -6   30.46    2.05
   3  -1  -6   28.17    2.08
  -3   1   6   42.40    6.40
  -3   1   6   28.54    3.19
   2  -1  -6   46.62    2.44
   2  -1  -6   41.14    2.42
  -2   1   6   38.08    2.87
  -2   1   6   41.35    4.60
   1  -1  -6    1.21    0.60
   1  -1  -6    2.48    0.73
  -1   1   6    1.76    0.85
  -1   1   6    2.32    1.61
   0  -1  -6    2.83    0.78
   0  -1  -6    3.60    0.90
   0  -1  -6    3.44    0.64
   0   1   6    3.63    0.94
   0   1   6    2.73    1.57
  -1  -1  -6   31.80    2.05
  -1  -1  -6   26.41    1.78
  -1  -1  -6   27.09    2.00
   1   1   6   28.52    1.68
   1   1   6   27.22    2.62
  -2  -1  -6   46.81    2.71
  -2  -1  -6   43.23    2.50
   2   1   6   46.25    1.81
  -3  -1  -6    9.71    1.43
  -3  -1  -6    8.94    1.53
  -3  -1  -6   10.46    1.89
  -4  -1  -6   12.26    1.91
  -4  -1  -6   10.13    1.72
  -4  -1  -6   18.31    2.81
  -5  -1  -6    4.55    1.28
  -5  -1  -6    4.75    1.29
  -5  -1  -6    5.49    1.75
  -6  -1  -6   21.24    2.61
  -6  -1  -6   21.69    2.75
  -6  -1  -6   13.53    2.75
  -7  -1  -6    5.89    2.20
  -7  -1  -6    4.10    1.46
  -7  -1  -6    2.54    1.14
   7  -2  -6    1.32    1.00
   7  -2  -6    0.40    0.77
  -7   2   6    0.25    1.24
  -7   2   6    2.59    2.87
   6  -2  -6    5.27    1.42
   6  -2  -6    6.22    1.44
  -6   2   6   10.48    4.07
  -6   2   6    4.77    1.78
   5  -2  -6   13.02    1.95
   5  -2  -6   14.06    2.04
  -5   2   6   20.45    5.18
  -5   2   6   14.80    2.67
   4  -2  -6   -0.09    0.53
   4  -2  -6    0.23    0.57
  -4   2   6   -1.21    1.93
  -4   2   6   -1.17    0.84
   3  -2  -6   -0.12    0.50
   3  -2  -6   -0.01    0.45
  -3   2   6    0.20    1.78
  -3   2   6    1.20    1.02
   2  -2  -6   26.52    2.04
   2  -2  -6   30.46    2.06
  -2   2   6   27.45    2.43
  -2   2   6   33.42    4.96
   1  -2  -6   29.63    2.10
   1  -2  -6   32.38    2.06
  -1   2   6   32.22    2.32
  -1   2   6   31.32    3.62
   0  -2  -6   32.95    2.19
   0  -2  -6   28.68    1.65
   0  -2  -6   30.50    2.06
   0   2   6   31.71    2.09
   0   2   6   33.12    3.34
  -1  -2  -6    2.35    0.88
  -1  -2  -6    1.39    0.64
  -1  -2  -6    2.32    0.77
   1   2   6    2.63    0.73
   1   2   6    2.36    1.30
  -2  -2  -6    3.21    0.90
  -2  -2  -6    4.50    1.11
   2   2   6    2.57    0.57
  -3  -2  -6   39.12    2.62
  -3  -2  -6   38.40    2.46
  -3  -2  -6   35.83    3.05
  -4  -2  -6    9.65    1.68
  -4  -2  -6   10.82    1.77
  -4  -2  -6   11.41    2.32
  -5  -2  -6   11.33    2.46
  -5  -2  -6   18.17    2.38
  -5  -2  -6   11.96    1.85
  -6  -2  -6   -0.18    1.40
  -6  -2  -6    2.86    1.13
  -6  -2  -6    1.98    0.99
  -7  -2  -6    2.31    1.40
  -7  -2  -6    2.22    1.73
   7  -3  -6    1.56    1.06
   7  -3  -6    1.89    1.23
  -7   3   6    0.05    2.49
  -7   3   6    0.14    1.40
   6  -3  -6    1.00    0.94
   6  -3  -6    1.36    0.98
  -6   3   6   -0.24    2.30
  -6   3   6    2.25    1.45
   5  -3  -6    6.33    1.46
   5  -3  -6    8.21    1.68
  -5   3   6    1.90    2.70
  -5   3   6    3.89    1.68
   4  -3  -6   19.64    2.42
   4  -3  -6   21.53    2.37
  -4   3   6   21.87    4.67
  -4   3   6   28.34    3.27
   3  -3  -6    7.67    1.45
   3  -3  -6    9.81    1.57
  -3   3   6    6.73    1.61
  -3   3   6   12.10    3.54
   2  -3  -6   10.43    1.49
   2  -3  -6   12.30    1.71
  -2   3   6   14.66    3.47
  -2   3   6    9.86    1.73
   1  -3  -6    0.87    0.38
   1  -3  -6    0.41    0.53
   1  -3  -6   -0.38    0.34
  -1   3   6    0.44    1.63
  -1   3   6    0.44    0.76
   0  -3  -6   21.96    1.82
   0  -3  -6   21.13    2.10
   0  -3  -6   18.84    1.52
   0   3   6   21.30    3.31
   0   3   6   19.97    2.10
  -1  -3  -6   13.81    1.86
  -1  -3  -6   10.61    1.63
  -1  -3  -6   12.81    1.68
   1   3   6   11.87    1.46
   1   3   6   14.40    2.67
  -2  -3  -6    6.12    1.21
  -2  -3  -6    4.65    1.16
   2   3   6    4.25    1.43
   2   3   6    6.52    1.00
  -3  -3  -6    5.07    1.22
  -3  -3  -6    3.83    1.06
  -3  -3  -6    3.08    1.51
  -4  -3  -6   15.79    2.16
  -4  -3  -6   13.91    1.91
  -4  -3  -6   11.17    2.45
  -5  -3  -6   13.06    2.69
  -5  -3  -6   18.50    2.37
  -5  -3  -6   15.77    2.13
  -6  -3  -6    9.49    1.82
  -6  -3  -6    7.15    2.30
  -6  -3  -6    7.18    1.53
  -7  -3  -6    1.59    1.64
   7  -4  -6    3.44    1.41
   7  -4  -6    3.73    1.49
  -7   4   6    0.80    2.67
  -7   4   6    3.81    1.71
   6  -4  -6    1.40    1.01
   6  -4  -6    2.57    1.18
  -6   4   6    0.82    2.39
  -6   4   6    1.88    1.50
   5  -4  -6   11.66    1.97
   5  -4  -6   10.88    2.02
  -5   4   6   10.64    3.62
  -5   4   6    9.55    2.10
   4  -4  -6   -0.03    0.80
   4  -4  -6    0.86    0.74
  -4   4   6    2.48    1.35
  -4   4   6    0.62    2.60
   3  -4  -6    5.95    1.40
   3  -4  -6    4.87    1.29
  -3   4   6    7.82    3.02
  -3   4   6    7.18    1.67
   2  -4  -6   12.81    1.79
   2  -4  -6   15.86    1.98
  -2   4   6   16.09    2.18
  -2   4   6   16.77    3.81
   1  -4  -6   21.70    2.33
   1  -4  -6   21.43    1.44
   1  -4  -6   23.02    2.41
  -1   4   6   21.73    3.84
  -1   4   6   25.59    2.69
   0  -4  -6   13.92    1.81
   0  -4  -6   14.20    1.62
   0  -4  -6   13.54    1.74
   0   4   6   11.86    1.76
   0   4   6   14.58    3.06
  -1  -4  -6    6.77    1.36
  -1  -4  -6    9.74    1.58
  -1  -4  -6    6.25    1.33
   1   4   6    8.55    1.41
   1   4   6    5.01    1.90
  -2  -4  -6   -0.12    0.59
  -2  -4  -6    0.53    0.75
  -2  -4  -6    0.20    0.60
   2   4   6   -1.27    1.35
   2   4   6   -0.30    0.55
  -3  -4  -6   12.59    1.88
  -3  -4  -6   17.14    2.15
  -3  -4  -6   12.88    2.40
  -4  -4  -6    7.41    1.53
  -4  -4  -6    8.72    1.50
  -4  -4  -6   10.67    2.42
  -5  -4  -6    1.29    0.90
  -5  -4  -6   -0.02    1.27
  -5  -4  -6    2.05    1.08
  -6  -4  -6   -0.79    1.55
   6  -5  -6    0.73    1.03
   6  -5  -6   -0.31    0.82
  -6   5   6    0.02    1.08
  -6   5   6   -1.12    1.86
   5  -5  -6    0.36    0.73
   5  -5  -6    0.53    0.88
  -5   5   6    1.22    1.24
  -5   5   6    0.58    2.17
   4  -5  -6   19.05    2.65
   4  -5  -6   16.43    2.26
  -4   5   6   16.47    2.62
  -4   5   6   10.38    3.29
   3  -5  -6   11.20    1.86
   3  -5  -6    8.49    1.69
  -3   5   6    7.84    1.83
  -3   5   6    7.07    3.04
   2  -5  -6    0.11    0.64
   2  -5  -6   -0.16    0.74
  -2   5   6   -1.19    2.02
  -2   5   6    0.39    0.99
   1  -5  -6    6.27    1.40
   1  -5  -6    6.63    1.13
   1  -5  -6    7.02    1.39
  -1   5   6    4.80    1.54
  -1   5   6    6.75    2.80
   0  -5  -6   24.85    1.92
   0  -5  -6   21.94    2.32
   0  -5  -6   19.33    2.07
   0   5   6   23.56    2.57
  -1  -5  -6   23.48    2.58
  -1  -5  -6   22.00    2.37
  -1  -5  -6   26.71    2.12
   1   5   6   26.08    2.20
   1   5   6   18.65    3.48
  -2  -5  -6    6.10    1.71
  -2  -5  -6    8.85    1.65
  -2  -5  -6    5.80    1.33
   2   5   6    6.58    1.37
   2   5   6    2.56    1.91
  -3  -5  -6    1.25    1.52
  -3  -5  -6    1.65    0.91
  -3  -5  -6    2.15    0.97
  -4  -5  -6    4.59    1.21
  -4  -5  -6    3.63    1.14
  -4  -5  -6    3.06    1.67
  -5  -5  -6    5.08    2.07
  -6  -5  -6    3.21    2.01
   6  -6  -6    3.03    1.47
   6  -6  -6    1.23    1.10
  -6   6   6   -0.96    1.99
  -6   6   6    0.41    1.29
   5  -6  -6    4.14    1.47
   5  -6  -6    6.04    1.78
  -5   6   6    4.31    2.75
  -5   6   6    5.26    1.81
   4  -6  -6    0.59    0.77
   4  -6  -6    0.00    0.71
  -4   6   6    0.70    2.16
  -4   6   6   -0.33    0.91
   3  -6  -6    5.67    1.48
   3  -6  -6    3.28    1.20
  -3   6   6    3.33    2.50
  -3   6   6    3.85    1.45
   2  -6  -6   16.67    2.34
   2  -6  -6   14.02    2.17
  -2   6   6    4.33    2.96
  -2   6   6    8.76    1.84
   1  -6  -6    6.90    1.53
   1  -6  -6    8.54    1.64
  -1   6   6    0.26    2.09
  -1   6   6    5.54    1.47
   0  -6  -6   12.17    1.83
   0  -6  -6   12.02    1.74
   0  -6  -6    9.37    1.62
   0   6   6    9.66    1.82
   0   6   6    4.51    2.74
  -1  -6  -6    2.38    0.98
  -1  -6  -6    1.02    0.82
  -1  -6  -6    4.38    1.34
   1   6   6    2.54    1.13
   1   6   6    1.99    1.98
  -2  -6  -6    4.80    1.67
  -2  -6  -6    3.19    1.07
  -2  -6  -6    4.88    1.30
   2   6   6    2.62    2.05
   2   6   6    2.88    1.11
  -3  -6  -6    3.69    1.18
  -3  -6  -6    5.11    1.28
  -3  -6  -6    4.23    1.75
  -4  -6  -6    0.38    1.47
  -5  -6  -6    3.94    2.04
   5  -7  -6    0.91    0.98
   5  -7  -6    0.94    1.00
  -5   7   6    1.37    1.43
  -5   7   6   -1.06    2.06
   4  -7  -6    0.73    0.89
   4  -7  -6    3.09    1.29
  -4   7   6    0.93    1.01
  -4   7   6   -0.01    2.10
   3  -7  -6    0.97    0.88
   3  -7  -6    1.13    1.00
  -3   7   6    0.04    2.24
  -3   7   6    0.14    0.81
   2  -7  -6    0.82    0.94
   2  -7  -6    0.77    0.95
  -2   7   6   -1.66    2.05
  -2   7   6    1.53    1.02
   1  -7  -6    0.85    0.89
   1  -7  -6    0.41    0.74
  -1   7   6   -0.36    2.46
  -1   7   6    0.62    0.99
   0  -7  -6   10.77    1.81
   0  -7  -6   10.58    1.79
   0  -7  -6    5.72    1.35
   0   7   6    5.56    1.60
   0   7   6    4.72    2.73
  -1  -7  -6   18.27    2.34
  -1  -7  -6   21.26    2.47
  -1  -7  -6   26.05    3.01
   1   7   6   25.26    3.01
  -2  -7  -6    4.30    1.46
  -2  -7  -6    6.16    1.46
  -2  -7  -6    6.13    1.41
   2   7   6    3.01    1.22
   2   7   6   -0.35    1.83
  -3  -7  -6    0.12    0.99
  -4  -7  -6   -0.54    1.31
  -5  -7  -6   -0.31    1.42
   5  -8  -6    1.53    1.21
  -5   8   6    0.96    1.25
   4  -8  -6    0.47    0.96
   4  -8  -6   -0.70    0.83
  -4   8   6    0.59    2.55
  -4   8   6   -0.01    0.93
   3  -8  -6    2.35    1.18
   3  -8  -6    0.46    0.86
  -3   8   6   -1.17    2.23
  -3   8   6    1.24    1.23
   2  -8  -6   11.23    2.19
   2  -8  -6   12.14    2.23
  -2   8   6    6.64    1.81
  -2   8   6   -0.43    2.54
   1  -8  -6    1.01    0.95
   1  -8  -6    2.63    1.14
  -1   8   6    0.66    2.44
  -1   8   6    2.00    1.17
   0  -8  -6    0.58    0.75
   0  -8  -6    1.03    1.06
   0  -8  -6    0.15    0.73
   0   8   6    1.05    1.01
   0   8   6    0.36    2.22
  -1  -8  -6    1.31    0.89
  -1  -8  -6    1.23    0.66
  -1  -8  -6    1.25    0.78
   1   8   6    0.29    1.01
   1   8   6    0.80    2.16
  -2  -8  -6    3.28    1.27
  -2  -8  -6    2.85    1.38
   2   8   6    2.27    1.23
   2   8   6    0.88    2.47
  -3  -8  -6    4.49    1.84
  -4  -8  -6    1.21    1.64
   3  -9  -6    3.39    1.40
   3  -9  -6    2.77    1.41
  -3   9   6   -0.14    0.96
  -3   9   6    0.38    2.86
   2  -9  -6    1.07    0.92
   2  -9  -6    0.51    0.82
  -2   9   6    0.98    2.86
  -2   9   6    0.25    0.99
   1  -9  -6    0.65    0.97
   1  -9  -6    1.53    1.00
  -1   9   6    0.10    2.54
  -1   9   6    1.44    1.37
   0  -9  -6    1.24    0.98
   0  -9  -6    2.74    1.16
   0   9   6    2.21    1.35
   0   9   6    1.58    2.93
  -1  -9  -6    1.87    0.98
  -1  -9  -6    1.12    0.94
  -1  -9  -6    0.11    0.90
   1   9   6    4.32    1.70
   1   9   6    0.35    2.38
  -2  -9  -6    3.47    1.59
  -3  -9  -6    0.49    1.26
   2 -10  -6    4.78    1.64
   1 -10  -6    2.30    1.28
   1 -10  -6    0.97    1.02
  -1  10   6    1.86    1.36
   0 -10  -6   -0.26    0.84
   0 -10  -6    0.94    0.88
   0  10   6    4.43    3.54
   0  10   6    1.66    1.40
   1  10   6    0.23    1.14
   1  10  -7    0.37    1.23
  -1 -10   7    0.53    1.14
   0  10  -7   -0.97    1.23
   0  10  -7    1.75    2.54
   0  10  -7    2.94    1.69
  -1  10  -7    1.69    1.40
  -1  10  -7    0.96    1.54
   3   9  -7    3.78    1.74
   3   9  -7    1.28    2.69
  -3  -9   7    1.11    0.97
   2   9  -7    2.07    2.57
   2   9  -7    6.94    2.17
  -2  -9   7    4.90    1.73
   1   9  -7    0.65    2.47
   1   9  -7    7.34    2.09
  -1  -9   7   12.19    2.52
   0   9  -7    6.23    2.22
   0   9  -7    1.60    2.22
   0   9  -7    0.85    1.24
  -1   9  -7    0.74    1.38
  -1   9  -7   -1.23    2.02
  -1   9  -7   -0.12    1.12
  -2   9  -7    1.50    1.52
  -2   9  -7    2.74    1.58
  -2   9  -7    3.57    2.89
  -3   9  -7    2.71    1.65
  -3   9  -7    1.67    1.42
  -3   9  -7    1.71    2.39
   3  -9   7    2.02    1.22
   3  -9   7    1.39    1.00
   4   8  -7   11.18    4.25
   4   8  -7    3.35    1.73
  -4  -8   7    3.28    1.39
   3   8  -7    0.91    2.57
   3   8  -7   -0.10    1.08
  -3  -8   7    1.28    1.08
   2   8  -7    0.42    1.05
   2   8  -7    2.54    2.59
  -2  -8   7   -0.18    0.81
   1   8  -7    0.85    1.14
   1   8  -7    0.49    2.39
   0   8  -7    6.44    1.83
   0   8  -7    2.16    2.45
   0   8  -7    7.51    2.19
  -1   8  -7    1.32    2.35
  -1   8  -7    3.69    1.55
  -1   8  -7    5.83    1.74
  -2   8  -7    9.35    2.24
  -2   8  -7    6.02    2.90
  -2   8  -7   11.14    2.51
   2  -8   7   11.79    1.94
  -3   8  -7    1.01    2.08
  -3   8  -7    2.14    1.43
  -3   8  -7   -0.71    0.95
   3  -8   7    0.92    0.88
  -4   8  -7    0.27    1.31
   4  -8   7    1.47    1.10
   4  -8   7    1.74    1.02
   5   7  -7    1.84    1.58
   5   7  -7   -0.09    2.20
  -5  -7   7    2.92    1.40
   4   7  -7   -0.15    1.18
   4   7  -7    0.32    2.10
  -4  -7   7    2.71    1.34
   3   7  -7    1.24    2.37
   3   7  -7    2.22    1.33
  -3  -7   7    3.71    1.31
   2   7  -7    0.12    0.87
   2   7  -7   -0.99    1.84
  -2  -7   7   -0.30    0.62
   1   7  -7   27.71    3.51
   1   7  -7   24.03    3.27
   0   7  -7    6.64    1.79
   0   7  -7    5.04    2.69
   0   7  -7    5.86    1.82
  -1   7  -7    2.93    2.73
  -1   7  -7    4.03    1.43
  -1   7  -7    4.79    1.21
  -1   7  -7    3.08    1.42
  -2   7  -7    1.11    1.16
  -2   7  -7    0.45    0.61
  -2   7  -7    2.57    2.13
  -2   7  -7   -0.57    0.78
   2  -7   7    0.09    0.59
  -3   7  -7    2.95    1.48
  -3   7  -7    5.43    2.83
  -3   7  -7    2.85    1.25
  -3   7  -7    4.01    1.50
   3  -7   7    4.65    1.41
  -4   7  -7   13.05    2.38
  -4   7  -7   17.00    3.19
   4  -7   7   14.55    2.45
  -5   7  -7    0.32    1.11
  -5   7  -7   -0.35    0.94
   5  -7   7   -0.44    0.76
   6   6  -7   -0.94    1.27
   5   6  -7    0.60    1.99
   5   6  -7    1.78    1.37
  -5  -6   7    2.14    1.34
   4   6  -7   10.92    2.40
   4   6  -7   27.51    5.29
  -4  -6   7   11.08    2.23
   3   6  -7    9.68    3.31
   3   6  -7    5.48    1.80
  -3  -6   7    5.79    1.57
   2   6  -7   -0.77    1.78
   2   6  -7    1.52    1.15
  -2  -6   7    2.18    1.02
   1   6  -7    2.14    2.44
   1   6  -7    0.11    1.03
   1   6  -7    0.14    0.91
   0   6  -7   23.06    1.99
   0   6  -7   23.51    2.29
   0   6  -7   26.11    3.22
   0   6  -7   27.28    3.18
  -1   6  -7    4.58    1.66
  -1   6  -7    4.35    2.44
  -1   6  -7    4.34    1.46
  -2   6  -7    4.72    1.33
  -2   6  -7    5.94    1.75
  -2   6  -7    4.37    1.18
  -3   6  -7   -0.13    0.79
  -3   6  -7    0.79    1.04
  -3   6  -7   -0.97    0.64
  -3   6  -7    0.94    1.85
  -3   6  -7    0.29    0.76
  -4   6  -7    2.40    1.42
  -4   6  -7    1.63    1.21
  -5   6  -7   13.09    2.77
  -5   6  -7   13.36    2.33
   5  -6   7   15.51    2.61
  -6   6  -7    2.12    1.39
  -6   6  -7    2.51    1.51
   6  -6   7    0.52    0.93
   6   5  -7   -0.47    2.01
   6   5  -7    0.39    1.46
   5   5  -7   -0.44    1.10
   5   5  -7   -1.06    1.66
  -5  -5   7    2.09    1.18
   4   5  -7    0.29    0.99
   4   5  -7    2.45    2.11
  -4  -5   7    2.46    1.09
   3   5  -7    6.22    1.83
  -3  -5   7    4.69    1.32
   2   5  -7    2.32    2.31
   2   5  -7    3.24    1.48
  -2  -5   7    3.26    1.06
   1   5  -7   36.13    2.93
   1   5  -7   39.22    2.21
   1   5  -7   40.91    3.09
   0   5  -7    1.74    1.00
   0   5  -7    0.88    0.63
   0   5  -7    1.64    1.86
   0   5  -7    0.66    1.00
   0   5  -7    1.13    0.75
  -1   5  -7   -0.07    0.80
  -1   5  -7   -0.28    1.74
  -1   5  -7    0.97    0.72
  -1   5  -7   -0.17    0.59
  -1   5  -7    0.28    0.94
  -2   5  -7   15.53    2.03
  -2   5  -7    8.92    1.60
  -2   5  -7   15.56    2.14
  -2   5  -7   12.76    3.36
  -2   5  -7   11.44    2.15
  -3   5  -7   -0.08    0.76
  -3   5  -7    1.45    1.02
  -3   5  -7    1.33    1.24
  -4   5  -7   13.92    2.60
  -4   5  -7    9.23    1.77
  -4   5  -7   10.84    2.02
  -5   5  -7    0.23    1.00
  -5   5  -7   -1.25    0.74
  -5   5  -7   -0.84    0.61
  -6   5  -7    0.44    0.97
  -6   5  -7    0.04    1.04
   6  -5   7    0.21    0.81
   6   4  -7    4.97    2.83
   5   4  -7   11.65    2.51
   5   4  -7   12.95    3.43
   4   4  -7   46.28    5.36
   4   4  -7   34.94    3.86
  -4  -4   7   42.63    3.18
   3   4  -7   24.26    3.06
   3   4  -7   21.88    4.03
  -3  -4   7   19.52    2.43
   2   4  -7    1.37    1.09
   2   4  -7    2.84    2.02
  -2  -4   7    1.20    0.73
   1   4  -7    0.16    0.50
   1   4  -7    0.84    0.92
   1   4  -7    0.76    1.58
   1   4  -7    0.05    0.79
   1   4  -7    0.86    0.66
   0   4  -7   14.12    1.69
   0   4  -7   17.21    2.19
   0   4  -7   10.89    1.74
   0   4  -7   11.84    1.54
  -1   4  -7   29.64    2.52
  -1   4  -7   32.40    2.26
  -1   4  -7   19.01    2.21
  -1   4  -7   28.79    2.13
  -2   4  -7    0.56    0.70
  -2   4  -7    1.74    1.03
  -2   4  -7    2.52    0.96
  -2   4  -7    1.03    1.71
  -2   4  -7    1.72    0.87
  -3   4  -7    8.04    1.68
  -3   4  -7    6.98    1.90
  -3   4  -7    7.31    1.49
  -4   4  -7    0.49    1.00
  -4   4  -7    0.90    0.88
  -4   4  -7    0.99    0.93
  -5   4  -7   19.24    2.68
  -5   4  -7   17.81    2.63
  -5   4  -7   18.86    2.98
  -6   4  -7    3.10    1.58
  -6   4  -7    3.51    1.54
  -6   4  -7    2.75    1.31
  -7  -3   7   -0.04    1.17
   6   3  -7   11.16    3.98
  -6  -3   7    7.85    2.24
   5   3  -7    4.05    2.53
   4   3  -7    0.65    1.21
   4   3  -7    5.57    2.58
  -4  -3   7    0.52    0.96
   3   3  -7   27.09    4.53
   3   3  -7   22.81    2.89
  -3  -3   7   24.16    2.05
   2   3  -7   26.37    1.78
   2   3  -7   26.16    2.88
   2   3  -7   27.15    1.74
   2   3  -7   24.36    3.55
  -2  -3   7   28.68    2.04
   1   3  -7   23.05    1.68
   1   3  -7   25.84    2.71
   1   3  -7   24.43    1.98
   1   3  -7   31.23    3.55
   1   3  -7   22.54    1.70
   0   3  -7    3.02    0.84
   0   3  -7    5.20    1.20
   0   3  -7    4.68    1.05
   0   3  -7    4.70    1.86
   0   3  -7    4.22    1.15
  -1   3  -7   -0.27    0.59
  -1   3  -7    0.17    0.58
  -1   3  -7    0.20    1.08
  -1   3  -7    0.56    0.57
  -1   3  -7    0.06    0.65
  -2   3  -7   73.66    3.56
  -2   3  -7   54.12    4.90
  -2   3  -7   69.18    3.65
  -2   3  -7   81.49    4.16
  -2   3  -7   71.53    3.28
  -3   3  -7   11.64    1.79
  -3   3  -7   14.89    2.27
  -3   3  -7   12.99    1.86
  -4   3  -7   15.45    2.50
  -4   3  -7   17.93    2.44
  -4   3  -7   23.57    2.79
  -5   3  -7    0.36    0.99
  -5   3  -7   -0.54    0.73
  -5   3  -7   -0.63    0.70
  -6   3  -7    2.16    1.47
  -6   3  -7    2.83    1.28
  -6   3  -7    1.99    1.17
  -7   3  -7    5.65    1.93
  -7   3  -7    1.96    1.36
  -7  -2   7    4.57    1.82
  -7  -2   7    5.72    3.82
  -6  -2   7    5.16    3.43
  -6  -2   7    4.62    1.95
   5   2  -7   37.74    5.02
  -5  -2   7   19.92    3.21
   4   2  -7   49.66    5.25
  -4  -2   7   33.03    3.79
   3   2  -7   49.24    2.67
   3   2  -7   53.69    5.24
   3   2  -7   53.27    2.62
   3   2  -7   53.57    3.79
  -3  -2   7   48.90    2.70
   2   2  -7    1.51    1.12
   2   2  -7    2.59    1.88
   2   2  -7    0.26    0.52
   2   2  -7    0.30    0.52
  -2  -2   7    0.38    0.46
   1   2  -7   11.01    2.58
   1   2  -7    7.95    1.22
   1   2  -7    9.32    1.31
   1   2  -7   10.94    1.38
   1   2  -7   12.01    1.87
   0   2  -7    8.70    1.26
   0   2  -7    7.62    1.22
   0   2  -7    8.12    1.25
  -1   2  -7   53.74    2.77
  -1   2  -7   49.31    2.89
  -1   2  -7   50.86    2.79
  -1   2  -7   50.18    2.90
  -1   2  -7   52.78    3.99
  -2   2  -7   28.76    2.60
  -2   2  -7   24.15    1.67
  -2   2  -7   23.59    2.17
  -2   2  -7   27.77    2.19
  -2   2  -7   25.26    2.45
  -3   2  -7    1.35    0.73
  -3   2  -7    0.52    0.68
  -3   2  -7    0.69    0.85
  -4   2  -7    4.34    1.34
  -4   2  -7    2.61    1.13
  -4   2  -7    5.63    1.67
  -5   2  -7   26.30    3.01
  -5   2  -7   23.38    3.21
  -5   2  -7   26.03    3.04
  -6   2  -7    4.22    1.78
  -6   2  -7    3.45    1.26
  -6   2  -7    3.88    1.39
  -7   2  -7    0.30    0.96
  -7   2  -7   -0.17    0.90
  -7   2  -7    0.25    1.19
  -7  -1   7    3.64    1.69
  -7  -1   7    9.07    4.35
  -6  -1   7   10.45    2.43
  -6  -1   7   13.76    4.98
  -5  -1   7    0.27    0.99
  -5  -1   7    4.51    3.23
   4   1  -7   -0.21    0.57
   4   1  -7    0.17    0.51
  -4  -1   7    0.88    1.04
   3   1  -7   22.20    4.07
   3   1  -7   19.48    1.66
   3   1  -7   20.15    1.65
  -3  -1   7   16.32    2.52
   2   1  -7   51.00    4.84
   2   1  -7   55.95    2.87
   2   1  -7   51.90    2.68
  -2  -1   7   51.89    2.24
  -2  -1   7   51.44    3.59
   1   1  -7   14.52    1.13
   1   1  -7   17.55    1.84
   1   1  -7   22.08    3.44
   1   1  -7   13.30    1.63
   0   1  -7    7.55    1.36
   0   1  -7    5.93    1.13
   0   1  -7    6.15    1.00
   0   1  -7    6.27    1.89
   0   1  -7    4.81    1.01
  -1   1  -7    1.26    0.67
  -1   1  -7    4.47    0.99
  -1   1  -7    1.92    1.23
  -1   1  -7    4.64    1.01
  -1   1  -7    3.02    0.86
  -2   1  -7   97.03    4.47
  -2   1  -7   92.81    4.41
  -2   1  -7   97.24    4.26
  -3   1  -7   31.66    2.36
  -3   1  -7   30.15    2.65
  -3   1  -7   31.48    2.48
  -4   1  -7   13.32    1.97
  -4   1  -7   13.62    2.29
  -4   1  -7   12.01    1.98
  -5   1  -7    0.60    0.83
  -5   1  -7   -0.37    0.64
  -5   1  -7    0.48    1.10
  -6   1  -7   -0.04    0.83
  -6   1  -7    0.29    1.17
  -6   1  -7   -1.03    0.60
  -7   1  -7    6.56    1.87
  -7   1  -7    2.48    1.27
  -7   1  -7    7.69    2.27
  -7   0   7    3.94    3.18
  -7   0   7    1.97    1.41
  -6   0   7    2.54    1.43
  -6   0   7    1.60    2.73
   5   0  -7    4.95    1.19
   5   0  -7    3.53    1.02
  -5   0   7    3.14    3.20
  -5   0   7    5.85    1.90
   4   0  -7    6.34    1.22
   4   0  -7    9.88    1.53
  -4   0   7    6.67    3.52
  -4   0   7   11.23    2.44
  -3   0   7   45.91    6.94
  -3   0   7   24.96    3.13
   2   0  -7   12.78    1.59
   2   0  -7   13.76    1.69
  -2   0   7   19.34    4.22
  -2   0   7   15.41    2.33
   1   0  -7   16.40    1.82
   1   0  -7   17.55    1.98
   1   0  -7   13.95    0.86
  -1   0   7   18.67    3.78
  -1   0   7   13.73    2.05
   0   0  -7   50.44    2.24
   0   0  -7   50.77    2.76
   0   0  -7   49.04    2.84
   0   0   7   50.81    4.54
   0   0   7   51.36    2.97
  -1   0  -7   46.94    2.87
  -1   0  -7   52.44    2.72
  -1   0  -7   59.13    2.98
   1   0   7   55.06    2.76
   1   0   7   52.85    4.18
  -2   0  -7   25.07    2.05
  -2   0  -7   24.58    1.96
   2   0   7   19.98    1.33
  -3   0  -7    4.44    1.14
  -3   0  -7    4.26    1.39
  -3   0  -7    3.15    1.12
  -4   0  -7    8.87    1.70
  -4   0  -7   13.58    1.98
  -4   0  -7   12.92    2.38
  -5   0  -7   13.88    2.18
  -5   0  -7   13.12    2.61
  -5   0  -7   16.37    2.32
  -6   0  -7    6.17    1.68
  -6   0  -7    5.38    1.62
  -6   0  -7    7.12    2.18
  -7   0  -7    0.32    0.90
  -7   0  -7   -0.46    0.94
  -7   0  -7    1.55    1.55
  -7   1   7    3.10    3.17
  -7   1   7    1.66    1.52
   6  -1  -7   18.74    2.36
   6  -1  -7   14.43    2.12
  -6   1   7   14.62    2.87
  -6   1   7   25.93    6.35
   5  -1  -7    1.21    0.84
  -5   1   7    7.92    3.90
  -5   1   7    4.65    1.69
   4  -1  -7    0.40    0.70
   4  -1  -7    0.99    0.70
  -4   1   7    0.99    2.56
  -4   1   7   -0.59    1.03
   3  -1  -7   28.79    2.18
   3  -1  -7   28.82    2.16
  -3   1   7   31.81    5.70
  -3   1   7   24.95    3.10
   2  -1  -7   38.22    2.37
   2  -1  -7   37.58    2.47
  -2   1   7   33.29    4.53
  -2   1   7   42.00    3.14
   1  -1  -7   58.24    3.09
   1  -1  -7   58.96    3.01
  -1   1   7   56.50    3.39
  -1   1   7   51.71    5.14
   0  -1  -7    8.61    1.48
   0  -1  -7   13.97    1.74
   0  -1  -7   11.55    1.15
   0   1   7   14.53    3.01
   0   1   7    9.66    1.50
  -1  -1  -7   30.45    2.02
  -1  -1  -7   32.03    2.23
  -1  -1  -7   30.58    2.27
   1   1   7   27.75    2.91
   1   1   7   31.56    1.96
  -2  -1  -7   80.09    4.00
  -2  -1  -7   84.19    4.07
  -2  -1  -7   83.36    3.84
   2   1   7   80.29    2.99
  -3  -1  -7   34.85    2.49
  -3  -1  -7   30.32    2.52
  -3  -1  -7   31.18    2.72
  -4  -1  -7   11.59    1.95
  -4  -1  -7   14.63    2.08
  -4  -1  -7   11.63    2.20
  -5  -1  -7    0.56    1.15
  -5  -1  -7    0.61    0.93
  -5  -1  -7    0.06    0.70
  -6  -1  -7    1.33    0.94
  -6  -1  -7    1.08    0.98
  -6  -1  -7   -0.21    1.11
  -7  -1  -7    8.74    2.09
  -7  -1  -7    7.62    2.74
  -7  -1  -7    9.00    2.06
   7  -2  -7   -0.02    0.92
  -7   2   7    0.22    2.80
  -7   2   7    0.63    1.46
   6  -2  -7   -0.02    0.75
   6  -2  -7    0.45    0.79
  -6   2   7    1.29    2.81
  -6   2   7    1.59    1.41
   5  -2  -7   20.91    2.57
   5  -2  -7   16.46    2.28
  -5   2   7   27.95    6.06
  -5   2   7   25.29    3.61
   4  -2  -7   27.07    2.75
   4  -2  -7   20.06    2.32
  -4   2   7   28.25    5.66
  -4   2   7   23.42    3.14
   3  -2  -7   -0.55    0.41
   3  -2  -7    0.20    0.65
  -3   2   7   -0.92    1.89
  -3   2   7    0.79    1.12
   2  -2  -7    2.30    0.84
   2  -2  -7    1.73    0.78
  -2   2   7    1.86    1.22
  -2   2   7    2.16    2.23
   1  -2  -7   23.10    1.96
   1  -2  -7   22.45    1.87
  -1   2   7   24.37    2.20
  -1   2   7   32.53    4.80
   0  -2  -7   37.98    2.58
   0  -2  -7   39.44    1.95
   0  -2  -7   39.53    2.52
   0   2   7   41.04    2.53
   0   2   7   38.42    3.91
  -1  -2  -7   10.83    1.69
  -1  -2  -7    8.44    1.35
  -1  -2  -7    7.11    1.39
   1   2   7   10.30    2.26
   1   2   7    9.97    1.34
  -2  -2  -7   13.96    1.86
  -2  -2  -7   18.07    2.20
  -2  -2  -7   15.00    2.05
   2   2   7   15.64    1.23
  -3  -2  -7    1.58    1.19
  -3  -2  -7    1.41    0.87
  -3  -2  -7   -0.56    0.59
  -4  -2  -7   31.89    3.65
  -4  -2  -7   33.86    2.64
  -4  -2  -7   30.69    3.14
  -5  -2  -7   17.75    2.34
  -5  -2  -7   20.17    3.22
  -5  -2  -7   24.77    2.95
  -6  -2  -7    2.54    1.73
  -6  -2  -7    1.99    1.13
  -6  -2  -7    2.98    1.27
  -7  -2  -7    0.52    1.03
  -7  -2  -7   -1.76    1.21
   7  -3  -7    2.76    1.22
   7  -3  -7    2.93    1.46
  -7   3   7    1.47    2.68
  -7   3   7    2.05    1.58
   6  -3  -7    7.32    1.75
   6  -3  -7    4.87    1.54
  -6   3   7    4.04    3.05
  -6   3   7    8.13    2.27
   5  -3  -7    0.52    0.74
   5  -3  -7    3.74    1.23
  -5   3   7    3.88    1.67
  -5   3   7    4.22    3.08
   4  -3  -7    6.13    1.42
   4  -3  -7    6.40    1.46
  -4   3   7    7.50    1.87
  -4   3   7    8.82    3.78
   3  -3  -7    9.83    1.69
   3  -3  -7   12.56    1.85
  -3   3   7   12.36    2.19
  -3   3   7   11.72    3.87
   2  -3  -7    8.93    1.52
   2  -3  -7    7.52    1.43
  -2   3   7    8.59    1.76
  -2   3   7   11.37    3.52
   1  -3  -7   49.27    2.91
   1  -3  -7   52.17    3.14
  -1   3   7   56.78    5.30
  -1   3   7   55.22    3.34
   0  -3  -7    0.43    0.67
   0  -3  -7   -0.55    0.53
   0  -3  -7    0.62    0.58
   0   3   7    0.21    0.68
   0   3   7    0.89    1.66
  -1  -3  -7    0.56    0.69
  -1  -3  -7    1.24    0.93
  -1  -3  -7    1.23    0.78
   1   3   7    1.11    1.41
   1   3   7    2.10    0.80
  -2  -3  -7   17.85    2.43
  -2  -3  -7   22.92    2.49
  -2  -3  -7   14.50    1.98
   2   3   7   14.73    1.54
  -3  -3  -7   22.16    2.51
  -3  -3  -7   18.99    2.16
  -3  -3  -7   24.77    3.09
  -4  -3  -7   13.37    2.10
  -4  -3  -7   15.05    2.12
  -4  -3  -7   13.77    2.64
  -5  -3  -7   -0.28    0.75
  -5  -3  -7    0.54    1.36
  -5  -3  -7   -0.44    0.64
  -6  -3  -7   -0.07    1.17
  -6  -3  -7   -0.16    0.80
  -6  -3  -7    1.01    1.02
   6  -4  -7    0.14    0.93
   6  -4  -7    0.61    1.02
  -6   4   7    1.56    1.41
  -6   4   7    0.88    2.55
   5  -4  -7    6.62    1.63
   5  -4  -7    3.68    1.42
  -5   4   7    2.91    2.71
  -5   4   7    3.66    1.68
   4  -4  -7   14.60    2.19
   4  -4  -7   13.98    2.27
  -4   4   7   17.29    2.73
  -4   4   7    8.15    3.33
   3  -4  -7    0.34    0.73
   3  -4  -7   -0.12    0.76
  -3   4   7    0.90    2.43
  -3   4   7    1.10    1.13
   2  -4  -7   -0.04    0.64
   2  -4  -7   -0.83    0.43
  -2   4   7    0.42    1.00
  -2   4   7    0.58    2.18
   1  -4  -7    4.98    1.19
   1  -4  -7    4.03    1.14
  -1   4   7    7.01    2.77
  -1   4   7    6.61    1.59
   0  -4  -7   25.39    2.60
   0  -4  -7   22.49    2.44
   0  -4  -7   21.87    1.87
   0   4   7   16.54    3.34
   0   4   7   23.54    2.56
  -1  -4  -7   18.40    2.20
  -1  -4  -7   18.68    2.14
  -1  -4  -7   18.73    2.30
   1   4   7   21.20    2.24
   1   4   7   12.75    2.71
  -2  -4  -7    1.05    0.85
  -2  -4  -7    0.53    0.76
  -2  -4  -7    2.60    1.31
  -3  -4  -7    2.09    0.96
  -3  -4  -7    2.45    1.08
  -3  -4  -7    2.89    1.50
  -4  -4  -7   10.78    1.85
  -4  -4  -7    3.45    1.66
  -4  -4  -7    4.68    1.34
  -5  -4  -7    4.88    1.35
  -5  -4  -7    5.47    2.13
  -5  -4  -7    6.29    1.57
  -6  -4  -7   -0.25    1.52
   6  -5  -7    0.17    0.86
   6  -5  -7    1.04    1.06
  -6   5   7    0.89    1.38
  -6   5   7    0.40    2.55
   5  -5  -7    0.18    0.94
   5  -5  -7    0.39    0.95
  -5   5   7    1.47    2.60
  -5   5   7    1.47    1.15
   4  -5  -7    0.00    0.75
   4  -5  -7    0.20    0.75
  -4   5   7    0.13    1.06
  -4   5   7   -1.42    1.93
   3  -5  -7   26.00    3.05
   3  -5  -7   19.30    2.44
  -3   5   7   20.75    4.54
  -3   5   7   20.48    2.86
   2  -5  -7   20.29    2.48
   2  -5  -7   13.94    2.04
  -2   5   7   12.41    3.68
  -2   5   7   13.48    2.24
   1  -5  -7   12.61    1.95
   1  -5  -7   12.46    2.00
  -1   5   7   13.51    2.19
  -1   5   7   13.11    3.57
   0  -5  -7    0.10    0.67
   0  -5  -7    0.22    0.80
   0  -5  -7    0.67    0.75
   0   5   7   -1.73    1.57
   0   5   7   -1.41    0.68
  -1  -5  -7    6.91    1.65
  -1  -5  -7    3.63    1.21
  -1  -5  -7    7.46    1.55
   1   5   7    6.81    1.45
   1   5   7    5.02    2.30
  -2  -5  -7   13.57    2.06
  -2  -5  -7   11.64    1.82
  -2  -5  -7   11.24    2.27
  -3  -5  -7    0.80    0.80
  -3  -5  -7    1.62    1.37
  -3  -5  -7    2.11    1.02
  -4  -5  -7    2.42    1.08
  -4  -5  -7    2.83    1.15
  -4  -5  -7    2.10    1.72
  -5  -5  -7   -0.09    1.46
  -6  -5  -7    0.31    1.69
   6  -6  -7    1.04    1.10
   6  -6  -7    2.66    1.33
  -6   6   7    3.49    1.87
   5  -6  -7    4.94    1.75
   5  -6  -7    2.15    1.19
  -5   6   7   -0.61    2.13
  -5   6   7    3.12    1.64
   4  -6  -7    8.52    1.97
   4  -6  -7    4.19    1.33
  -4   6   7    4.10    1.58
  -4   6   7    3.20    2.67
   3  -6  -7   -0.14    0.70
   3  -6  -7   -0.52    0.66
  -3   6   7   -1.07    1.99
  -3   6   7    0.78    1.04
   2  -6  -7    7.78    1.64
   2  -6  -7    6.44    1.50
  -2   6   7    8.47    3.39
  -2   6   7    8.17    1.97
   1  -6  -7    7.26    1.66
   1  -6  -7    8.17    1.62
  -1   6   7    5.89    1.61
  -1   6   7    2.32    2.38
   0  -6  -7    8.21    1.54
   0  -6  -7    6.29    1.46
   0   6   7    5.49    1.51
   0   6   7    2.59    2.39
  -1  -6  -7    6.07    1.41
  -1  -6  -7    5.94    1.46
  -1  -6  -7    8.29    1.77
   1   6   7    6.57    1.57
   1   6   7    3.59    2.41
  -2  -6  -7   -0.32    0.74
  -2  -6  -7   -0.31    0.65
  -2  -6  -7   -0.28    0.68
  -3  -6  -7    1.11    0.87
  -3  -6  -7    0.21    0.78
  -3  -6  -7    0.19    1.18
  -4  -6  -7    0.04    1.49
  -5  -6  -7    2.40    1.77
   5  -7  -7   -0.28    0.90
   5  -7  -7    0.83    0.96
  -5   7   7   -0.87    0.93
  -5   7   7   -0.36    2.48
   4  -7  -7    1.12    0.97
   4  -7  -7    0.74    0.84
  -4   7   7    0.59    1.23
  -4   7   7    0.91    2.59
   3  -7  -7    7.84    1.96
   3  -7  -7    9.34    2.06
  -3   7   7    8.05    1.99
   2  -7  -7   11.19    2.00
   2  -7  -7    8.37    1.76
  -2   7   7    0.67    2.32
  -2   7   7    8.35    2.07
   1  -7  -7    1.20    0.96
   1  -7  -7    2.34    1.07
  -1   7   7    1.62    1.10
  -1   7   7    0.28    2.59
   0  -7  -7    0.14    0.76
   0  -7  -7   -0.45    0.66
   0   7   7    1.47    1.18
   0   7   7   -0.73    2.16
  -1  -7  -7    5.04    1.45
  -1  -7  -7    5.19    1.50
  -1  -7  -7    4.96    1.33
   1   7   7    2.01    2.25
   1   7   7    4.15    1.45
  -2  -7  -7    4.33    1.27
  -2  -7  -7    8.43    1.78
  -3  -7  -7    3.42    1.30
  -3  -7  -7    0.33    1.27
  -4  -7  -7    1.11    1.57
   4  -8  -7    3.12    1.41
   4  -8  -7    1.72    1.27
  -4   8   7   -0.84    2.18
  -4   8   7    0.53    1.17
   3  -8  -7   -0.35    0.82
   3  -8  -7   -1.08    0.75
  -3   8   7   -0.44    2.64
  -3   8   7    1.63    1.20
   2  -8  -7    1.44    1.04
   2  -8  -7    1.88    1.14
  -2   8   7    0.69    1.19
  -2   8   7   -1.36    2.44
   1  -8  -7    3.71    1.36
   1  -8  -7    3.25    1.15
  -1   8   7    0.49    2.71
  -1   8   7    3.47    1.52
   0  -8  -7    5.45    1.48
   0  -8  -7    2.36    1.12
   0   8   7    0.06    2.41
   0   8   7    5.41    1.70
  -1  -8  -7    3.89    1.37
  -1  -8  -7    5.40    1.47
   1   8   7    3.53    1.49
   1   8   7    2.24    2.74
  -2  -8  -7    0.13    0.82
  -2  -8  -7    0.01    0.91
  -2  -8  -7    0.75    0.91
  -3  -8  -7    1.24    1.30
   3  -9  -7    5.09    1.64
   3  -9  -7    3.53    1.47
  -3   9   7    1.13    1.32
   2  -9  -7    3.44    1.46
   2  -9  -7    1.31    1.00
  -2   9   7    2.48    1.59
  -2   9   7    0.12    2.72
   1  -9  -7   -0.05    0.97
   1  -9  -7    0.23    0.80
  -1   9   7    0.13    1.13
  -1   9   7   -0.28    2.61
   0  -9  -7    0.78    0.98
   0  -9  -7    0.90    0.88
   0   9   7    0.73    1.28
   0   9   7   -0.69    2.62
  -1  -9  -7    0.57    0.97
  -1  -9  -7    1.93    1.13
   1   9   7   -0.14    1.05
   1   9   7    1.08    2.67
   2   9  -8    2.07    2.98
   2   9  -8    0.12    1.10
  -2  -9   8   -0.43    0.95
   1   9  -8    0.51    2.31
   1   9  -8    4.35    1.76
  -1  -9   8    2.93    1.45
   0   9  -8    1.38    1.37
   0   9  -8    2.26    1.46
   0   9  -8    2.04    2.38
  -1   9  -8    2.42    1.71
  -1   9  -8    3.41    1.62
  -1   9  -8    0.35    1.75
  -2   9  -8    0.53    1.24
  -2   9  -8    0.50    1.25
  -2   9  -8    1.85    2.64
   4   8  -8    0.42    1.35
  -4  -8   8    0.77    1.08
   3   8  -8    0.87    1.42
   3   8  -8   -0.07    2.00
  -3  -8   8    0.76    0.84
   2   8  -8    3.44    1.51
   2   8  -8   -0.97    2.18
  -2  -8   8    1.52    1.15
   1   8  -8    2.35    2.58
   1   8  -8    4.95    1.89
   0   8  -8   -0.05    2.02
   0   8  -8   -0.73    0.85
   0   8  -8   -0.18    1.11
  -1   8  -8    3.85    2.44
  -1   8  -8    4.77    1.73
  -1   8  -8    4.21    1.74
  -2   8  -8    2.34    1.27
  -2   8  -8    1.98    2.42
  -2   8  -8    1.82    1.13
  -2   8  -8    2.72    1.64
   2  -8   8    1.07    0.82
  -3   8  -8   10.41    2.15
  -3   8  -8    6.35    2.16
   3  -8   8    7.45    1.79
  -4   8  -8    0.03    1.02
  -4   8  -8    0.69    1.15
   4  -8   8    0.48    0.96
   4   7  -8    5.38    2.02
   4   7  -8   11.24    3.97
  -4  -7   8    4.70    1.66
   3   7  -8    0.72    1.33
   3   7  -8    0.14    1.93
  -3  -7   8    1.75    1.12
   2   7  -8    1.36    1.15
   2   7  -8    0.87    2.16
  -2  -7   8    0.54    0.78
   1   7  -8   16.49    2.63
   1   7  -8   11.92    2.34
   0   7  -8   20.62    2.94
   0   7  -8   23.08    3.18
  -1   7  -8   11.72    1.86
  -1   7  -8    3.98    2.40
  -1   7  -8   11.56    1.91
  -1   7  -8    9.90    2.30
  -1   7  -8    6.99    1.78
  -2   7  -8    0.41    1.01
  -2   7  -8    1.43    2.07
  -2   7  -8    1.23    1.33
  -2   7  -8    0.97    1.03
  -2   7  -8    1.68    1.04
  -3   7  -8    0.74    0.99
  -3   7  -8    2.52    1.49
  -4   7  -8    7.87    2.40
  -4   7  -8    6.77    1.90
   4  -7   8   10.24    2.11
  -5   7  -8    0.57    1.33
   5  -7   8    0.58    1.05
   5   6  -8    1.16    2.29
   5   6  -8    1.77    1.63
   4   6  -8    0.83    1.15
   4   6  -8   -0.99    1.83
  -4  -6   8    3.36    1.29
   3   6  -8    1.24    1.04
   3   6  -8    5.25    2.83
  -3  -6   8    1.63    1.13
   2   6  -8    1.57    1.33
   2   6  -8   13.31    4.15
  -2  -6   8    3.99    1.26
   1   6  -8   -0.76    1.73
   1   6  -8    0.64    1.07
   1   6  -8    1.89    1.16
   0   6  -8    0.27    0.95
   0   6  -8    0.27    0.69
   0   6  -8   -1.01    1.60
   0   6  -8    0.05    0.86
   0   6  -8    0.06    0.56
  -1   6  -8    9.29    2.03
  -1   6  -8   10.01    1.96
  -1   6  -8    2.62    2.19
  -1   6  -8   -0.25    0.55
  -2   6  -8    1.50    1.81
  -2   6  -8    2.97    1.15
  -2   6  -8    3.20    1.45
  -2   6  -8    2.36    1.10
  -2   6  -8    4.22    1.37
  -3   6  -8   15.00    2.35
  -3   6  -8   13.95    2.23
  -3   6  -8   11.95    2.61
  -4   6  -8   -0.22    0.82
  -4   6  -8    0.67    1.11
  -4   6  -8    0.33    0.97
  -5   6  -8    0.85    1.07
  -5   6  -8    0.50    1.14
   6   5  -8   -1.18    1.45
   6   5  -8   -0.58    1.66
   5   5  -8    3.94    1.80
   5   5  -8    2.33    2.17
   4   5  -8    5.53    1.82
   4   5  -8    7.30    2.65
   3   5  -8    4.04    2.78
   3   5  -8   -0.51    1.07
  -3  -5   8    2.13    1.01
   2   5  -8    7.70    2.83
   2   5  -8    3.97    1.52
  -2  -5   8    3.48    1.24
   1   5  -8   -0.07    0.99
   1   5  -8   -0.63    0.49
   1   5  -8    0.18    0.69
   1   5  -8   -0.85    1.39
   0   5  -8   11.13    1.61
   0   5  -8   14.85    1.85
   0   5  -8   15.37    2.37
   0   5  -8   11.81    2.04
  -1   5  -8   25.04    2.85
  -1   5  -8   25.25    2.57
  -1   5  -8   25.60    2.62
  -1   5  -8   26.08    3.33
  -2   5  -8    3.44    1.17
  -2   5  -8   -0.14    1.66
  -2   5  -8    3.02    1.41
  -2   5  -8    2.78    1.21
  -2   5  -8    1.81    0.97
  -3   5  -8    0.10    0.72
  -3   5  -8    0.24    0.90
  -3   5  -8    0.77    0.87
  -4   5  -8    6.02    1.66
  -4   5  -8    7.16    2.06
  -4   5  -8    4.95    1.48
  -5   5  -8   10.72    2.14
  -5   5  -8    6.10    1.81
  -5   5  -8   15.85    2.54
  -6   5  -8    0.87    1.19
  -6   5  -8    0.53    1.20
   6   4  -8   -0.46    2.17
  -6  -4   8   -1.18    0.92
   5   4  -8   -0.56    1.11
   5   4  -8    0.39    1.91
   4   4  -8   -0.56    1.46
   4   4  -8   -0.09    1.01
   3   4  -8   10.59    3.10
   3   4  -8   11.15    2.21
  -3  -4   8   11.22    1.90
   2   4  -8   35.15    5.46
   2   4  -8   24.11    3.02
  -2  -4   8   17.43    2.19
   1   4  -8   -0.02    0.63
   1   4  -8   -0.39    0.83
   1   4  -8    0.85    0.64
   1   4  -8   -0.33    0.81
   1   4  -8    0.20    1.56
   0   4  -8    1.01    0.68
   0   4  -8    1.02    1.43
   0   4  -8    0.94    0.89
   0   4  -8    1.75    1.07
   0   4  -8    0.02    0.58
  -1   4  -8   63.12    3.50
  -1   4  -8   57.55    3.71
  -1   4  -8   60.39    3.31
  -1   4  -8   54.91    3.30
  -2   4  -8   11.39    1.68
  -2   4  -8   13.15    1.98
  -2   4  -8   10.55    1.72
  -2   4  -8   10.54    2.05
  -3   4  -8    0.99    0.85
  -3   4  -8    4.51    1.38
  -3   4  -8    1.40    1.12
  -4   4  -8   -0.15    0.93
  -4   4  -8    0.57    0.91
  -4   4  -8    1.16    0.89
  -5   4  -8    1.41    1.22
  -5   4  -8    1.09    0.98
  -5   4  -8    0.76    0.99
  -6   4  -8   20.12    3.07
  -6   4  -8    9.14    2.02
  -6   4  -8   12.36    2.69
   6   3  -8   11.03    4.09
  -6  -3   8    4.08    1.69
   5   3  -8   14.48    4.06
  -5  -3   8    4.94    1.83
   4   3  -8    5.15    1.76
   4   3  -8    5.41    2.50
   3   3  -8    4.34    1.66
   3   3  -8    5.22    2.58
   2   3  -8   12.42    1.53
   2   3  -8    9.27    1.34
   2   3  -8   11.24    3.03
   2   3  -8   12.60    2.26
  -2  -3   8    9.29    1.46
   1   3  -8    6.91    1.26
   1   3  -8    4.97    1.44
   1   3  -8    6.14    1.31
   1   3  -8    5.94    2.22
   1   3  -8    6.71    1.23
   0   3  -8   30.89    3.57
   0   3  -8   30.93    2.24
   0   3  -8   26.53    2.36
   0   3  -8   31.52    2.35
   0   3  -8   30.90    2.28
  -1   3  -8    9.97    1.60
  -1   3  -8    9.20    1.55
  -1   3  -8   14.36    2.81
  -1   3  -8    9.00    1.58
  -2   3  -8    2.91    0.97
  -2   3  -8    3.34    1.15
  -2   3  -8    0.63    0.88
  -2   3  -8    2.00    0.94
  -3   3  -8    1.47    0.92
  -3   3  -8    4.94    1.58
  -3   3  -8    6.59    1.52
  -4   3  -8    1.71    0.98
  -4   3  -8    0.23    0.93
  -4   3  -8    1.54    1.00
  -5   3  -8    3.78    1.30
  -5   3  -8    2.89    1.37
  -5   3  -8    1.33    1.01
  -6   3  -8    1.66    1.21
  -6   3  -8    2.06    1.51
  -6   3  -8    1.36    1.09
  -7  -2   8    3.61    1.89
  -6  -2   8    1.87    2.81
  -6  -2   8   -0.16    1.03
   5   2  -8    1.30    2.59
  -5  -2   8    3.33    1.62
   4   2  -8   19.94    4.57
  -4  -2   8   15.18    2.79
   3   2  -8   35.41    2.42
   3   2  -8   40.45    2.42
   3   2  -8   36.75    4.47
   2   2  -8   43.91    4.71
   2   2  -8   45.94    2.66
   2   2  -8   40.55    2.47
   2   2  -8   42.47    3.34
  -2  -2   8   42.01    2.32
   1   2  -8    0.48    0.59
   1   2  -8    0.79    0.53
   1   2  -8    0.26    0.89
   1   2  -8   -0.13    0.32
   1   2  -8   -0.46    1.38
   0   2  -8   -0.42    0.41
   0   2  -8    0.44    0.78
   0   2  -8   -0.23    0.37
   0   2  -8    0.10    0.57
   0   2  -8   -0.17    0.51
  -1   2  -8   19.18    2.63
  -1   2  -8   25.12    2.09
  -1   2  -8   26.31    2.03
  -1   2  -8   24.13    2.12
  -1   2  -8   25.83    2.07
  -2   2  -8   22.86    2.61
  -2   2  -8   20.73    1.81
  -2   2  -8   22.21    2.38
  -2   2  -8   21.13    2.36
  -3   2  -8   11.28    1.94
  -3   2  -8   11.71    2.04
  -3   2  -8   10.34    1.81
  -4   2  -8    6.58    1.80
  -4   2  -8    4.56    1.29
  -4   2  -8    3.24    1.16
  -5   2  -8    0.22    0.78
  -5   2  -8   -0.53    0.67
  -5   2  -8    0.06    0.82
  -6   2  -8    6.26    1.74
  -6   2  -8    6.14    2.02
  -6   2  -8    8.10    1.94
  -7  -1   8    0.82    1.14
  -7  -1   8    0.23    2.60
  -6  -1   8    5.49    1.97
  -6  -1   8    3.72    3.18
  -5  -1   8   17.06    5.02
  -5  -1   8    6.09    1.92
   4   1  -8    4.17    1.07
   4   1  -8    2.86    0.94
  -4  -1   8    2.97    1.53
   3   1  -8    4.13    1.12
   3   1  -8    1.89    0.88
   3   1  -8    3.89    2.47
  -3  -1   8    4.09    1.48
   2   1  -8   11.69    3.10
  -2  -1   8   12.66    2.27
   1   1  -8   27.34    2.12
   1   1  -8   24.60    1.57
   1   1  -8   30.74    2.18
   1   1  -8   26.38    3.43
  -1  -1   8   24.66    2.92
   0   1  -8   14.97    1.34
   0   1  -8   11.07    1.58
   0   1  -8   12.33    1.70
   0   1  -8   18.80    3.00
   0  -1   8   17.44    2.31
  -1   1  -8   14.13    1.84
  -1   1  -8    9.37    1.48
  -1   1  -8   13.21    1.69
  -1   1  -8   16.77    2.68
   1  -1   8   14.14    1.87
  -2   1  -8   10.48    1.72
  -2   1  -8    9.64    1.72
  -3   1  -8   17.68    2.38
  -3   1  -8   23.96    2.66
  -3   1  -8   19.93    2.62
  -4   1  -8   16.38    2.38
  -4   1  -8   16.06    2.54
  -4   1  -8   17.23    2.34
  -5   1  -8    3.87    1.33
  -5   1  -8    4.88    1.74
  -5   1  -8    3.81    1.24
  -6   1  -8    0.03    0.87
  -6   1  -8    0.14    1.15
  -6   1  -8    0.27    1.05
  -7   0   8    4.39    1.87
  -7   0   8    3.15    3.13
  -6   0   8    5.64    2.03
  -6   0   8    8.63    4.19
   5   0  -8   -0.16    0.65
   5   0  -8    0.00    0.54
  -5   0   8    0.33    2.61
  -5   0   8    0.34    1.12
   4   0  -8   19.79    2.26
   4   0  -8   26.00    2.62
  -4   0   8   26.57    6.05
  -4   0   8   22.64    3.45
   3   0  -8   24.62    2.04
   3   0  -8   19.12    2.13
  -3   0   8   34.56    6.30
  -3   0   8   22.23    3.16
   2   0  -8   69.44    3.66
   2   0  -8   70.88    3.52
  -2   0   8   76.77    4.57
  -2   0   8   72.87    6.92
   1   0  -8    4.63    1.17
   1   0  -8    4.39    1.10
  -1   0   8    8.03    2.98
  -1   0   8    2.75    1.17
   0   0  -8   11.21    1.25
   0   0  -8   11.57    1.72
   0   0  -8   11.76    1.63
   0   0   8    8.18    1.56
   0   0   8   15.72    3.38
  -1   0  -8   28.25    2.16
  -1   0  -8   29.20    2.03
  -1   0  -8   28.70    2.32
   1   0   8   29.53    2.15
   1   0   8   24.96    3.21
  -2   0  -8   25.42    2.24
  -2   0  -8   28.31    2.34
  -2   0  -8   26.81    2.66
  -3   0  -8   30.25    2.96
  -3   0  -8   26.71    3.02
  -3   0  -8   22.17    2.54
  -4   0  -8    0.11    0.97
  -4   0  -8    1.06    0.99
  -4   0  -8   -0.81    0.84
  -5   0  -8    1.42    1.12
  -5   0  -8    0.79    0.85
  -5   0  -8    0.64    0.91
  -6   0  -8   11.11    2.22
  -6   0  -8    8.56    2.29
  -6   0  -8    8.91    1.91
  -7   1   8    1.43    1.49
  -7   1   8    0.95    2.67
  -6   1   8    5.44    2.05
  -6   1   8    2.27    3.18
   5  -1  -8   27.06    2.86
  -5   1   8   26.91    3.85
  -5   1   8   33.38    6.89
   4  -1  -8    0.78    0.80
   4  -1  -8    0.05    0.61
  -4   1   8    1.83    2.96
  -4   1   8   -0.61    1.07
   3  -1  -8    0.32    0.58
   3  -1  -8    0.32    0.67
  -3   1   8   -0.90    0.91
  -3   1   8   -1.26    2.08
   2  -1  -8    3.49    1.03
   2  -1  -8    5.01    1.19
  -2   1   8    6.16    3.09
  -2   1   8    6.63    1.75
   1  -1  -8   43.36    2.75
   1  -1  -8   41.90    2.80
  -1   1   8   41.19    3.06
  -1   1   8   47.19    5.08
   0  -1  -8   17.06    1.25
   0  -1  -8   17.03    2.08
   0  -1  -8   18.88    2.28
   0   1   8   15.78    2.08
   0   1   8   23.52    3.99
  -1  -1  -8    1.80    0.80
  -1  -1  -8    0.96    0.73
  -1  -1  -8    0.76    0.71
   1   1   8    2.00    0.83
   1   1   8    0.36    1.34
  -2  -1  -8    1.89    0.98
  -2  -1  -8    0.23    0.74
  -2  -1  -8    0.80    0.78
  -3  -1  -8   19.91    2.47
  -3  -1  -8   20.61    2.43
  -3  -1  -8   20.44    2.70
  -4  -1  -8   22.99    3.28
  -4  -1  -8   21.20    2.62
  -4  -1  -8   18.80    2.55
  -5  -1  -8    1.15    0.89
  -5  -1  -8    2.18    1.22
  -5  -1  -8    3.39    1.63
  -6  -1  -8    0.59    1.01
  -6  -1  -8   -0.46    1.09
  -6  -1  -8   -0.27    0.79
  -7   2   8    1.07    1.51
   6  -2  -8    3.17    1.33
   6  -2  -8    2.52    1.20
  -6   2   8    0.86    1.38
  -6   2   8    1.18    2.90
   5  -2  -8    1.44    0.92
   5  -2  -8   -0.12    0.61
  -5   2   8    0.50    1.24
  -5   2   8    1.44    2.72
   4  -2  -8   12.74    1.95
   4  -2  -8    8.47    1.58
  -4   2   8   17.90    4.91
  -4   2   8   11.11    2.28
   3  -2  -8    1.07    0.81
   3  -2  -8    2.53    1.03
  -3   2   8    3.16    1.52
  -3   2   8    3.96    3.09
   2  -2  -8   27.82    2.21
   2  -2  -8   21.03    2.39
  -2   2   8   22.80    2.85
  -2   2   8   33.37    5.63
   1  -2  -8    9.87    1.65
   1  -2  -8    8.84    1.53
  -1   2   8    8.52    1.68
  -1   2   8   13.71    3.53
   0  -2  -8    4.50    1.21
   0  -2  -8    3.45    1.08
   0   2   8    3.76    2.16
   0   2   8    4.29    1.19
  -1  -2  -8   30.96    2.46
  -1  -2  -8   29.08    2.51
  -1  -2  -8   35.86    2.30
   1   2   8   34.28    2.25
   1   2   8   32.55    3.53
  -2  -2  -8   13.69    1.92
  -2  -2  -8   15.96    2.15
  -2  -2  -8   15.21    2.10
  -3  -2  -8   15.12    2.08
  -3  -2  -8   15.56    2.21
  -3  -2  -8   12.66    2.29
  -4  -2  -8    0.57    1.18
  -4  -2  -8    0.94    0.89
  -4  -2  -8   -0.31    0.62
  -5  -2  -8    1.93    1.21
  -5  -2  -8    2.62    1.52
  -5  -2  -8    2.11    1.12
  -6  -2  -8    4.45    1.54
  -6  -2  -8    2.53    1.64
  -6  -2  -8    6.07    1.68
   6  -3  -8    2.18    1.26
   6  -3  -8    5.24    1.58
  -6   3   8    1.69    1.66
  -6   3   8    2.72    3.24
   5  -3  -8   17.35    2.53
   5  -3  -8   21.26    2.66
  -5   3   8   16.32    2.74
  -5   3   8   29.09    5.98
   4  -3  -8    6.09    1.45
   4  -3  -8    9.37    1.78
  -4   3   8    4.74    1.75
  -4   3   8    5.98    3.50
   3  -3  -8   -0.41    0.65
   3  -3  -8   -0.13    0.62
  -3   3   8   -0.24    1.09
  -3   3   8   -2.15    2.32
   2  -3  -8    8.96    1.66
   2  -3  -8   11.07    1.89
  -2   3   8   15.17    2.36
  -2   3   8   13.86    3.92
   1  -3  -8   14.31    1.97
   1  -3  -8   10.19    1.62
  -1   3   8   18.06    4.03
  -1   3   8   13.82    2.18
   0  -3  -8   21.50    2.53
   0  -3  -8   25.14    2.69
   0   3   8   22.45    2.49
   0   3   8   18.20    3.50
  -1  -3  -8    0.36    0.83
  -1  -3  -8   -0.46    0.66
  -1  -3  -8    1.25    0.85
   1   3   8    0.25    0.75
   1   3   8    0.31    1.56
  -2  -3  -8    5.95    1.41
  -2  -3  -8    3.48    1.09
  -2  -3  -8    3.11    1.39
  -3  -3  -8   17.67    2.71
  -3  -3  -8   20.83    2.57
  -3  -3  -8   18.87    2.31
  -4  -3  -8   20.18    3.09
  -4  -3  -8   16.16    2.27
  -4  -3  -8   16.81    2.53
  -5  -3  -8    4.70    1.57
  -5  -3  -8    3.58    1.38
  -5  -3  -8    5.82    1.96
  -6  -3  -8    0.31    1.00
  -6  -3  -8    0.73    0.97
  -6  -3  -8   -0.50    1.29
   6  -4  -8    0.22    0.89
   6  -4  -8    0.53    0.88
  -6   4   8   -1.57    2.42
  -6   4   8   -0.49    1.14
   5  -4  -8    0.07    0.84
   5  -4  -8   -0.76    0.70
  -5   4   8   -0.26    2.40
  -5   4   8    0.32    1.28
   4  -4  -8    8.74    1.81
   4  -4  -8    6.06    1.51
  -4   4   8    6.24    3.34
  -4   4   8   10.72    2.32
   3  -4  -8   19.35    2.54
   3  -4  -8   26.53    2.99
  -3   4   8   22.76    4.78
  -3   4   8   19.70    2.78
   2  -4  -8    9.94    1.78
   2  -4  -8    6.18    1.43
  -2   4   8   10.50    3.58
  -2   4   8   10.40    2.07
   1  -4  -8    0.49    0.74
   1  -4  -8    1.11    0.88
  -1   4   8    0.67    1.06
  -1   4   8    1.58    2.09
   0  -4  -8   -0.19    0.68
   0  -4  -8    1.96    0.94
   0   4   8    1.55    1.00
   0   4   8   -0.85    1.68
  -1  -4  -8   20.02    2.39
  -1  -4  -8   21.00    2.46
  -1  -4  -8   22.19    2.53
   1   4   8   27.52    2.27
   1   4   8   14.44    2.97
  -2  -4  -8    5.98    1.71
  -2  -4  -8    4.88    1.33
  -2  -4  -8    4.80    1.36
  -3  -4  -8    2.69    1.13
  -3  -4  -8    1.73    1.34
  -3  -4  -8    3.62    1.27
  -4  -4  -8    0.21    1.32
  -4  -4  -8    0.03    0.76
  -4  -4  -8    0.80    0.89
  -5  -4  -8    2.73    1.31
  -5  -4  -8    1.38    1.06
  -5  -4  -8    1.43    1.53
  -6  -4  -8    7.97    2.68
   6  -5  -8    1.65    1.28
   6  -5  -8    4.94    1.86
  -6   5   8   -0.19    2.62
  -6   5   8    2.63    1.60
   5  -5  -8    4.98    1.63
   5  -5  -8    3.00    1.26
  -5   5   8    3.11    3.03
  -5   5   8    4.74    1.88
   4  -5  -8    1.42    1.05
   4  -5  -8    6.66    1.76
  -4   5   8    5.42    1.86
  -4   5   8    2.30    2.49
   3  -5  -8    0.57    0.93
   3  -5  -8    1.20    0.92
  -3   5   8    2.25    1.39
  -3   5   8   -0.53    2.10
   2  -5  -8    3.94    1.34
   2  -5  -8    4.61    1.32
  -2   5   8    4.49    1.58
  -2   5   8    2.45    2.66
   1  -5  -8    0.62    0.81
   1  -5  -8    0.15    0.68
  -1   5   8    1.10    1.14
  -1   5   8    0.02    2.28
   0  -5  -8   11.10    1.85
   0  -5  -8   11.59    1.90
   0   5   8   12.04    1.97
   0   5   8    4.69    2.55
  -1  -5  -8    0.20    0.87
  -1  -5  -8    2.93    1.06
   1   5   8   -0.76    1.87
   1   5   8    1.13    0.93
  -2  -5  -8    0.39    0.77
  -2  -5  -8    1.99    1.45
  -2  -5  -8   -0.56    0.70
  -3  -5  -8    2.33    1.20
  -3  -5  -8    3.47    1.21
  -3  -5  -8    5.38    1.81
  -4  -5  -8    2.98    1.14
  -4  -5  -8    3.85    1.33
  -4  -5  -8    5.46    2.06
  -5  -5  -8    0.68    1.69
   5  -6  -8    0.37    1.01
   5  -6  -8    0.53    0.98
  -5   6   8   -1.87    2.00
  -5   6   8   -0.49    1.10
   4  -6  -8    2.06    1.25
   4  -6  -8    2.11    1.31
  -4   6   8    0.04    2.04
  -4   6   8    1.85    1.41
   3  -6  -8    9.47    1.91
   3  -6  -8   13.17    2.21
  -3   6   8    7.18    3.11
  -3   6   8    7.47    1.97
   2  -6  -8    4.93    1.45
   2  -6  -8    3.26    1.22
  -2   6   8    3.37    1.47
  -2   6   8    3.34    2.66
   1  -6  -8    0.07    0.83
   1  -6  -8   -0.94    0.58
  -1   6   8    0.58    2.37
  -1   6   8   -0.43    0.90
   0  -6  -8    1.19    0.89
   0  -6  -8    1.00    0.87
   0   6   8    0.39    0.90
   0   6   8   -0.25    2.02
  -1  -6  -8    6.90    1.60
  -1  -6  -8    5.35    1.44
   1   6   8    4.30    1.35
   1   6   8    2.47    2.19
  -2  -6  -8    4.38    1.41
  -2  -6  -8    1.86    1.13
  -2  -6  -8    1.73    1.31
  -3  -6  -8    0.92    1.34
  -3  -6  -8    0.41    0.76
  -3  -6  -8    0.57    0.87
  -4  -6  -8    1.25    1.59
  -4  -6  -8    0.69    0.89
  -5  -6  -8    1.51    1.73
   4  -7  -8    0.70    1.05
   4  -7  -8    0.48    1.12
  -4   7   8    0.09    2.44
  -4   7   8    0.93    1.29
   3  -7  -8   -0.46    0.71
   3  -7  -8   -0.39    0.78
  -3   7   8   -1.28    2.12
  -3   7   8   -1.45    0.84
   2  -7  -8    4.15    1.39
   2  -7  -8    4.97    1.45
  -2   7   8    1.91    1.27
  -2   7   8    0.58    2.53
   1  -7  -8    3.93    1.36
   1  -7  -8    4.62    1.54
  -1   7   8    2.78    1.30
  -1   7   8   -0.03    2.43
   0  -7  -8    0.73    0.79
   0  -7  -8    0.95    0.92
   0   7   8    1.81    1.17
   0   7   8    0.64    2.12
  -1  -7  -8    1.50    0.98
  -1  -7  -8   -0.22    0.78
   1   7   8   -0.47    0.84
   1   7   8   -0.02    2.01
  -2  -7  -8    0.42    0.95
  -2  -7  -8    0.63    0.87
  -3  -7  -8    3.81    1.87
  -3  -7  -8    3.59    1.31
  -3  -7  -8    2.88    1.32
  -4  -7  -8   -0.86    1.54
   3  -8  -8    2.84    1.25
   3  -8  -8    3.58    1.43
  -3   8   8    1.74    2.92
  -3   8   8    1.22    1.22
   2  -8  -8   -0.28    0.84
   2  -8  -8    1.82    1.30
  -2   8   8    1.11    1.33
  -2   8   8   -1.39    2.53
   1  -8  -8    3.40    1.40
   1  -8  -8    0.12    0.87
  -1   8   8   -0.54    1.05
  -1   8   8   -0.56    2.81
   0  -8  -8    0.96    1.00
   0  -8  -8    3.41    1.34
   0   8   8    2.66    1.49
   0   8   8    0.54    2.35
  -1  -8  -8    0.39    0.94
  -1  -8  -8    1.27    1.11
   1   8   8    0.05    1.11
  -2  -8  -8    1.26    0.97
  -2  -8  -8    0.39    0.95
   2  -9  -8    1.71    1.17
   2  -9  -8    0.98    1.04
  -2   9   8    0.13    1.19
   1  -9  -8    2.42    1.16
   1  -9  -8    2.29    1.22
  -1   9   8   -1.63    2.68
  -1   9   8    1.89    1.53
   0  -9  -8    0.86    0.95
   0  -9  -8    1.34    1.04
   0   9   8    2.33    1.46
   0   9   8    2.08    3.32
  -1  -9  -8    0.00    0.94
  -1  -9  -8    0.80    0.94
   1   9  -9    0.19    1.26
  -1  -9   9    3.60    1.58
   0   9  -9    4.60    1.91
   0   9  -9    0.73    1.51
   0   9  -9   -0.31    2.33
  -1   9  -9    0.98    1.31
  -1   9  -9   -0.12    1.24
  -1   9  -9    1.17    2.60
   3   8  -9    0.73    1.28
   3   8  -9    2.06    2.44
  -3  -8   9    0.12    0.79
   2   8  -9    4.03    1.75
   2   8  -9    4.53    2.94
  -2  -8   9    3.35    1.47
   1   8  -9    9.93    2.23
   1   8  -9    1.28    2.74
   0   8  -9    4.49    1.84
   0   8  -9    1.97    1.40
   0   8  -9    1.06    2.07
  -1   8  -9    0.11    2.16
  -1   8  -9    2.16    1.42
  -1   8  -9    1.65    1.52
  -2   8  -9    0.36    2.09
  -2   8  -9    0.65    1.15
  -2   8  -9   -0.18    1.12
  -2   8  -9    0.26    0.96
   2  -8   9    0.28    0.86
  -3   8  -9    4.03    1.90
  -3   8  -9    0.76    1.12
   3  -8   9    1.06    1.12
   4   7  -9    2.44    2.55
   4   7  -9    1.46    1.49
   3   7  -9    6.77    2.11
   3   7  -9   12.16    4.06
  -3  -7   9    5.49    1.63
   2   7  -9    1.71    2.08
   2   7  -9    0.81    1.36
  -2  -7   9    0.49    0.94
   1   7  -9   -0.39    1.75
   1   7  -9    1.59    1.19
   1   7  -9   -0.24    1.04
   0   7  -9    1.95    2.41
   0   7  -9    9.71    2.22
   0   7  -9   11.82    2.52
  -1   7  -9   13.00    2.42
  -1   7  -9   10.73    1.91
  -1   7  -9   12.33    2.05
  -1   7  -9    8.66    2.15
  -2   7  -9    5.95    1.77
  -2   7  -9   10.89    2.55
  -2   7  -9   11.39    2.13
  -2   7  -9    7.14    1.69
  -2   7  -9   -0.24    2.00
  -3   7  -9   -0.17    0.96
  -3   7  -9    0.56    1.12
  -3   7  -9   -0.28    0.87
  -4   7  -9   -0.59    1.14
  -4   7  -9   -0.62    0.94
   5   6  -9   -1.08    1.75
   5   6  -9   -0.63    1.21
   4   6  -9    1.06    2.20
   4   6  -9    1.08    1.52
   3   6  -9   14.86    4.42
   3   6  -9    5.24    1.93
   2   6  -9    1.79    1.22
   2   6  -9    2.30    2.22
  -2  -6   9    1.10    0.86
   1   6  -9    4.57    2.61
   1   6  -9    1.51    1.22
   1   6  -9    1.40    1.21
   0   6  -9   14.84    2.45
   0   6  -9   10.43    2.24
  -1   6  -9    0.68    0.69
  -1   6  -9    0.50    1.65
  -1   6  -9    4.16    1.28
  -1   6  -9    3.40    1.39
  -1   6  -9    1.81    1.12
  -2   6  -9    4.33    1.44
  -2   6  -9    7.52    1.75
  -2   6  -9    4.20    1.68
  -2   6  -9    4.14    1.38
  -3   6  -9    1.29    1.15
  -3   6  -9    3.23    1.39
  -3   6  -9    5.51    1.61
  -4   6  -9    7.06    1.88
  -4   6  -9    9.65    2.45
  -4   6  -9    6.98    1.81
  -5   6  -9    0.81    1.27
  -5   6  -9    2.62    1.47
  -5   6  -9    2.03    1.31
   5   5  -9    0.41    2.04
   5   5  -9   -0.25    1.27
   4   5  -9    1.85    2.12
   4   5  -9    3.47    1.65
   3   5  -9   18.07    4.00
   3   5  -9   12.30    2.44
   2   5  -9   -0.20    1.52
   2   5  -9    0.13    1.08
  -2  -5   9    0.58    0.72
   1   5  -9   -0.54    0.79
   1   5  -9    1.76    1.99
   1   5  -9   -0.28    0.93
   0   5  -9   23.70    2.57
   0   5  -9   36.81    4.64
   0   5  -9   22.87    2.91
   0   5  -9   21.77    2.43
   0   5  -9   13.69    2.42
  -1   5  -9   39.45    2.82
  -1   5  -9   36.16    3.24
  -1   5  -9   39.45    2.89
  -2   5  -9   29.32    3.04
  -2   5  -9   28.92    3.57
  -2   5  -9   32.39    2.70
  -3   5  -9    0.58    0.96
  -3   5  -9    0.72    0.94
  -3   5  -9    1.43    1.06
  -4   5  -9    0.36    1.04
  -4   5  -9   -1.69    0.73
  -4   5  -9    1.26    1.05
  -5   5  -9   12.42    2.47
  -5   5  -9   16.42    3.28
  -5   5  -9    9.53    2.16
  -6  -4   9    2.40    1.56
   5   4  -9    0.34    1.87
   4   4  -9    1.27    1.98
   4   4  -9    2.97    1.54
   3   4  -9    2.27    1.45
   3   4  -9    4.31    2.31
   2   4  -9    6.76    1.87
   2   4  -9    9.29    2.96
  -2  -4   9    8.84    1.76
   1   4  -9   13.65    2.31
   1   4  -9   20.44    3.97
   1   4  -9   15.54    2.20
   1   4  -9   18.60    2.10
   1   4  -9   17.10    2.02
   0   4  -9    1.24    0.99
   0   4  -9   -0.16    0.39
   0   4  -9    1.97    1.76
   0   4  -9   -0.13    0.52
   0   4  -9    2.07    1.14
  -1   4  -9    0.66    0.90
  -1   4  -9    1.03    0.86
  -1   4  -9   -0.29    0.70
  -1   4  -9    0.44    0.77
  -1   4  -9    2.75    1.78
  -2   4  -9    2.67    1.12
  -2   4  -9    5.06    1.59
  -2   4  -9    5.70    1.41
  -3   4  -9    4.04    1.48
  -3   4  -9    6.41    1.65
  -3   4  -9    4.84    1.38
  -4   4  -9    8.77    2.14
  -4   4  -9   10.73    2.01
  -4   4  -9    8.55    1.91
  -5   4  -9    2.95    1.64
  -5   4  -9    3.01    1.41
  -5   4  -9    0.45    1.09
  -6  -3   9   -0.42    1.01
   5   3  -9    0.16    2.17
  -5  -3   9    0.34    1.04
   4   3  -9    3.36    2.36
   3   3  -9   20.78    4.24
   3   3  -9   17.49    2.84
   2   3  -9    5.72    1.21
   2   3  -9    4.78    1.17
   2   3  -9    7.72    2.88
   2   3  -9    3.95    1.63
   1   3  -9    3.18    2.06
   1   3  -9    2.55    1.01
   1   3  -9    2.22    1.30
   1   3  -9    0.84    0.76
   1   3  -9    2.72    0.95
   0   3  -9   14.25    2.02
   0   3  -9   10.52    1.72
   0   3  -9   12.96    1.95
   0   3  -9   14.05    1.95
  -1   3  -9    5.66    2.14
  -1   3  -9    4.78    1.30
  -1   3  -9    4.15    1.32
  -1   3  -9    3.07    1.16
  -1   3  -9    3.41    1.15
  -2   3  -9   28.91    2.73
  -2   3  -9   29.50    2.91
  -2   3  -9   29.01    3.09
  -3   3  -9    0.10    0.81
  -3   3  -9   -0.18    0.78
  -3   3  -9    0.79    0.90
  -4   3  -9    0.33    0.83
  -4   3  -9    0.23    0.70
  -4   3  -9    1.37    1.09
  -5   3  -9    3.76    1.59
  -5   3  -9    4.14    1.49
  -5   3  -9    4.45    1.57
  -6   3  -9    5.73    2.08
  -6   3  -9   10.00    2.28
  -6   3  -9   10.67    2.35
  -6  -2   9    7.27    4.07
  -6  -2   9    5.95    1.85
  -5  -2   9    2.36    1.46
   4   2  -9    0.31    1.93
  -4  -2   9    0.72    1.05
   3   2  -9    4.15    1.15
   3   2  -9    8.86    3.09
   3   2  -9    5.42    1.28
  -3  -2   9    4.82    1.73
   2   2  -9   23.91    2.09
   2   2  -9   20.79    2.21
   2   2  -9   23.74    4.34
   1   2  -9   40.89    2.78
   1   2  -9   47.21    3.40
   1   2  -9   38.89    2.62
   1   2  -9   45.73    4.62
   0   2  -9    1.19    0.75
   0   2  -9    1.02    1.02
   0   2  -9    1.40    1.77
   0   2  -9    2.04    0.96
   0   2  -9    1.35    0.76
  -1   2  -9    4.68    1.28
  -1   2  -9    8.89    1.64
  -1   2  -9    8.96    2.52
  -1   2  -9    4.88    1.30
  -1   2  -9    4.30    1.35
  -2   2  -9   18.38    2.37
  -2   2  -9   15.50    2.16
  -3   2  -9   18.03    2.63
  -3   2  -9   13.94    2.23
  -3   2  -9   22.25    2.76
  -4   2  -9    2.34    1.16
  -4   2  -9    2.12    1.20
  -4   2  -9    2.99    1.16
  -5   2  -9   -0.13    0.94
  -5   2  -9    1.30    1.02
  -5   2  -9   -0.24    0.80
  -6   2  -9    1.07    1.11
  -6   2  -9    0.69    1.03
  -6   2  -9    0.11    1.03
  -6  -1   9   -1.26    2.62
  -6  -1   9    0.51    1.40
  -5  -1   9   10.98    4.64
  -5  -1   9   10.30    2.55
   4   1  -9   10.85    1.91
   4   1  -9    7.53    1.51
  -4  -1   9   14.53    4.68
  -4  -1   9    5.67    2.05
   3   1  -9    5.96    1.31
   3   1  -9    5.18    1.33
  -3  -1   9    3.64    1.67
   2   1  -9    3.18    2.32
   2   1  -9    2.12    1.00
   2   1  -9    1.50    0.93
  -2  -1   9    4.92    1.72
   1   1  -9    6.25    1.36
   1   1  -9    3.87    2.22
   1   1  -9    5.21    1.30
  -1  -1   9    5.74    1.57
   0   1  -9   21.74    3.50
   0   1  -9   16.03    2.04
   0   1  -9   16.57    1.78
   0   1  -9   14.38    1.93
   0  -1   9   14.78    2.24
  -1   1  -9   10.74    1.77
  -1   1  -9   10.44    2.41
  -1   1  -9    9.23    1.61
  -1   1  -9   11.86    1.72
   1  -1   9   17.07    2.17
  -2   1  -9   24.18    2.61
  -2   1  -9   22.86    2.64
  -2   1  -9   21.41    2.48
  -3   1  -9    4.28    1.39
  -3   1  -9    3.31    1.23
  -3   1  -9    4.98    1.52
  -4   1  -9    5.42    1.65
  -4   1  -9    4.59    1.36
  -4   1  -9    3.70    1.39
  -5   1  -9    2.97    1.29
  -5   1  -9    5.33    1.56
  -5   1  -9    3.54    1.58
  -6   1  -9    2.11    1.35
  -6   1  -9    0.83    1.38
  -6   1  -9    1.10    1.22
  -6   0   9    7.13    4.15
  -6   0   9    9.50    2.52
  -5   0   9    5.65    1.99
  -5   0   9    0.16    2.87
   4   0  -9    5.12    1.25
   4   0  -9    4.36    1.24
  -4   0   9    3.09    1.71
  -4   0   9    1.52    2.71
   3   0  -9   21.30    2.42
   3   0  -9   19.98    2.37
  -3   0   9   18.17    2.86
  -3   0   9   18.26    5.01
   2   0  -9   32.14    2.58
   2   0  -9   33.43    2.55
  -2   0   9   32.28    3.60
  -2   0   9   41.25    6.80
   1   0  -9   63.47    3.47
   1   0  -9   55.27    3.47
  -1   0   9   55.75    5.99
  -1   0   9   58.38    3.93
   0   0  -9    0.85    0.79
   0   0  -9    0.14    0.68
   0   0   9    0.21    0.92
   0   0   9    1.30    1.87
  -1   0  -9    0.31    0.70
  -1   0  -9   -0.23    0.60
  -1   0  -9   -0.13    0.63
   1   0   9   -0.07    1.58
   1   0   9    0.44    0.74
  -2   0  -9    6.20    1.47
  -2   0  -9    9.08    1.68
  -2   0  -9    9.06    1.67
  -3   0  -9   15.40    2.31
  -3   0  -9   19.71    2.59
  -3   0  -9   16.21    2.45
  -4   0  -9    8.45    1.95
  -4   0  -9    6.95    1.74
  -4   0  -9   13.65    2.25
  -5   0  -9    1.03    1.08
  -5   0  -9   -0.01    0.86
  -5   0  -9    0.65    1.11
  -6   0  -9    0.33    1.06
  -6   0  -9   -0.07    1.24
  -6   0  -9    0.74    0.91
  -6   1   9   -1.03    2.46
  -6   1   9   -0.46    1.18
   5  -1  -9    3.30    1.16
   5  -1  -9    2.55    1.09
  -5   1   9    2.13    2.89
  -5   1   9    2.48    1.68
   4  -1  -9    4.82    1.36
   4  -1  -9    4.97    1.35
  -4   1   9    3.32    1.58
  -4   1   9    6.19    3.71
   3  -1  -9    4.46    1.27
   3  -1  -9    5.78    1.42
  -3   1   9    5.40    3.57
  -3   1   9    1.79    1.56
   2  -1  -9    4.37    1.18
   2  -1  -9    2.27    1.00
  -2   1   9    5.77    3.37
  -2   1   9    1.94    1.35
   1  -1  -9    2.93    1.14
   1  -1  -9    3.33    1.09
  -1   1   9    2.70    2.54
  -1   1   9    2.76    1.24
   0  -1  -9   40.55    2.85
   0  -1  -9   37.45    2.90
   0   1   9   38.64    2.91
   0   1   9   36.03    4.45
  -1  -1  -9   14.15    2.06
  -1  -1  -9   13.91    1.77
  -1  -1  -9   14.20    2.11
   1   1   9   12.32    1.68
   1   1   9   14.35    3.01
  -2  -1  -9    7.36    1.57
  -2  -1  -9    5.63    1.47
  -2  -1  -9    4.80    1.35
  -3  -1  -9   -0.24    0.55
  -3  -1  -9    0.71    0.99
  -3  -1  -9    0.19    0.80
  -4  -1  -9    3.87    1.38
  -4  -1  -9    0.92    0.98
  -4  -1  -9    3.55    1.42
  -5  -1  -9   17.36    3.15
  -5  -1  -9   18.38    2.79
  -5  -1  -9   15.70    2.58
  -6  -1  -9    3.94    1.82
  -6  -1  -9    1.65    1.11
  -6  -1  -9    2.80    1.32
   6  -2  -9    4.82    1.60
   6  -2  -9    5.37    1.55
  -6   2   9    5.19    2.02
  -6   2   9    6.50    4.01
   5  -2  -9    7.75    1.80
   5  -2  -9    7.87    1.75
  -5   2   9    6.34    2.15
  -5   2   9    9.16    4.28
   4  -2  -9    2.14    0.95
   4  -2  -9    1.74    0.98
  -4   2   9    4.41    3.24
  -4   2   9    3.95    1.67
   3  -2  -9   11.54    1.90
   3  -2  -9   13.19    1.96
  -3   2   9   17.76    4.97
  -3   2   9   12.24    2.39
   2  -2  -9   14.90    2.17
   2  -2  -9   16.53    2.13
  -2   2   9   18.69    4.80
  -2   2   9   11.32    2.16
   1  -2  -9   39.71    2.82
   1  -2  -9   31.80    2.72
  -1   2   9   40.45    5.96
  -1   2   9   32.48    2.91
   0  -2  -9    4.52    1.27
   0  -2  -9    3.81    1.23
   0   2   9    5.59    2.60
   0   2   9    5.03    1.35
  -1  -2  -9    4.62    1.32
  -1  -2  -9    5.35    1.47
   1   2   9    6.61    2.60
   1   2   9    3.79    1.16
  -2  -2  -9   22.70    2.76
  -2  -2  -9   19.87    2.47
  -2  -2  -9   16.80    2.30
  -3  -2  -9   11.45    2.14
  -3  -2  -9    8.92    1.71
  -3  -2  -9    8.27    1.82
  -4  -2  -9    8.45    1.82
  -4  -2  -9   12.54    2.23
  -4  -2  -9   14.17    2.57
  -5  -2  -9   -0.44    0.99
  -5  -2  -9   -0.43    0.87
  -5  -2  -9   -0.44    0.72
  -6  -2  -9    0.52    1.54
  -6  -2  -9    1.08    1.23
  -6  -2  -9   -0.16    0.95
   6  -3  -9    1.97    1.21
   6  -3  -9    1.07    1.08
  -6   3   9   -0.83    1.36
  -6   3   9   -1.78    2.62
   5  -3  -9    1.77    1.08
   5  -3  -9    3.12    1.22
  -5   3   9   -0.58    2.37
  -5   3   9    3.06    1.59
   4  -3  -9   18.53    2.54
   4  -3  -9   24.14    2.84
  -4   3   9   24.39    5.56
  -4   3   9   12.59    2.50
   3  -3  -9    4.66    1.43
   3  -3  -9    3.56    1.20
  -3   3   9    2.33    1.52
  -3   3   9    3.81    3.28
   2  -3  -9    1.47    1.00
   2  -3  -9    1.72    0.96
  -2   3   9    2.70    2.93
  -2   3   9   -0.57    1.09
   1  -3  -9    1.26    0.89
   1  -3  -9    0.70    0.84
  -1   3   9    2.16    2.55
  -1   3   9    1.70    1.13
   0  -3  -9   30.72    3.25
   0  -3  -9   27.79    2.90
   0   3   9   32.44    4.31
   0   3   9   28.45    2.56
  -1  -3  -9   10.65    1.78
  -1  -3  -9   14.17    2.14
   1   3   9   11.99    1.77
  -2  -3  -9   -0.70    0.76
  -2  -3  -9   -1.30    0.82
  -2  -3  -9    0.39    0.83
  -3  -3  -9    0.59    0.95
  -3  -3  -9   -0.34    0.85
  -3  -3  -9    1.89    0.99
  -4  -3  -9    1.53    0.96
  -4  -3  -9    7.17    1.80
  -4  -3  -9    2.65    1.62
  -5  -3  -9    8.37    2.40
  -5  -3  -9   10.50    2.23
  -5  -3  -9    7.21    1.71
  -6  -3  -9    0.43    1.53
  -6  -3  -9    0.15    0.88
   6  -4  -9    1.11    1.06
   6  -4  -9    1.17    1.14
  -6   4   9    1.05    2.82
  -6   4   9    1.37    1.44
   5  -4  -9    1.30    1.04
   5  -4  -9    3.08    1.36
  -5   4   9   -1.53    2.40
  -5   4   9    2.02    1.61
   4  -4  -9   -0.18    0.70
   4  -4  -9    0.75    0.96
  -4   4   9    0.44    1.16
  -4   4   9    0.18    2.43
   3  -4  -9    7.57    1.73
   3  -4  -9    7.47    1.65
  -3   4   9    5.95    1.79
  -3   4   9    7.89    3.53
   2  -4  -9    0.20    0.62
   2  -4  -9   -0.28    0.68
  -2   4   9   -0.05    2.56
  -2   4   9   -0.07    1.16
   1  -4  -9    0.58    0.87
   1  -4  -9    2.05    1.01
  -1   4   9    2.15    2.54
  -1   4   9    0.95    1.10
   0  -4  -9    3.13    1.23
   0  -4  -9    1.80    1.01
   0   4   9    1.49    1.02
   0   4   9    1.94    2.11
  -1  -4  -9    0.80    0.77
  -1  -4  -9    0.67    0.92
   1   4   9    0.27    0.83
  -2  -4  -9    9.38    1.88
  -2  -4  -9    9.07    1.75
  -3  -4  -9   11.11    2.02
  -3  -4  -9    9.10    2.23
  -3  -4  -9    9.33    1.84
  -4  -4  -9    6.00    1.56
  -4  -4  -9    6.03    1.60
  -4  -4  -9    5.04    1.98
  -5  -4  -9   -0.73    0.87
  -5  -4  -9    0.48    0.91
  -5  -4  -9   -0.92    1.25
   5  -5  -9    1.58    1.09
   5  -5  -9    1.51    1.06
  -5   5   9    0.60    1.29
  -5   5   9    0.80    2.82
   4  -5  -9    8.41    1.88
   4  -5  -9    8.18    1.90
  -4   5   9    2.91    3.15
  -4   5   9    8.13    2.24
   3  -5  -9    6.03    1.52
   3  -5  -9    8.06    1.81
  -3   5   9    3.40    2.80
  -3   5   9    6.81    1.92
   2  -5  -9    0.41    0.70
   2  -5  -9    0.06    0.78
  -2   5   9   -0.25    0.91
  -2   5   9    0.48    2.29
   1  -5  -9    2.27    1.14
   1  -5  -9    4.14    1.33
  -1   5   9    2.46    2.71
  -1   5   9    2.23    1.22
   0  -5  -9   15.01    2.38
   0  -5  -9   18.35    2.50
   0   5   9    9.84    2.03
  -1  -5  -9    8.95    1.77
  -1  -5  -9    9.08    1.86
  -2  -5  -9    2.35    1.21
  -2  -5  -9    2.46    1.10
  -3  -5  -9    0.17    0.79
  -3  -5  -9    0.23    1.30
  -3  -5  -9    2.04    1.02
  -4  -5  -9    2.80    1.20
  -4  -5  -9    5.40    1.64
  -4  -5  -9    3.86    2.03
  -5  -5  -9    4.40    1.56
  -5  -5  -9    1.65    1.81
   5  -6  -9    1.12    1.03
   5  -6  -9    0.10    0.91
  -5   6   9    0.95    1.34
   4  -6  -9   -0.20    0.78
   4  -6  -9   -0.11    0.80
  -4   6   9   -1.21    2.22
  -4   6   9    0.50    1.16
   3  -6  -9   -0.09    0.83
   3  -6  -9    1.99    1.25
  -3   6   9    1.26    2.45
  -3   6   9    2.07    1.38
   2  -6  -9    5.74    1.55
   2  -6  -9    3.10    1.17
  -2   6   9    1.79    2.35
  -2   6   9    5.05    1.70
   1  -6  -9    3.92    1.27
   1  -6  -9    4.53    1.41
  -1   6   9    3.61    1.43
  -1   6   9    0.70    2.66
   0  -6  -9   -0.25    0.76
   0  -6  -9   -0.23    0.80
   0   6   9    1.04    0.90
   0   6   9    0.90    2.31
  -1  -6  -9    0.48    0.88
  -1  -6  -9    0.65    0.90
  -2  -6  -9    8.78    1.88
  -2  -6  -9    7.12    1.73
  -3  -6  -9    3.94    1.48
  -3  -6  -9    1.72    1.07
  -4  -6  -9    0.50    0.96
  -4  -6  -9    0.97    1.68
  -4  -6  -9    0.28    0.96
   4  -7  -9    2.16    1.32
   4  -7  -9    2.09    1.26
  -4   7   9    1.68    1.44
   3  -7  -9    4.23    1.66
   3  -7  -9    2.72    1.26
  -3   7   9    1.45    1.50
  -3   7   9   -0.43    2.47
   2  -7  -9    0.47    0.89
   2  -7  -9    0.99    1.04
  -2   7   9   -0.92    0.88
  -2   7   9   -1.70    2.37
   1  -7  -9    3.42    1.40
   1  -7  -9    2.21    1.14
  -1   7   9    3.45    2.89
  -1   7   9    2.74    1.28
   0  -7  -9    1.58    1.18
   0  -7  -9    0.00    0.85
   0   7   9   -0.71    2.34
   0   7   9   -0.01    1.02
  -1  -7  -9    1.76    1.06
  -1  -7  -9    2.09    1.27
  -2  -7  -9    0.64    1.07
  -2  -7  -9    0.26    0.98
  -3  -7  -9    0.08    0.91
  -3  -7  -9   -0.74    0.86
   3  -8  -9    0.02    0.95
  -3   8   9    1.06    1.42
   2  -8  -9    0.20    1.04
   2  -8  -9    2.38    1.19
  -2   8   9    2.86    1.44
  -2   8   9   -1.49    2.61
   1  -8  -9   -0.29    0.76
   1  -8  -9    1.08    1.11
  -1   8   9    0.27    3.13
  -1   8   9    0.01    1.09
   0  -8  -9   -0.77    0.77
   0  -8  -9   -1.20    0.75
   0   8   9   -0.09    1.06
   0   8   9   -1.02    2.47
  -1  -8  -9   -0.03    0.93
  -1  -8  -9    0.46    1.10
  -2  -8  -9    2.12    1.13
  -2  -8  -9    2.02    1.21
   2   8 -10    1.28    1.49
  -2  -8  10    1.91    1.27
   1   8 -10    0.21    2.03
   1   8 -10    1.57    1.33
   0   8 -10    6.63    2.20
   0   8 -10    2.34    1.37
   0   8 -10   -0.78    2.16
  -1   8 -10    5.08    2.06
  -1   8 -10    0.62    2.45
  -1   8 -10    4.23    1.59
  -2   8 -10    0.25    1.23
   3   7 -10    4.49    1.91
   3   7 -10    3.91    2.81
   2   7 -10    5.16    1.92
   2   7 -10    9.66    3.48
   1   7 -10    6.42    2.02
   1   7 -10    6.13    3.13
   1   7 -10    4.35    1.82
   0   7 -10    6.55    1.95
   0   7 -10    6.24    2.09
  -1   7 -10    1.82    2.34
  -1   7 -10    5.17    1.85
  -1   7 -10    4.08    1.64
  -2   7 -10    2.13    1.19
  -2   7 -10    0.89    1.39
  -2   7 -10    0.72    1.06
  -3   7 -10    4.63    1.56
  -3   7 -10    5.06    1.81
  -3   7 -10    7.30    1.92
   4   6 -10    3.16    1.84
   4   6 -10    3.69    2.57
   3   6 -10    3.78    1.68
   3   6 -10    6.20    2.86
   2   6 -10   -0.07    1.17
   2   6 -10    0.57    1.90
   1   6 -10    5.85    1.89
   1   6 -10    2.48    1.41
   1   6 -10    4.64    2.59
   0   6 -10   10.84    2.37
   0   6 -10    8.12    2.04
   0   6 -10   19.38    4.54
  -1   6 -10    9.43    1.94
  -1   6 -10   11.71    2.39
  -1   6 -10    6.78    1.69
  -1   6 -10    9.64    1.85
  -2   6 -10   -0.21    0.83
  -2   6 -10    0.52    0.92
  -2   6 -10   -0.41    1.01
  -3   6 -10    0.44    1.04
  -3   6 -10   -0.10    0.96
  -3   6 -10   -0.96    0.92
  -4   6 -10    1.28    1.18
  -4   6 -10    4.06    1.78
  -4   6 -10    3.80    1.50
   5   5 -10   -0.78    1.41
   4   5 -10    0.94    1.98
   4   5 -10    0.04    1.17
   3   5 -10    5.15    2.74
   3   5 -10    4.64    1.79
   2   5 -10   14.77    3.57
   2   5 -10   17.00    2.82
   1   5 -10    1.10    1.13
   1   5 -10    1.92    2.07
   1   5 -10   -0.51    0.90
   0   5 -10   -0.05    0.79
   0   5 -10    1.72    1.62
   0   5 -10    0.05    0.98
   0   5 -10    0.32    0.71
   0   5 -10    1.46    1.17
  -1   5 -10    4.57    1.29
  -1   5 -10    5.38    1.47
  -1   5 -10    9.19    2.89
  -1   5 -10    4.37    1.54
  -1   5 -10    8.40    1.84
  -2   5 -10   14.21    2.76
  -2   5 -10   15.41    2.42
  -2   5 -10   13.32    2.17
  -3   5 -10   14.48    2.34
  -3   5 -10   16.28    2.61
  -3   5 -10   13.55    2.56
  -4   5 -10    1.92    1.24
  -4   5 -10    1.43    1.41
  -4   5 -10    2.00    1.24
  -5   5 -10   -0.55    1.06
  -5   5 -10    0.60    1.12
   5   4 -10    5.25    2.97
  -5  -4  10    4.45    2.06
   4   4 -10    5.74    2.85
   4   4 -10    2.10    1.49
   3   4 -10    8.47    3.20
   3   4 -10    3.76    1.71
   2   4 -10    0.52    1.57
   2   4 -10   -0.46    1.05
   1   4 -10    4.26    1.32
   1   4 -10    5.59    2.31
   1   4 -10    4.83    1.55
   1   4 -10    4.58    1.22
   0   4 -10   -0.56    0.79
   0   4 -10   -0.21    0.85
   0   4 -10   -0.22    0.57
   0   4 -10    1.14    1.03
   0   4 -10   -0.61    1.45
  -1   4 -10   14.75    3.17
  -1   4 -10   14.76    2.25
  -1   4 -10   17.21    2.66
  -1   4 -10   15.78    2.27
  -1   4 -10   17.30    2.47
  -2   4 -10    4.16    1.55
  -2   4 -10    3.10    1.26
  -2   4 -10    3.50    1.23
  -3   4 -10    2.32    1.15
  -3   4 -10    2.17    1.27
  -3   4 -10    1.00    1.05
  -4   4 -10    8.52    2.01
  -4   4 -10    3.66    1.52
  -4   4 -10    7.88    1.90
  -5   4 -10    5.40    1.82
  -5   4 -10    2.98    1.61
  -5   4 -10    4.83    1.71
   5   3 -10   -0.07    2.48
  -5  -3  10    0.41    1.14
   4   3 -10   -1.26    1.79
  -4  -3  10   -0.58    0.98
   3   3 -10    1.33    2.00
   3   3 -10    2.84    1.49
   2   3 -10   48.77    5.19
   2   3 -10   36.05    2.67
   2   3 -10   36.97    3.99
   2   3 -10   37.83    2.60
   1   3 -10    8.54    2.04
   1   3 -10    4.08    1.15
   1   3 -10    2.66    0.95
   1   3 -10    7.31    2.80
   0   3 -10    1.56    0.98
   0   3 -10   -0.06    0.50
   0   3 -10    2.33    1.07
   0   3 -10    0.06    0.83
  -1   3 -10    6.28    1.51
  -1   3 -10    6.54    1.54
  -1   3 -10    6.66    1.60
  -1   3 -10    7.37    2.46
  -1   3 -10    9.75    1.89
  -2   3 -10   33.61    2.82
  -2   3 -10   33.40    3.39
  -3   3 -10   33.48    3.03
  -3   3 -10   34.69    2.92
  -3   3 -10   30.74    3.24
  -4   3 -10    2.29    1.19
  -4   3 -10    5.74    1.62
  -4   3 -10    4.45    1.50
  -5   3 -10    0.77    1.20
  -5   3 -10   -0.55    0.90
  -5   3 -10    0.88    0.99
  -6  -2  10   -0.35    2.50
  -6  -2  10    0.84    1.28
  -5  -2  10    9.11    4.11
  -5  -2  10    5.38    1.94
   4   2 -10    2.75    2.59
  -4  -2  10    4.64    1.72
   3   2 -10    7.65    3.03
   3   2 -10    4.78    1.26
  -3  -2  10    4.64    1.61
   2   2 -10   -0.20    0.63
   2   2 -10    1.04    0.83
   2   2 -10   -0.73    1.71
  -2  -2  10   -0.19    1.01
   1   2 -10   21.31    2.47
   1   2 -10   19.67    2.44
   1   2 -10   26.73    4.40
   0   2 -10   16.97    2.23
   0   2 -10   17.20    2.26
   0   2 -10   21.39    3.79
  -1   2 -10    7.60    1.67
  -1   2 -10    5.65    1.40
  -1   2 -10   10.66    1.91
  -2   2 -10    0.71    0.94
  -2   2 -10    1.28    1.01
  -2   2 -10   -0.02    0.88
  -3   2 -10    3.46    1.32
  -3   2 -10    2.50    1.22
  -3   2 -10    1.84    1.17
  -4   2 -10    3.79    1.53
  -4   2 -10    3.82    1.46
  -4   2 -10    2.80    1.24
  -5   2 -10    1.52    1.26
  -5   2 -10    2.73    1.24
  -5   2 -10    0.69    1.15
  -6  -1  10   10.32    4.67
  -6  -1  10    4.47    1.92
  -5  -1  10    0.70    2.84
  -5  -1  10    1.07    1.36
  -4  -1  10    9.95    4.05
  -4  -1  10    4.38    1.68
   3   1 -10    0.40    0.78
   3   1 -10    0.82    0.84
  -3  -1  10    2.60    2.96
  -3  -1  10    0.02    1.11
   2   1 -10   20.08    2.47
   2   1 -10   20.52    2.43
  -2  -1  10   20.39    3.09
   1   1 -10    7.89    1.66
   1   1 -10    5.24    1.38
  -1  -1  10    8.26    1.99
   0   1 -10    0.90    0.77
   0   1 -10   -0.04    0.69
   0  -1  10    0.27    0.94
  -1   1 -10    6.25    1.46
  -1   1 -10    6.94    1.51
   1  -1  10    8.82    1.89
  -2   1 -10    0.82    0.94
  -2   1 -10    0.62    0.81
  -2   1 -10    0.90    0.93
  -3   1 -10   16.04    2.34
  -3   1 -10   16.33    2.37
  -3   1 -10   15.01    2.23
  -4   1 -10    2.20    1.15
  -4   1 -10    0.81    1.05
  -4   1 -10    1.53    1.15
  -5   1 -10    0.13    0.95
  -5   1 -10   -0.28    0.92
  -5   1 -10   -0.14    0.81
  -6   1 -10    0.69    1.26
  -6   1 -10    0.85    1.23
  -6   0  10    2.35    1.59
  -6   0  10    3.26    3.51
  -5   0  10    9.49    2.41
  -5   0  10    6.70    4.13
   4   0 -10    1.13    0.65
   4   0 -10   -0.32    0.60
  -4   0  10    3.28    1.57
  -4   0  10    2.76    3.20
   3   0 -10    0.08    0.78
   3   0 -10    1.76    1.04
  -3   0  10    0.76    2.85
  -3   0  10    0.48    1.20
   2   0 -10    2.62    1.15
   2   0 -10    2.66    1.17
  -2   0  10    3.77    1.69
  -2   0  10    4.75    3.30
   1   0 -10   21.66    2.61
   1   0 -10   21.75    2.69
  -1   0  10   27.78    5.43
  -1   0  10   18.32    2.78
   0   0 -10   44.25    3.06
   0   0 -10   39.94    3.12
   0   0  10   44.14    3.31
   0   0  10   43.97    5.29
  -1   0 -10   12.09    1.94
  -1   0 -10   11.29    1.94
  -2   0 -10    1.13    0.97
  -2   0 -10    0.87    0.94
  -2   0 -10    1.58    1.04
  -3   0 -10    0.05    0.78
  -3   0 -10    0.38    0.84
  -3   0 -10   -0.56    0.85
  -4   0 -10   21.51    3.15
  -4   0 -10   17.27    2.61
  -4   0 -10   11.02    2.08
  -5   0 -10    0.91    1.18
  -5   0 -10    0.12    0.94
  -5   0 -10    0.99    1.07
  -6   0 -10    0.96    1.03
  -6   0 -10   -0.20    1.25
  -6   1  10    1.08    3.06
  -6   1  10   -1.08    1.30
   5  -1 -10    1.08    0.96
   5  -1 -10    1.78    1.04
  -5   1  10    2.04    1.74
  -5   1  10    4.33    3.53
   4  -1 -10    6.38    1.41
   4  -1 -10    6.55    1.59
  -4   1  10    9.42    2.30
  -4   1  10    4.65    3.37
   3  -1 -10   15.45    2.40
   3  -1 -10   15.21    2.16
  -3   1  10   16.43    4.89
  -3   1  10   16.41    2.87
   2  -1 -10    9.95    1.90
   2  -1 -10    8.41    1.74
  -2   1  10    7.79    3.80
  -2   1  10    9.20    2.31
   1  -1 -10    2.98    1.28
   1  -1 -10    1.21    1.06
  -1   1  10    4.17    2.76
  -1   1  10    2.34    1.44
   0  -1 -10    0.50    0.87
   0  -1 -10   -1.29    0.63
   0   1  10   -0.98    0.92
   0   1  10    2.15    2.18
  -1  -1 -10    8.59    1.85
  -1  -1 -10   11.70    2.06
  -2  -1 -10    5.28    1.39
  -2  -1 -10    8.07    1.78
  -3  -1 -10   17.62    2.53
  -3  -1 -10   18.26    2.67
  -3  -1 -10   15.56    2.42
  -4  -1 -10   -0.41    0.84
  -4  -1 -10   -0.28    1.01
  -4  -1 -10    1.09    1.05
  -5  -1 -10    2.27    1.53
  -5  -1 -10    2.57    1.43
  -5  -1 -10    0.58    1.03
   6  -2 -10    2.63    1.32
   6  -2 -10    2.31    1.19
  -6   2  10    0.40    1.51
  -6   2  10    1.16    2.83
   5  -2 -10    5.65    1.62
   5  -2 -10    4.40    1.45
  -5   2  10    2.92    1.71
  -5   2  10    8.42    4.16
   4  -2 -10    7.20    1.67
   4  -2 -10    8.84    1.77
  -4   2  10   12.24    4.86
  -4   2  10    8.87    2.44
   3  -2 -10    1.82    0.99
   3  -2 -10    0.91    0.94
  -3   2  10    2.51    3.05
  -3   2  10   -1.16    1.01
   2  -2 -10   13.38    2.14
   2  -2 -10   20.93    2.65
  -2   2  10   21.61    5.22
  -2   2  10   14.75    2.57
   1  -2 -10   44.01    3.16
   1  -2 -10   39.10    3.22
  -1   2  10   43.81    3.53
  -1   2  10   44.96    5.60
   0  -2 -10   59.48    3.95
   0  -2 -10   59.40    3.73
   0   2  10   56.03    3.67
   0   2  10   55.93    5.72
  -1  -2 -10    9.49    1.91
  -1  -2 -10    9.57    1.79
  -2  -2 -10    0.07    0.72
  -2  -2 -10   -0.02    0.78
  -3  -2 -10    0.66    0.85
  -3  -2 -10    1.04    0.99
  -3  -2 -10    0.75    1.16
  -4  -2 -10    5.71    1.73
  -4  -2 -10    5.52    1.93
  -4  -2 -10    5.64    1.63
  -5  -2 -10    2.42    1.71
  -5  -2 -10    3.49    1.50
  -5  -2 -10    3.70    1.42
   5  -3 -10    0.27    0.96
   5  -3 -10   -0.53    0.69
  -5   3  10   -0.76    2.87
  -5   3  10   -1.09    1.16
   4  -3 -10    2.78    1.12
   4  -3 -10    2.77    1.14
  -4   3  10    3.63    1.77
  -4   3  10    5.72    3.79
   3  -3 -10    6.73    1.62
   3  -3 -10    7.79    1.83
  -3   3  10    6.89    2.05
  -3   3  10    9.89    4.19
   2  -3 -10    3.05    1.19
   2  -3 -10    2.72    1.14
  -2   3  10    0.64    2.75
  -2   3  10    2.91    1.52
   1  -3 -10    0.47    0.82
   1  -3 -10    1.27    1.07
  -1   3  10    1.86    1.28
  -1   3  10    1.95    2.80
   0  -3 -10    1.05    0.90
   0  -3 -10    0.40    0.86
   0   3  10    1.36    0.99
   0   3  10   -0.06    2.27
  -1  -3 -10   10.60    1.94
  -1  -3 -10   13.53    2.19
  -2  -3 -10    6.48    1.63
  -2  -3 -10    5.22    1.56
  -3  -3 -10    1.45    1.48
  -3  -3 -10    2.16    1.27
  -3  -3 -10    3.72    1.18
  -4  -3 -10   -0.46    1.15
  -4  -3 -10   -0.37    0.71
  -4  -3 -10   -0.48    0.90
  -5  -3 -10    0.25    1.20
  -5  -3 -10    0.23    1.42
  -5  -3 -10   -0.49    0.85
   5  -4 -10    3.32    1.35
   5  -4 -10    1.00    1.02
  -5   4  10    0.84    2.87
  -5   4  10    1.53    1.60
   4  -4 -10    1.97    1.17
   4  -4 -10    3.76    1.29
  -4   4  10    1.94    3.05
  -4   4  10    1.75    1.62
   3  -4 -10    0.52    0.82
   3  -4 -10    2.24    1.17
  -3   4  10   -0.32    1.12
  -3   4  10   -1.79    2.22
   2  -4 -10    3.90    1.32
   2  -4 -10    2.47    1.05
  -2   4  10    2.86    1.42
  -2   4  10    5.13    3.17
   1  -4 -10   18.68    2.68
   1  -4 -10   18.16    2.66
  -1   4  10   14.27    3.90
  -1   4  10   19.31    2.73
   0  -4 -10   17.39    2.62
   0  -4 -10   16.55    2.36
   0   4  10   17.34    2.43
   0   4  10   16.45    3.70
  -1  -4 -10    6.82    1.80
  -1  -4 -10    9.07    1.93
  -2  -4 -10    1.22    1.07
  -2  -4 -10    0.29    0.79
  -3  -4 -10    2.01    1.21
  -3  -4 -10    3.16    1.20
  -4  -4 -10    2.14    1.17
  -4  -4 -10    0.12    1.31
  -4  -4 -10    1.54    1.28
  -5  -4 -10    1.74    1.17
  -5  -4 -10    3.12    1.98
  -5  -4 -10    3.87    1.62
   5  -5 -10    0.71    1.05
   5  -5 -10    0.19    1.00
  -5   5  10   -0.62    1.14
   4  -5 -10    2.60    1.21
   4  -5 -10    3.59    1.47
  -4   5  10    1.57    2.79
  -4   5  10    1.50    1.46
   3  -5 -10    4.32    1.54
   3  -5 -10    7.87    1.92
  -3   5  10    4.23    3.01
  -3   5  10    9.04    2.26
   2  -5 -10    3.54    1.28
   2  -5 -10    4.81    1.56
  -2   5  10    5.99    3.19
  -2   5  10    5.62    1.77
   1  -5 -10    0.54    0.94
   1  -5 -10   -0.32    0.72
  -1   5  10    0.14    2.16
  -1   5  10   -0.07    1.03
   0  -5 -10   -0.33    0.67
   0  -5 -10   -0.09    0.76
   0   5  10   -0.94    0.81
   0   5  10   -0.05    2.29
  -1  -5 -10    4.64    1.42
  -1  -5 -10    4.56    1.52
  -2  -5 -10   10.54    2.24
  -2  -5 -10    5.84    1.54
  -3  -5 -10    0.74    0.97
  -3  -5 -10    1.13    1.01
  -4  -5 -10    0.49    0.94
  -4  -5 -10    0.29    0.89
   4  -6 -10    0.14    0.87
   4  -6 -10    0.64    1.09
  -4   6  10    1.68    1.42
  -4   6  10   -1.20    2.65
   3  -6 -10    0.32    0.92
   3  -6 -10    0.14    0.87
  -3   6  10    1.86    1.44
  -3   6  10    2.22    2.66
   2  -6 -10    2.97    1.35
   2  -6 -10    6.05    1.68
  -2   6  10    0.75    2.78
  -2   6  10    2.33    1.32
   1  -6 -10    3.89    1.29
   1  -6 -10    3.36    1.26
  -1   6  10    3.01    1.50
  -1   6  10   -0.48    2.32
   0  -6 -10    2.04    1.11
   0  -6 -10    1.74    1.18
   0   6  10    1.29    2.61
   0   6  10    1.51    1.12
  -1  -6 -10    2.68    1.35
  -1  -6 -10    2.47    1.37
  -2  -6 -10    0.28    0.83
  -2  -6 -10    0.23    0.97
  -3  -6 -10    0.20    1.01
  -3  -6 -10    2.35    1.19
   3  -7 -10    1.03    1.12
   3  -7 -10    1.34    1.02
  -3   7  10    4.39    1.86
   2  -7 -10    5.53    1.74
   2  -7 -10    3.23    1.35
  -2   7  10    4.34    1.74
  -2   7  10   -0.67    2.64
   1  -7 -10   -0.18    0.84
   1  -7 -10   -0.09    0.86
  -1   7  10    1.18    3.04
  -1   7  10   -0.41    0.91
   0  -7 -10    0.11    0.96
   0  -7 -10   -0.13    0.86
   0   7  10   -0.34    2.41
   0   7  10   -0.09    1.08
  -1  -7 -10    1.74    1.06
  -1  -7 -10    5.47    1.71
  -2  -7 -10    5.85    1.78
  -2  -7 -10    1.81    1.27
   1  -8 -10    3.52    1.38
   1  -8 -10    1.47    1.11
  -1   8  10   -0.02    1.11
   0  -8 -10    3.04    1.58
   0  -8 -10    1.88    1.05
   2   7 -11    2.81    2.57
   2   7 -11   -0.73    1.15
   1   7 -11    4.69    1.87
   1   7 -11    6.60    3.02
   0   7 -11    7.61    3.01
   0   7 -11    0.86    1.42
   0   7 -11    6.55    2.06
  -1   7 -11   -0.28    1.32
  -2   7 -11    0.41    1.06
  -2   7 -11    1.15    1.26
  -2   7 -11    1.39    1.52
   3   6 -11    9.24    2.37
   3   6 -11   10.01    3.27
   2   6 -11    2.45    2.02
   2   6 -11    0.79    1.28
   1   6 -11    3.11    2.28
   1   6 -11   -0.16    1.08
   0   6 -11    0.26    1.12
   0   6 -11    3.13    2.36
   0   6 -11    1.84    1.45
  -1   6 -11    4.66    1.41
  -1   6 -11    4.91    1.73
  -1   6 -11    6.02    1.71
  -2   6 -11   16.88    2.62
  -2   6 -11   14.56    2.90
  -2   6 -11   14.45    2.49
  -3   6 -11    1.74    1.50
  -3   6 -11   -0.15    1.08
  -3   6 -11    0.67    1.16
   4   5 -11    2.08    2.22
   4   5 -11    2.80    1.71
   3   5 -11    0.54    1.29
   3   5 -11   -0.85    1.47
   2   5 -11    4.78    2.52
   2   5 -11    4.11    1.70
   1   5 -11    6.99    2.00
   1   5 -11   11.04    3.27
   0   5 -11    4.58    2.35
   0   5 -11    1.78    1.13
   0   5 -11    4.14    1.51
   0   5 -11    3.88    1.31
  -1   5 -11    4.11    1.39
  -1   5 -11    5.05    1.39
  -1   5 -11    0.77    0.93
  -2   5 -11    1.23    1.28
  -2   5 -11    0.78    1.06
  -2   5 -11    1.68    1.14
  -3   5 -11    6.17    2.02
  -3   5 -11    4.93    1.62
  -3   5 -11    5.65    1.72
  -4   5 -11    2.04    1.51
  -4   5 -11    2.34    1.44
  -4   5 -11    1.44    1.26
   4   4 -11   -0.03    1.81
   3   4 -11   12.91    3.80
   3   4 -11   11.03    2.56
   2   4 -11    5.05    1.91
   2   4 -11    7.81    3.00
   1   4 -11    3.79    2.12
   1   4 -11    1.64    1.26
   1   4 -11    1.11    0.86
   1   4 -11    0.21    0.94
   0   4 -11    1.95    1.12
   0   4 -11    0.43    1.02
   0   4 -11   -0.34    0.96
   0   4 -11    0.11    0.66
  -1   4 -11    3.83    1.37
  -1   4 -11    7.25    1.82
  -1   4 -11    7.83    1.76
  -2   4 -11   23.14    3.29
  -2   4 -11   25.86    3.15
  -2   4 -11   17.14    2.54
  -3   4 -11    2.64    1.21
  -3   4 -11    0.62    0.99
  -3   4 -11    0.65    1.11
  -4   4 -11   -0.54    1.01
  -4   4 -11    0.20    1.01
  -4   4 -11    0.89    1.17
  -5  -3  11    3.10    1.59
   4   3 -11    0.08    2.08
  -4  -3  11    1.46    1.32
   3   3 -11   -0.20    1.90
  -3  -3  11    0.62    1.15
   2   3 -11    6.48    2.71
   1   3 -11    3.23    1.16
   1   3 -11    8.82    2.02
   1   3 -11   20.58    4.09
   0   3 -11    4.87    1.56
   0   3 -11    6.36    1.48
   0   3 -11    6.72    2.52
   0   3 -11    5.72    1.54
  -1   3 -11    0.83    0.87
  -1   3 -11   -0.13    0.75
  -2   3 -11    4.58    1.55
  -2   3 -11    6.23    1.67
  -2   3 -11    1.40    1.08
  -3   3 -11   14.03    2.37
  -3   3 -11   16.97    2.54
  -3   3 -11   15.86    2.76
  -4   3 -11    5.49    1.76
  -4   3 -11    7.26    1.84
  -4   3 -11    9.20    2.07
  -5   3 -11    1.41    1.22
  -5   3 -11    4.65    1.72
  -5   3 -11    4.20    1.65
  -5  -2  11    0.24    1.16
  -5  -2  11    1.36    3.07
  -4  -2  11    2.45    1.49
   3   2 -11   10.26    3.53
  -3  -2  11    9.43    2.44
   2   2 -11    4.47    1.24
   2   2 -11    3.78    2.39
  -2  -2  11    7.19    2.11
   1   2 -11    1.11    1.85
   1   2 -11    1.30    0.95
   1   2 -11    0.54    0.84
  -1  -2  11    1.05    1.22
   0   2 -11    4.56    1.29
   0   2 -11    6.91    1.58
   0   2 -11    7.67    2.67
   0  -2  11    8.66    1.98
  -1   2 -11   -0.31    0.78
  -1   2 -11    0.34    0.85
  -2   2 -11    3.65    1.29
  -2   2 -11    5.13    1.47
  -2   2 -11    8.07    1.87
  -3   2 -11    2.51    1.18
  -3   2 -11    6.51    1.84
  -3   2 -11    5.57    1.59
  -4   2 -11   -0.42    0.82
  -4   2 -11   -0.34    0.94
  -4   2 -11    0.64    1.18
  -5   2 -11    5.42    1.81
  -5   2 -11    4.56    1.70
  -5   2 -11    5.67    1.82
  -5  -1  11    7.02    4.09
  -5  -1  11    3.98    1.94
  -4  -1  11    4.18    1.88
  -4  -1  11    1.38    2.84
   3   1 -11   -0.07    0.67
   3   1 -11   -0.14    0.70
  -3  -1  11    1.19    1.26
  -3  -1  11    0.73    2.23
   2   1 -11    1.43    1.01
   2   1 -11    0.48    0.81
  -2  -1  11    1.85    1.38
  -2  -1  11    3.13    2.54
   1   1 -11   30.84    3.15
   1   1 -11   32.09    3.34
  -1  -1  11   30.06    3.63
  -1  -1  11   34.50    5.97
   0   1 -11    9.66    1.83
   0   1 -11   14.95    2.29
   0  -1  11   17.13    4.14
   0  -1  11   13.23    2.35
  -1   1 -11    0.15    0.84
  -1   1 -11    0.40    0.80
  -2   1 -11    0.21    0.97
  -2   1 -11    1.02    0.96
  -3   1 -11   15.56    2.50
  -3   1 -11   17.26    2.68
  -3   1 -11   13.97    2.36
  -4   1 -11   18.62    2.94
  -4   1 -11   12.96    2.52
  -4   1 -11   14.81    2.63
  -5   1 -11    7.88    2.02
  -5   1 -11    6.34    2.02
  -5   1 -11    4.55    1.65
  -5   0  11    1.48    1.55
  -5   0  11    1.21    3.26
   4   0 -11    6.24    1.54
  -4   0  11    7.05    2.18
  -4   0  11   17.16    5.20
   3   0 -11    6.86    1.68
   3   0 -11    8.26    1.77
  -3   0  11    9.20    4.12
  -3   0  11    5.85    1.96
   2   0 -11    3.46    1.28
   2   0 -11    0.99    1.07
  -2   0  11    0.01    1.14
  -2   0  11    3.89    3.13
   1   0 -11    3.74    1.41
   1   0 -11    3.45    1.28
  -1   0  11    3.28    1.49
  -1   0  11    3.72    2.70
   0   0 -11    5.45    1.51
   0   0 -11    5.36    1.52
   0   0  11    5.32    1.65
   0   0  11    8.20    3.22
  -1   0 -11    2.05    1.15
  -1   0 -11    2.32    1.23
  -2   0 -11    8.34    1.80
  -2   0 -11    7.28    1.85
  -3   0 -11   -0.52    0.84
  -3   0 -11   -0.69    0.84
  -3   0 -11   -0.15    0.79
  -4   0 -11    1.27    1.17
  -4   0 -11   -0.55    0.75
  -4   0 -11    2.38    1.24
  -5   0 -11    1.02    1.26
  -5   0 -11    1.67    1.11
  -5   0 -11   -0.81    1.14
   5  -1 -11    3.46    1.38
   5  -1 -11    3.15    1.29
  -5   1  11    6.22    2.28
  -5   1  11    3.60    3.47
   4  -1 -11    2.04    1.01
   4  -1 -11    0.93    1.04
  -4   1  11    3.82    1.78
  -4   1  11    2.62    3.16
   3  -1 -11    3.64    1.30
   3  -1 -11    1.47    1.00
  -3   1  11    3.97    3.42
  -3   1  11    2.91    1.60
   2  -1 -11    2.07    1.24
   2  -1 -11    3.73    1.35
  -2   1  11    4.87    3.08
  -2   1  11    3.53    1.59
   1  -1 -11   12.17    2.11
   1  -1 -11   11.07    2.02
  -1   1  11   17.97    4.50
  -1   1  11    9.91    2.27
   0  -1 -11   12.72    2.05
   0  -1 -11   11.64    2.00
   0   1  11   10.95    2.02
   0   1  11   11.94    3.41
  -1  -1 -11   -0.14    0.81
  -1  -1 -11    0.26    0.89
  -2  -1 -11    2.29    1.15
  -2  -1 -11    3.03    1.29
  -3  -1 -11    2.63    1.21
  -3  -1 -11    2.00    1.09
  -4  -1 -11    2.74    1.43
  -4  -1 -11    4.27    1.73
  -4  -1 -11    1.88    1.21
  -5  -1 -11    1.79    1.29
  -5  -1 -11    2.08    1.40
  -5  -1 -11    1.74    1.63
   5  -2 -11    1.91    1.23
   5  -2 -11    1.29    1.11
  -5   2  11   -0.45    2.85
  -5   2  11    2.78    1.83
   4  -2 -11    4.89    1.41
   4  -2 -11   10.06    2.00
  -4   2  11   12.49    4.95
  -4   2  11    7.22    2.21
   3  -2 -11    6.54    1.71
   3  -2 -11    4.92    1.47
  -3   2  11    6.50    2.09
  -3   2  11    5.40    3.61
   2  -2 -11    0.14    0.74
   2  -2 -11   -0.73    0.65
  -2   2  11    0.64    2.11
  -2   2  11    0.50    1.15
   1  -2 -11    0.00    0.84
   1  -2 -11   -0.40    0.76
  -1   2  11    0.47    1.99
  -1   2  11   -0.15    0.99
   0  -2 -11    3.28    1.24
   0  -2 -11    2.35    1.20
   0   2  11    2.84    1.33
   0   2  11    5.84    3.07
  -1  -2 -11   13.69    2.28
  -1  -2 -11   14.63    2.49
  -2  -2 -11    6.17    1.53
  -2  -2 -11    9.27    2.01
  -3  -2 -11    1.23    1.05
  -3  -2 -11    0.59    0.95
  -4  -2 -11    1.22    1.17
  -4  -2 -11   -0.52    0.79
  -5  -2 -11    6.52    2.10
  -5  -2 -11    5.34    1.85
  -5  -2 -11    1.83    1.33
   5  -3 -11    1.73    1.29
   5  -3 -11    1.62    1.17
  -5   3  11    3.09    3.60
  -5   3  11   -0.09    1.50
   4  -3 -11    0.92    1.05
   4  -3 -11    0.37    1.06
  -4   3  11    3.94    3.64
  -4   3  11    0.52    1.43
   3  -3 -11   -0.14    0.74
   3  -3 -11    1.84    1.09
  -3   3  11   -0.05    1.21
  -3   3  11   -1.54    2.76
   2  -3 -11   13.73    2.32
   2  -3 -11   12.33    2.07
  -2   3  11   14.34    2.60
  -2   3  11    9.61    4.09
   1  -3 -11    8.96    1.94
   1  -3 -11    9.09    1.91
  -1   3  11   10.08    3.65
  -1   3  11   10.51    2.19
   0  -3 -11    1.80    1.01
   0  -3 -11    1.96    1.22
   0   3  11    2.85    1.23
   0   3  11    1.91    2.49
  -1  -3 -11   -0.11    0.84
  -1  -3 -11    0.66    0.93
  -2  -3 -11    3.54    1.42
  -2  -3 -11    2.81    1.34
  -3  -3 -11    1.25    1.12
  -3  -3 -11    1.58    1.04
  -4  -3 -11    3.70    1.63
  -4  -3 -11    4.78    1.52
   4  -4 -11    1.25    1.02
   4  -4 -11    1.52    1.06
  -4   4  11    4.13    1.93
  -4   4  11   -1.32    2.88
   3  -4 -11   13.41    2.28
   3  -4 -11    6.47    1.63
  -3   4  11    4.72    1.90
  -3   4  11    2.27    3.20
   2  -4 -11    0.30    0.84
   2  -4 -11    0.44    1.00
  -2   4  11   -0.04    0.93
  -2   4  11   -0.74    2.72
   1  -4 -11    2.91    1.27
   1  -4 -11    0.73    0.95
  -1   4  11    3.99    2.74
  -1   4  11   -0.38    0.85
   0  -4 -11   10.12    2.18
   0  -4 -11    8.47    1.98
  -1  -4 -11   19.34    2.83
  -1  -4 -11    8.81    1.86
  -2  -4 -11    5.93    1.69
  -2  -4 -11    3.18    1.32
  -3  -4 -11   -0.96    0.65
  -3  -4 -11   -0.53    0.93
  -4  -4 -11    0.02    0.87
  -4  -4 -11   -0.70    0.98
   4  -5 -11    0.03    0.97
   4  -5 -11   -0.74    0.91
  -4   5  11    0.51    1.46
  -4   5  11    2.07    3.25
   3  -5 -11   -0.24    0.87
   3  -5 -11    0.92    0.97
  -3   5  11   -1.31    1.01
  -3   5  11    0.79    2.61
   2  -5 -11    2.28    1.13
   2  -5 -11    3.47    1.36
  -2   5  11    1.90    3.03
  -2   5  11    2.74    1.65
   1  -5 -11    0.45    0.85
   1  -5 -11    4.25    1.65
  -1   5  11   -0.95    2.16
  -1   5  11   -0.01    1.07
   0  -5 -11    0.09    0.96
   0  -5 -11    1.85    1.22
  -1  -5 -11    2.01    1.09
  -1  -5 -11   -0.11    0.96
  -2  -5 -11    2.00    1.18
  -2  -5 -11    3.05    1.37
  -3  -5 -11    1.10    1.04
  -3  -5 -11    2.81    1.36
   3  -6 -11    1.36    1.28
   3  -6 -11    1.01    0.98
  -3   6  11   -1.02    2.54
  -3   6  11    1.53    1.50
   2  -6 -11    0.36    0.87
   2  -6 -11    0.23    0.95
  -2   6  11    0.25    2.65
  -2   6  11    1.36    1.33
   1  -6 -11   -0.86    0.71
   1  -6 -11   -0.39    0.84
  -1   6  11   -0.55    1.15
  -1   6  11   -1.66    2.43
   0  -6 -11    2.64    1.33
   0  -6 -11    1.34    1.37
  -1  -6 -11    5.36    1.71
  -1  -6 -11    4.10    1.60
  -2  -6 -11    2.37    1.40
  -2  -6 -11    1.77    1.11
   1  -7 -11    3.32    1.48
   1  -7 -11    6.22    1.83
  -1   7  11    3.17    1.72
   0  -7 -11    0.30    1.03
   0  -7 -11    0.12    1.04
  -1  -7 -11    1.10    1.33
  -1  -7 -11    0.16    0.83
   2   6 -12    4.48    1.83
   2   6 -12    9.13    3.04
   1   6 -12    3.32    1.66
   1   6 -12    2.70    2.23
   0   6 -12    0.22    1.87
   0   6 -12    0.28    1.15
  -1   6 -12    0.90    1.01
  -1   6 -12   -0.12    1.06
  -2   6 -12    3.19    1.44
  -2   6 -12    4.49    1.73
  -2   6 -12    8.29    2.34
   3   5 -12    2.39    1.68
   3   5 -12    6.13    2.90
   2   5 -12    1.10    1.98
   2   5 -12   -0.13    1.34
   1   5 -12    5.37    1.88
   1   5 -12   10.32    3.19
   0   5 -12    5.85    2.46
   0   5 -12    0.72    0.92
   0   5 -12    5.50    1.75
  -1   5 -12   12.18    2.28
  -1   5 -12    8.66    1.98
  -2   5 -12    0.78    1.25
  -2   5 -12    2.72    1.37
  -2   5 -12    2.34    1.29
  -3   5 -12    0.55    1.02
  -3   5 -12   -1.22    0.77
  -3   5 -12   -0.85    1.06
  -4  -4  12    0.55    1.24
   3   4 -12    1.28    1.94
   2   4 -12   15.28    3.91
   2   4 -12    7.34    2.08
   1   4 -12    7.89    2.92
   1   4 -12    5.13    1.85
   0   4 -12   -0.77    0.71
   0   4 -12    1.02    1.58
   0   4 -12    0.56    1.00
   0   4 -12    1.46    1.21
  -1   4 -12    0.32    0.94
  -1   4 -12   -1.08    0.91
  -2   4 -12    7.55    1.94
  -2   4 -12    6.83    1.84
  -3   4 -12    9.88    2.19
  -3   4 -12   10.06    2.20
  -3   4 -12    8.92    2.15
   4   3 -12    7.19    3.59
  -4  -3  12    5.79    2.20
   3   3 -12   -0.33    1.99
  -3  -3  12    2.70    1.58
   2   3 -12    3.52    2.52
  -2  -3  12    0.89    1.33
   1   3 -12    4.88    1.42
   1   3 -12    5.21    2.47
   1   3 -12    3.46    1.22
   0   3 -12    3.55    1.38
   0   3 -12    4.68    2.17
   0   3 -12    4.08    1.45
  -1   3 -12    6.43    1.73
  -1   3 -12    4.90    1.59
  -2   3 -12    2.65    1.38
  -2   3 -12    2.81    1.38
  -3   3 -12   -0.56    0.90
  -3   3 -12    0.23    0.86
  -3   3 -12   -0.14    1.05
  -4   3 -12    6.03    1.94
  -4   3 -12    5.92    1.89
  -4   3 -12    7.47    2.08
  -4  -2  12    0.62    1.27
  -4  -2  12    0.88    2.60
  -3  -2  12    0.48    1.23
   2   2 -12    2.98    1.19
   2   2 -12    0.29    0.65
  -2  -2  12    8.17    2.17
   1   2 -12    9.00    1.83
   1   2 -12    7.06    2.80
   1   2 -12    9.45    1.85
  -1  -2  12   13.90    2.71
   0   2 -12    1.00    1.03
   0   2 -12    1.26    0.91
   0  -2  12    0.33    0.88
  -1   2 -12    1.47    1.10
  -1   2 -12    0.11    0.95
  -2   2 -12    5.28    1.67
  -2   2 -12    6.43    1.77
  -3   2 -12   13.20    2.44
  -3   2 -12   16.97    2.71
  -4   2 -12    2.53    1.36
  -4   2 -12    2.07    1.21
  -4   2 -12    3.96    1.64
  -5  -1  12    3.44    1.87
  -4  -1  12    6.76    2.06
  -4  -1  12   10.45    4.39
   3   1 -12    0.15    0.95
   3   1 -12   -0.68    0.61
  -3  -1  12    2.33    2.85
  -3  -1  12    1.91    1.47
   2   1 -12    1.40    1.13
   2   1 -12   -0.45    0.81
  -2  -1  12    0.25    1.98
  -2  -1  12    0.37    1.11
   1   1 -12    4.47    1.42
   1   1 -12    3.90    1.35
  -1  -1  12    4.92    2.75
  -1  -1  12    5.30    1.79
   0   1 -12    6.91    1.69
   0   1 -12    3.66    1.37
   0  -1  12    6.66    3.11
  -1   1 -12    5.63    1.56
  -1   1 -12    3.97    1.39
  -2   1 -12    0.21    0.93
  -2   1 -12    0.29    1.01
  -3   1 -12   -0.13    1.01
  -3   1 -12    0.71    1.13
  -4   1 -12    6.67    2.05
  -4   1 -12    9.45    2.15
  -4   1 -12    9.03    2.11
  -5   0  12    2.60    1.83
   4   0 -12    0.32    1.00
   4   0 -12    0.61    1.01
  -4   0  12   -0.33    1.09
  -4   0  12    1.00    2.78
   3   0 -12    1.73    1.22
   3   0 -12    3.49    1.37
  -3   0  12    6.00    3.54
  -3   0  12    3.73    1.90
   2   0 -12    7.37    1.80
   2   0 -12    4.83    1.52
  -2   0  12    9.30    3.65
  -2   0  12    5.71    1.81
   1   0 -12    4.58    1.52
   1   0 -12    2.15    1.22
  -1   0  12    2.03    2.52
  -1   0  12    3.69    1.57
   0   0 -12    0.03    0.92
   0   0 -12    0.29    0.86
  -1   0 -12   10.22    2.10
  -1   0 -12    8.52    1.87
  -2   0 -12    4.93    1.49
  -2   0 -12    0.87    0.99
  -3   0 -12    0.96    1.02
  -3   0 -12   -0.79    0.86
  -4   0 -12    4.30    1.65
  -4   0 -12    2.39    1.37
   4  -1 -12   10.97    2.30
   4  -1 -12   12.72    2.29
  -4   1  12   12.97    5.18
  -4   1  12    7.69    2.61
   3  -1 -12    3.95    1.52
   3  -1 -12    0.66    0.95
  -3   1  12    5.87    3.71
  -3   1  12    4.35    2.00
   2  -1 -12    0.02    0.82
   2  -1 -12   -1.39    0.61
  -2   1  12    0.50    2.29
  -2   1  12    0.32    1.31
   1  -1 -12   -0.60    0.82
   1  -1 -12    0.27    0.95
  -1   1  12    0.20    1.11
  -1   1  12    1.05    2.14
   0  -1 -12    5.69    1.58
   0  -1 -12    6.42    1.68
  -1  -1 -12   13.74    2.42
  -1  -1 -12   11.38    2.21
  -2  -1 -12   -0.98    0.66
  -2  -1 -12    0.41    1.02
  -3  -1 -12   -1.12    0.86
  -3  -1 -12   -0.32    0.87
  -4  -1 -12    8.04    2.04
  -4  -1 -12    4.41    1.60
   4  -2 -12   -0.30    0.94
   4  -2 -12    0.43    0.96
  -4   2  12    1.87    3.28
  -4   2  12   -0.05    1.51
   3  -2 -12    1.93    1.07
   3  -2 -12    2.98    1.48
  -3   2  12    4.29    3.42
  -3   2  12    0.99    1.41
   2  -2 -12    5.33    1.66
   2  -2 -12    2.95    1.24
  -2   2  12    5.26    3.08
  -2   2  12    2.70    1.56
   1  -2 -12    1.00    0.94
   1  -2 -12   -0.37    0.89
  -1   2  12   -0.07    1.85
  -1   2  12   -0.31    1.05
   0  -2 -12   -0.48    0.74
   0  -2 -12    1.25    1.02
  -1  -2 -12    3.00    1.34
  -1  -2 -12    3.55    1.47
  -2  -2 -12    7.90    1.95
  -2  -2 -12    5.07    1.64
  -3  -2 -12    1.56    1.14
  -3  -2 -12    6.27    1.83
  -4  -2 -12    1.69    1.44
  -4  -2 -12    0.31    1.19
   4  -3 -12    4.82    1.66
   4  -3 -12    1.93    1.13
  -4   3  12    1.75    3.23
  -4   3  12    4.57    2.25
   3  -3 -12    1.68    1.16
   3  -3 -12    1.54    1.17
  -3   3  12    1.98    3.18
  -3   3  12    4.41    2.01
   2  -3 -12    0.47    1.06
   2  -3 -12    1.48    0.98
  -2   3  12   -0.91    2.79
  -2   3  12    0.55    1.16
   1  -3 -12    1.14    1.02
   1  -3 -12    2.59    1.32
  -1   3  12   -0.22    2.66
  -1   3  12    2.62    1.44
   0  -3 -12    2.16    1.33
   0  -3 -12    4.83    1.58
  -1  -3 -12    1.58    1.09
  -1  -3 -12    5.53    1.72
  -2  -3 -12   -0.58    0.83
  -2  -3 -12   -0.98    0.79
  -3  -3 -12   -0.59    0.82
  -3  -3 -12    0.72    0.97
  -4  -3 -12    2.28    1.18
   3  -4 -12    1.88    1.21
   3  -4 -12    3.43    1.48
  -3   4  12    0.63    2.96
  -3   4  12    0.76    1.43
   2  -4 -12    4.43    1.57
   2  -4 -12    6.71    1.71
  -2   4  12    4.45    1.78
  -2   4  12    1.07    2.98
   1  -4 -12    0.47    0.95
   1  -4 -12    0.02    0.89
  -1   4  12   -0.22    1.11
  -1   4  12    0.44    2.42
   0  -4 -12    1.40    1.23
   0  -4 -12   -0.13    0.97
  -1  -4 -12    2.85    1.39
  -1  -4 -12    2.93    1.39
  -2  -4 -12    6.29    1.93
  -2  -4 -12    4.62    1.58
  -3  -4 -12    3.71    1.64
  -3  -4 -12    5.11    1.73
   3  -5 -12    1.82    1.26
   3  -5 -12    0.80    0.99
  -3   5  12   -2.05    1.01
   2  -5 -12    0.06    0.96
   2  -5 -12   -0.22    0.84
  -2   5  12   -0.38    1.26
  -2   5  12   -0.68    2.37
   1  -5 -12    4.87    1.72
   1  -5 -12    3.25    1.41
  -1   5  12    4.11    1.69
  -1   5  12    6.20    3.16
   0  -5 -12    3.80    1.57
   0  -5 -12    1.60    1.11
  -1  -5 -12    0.41    0.99
  -1  -5 -12    0.55    1.06
  -2  -5 -12    1.10    1.13
  -2  -5 -12    1.11    1.27
   1  -6 -12    2.13    1.34
   1  -6 -12    1.60    1.14
  -1   6  12    0.56    1.33
   0  -6 -12   -1.37    0.75
   0  -6 -12    0.93    1.29
  -1  -6 -12    2.67    1.48
   2   5 -13    2.77    1.73
   1   5 -13    1.48    1.99
   1   5 -13    0.38    1.51
  -1   5 -13    1.07    1.17
  -1   5 -13    0.19    1.05
   2   4 -13    2.60    2.38
   1   4 -13   12.59    3.57
   1   4 -13   11.62    2.61
   0   4 -13    7.61    1.95
   0   4 -13   11.23    2.16
  -1   4 -13    1.10    1.18
  -1   4 -13    0.53    1.14
  -2   4 -13   -0.35    0.99
  -2   4 -13   -1.00    0.98
   3   3 -13    2.09    2.61
  -3  -3  13    4.61    1.95
   2   3 -13    2.78    2.40
  -2  -3  13    4.01    1.77
   1   3 -13    2.92    2.28
   1   3 -13    1.31    1.13
   1   3 -13    1.00    1.00
  -1  -3  13    3.58    1.73
   0   3 -13    6.29    1.77
   0   3 -13   10.90    2.21
  -1   3 -13    4.35    1.70
  -1   3 -13    5.86    1.68
  -2   3 -13   10.05    2.22
  -2   3 -13    9.82    2.29
  -3   3 -13    3.51    1.62
  -3   3 -13    6.01    1.92
  -3  -2  13    1.31    1.35
  -3  -2  13    0.69    2.68
   2   2 -13    2.62    1.34
   2   2 -13    3.31    1.31
  -2  -2  13    1.78    1.56
  -2  -2  13    0.87    2.22
   1   2 -13    7.30    1.79
   1   2 -13   11.19    2.09
  -1  -2  13    8.52    2.21
   0   2 -13   12.71    2.35
   0   2 -13   15.20    2.53
  -1   2 -13    6.87    1.85
  -1   2 -13    2.61    1.45
  -2   2 -13    2.16    1.39
  -2   2 -13    0.88    1.18
  -3   2 -13    1.02    1.20
  -3   2 -13    0.83    1.29
  -4  -1  13    3.07    1.68
   3   1 -13    4.38    1.46
   3   1 -13    4.28    1.52
  -3  -1  13    3.27    3.06
  -3  -1  13    6.64    2.26
   2   1 -13    1.17    1.06
   2   1 -13    0.14    0.91
  -2  -1  13    0.79    1.38
  -2  -1  13   -0.91    1.64
   1   1 -13    1.63    1.05
   1   1 -13    2.58    1.31
  -1  -1  13    1.77    1.47
  -1  -1  13   -0.43    1.95
   0   1 -13    4.87    1.48
   0   1 -13    4.36    1.64
  -1   1 -13   10.11    2.19
  -1   1 -13    7.51    1.79
  -2   1 -13    9.10    2.22
  -2   1 -13    4.00    1.50
  -3   1 -13    2.95    1.47
  -3   1 -13    2.15    1.42
  -4   0  13    2.93    1.88
  -4   0  13    4.45    3.62
   3   0 -13    0.71    1.11
   3   0 -13    0.48    0.97
  -3   0  13    0.50    2.18
  -3   0  13    1.15    1.26
   2   0 -13    2.36    1.24
   2   0 -13    1.10    1.03
  -2   0  13    1.30    2.18
  -2   0  13    0.20    1.19
   1   0 -13    2.11    1.24
   1   0 -13    0.26    0.85
  -1   0  13    2.93    2.59
  -1   0  13    1.82    1.36
   0   0 -13   13.09    2.45
   0   0 -13    8.42    2.03
  -1   0 -13    1.55    1.17
  -1   0 -13    2.29    1.20
  -2   0 -13    0.47    1.03
  -2   0 -13   -0.10    1.04
  -3   0 -13    3.60    1.47
  -3   0 -13    2.65    1.46
   4  -1 -13   -0.15    1.11
  -4   1  13    0.78    1.46
   3  -1 -13    6.83    1.90
   3  -1 -13   11.96    2.43
  -3   1  13    8.48    4.18
  -3   1  13   10.08    2.65
   2  -1 -13    0.94    1.17
   2  -1 -13    3.49    1.46
  -2   1  13    4.22    3.01
  -2   1  13    5.67    2.06
   1  -1 -13    0.47    0.90
   1  -1 -13    0.91    1.01
  -1   1  13    0.74    1.18
  -1   1  13   -0.88    1.64
   0  -1 -13    7.56    1.87
   0  -1 -13    4.76    1.64
  -1  -1 -13    7.56    1.86
  -1  -1 -13    8.03    1.98
  -2  -1 -13    7.82    2.00
  -2  -1 -13    5.42    1.76
  -3  -1 -13   -0.25    1.05
  -3  -1 -13   -0.42    0.89
   3  -2 -13    0.10    1.00
   3  -2 -13   -0.32    0.96
  -3   2  13    2.88    3.01
  -3   2  13   -1.00    1.16
   2  -2 -13    2.87    1.40
   2  -2 -13    3.93    1.60
  -2   2  13    4.22    1.85
  -2   2  13    5.00    3.32
   1  -2 -13    3.52    1.51
   1  -2 -13    2.62    1.45
  -1   2  13    6.17    3.01
  -1   2  13    2.81    1.63
   0  -2 -13    6.59    1.90
   0  -2 -13    2.29    1.42
  -1  -2 -13    3.34    1.44
  -1  -2 -13   -0.53    0.81
  -2  -2 -13    1.07    1.06
  -2  -2 -13   -1.04    0.90
  -3  -2 -13    3.77    1.64
  -3  -2 -13    2.77    1.42
   3  -3 -13    6.87    1.81
   3  -3 -13    6.95    1.90
  -3   3  13    8.56    2.65
  -3   3  13    3.42    3.51
   2  -3 -13    3.20    1.54
   2  -3 -13    2.16    1.21
  -2   3  13    0.50    3.15
  -2   3  13    1.20    1.41
   1  -3 -13    1.07    1.22
   1  -3 -13    0.76    1.13
   0  -3 -13    1.65    1.23
   0  -3 -13    1.74    1.14
  -1  -3 -13    1.93    1.17
  -1  -3 -13    0.65    1.02
  -2  -3 -13    8.58    2.20
  -2  -3 -13    8.44    1.99
   2  -4 -13    2.58    1.42
   2  -4 -13    0.66    1.16
  -2   4  13    0.86    1.28
  -2   4  13   -2.37    2.92
   1  -4 -13    4.02    1.61
   1  -4 -13    1.26    1.21
   0  -4 -13   -0.40    0.83
   0  -4 -13    0.23    0.94
  -1  -4 -13    1.12    1.33
  -1  -4 -13   -0.55    0.85
  -2  -4 -13    0.68    1.02
   0  -5 -13    1.72    1.22
   1   3 -14    7.40    1.99
   1   3 -14    5.18    1.67
  -1  -3  14    3.07    1.91
   0   3 -14    4.60    1.75
   0   3 -14    1.85    1.47
  -1   3 -14    2.13    1.40
  -1   3 -14    0.53    1.14
  -2  -2  14    2.58    1.69
  -2  -2  14    1.68    2.28
   1   2 -14    0.91    1.17
   1   2 -14    0.90    1.06
  -1  -2  14    0.05    1.79
   0   2 -14    5.67    1.76
   0   2 -14    3.75    1.47
  -1   2 -14    7.28    2.01
  -1   2 -14   12.10    2.52
  -2   2 -14    1.99    1.47
  -2   2 -14    0.91    1.15
   2   1 -14    4.61    1.74
   2   1 -14    6.83    1.87
  -2  -1  14    3.41    1.61
  -2  -1  14    2.59    2.62
   1   1 -14    3.51    1.48
   1   1 -14    4.17    1.50
   0   1 -14    7.24    1.91
   0   1 -14    5.16    1.70
  -1   1 -14   -0.18    1.01
  -1   1 -14    0.71    1.10
  -2   1 -14    1.00    1.37
  -2   1 -14    4.84    1.80
   2   0 -14    1.12    1.18
   2   0 -14    0.87    1.20
  -2   0  14    1.65    2.40
  -2   0  14    0.45    1.25
   1   0 -14    1.38    1.16
   1   0 -14    1.12    1.16
   0   0 -14    3.13    1.49
   0   0 -14    6.43    1.83
  -1   0 -14    4.76    1.66
  -1   0 -14   10.11    2.22
  -2   0 -14    1.16    1.21
  -2   0 -14    0.72    1.15
   2  -1 -14    4.61    1.80
   2  -1 -14    3.85    1.66
  -2   1  14    6.45    3.42
  -2   1  14    3.13    1.84
   1  -1 -14    1.80    1.46
   1  -1 -14    1.23    1.21
   0  -1 -14   -0.39    1.04
   0  -1 -14   -0.81    1.00
  -1  -1 -14    0.10    0.98
  -1  -1 -14   -0.05    1.08
  -2  -1 -14    3.15    1.47
  -2  -1 -14    1.54    1.34
   2  -2 -14    0.97    1.25
   2  -2 -14   -0.03    1.08
  -2   2  14    0.85    1.38
   1  -2 -14    2.23    1.33
   1  -2 -14    1.14    1.23
   0  -2 -14   -0.10    0.93
   0  -2 -14    1.29    1.05
  -1  -2 -14    2.12    1.42
  -1  -2 -14    5.93    1.87
   1  -3 -14    2.93    1.53
   0  -3 -14    0.72    1.19
   0   0   0    0.00    0.00
;
_shelx_hkl_checksum              21844
loop_
_space_group_symop_operation_xyz
'x, y, z'
'-x, -y, -z'
loop_
_atom_site_label
_atom_site_type_symbol
_atom_site_fract_x
_atom_site_fract_y
_atom_site_fract_z
_atom_site_U_iso_or_equiv
_atom_site_adp_type
_atom_site_occupancy
_atom_site_site_symmetry_order
_atom_site_calc_flag
_atom_site_refinement_flags_posn
_atom_site_refinement_flags_adp
Pd1 Pd 0.60702(7) 0.75826(5) 0.35172(4) 0.04595(19) Uani 1 1 d . .
Cl2 Cl 0.8438(2) 0.6530(2) 0.26365(14) 0.0763(6) Uani 1 1 d . .
Cl1 Cl 0.0152(3) 1.23964(19) 0.17723(16) 0.0810(6) Uani 1 1 d . .
N4 N 0.5195(7) 0.8814(5) 0.2285(4) 0.0453(13) Uani 1 1 d . .
N3 N 0.4162(6) 0.8452(5) 0.4287(4) 0.0461(13) Uani 1 1 d . .
N2 N 0.3773(7) 0.8107(5) 0.5269(4) 0.0466(13) Uani 1 1 d . .
N1 N 0.6281(6) 0.6673(5) 0.4904(4) 0.0460(13) Uani 1 1 d . .
C12 C 0.4566(9) 0.7964(7) 0.1363(5) 0.0492(17) Uani 1 1 d . .
C3 C 0.6042(10) 0.5615(6) 0.6892(5) 0.0588(19) Uani 1 1 d . .
H3 H 0.5963 0.5240 0.7558 0.071 Uiso 1 1 calc R U
C7 C 0.1824(8) 1.0228(6) 0.4203(5) 0.0496(17) Uani 1 1 d . .
H7 H 0.1521 1.0130 0.4910 0.060 Uiso 1 1 calc R U
C5 C 0.4972(8) 0.7136(6) 0.5586(5) 0.0446(16) Uani 1 1 d . .
C8 C 0.0895(8) 1.1158(6) 0.3592(6) 0.0559(18) Uani 1 1 d . .
H8 H -0.0019 1.1690 0.3887 0.067 Uiso 1 1 calc R U
C14 C 0.2240(11) 0.6452(8) 0.0545(6) 0.071(2) Uani 1 1 d . .
H14 H 0.1090 0.6010 0.0562 0.085 Uiso 1 1 calc R U
C9 C 0.1343(8) 1.1280(6) 0.2548(6) 0.0546(18) Uani 1 1 d . .
C11 C 0.3668(8) 0.9621(6) 0.2721(5) 0.0426(15) Uani 1 1 d . .
C16 C 0.5045(13) 0.6898(8) -0.0323(6) 0.079(2) Uani 1 1 d . .
H16 H 0.5790 0.6747 -0.0904 0.095 Uiso 1 1 calc R U
C6 C 0.3209(8) 0.9438(6) 0.3763(5) 0.0425(15) Uani 1 1 d . .
C17 C 0.5672(9) 0.7752(7) 0.0507(5) 0.0580(18) Uani 1 1 d . .
H17 H 0.6832 0.8179 0.0488 0.070 Uiso 1 1 calc R U
C1 C 0.7475(8) 0.5738(6) 0.5233(5) 0.0531(18) Uani 1 1 d . .
H1 H 0.8385 0.5445 0.4777 0.064 Uiso 1 1 calc R U
C10 C 0.2722(8) 1.0522(6) 0.2105(5) 0.0532(17) Uani 1 1 d . .
H10 H 0.3013 1.0617 0.1397 0.064 Uiso 1 1 calc R U
C13 C 0.2863(10) 0.7306(7) 0.1380(5) 0.0565(18) Uani 1 1 d . .
H13 H 0.2120 0.7439 0.1963 0.068 Uiso 1 1 calc R U
C4 C 0.4822(9) 0.6568(6) 0.6589(5) 0.0549(18) Uani 1 1 d . .
H4 H 0.3897 0.6842 0.7041 0.066 Uiso 1 1 calc R U
C2 C 0.7393(9) 0.5209(6) 0.6212(5) 0.0579(19) Uani 1 1 d . .
H2 H 0.8249 0.4574 0.6423 0.069 Uiso 1 1 calc R U
C15 C 0.3343(14) 0.6272(8) -0.0302(6) 0.077(3) Uani 1 1 d . .
H15 H 0.2932 0.5714 -0.0876 0.093 Uiso 1 1 calc R U
C18 C 0.6752(9) 0.9792(6) 0.2063(5) 0.0614(19) Uani 1 1 d . .
H18A H 0.7092 1.0313 0.2700 0.092 Uiso 1 1 calc R U
H18B H 0.6368 1.0399 0.1523 0.092 Uiso 1 1 calc R U
H18C H 0.7794 0.9290 0.1825 0.092 Uiso 1 1 calc R U
loop_
_atom_site_aniso_label
_atom_site_aniso_U_11
_atom_site_aniso_U_22
_atom_site_aniso_U_33
_atom_site_aniso_U_23
_atom_site_aniso_U_13
_atom_site_aniso_U_12
Pd1 0.0392(3) 0.0579(3) 0.0414(3) 0.0080(2) 0.0002(2) 0.0060(2)
Cl2 0.0580(12) 0.1059(16) 0.0682(12) 0.0162(11) 0.0142(10) 0.0311(11)
Cl1 0.0648(13) 0.0815(14) 0.0990(15) 0.0392(12) -0.0110(11) 0.0145(11)
N4 0.037(3) 0.062(4) 0.037(3) 0.008(3) -0.001(2) -0.004(3)
N3 0.043(3) 0.055(3) 0.041(3) 0.005(3) -0.002(3) 0.007(3)
N2 0.050(3) 0.053(3) 0.037(3) 0.006(3) 0.004(3) 0.004(3)
N1 0.035(3) 0.054(3) 0.049(3) 0.004(3) -0.005(3) 0.004(3)
C12 0.049(4) 0.060(4) 0.039(4) 0.014(3) -0.005(3) 0.003(4)
C3 0.084(5) 0.051(4) 0.042(4) 0.013(3) -0.005(4) -0.002(4)
C7 0.042(4) 0.060(4) 0.048(4) 0.005(3) 0.004(3) 0.005(3)
C5 0.045(4) 0.048(4) 0.041(4) 0.004(3) -0.002(3) 0.002(3)
C8 0.041(4) 0.060(5) 0.068(5) 0.010(4) -0.002(4) 0.010(3)
C14 0.073(6) 0.080(6) 0.059(5) 0.011(5) -0.012(5) -0.003(5)
C9 0.035(4) 0.053(4) 0.075(5) 0.018(4) -0.015(4) -0.001(3)
C11 0.038(4) 0.047(4) 0.043(4) 0.008(3) -0.002(3) 0.001(3)
C16 0.111(8) 0.081(6) 0.046(5) 0.000(4) 0.001(5) 0.015(6)
C6 0.033(4) 0.043(4) 0.051(4) 0.010(3) -0.003(3) 0.001(3)
C17 0.059(5) 0.063(5) 0.052(4) 0.012(4) 0.011(4) 0.003(4)
C1 0.046(4) 0.062(4) 0.052(4) 0.004(4) -0.010(3) 0.019(3)
C10 0.049(4) 0.059(4) 0.052(4) 0.013(3) -0.003(3) -0.004(4)
C13 0.054(5) 0.064(5) 0.052(4) 0.006(4) 0.002(4) 0.002(4)
C4 0.066(5) 0.055(4) 0.044(4) 0.007(3) 0.002(4) 0.001(4)
C2 0.064(5) 0.057(4) 0.052(5) 0.006(4) -0.018(4) 0.009(4)
C15 0.106(7) 0.062(5) 0.062(6) -0.011(4) -0.034(5) 0.013(5)
C18 0.053(4) 0.060(5) 0.072(5) 0.010(4) 0.005(4) -0.008(4)
loop_
_atom_type_symbol
_atom_type_description
_atom_type_scat_dispersion_real
_atom_type_scat_dispersion_imag
_atom_type_scat_source
C C 0.0033 0.0016 'International Tables Vol C Tables 4.2.6.8 and 6.1.1.4'
H H 0.0000 0.0000 'International Tables Vol C Tables 4.2.6.8 and 6.1.1.4'
Cl Cl 0.1484 0.1585 'International Tables Vol C Tables 4.2.6.8 and 6.1.1.4'
N N 0.0061 0.0033 'International Tables Vol C Tables 4.2.6.8 and 6.1.1.4'
Pd Pd -0.9988 1.0072 'International Tables Vol C Tables 4.2.6.8 and 6.1.1.4'
loop_
_geom_angle_atom_site_label_1
_geom_angle_atom_site_label_2
_geom_angle_atom_site_label_3
_geom_angle
N3 Pd1 N1 79.0(2)
N3 Pd1 N4 84.0(2)
N1 Pd1 N4 162.97(18)
N3 Pd1 Cl2 178.12(15)
N1 Pd1 Cl2 99.49(14)
N4 Pd1 Cl2 97.54(14)
C12 N4 C11 111.2(5)
C12 N4 C18 114.0(5)
C11 N4 C18 107.6(5)
C12 N4 Pd1 110.3(4)
C11 N4 Pd1 105.6(3)
C18 N4 Pd1 107.7(4)
N2 N3 C6 122.3(5)
N2 N3 Pd1 121.4(4)
C6 N3 Pd1 116.3(4)
N3 N2 C5 109.0(5)
C1 N1 C5 119.2(5)
C1 N1 Pd1 130.1(4)
C5 N1 Pd1 110.7(4)
C17 C12 C13 119.3(6)
C17 C12 N4 121.5(6)
C13 C12 N4 119.1(6)
C4 C3 C2 119.8(6)
C4 C3 H3 120.1
C2 C3 H3 120.1
C8 C7 C6 120.4(6)
C8 C7 H7 119.8
C6 C7 H7 119.8
N2 C5 N1 119.8(5)
N2 C5 C4 120.4(6)
N1 C5 C4 119.7(5)
C9 C8 C7 119.1(6)
C9 C8 H8 120.4
C7 C8 H8 120.4
C15 C14 C13 118.6(8)
C15 C14 H14 120.7
C13 C14 H14 120.7
C8 C9 C10 121.2(6)
C8 C9 Cl1 119.5(5)
C10 C9 Cl1 119.3(6)
C10 C11 C6 120.8(6)
C10 C11 N4 121.3(5)
C6 C11 N4 117.9(5)
C15 C16 C17 120.7(8)
C15 C16 H16 119.6
C17 C16 H16 119.6
N3 C6 C11 116.1(5)
N3 C6 C7 125.0(6)
C11 C6 C7 118.9(5)
C12 C17 C16 119.2(7)
C12 C17 H17 120.4
C16 C17 H17 120.4
N1 C1 C2 122.0(6)
N1 C1 H1 119.0
C2 C1 H1 119.0
C9 C10 C11 119.5(6)
C9 C10 H10 120.2
C11 C10 H10 120.2
C12 C13 C14 121.2(7)
C12 C13 H13 119.4
C14 C13 H13 119.4
C3 C4 C5 119.4(6)
C3 C4 H4 120.3
C5 C4 H4 120.3
C1 C2 C3 119.8(6)
C1 C2 H2 120.1
C3 C2 H2 120.1
C14 C15 C16 120.9(7)
C14 C15 H15 119.5
C16 C15 H15 119.5
N4 C18 H18A 109.5
N4 C18 H18B 109.5
H18A C18 H18B 109.5
N4 C18 H18C 109.5
H18A C18 H18C 109.5
H18B C18 H18C 109.5
loop_
_geom_bond_atom_site_label_1
_geom_bond_atom_site_label_2
_geom_bond_distance
Pd1 N3 1.910(5)
Pd1 N1 1.992(5)
Pd1 N4 2.094(5)
Pd1 Cl2 2.312(2)
Cl1 C9 1.725(6)
N4 C12 1.463(7)
N4 C11 1.482(7)
N4 C18 1.498(7)
N3 N2 1.329(6)
N3 C6 1.378(6)
N2 C5 1.367(7)
N1 C1 1.345(6)
N1 C5 1.372(7)
C12 C17 1.373(8)
C12 C13 1.378(8)
C3 C4 1.359(8)
C3 C2 1.374(8)
C3 H3 0.9300
C7 C8 1.388(7)
C7 C6 1.397(7)
C7 H7 0.9300
C5 C4 1.403(8)
C8 C9 1.372(8)
C8 H8 0.9300
C14 C15 1.359(10)
C14 C13 1.381(9)
C14 H14 0.9300
C9 C10 1.378(8)
C11 C10 1.378(7)
C11 C6 1.379(8)
C16 C15 1.364(10)
C16 C17 1.378(9)
C16 H16 0.9300
C17 H17 0.9300
C1 C2 1.356(8)
C1 H1 0.9300
C10 H10 0.9300
C13 H13 0.9300
C4 H4 0.9300
C2 H2 0.9300
C15 H15 0.9300
C18 H18A 0.9600
C18 H18B 0.9600
C18 H18C 0.9600
loop_
_geom_torsion_atom_site_label_1
_geom_torsion_atom_site_label_2
_geom_torsion_atom_site_label_3
_geom_torsion_atom_site_label_4
_geom_torsion
C6 N3 N2 C5 -178.4(5)
Pd1 N3 N2 C5 2.3(6)
C11 N4 C12 C17 142.8(6)
C18 N4 C12 C17 20.9(8)
Pd1 N4 C12 C17 -100.4(6)
C11 N4 C12 C13 -40.6(7)
C18 N4 C12 C13 -162.6(5)
Pd1 N4 C12 C13 76.1(6)
N3 N2 C5 N1 -0.9(8)
N3 N2 C5 C4 -178.2(5)
C1 N1 C5 N2 178.6(5)
Pd1 N1 C5 N2 -0.7(7)
C1 N1 C5 C4 -4.0(9)
Pd1 N1 C5 C4 176.6(5)
C6 C7 C8 C9 0.7(9)
C7 C8 C9 C10 -1.5(10)
C7 C8 C9 Cl1 178.1(5)
C12 N4 C11 C10 -58.5(7)
C18 N4 C11 C10 67.1(7)
Pd1 N4 C11 C10 -178.1(5)
C12 N4 C11 C6 121.1(6)
C18 N4 C11 C6 -113.4(6)
Pd1 N4 C11 C6 1.5(6)
N2 N3 C6 C11 -175.4(5)
Pd1 N3 C6 C11 3.9(7)
N2 N3 C6 C7 3.5(9)
Pd1 N3 C6 C7 -177.2(5)
C10 C11 C6 N3 176.0(5)
N4 C11 C6 N3 -3.5(8)
C10 C11 C6 C7 -3.0(9)
N4 C11 C6 C7 177.5(5)
C8 C7 C6 N3 -177.4(6)
C8 C7 C6 C11 1.5(9)
C13 C12 C17 C16 0.8(9)
N4 C12 C17 C16 177.4(6)
C15 C16 C17 C12 0.3(11)
C5 N1 C1 C2 1.9(9)
Pd1 N1 C1 C2 -178.9(5)
C8 C9 C10 C11 0.1(10)
Cl1 C9 C10 C11 -179.5(5)
C6 C11 C10 C9 2.2(9)
N4 C11 C10 C9 -178.3(5)
C17 C12 C13 C14 -0.9(10)
N4 C12 C13 C14 -177.5(5)
C15 C14 C13 C12 -0.1(10)
C2 C3 C4 C5 -0.6(10)
N2 C5 C4 C3 -179.2(6)
N1 C5 C4 C3 3.4(9)
N1 C1 C2 C3 0.9(10)
C4 C3 C2 C1 -1.5(10)
C13 C14 C15 C16 1.3(11)
C17 C16 C15 C14 -1.3(12)
