#------------------------------------------------------------------------------
#$Date: 2019-11-23 02:10:51 +0200 (Sat, 23 Nov 2019) $
#$Revision: 231842 $
#$URL: file:///home/coder/svn-repositories/cod/cif/4/34/65/4346564.cif $
#------------------------------------------------------------------------------
#
# This file is available in the Crystallography Open Database (COD),
# http://www.crystallography.net/
#
# All data on this site have been placed in the public domain by the
# contributors.
#
data_4346564
loop_
_publ_author_name
'North, Andrea J.'
'Hayne, David J.'
'Schieber, Christine'
'Price, Katherine'
'White, Anthony R.'
'Crouch, Peter J.'
'Rigopoulos, Angela'
'O'Keefe, Graeme J'
'Tochon-Danguy, Henri'
'Scott, Andrew M.'
'White, Jonathan M.'
'Ackermann, Uwe'
'Donnelly, Paul S.'
_publ_section_title
;
 Toward hypoxia-selective rhenium and technetium tricarbonyl complexes.
;
_journal_issue                   19
_journal_name_full               'Inorganic chemistry'
_journal_page_first              9594
_journal_page_last               9610
_journal_paper_doi               10.1021/acs.inorgchem.5b01691
_journal_volume                  54
_journal_year                    2015
_chemical_formula_sum            'C12 H10 N4 O2'
_chemical_formula_weight         242.24
_space_group_crystal_system      triclinic
_space_group_IT_number           2
_space_group_name_Hall           '-P 1'
_space_group_name_H-M_alt        'P -1'
_atom_sites_solution_hydrogens   mixed
_audit_creation_method           SHELXL-2014
_cell_angle_alpha                84.316(4)
_cell_angle_beta                 89.360(4)
_cell_angle_gamma                87.516(4)
_cell_formula_units_Z            2
_cell_length_a                   4.5731(3)
_cell_length_b                   10.1399(5)
_cell_length_c                   11.9298(6)
_cell_measurement_reflns_used    4456
_cell_measurement_temperature    130.0(2)
_cell_measurement_theta_max      73.1302
_cell_measurement_theta_min      3.7302
_cell_volume                     549.94(5)
_computing_cell_refinement
;
CrysAlisPro, Oxford Diffraction Ltd.,
Version 1.171.33.52 (release 06-11-2009 CrysAlis171 .NET)
(compiled Nov  6 2009,16:24:50)
;
_computing_data_collection
;
CrysAlisPro, Oxford Diffraction Ltd.,
Version 1.171.33.52 (release 06-11-2009 CrysAlis171 .NET)
(compiled Nov  6 2009,16:24:50)
;
_computing_data_reduction
;
CrysAlisPro, Oxford Diffraction Ltd.,
Version 1.171.33.52 (release 06-11-2009 CrysAlis171 .NET)
(compiled Nov  6 2009,16:24:50)
;
_computing_structure_refinement  'SHELXL-2014 (Sheldrick, 2014)'
_diffrn_ambient_temperature      130.0(2)
_diffrn_measured_fraction_theta_full 0.999
_diffrn_measured_fraction_theta_max 0.980
_diffrn_measurement_device_type  'Xcalibur, Sapphire3'
_diffrn_measurement_method       'phi and omega scans'
_diffrn_radiation_monochromator  graphite
_diffrn_radiation_source         'Enhance (Cu) X-ray Source'
_diffrn_radiation_type           'Cu K\a'
_diffrn_radiation_wavelength     1.5418
_diffrn_reflns_av_R_equivalents  0.0302
_diffrn_reflns_av_unetI/netI     0.0296
_diffrn_reflns_Laue_measured_fraction_full 0.999
_diffrn_reflns_Laue_measured_fraction_max 0.980
_diffrn_reflns_limit_h_max       5
_diffrn_reflns_limit_h_min       -5
_diffrn_reflns_limit_k_max       12
_diffrn_reflns_limit_k_min       -12
_diffrn_reflns_limit_l_max       14
_diffrn_reflns_limit_l_min       -14
_diffrn_reflns_number            7509
_diffrn_reflns_point_group_measured_fraction_full 0.999
_diffrn_reflns_point_group_measured_fraction_max 0.980
_diffrn_reflns_theta_full        67.684
_diffrn_reflns_theta_max         73.225
_diffrn_reflns_theta_min         3.724
_exptl_absorpt_coefficient_mu    0.867
_exptl_absorpt_correction_T_max  0.979
_exptl_absorpt_correction_T_min  0.859
_exptl_absorpt_correction_type   gaussian
_exptl_absorpt_process_details
;
CrysAlisPro, Oxford Diffraction Ltd.,
Version 1.171.33.52 (release 06-11-2009 CrysAlis171 .NET)
(compiled Nov  6 2009,16:24:50)
Numerical absorption correction based on gaussian integration over
			a multifaceted crystal model
;
_exptl_crystal_colour            yellow
_exptl_crystal_density_diffrn    1.463
_exptl_crystal_description       needle
_exptl_crystal_F_000             252
_exptl_crystal_size_max          0.3279
_exptl_crystal_size_mid          0.0916
_exptl_crystal_size_min          0.0300
_refine_diff_density_max         0.175
_refine_diff_density_min         -0.198
_refine_diff_density_rms         0.044
_refine_ls_extinction_method     none
_refine_ls_goodness_of_fit_ref   1.042
_refine_ls_hydrogen_treatment    mixed
_refine_ls_matrix_type           full
_refine_ls_number_parameters     167
_refine_ls_number_reflns         2169
_refine_ls_number_restraints     0
_refine_ls_restrained_S_all      1.042
_refine_ls_R_factor_all          0.0583
_refine_ls_R_factor_gt           0.0410
_refine_ls_shift/su_max          0.001
_refine_ls_shift/su_mean         0.000
_refine_ls_structure_factor_coef Fsqd
_refine_ls_weighting_details
'w=1/[\s^2^(Fo^2^)+(0.0649P)^2^] where P=(Fo^2^+2Fc^2^)/3'
_refine_ls_weighting_scheme      calc
_refine_ls_wR_factor_gt          0.1076
_refine_ls_wR_factor_ref         0.1132
_reflns_Friedel_coverage         0.000
_reflns_number_gt                1554
_reflns_number_total             2169
_reflns_threshold_expression     'I > 2\s(I)'
_cod_data_source_file            ic5b01691_si_009.cif
_cod_data_source_block           shelx
_cod_database_code               4346564
_shelx_space_group_comment
;
The symmetry employed for this shelxl refinement is uniquely defined
by the following loop, which should always be used as a source of
symmetry information in preference to the above space-group names.
They are only intended as comments.
;
_shelxl_version_number           2014-1
_shelx_res_file
;
TITL JMWPD123 in P-1             New: P-1
CELL  1.54184   4.5731  10.1399  11.9298   84.316   89.360   87.516
ZERR     2.00   0.0003   0.0005   0.0006    0.004    0.004    0.004
LATT   1
SFAC  C    H    N    O
UNIT  24   20   8    4
MERG   2
FMAP   2
PLAN   20
ACTA
BOND   $H
CONF
L.S.  12
WGHT    0.064900
FVAR       7.41971
C1    1    0.311739    0.337063    0.781857    11.00000    0.02297    0.04545 =
         0.02240   -0.00419    0.00007    0.00233
C2    1    0.456047    0.429290    0.837433    11.00000    0.02572    0.03730 =
         0.02893    0.00019    0.00122    0.00006
AFIX  43
H2    2    0.417850    0.519359    0.817596    11.00000   -1.20000
AFIX   0
C3    1    0.655146    0.389339    0.921598    11.00000    0.02645    0.03981 =
         0.02571   -0.00435   -0.00151   -0.00410
AFIX  43
H3    2    0.754661    0.451401    0.957139    11.00000   -1.20000
AFIX   0
C4    1    0.702946    0.255426    0.951696    11.00000    0.02392    0.04106 =
         0.02394   -0.00357   -0.00325    0.00111
C5    1    0.565284    0.160239    0.897764    11.00000    0.03207    0.03607 =
         0.03327   -0.00722   -0.00419    0.00496
AFIX  43
H5    2    0.603591    0.070376    0.918565    11.00000   -1.20000
AFIX   0
C6    1    0.370210    0.201676    0.812562    11.00000    0.03192    0.04421 =
         0.03017   -0.01166   -0.00679    0.00235
AFIX  43
H6    2    0.276970    0.139151    0.775297    11.00000   -1.20000
AFIX   0
C7    1    0.099735    0.385538    0.694910    11.00000    0.02460    0.04754 =
         0.02644   -0.00166   -0.00116    0.00039
AFIX  43
H7    2    0.050915    0.475870    0.684183    11.00000   -1.20000
AFIX   0
C8    1   -0.336343    0.289004    0.480645    11.00000    0.02431    0.05079 =
         0.02476   -0.00120   -0.00154   -0.00226
C9    1   -0.241811    0.159487    0.471242    11.00000    0.06399    0.08655 =
         0.05786   -0.03810   -0.03675    0.04789
AFIX  43
H9    2   -0.104208    0.117367    0.520949    11.00000   -1.20000
AFIX   0
C10   1   -0.354326    0.093796    0.387243    11.00000    0.06150    0.07880 =
         0.05845   -0.03969   -0.02766    0.03512
AFIX  43
H10   2   -0.291167    0.006813    0.379131    11.00000   -1.20000
AFIX   0
C11   1   -0.560000    0.156492    0.315249    11.00000    0.03852    0.05513 =
         0.03089   -0.00494   -0.00686   -0.00870
AFIX  43
H11   2   -0.637236    0.114568    0.257027    11.00000   -1.20000
AFIX   0
C12   1   -0.645337    0.282869    0.333187    11.00000    0.05302    0.03966 =
         0.04414    0.01104   -0.02596   -0.01354
AFIX  43
H12   2   -0.788369    0.325293    0.286059    11.00000   -1.20000
AFIX   0
N1    3   -0.020658    0.307310    0.633120    11.00000    0.02620    0.05546 =
         0.02469   -0.00542   -0.00516    0.00698
N2    3   -0.222147    0.364029    0.558531    11.00000    0.02883    0.04960 =
         0.02821   -0.00266   -0.00901    0.00311
N3    3   -0.539569    0.351487    0.413601    11.00000    0.04514    0.03724 =
         0.03863    0.01011   -0.01889   -0.01363
N4    3    0.899847    0.213333    1.045594    11.00000    0.03122    0.04150 =
         0.02790   -0.00574   -0.00474    0.00242
O1    4    1.045619    0.297543    1.083256    11.00000    0.04387    0.05146 =
         0.03938   -0.00268   -0.01812   -0.00831
O2    4    0.910065    0.096493    1.083392    11.00000    0.05409    0.04070 =
         0.04065   -0.00277   -0.01604    0.00805
H2A   2   -0.287970    0.450754    0.561628    11.00000    0.04434
HKLF    4  1.0  0.50  0.00  0.00  0.00  1.00  0.00  0.00  0.00  1.00

REM  JMWPD123 in P-1             New: P-1
REM R1 =  0.0410 for    1554 Fo > 4sig(Fo)  and  0.0583 for all    2169 data
REM    167 parameters refined using      0 restraints

END

WGHT      0.0649      0.0000

REM Highest difference peak  0.175,  deepest hole -0.198,  1-sigma level  0.044
Q1    1  -0.9006  0.3322  0.3144  11.00000  0.05    0.18
Q2    1  -0.1242  0.1710  0.4633  11.00000  0.05    0.17
Q3    1  -0.2874  0.1350  0.4989  11.00000  0.05    0.17
Q4    1   0.7819  0.3129  0.9120  11.00000  0.05    0.16
Q5    1  -0.4438  0.4104  0.3796  11.00000  0.05    0.15
Q6    1  -0.3807 -0.0436  0.4174  11.00000  0.05    0.14
Q7    1  -0.3974  0.0544  0.4019  11.00000  0.05    0.14
Q8    1   0.0345  0.5178  0.6927  11.00000  0.05    0.14
Q9    1  -0.3984  0.1367  0.3413  11.00000  0.05    0.14
Q10   1  -0.2134  0.0732  0.3396  11.00000  0.05    0.13
Q11   1   0.2647  0.3588  0.7249  11.00000  0.05    0.13
Q12   1   0.3260  0.3762  0.8488  11.00000  0.05    0.13
Q13   1  -0.5483  0.4522  0.4001  11.00000  0.05    0.13
Q14   1  -0.2335  0.0572  0.5636  11.00000  0.05    0.13
Q15   1  -0.7585  0.3771  0.5052  11.00000  0.05    0.12
Q16   1   0.2755  0.2830  0.8148  11.00000  0.05    0.11
Q17   1  -0.4407  0.1958  0.1957  11.00000  0.05    0.11
Q18   1   0.7469  0.2074  0.8834  11.00000  0.05    0.11
Q19   1   1.1854  0.3589  1.0414  11.00000  0.05    0.11
Q20   1   0.7815  0.0426  1.1134  11.00000  0.05    0.11
;
_shelx_res_checksum              29549
_shelx_hkl_file
;
   0   0   1 506.310 84.6719   4
   0   0  -1 476.082 91.4825   4
   0   0  -2 67207.4 908.417   4
   0   0   2 64209.2 786.533   4
   0   0  -3 3013.40 334.255   4
   0   0   3 2639.33 243.507   4
   0   0  -4 26052.7 408.633   7
   0   0  -4 28534.8 847.930   4
   0   0   4 26389.6 323.947  32
   0   0   4 27915.1 701.127   4
   0   0  -4 27188.1 339.519  24
   0   0   5 18361.0 272.324  33
   0   0   5 17969.9 637.614   4
   0   0  -5 17108.7 381.275   7
   0   0  -5 17808.5 277.462  26
   0   0   5 16476.0 288.507  32
   0   0  -5 16454.0 739.894   4
   0   0  -5 17435.3 315.615  24
   0   0   6 10364.0 256.940  32
   0   0  -6 11675.8 310.256  13
   0   0   6 10983.7 235.076  33
   0   0  -6 10513.4 246.249  26
   0   0  -6 12454.0 319.208  22
   0   0  -6 10604.8 280.497  24
   0   0  -6 11586.7 248.320  27
   0   0   7 30747.8 444.725  32
   0   0  -7 31238.5 452.960  26
   0   0   7 31902.9 418.598  33
   0   0   8 28881.8 469.561  32
   0   0  -8 29696.1 485.886  26
   0   0  -8 28674.2 529.508  24
   0   0  -9 553.304 134.740  26
   0   0   9 571.510 143.365  32
   0   0   9 308.126 165.055   5
   0   0  -9 726.470 150.298  24
   0   0 -10 785.574 205.609  38
   0   0  10 569.404 191.239   5
   0   0  10 681.261 191.606  45
   0   0 -10 744.648 164.274  24
   0   0 -10 737.210 191.703  48
   0   0  11 23.5940 166.823  45
   0   0 -11 62.0365 181.910  38
   0   0 -11 13.7498 171.219  48
   0   0 -11 35.4276 130.208  24
   0   0 -12 268.531 181.965  38
   0   0  12 77.5580 168.696  45
   0   0 -12 140.871 153.927  48
   0   0 -13 1588.42 185.444  38
   0   0  13 1169.13 182.793  45
   0   0  14 44.5973 130.436  50
   0   0 -14 117.013 120.893  38
   0   0  14 63.0979 117.675  45
   0  -1  14 5540.49 191.459  45
   0   1 -14 5561.56 198.889  38
   0  -1  13 2348.57 207.628  45
   0   1 -13 2471.77 195.025  38
   0   1 -12 4245.83 245.397  38
   0   1 -12 4041.65 237.994  48
   0   1 -12 4155.88 229.372  47
   0  -1  12 3937.43 260.230  45
   0   1 -11-30.1797 150.476  48
   0   1 -11 41.6111 119.051  24
   0   1 -11-108.312 184.183  38
   0   1 -11-25.2925 157.064  47
   0  -1  11 26.1226 171.296  45
   0  -1  10 244.946 186.955   5
   0  -1  10 295.891 180.828  45
   0  -1  10 459.158 177.690  52
   0   1 -10 470.897 195.536  38
   0   1 -10 514.967 162.592  48
   0   1 -10 368.331 184.256  47
   0   1 -10 425.069 143.997  24
   0  -1   9 33.6038 160.633   5
   0  -1   9 17.3493 127.396  32
   0   1  -9 26.5500 124.116  24
   0  -1   8 1214.05 152.742  32
   0   1  -8 1235.69 160.597  24
   0  -1   8 1337.68 150.219  33
   0   1  -7 2029.00 163.987  24
   0   1  -7 2067.32 151.889  26
   0  -1   7 2157.98 158.662  33
   0  -1   7 2111.41 160.110  32
   0   1  -6 9263.38 241.984  26
   0   1  -6 8978.09 263.176  24
   0  -1   6 9779.30 261.672  33
   0  -1   6 9145.24 247.273  32
   0  -1   5-18.4630 107.255  32
   0  -1   5 61.5571 104.714  33
   0   1  -5-68.7324 150.287   2
   0   1  -5 70.2190 86.6170  24
   0  -1   5 135.899 151.591   4
   0   1  -5 100.768 82.7173  26
   0  -1   4 21318.6 597.393   4
   0   1  -4 20348.4 274.538  26
   0   1  -4 19737.0 620.946   4
   0   1  -4 20765.5 304.559  24
   0  -1   4 21442.4 342.171  33
   0  -1   3 35507.1 677.232   4
   0   1  -3 35460.9 675.527   4
   0  -1   3 35131.6 377.607   3
   0  -1   2 9703.23 306.144   4
   0   1  -2 8781.40 293.344   2
   0  -1   1 233.837 62.7469   4
   0   1  -1 262.721 90.7793   2
   0  -1   1 173.445 87.9550   2
   0   1   0 19933.3 208.744   4
   0  -1   0 19616.5 208.798   4
   0   1   1 19724.3 343.302   4
   0  -1  -1 20002.9 399.625   4
   0   1   2 50790.4 728.455   4
   0  -1  -2 52276.4 875.820   4
   0  -1  -3 15324.5 621.336   4
   0  -1  -3 15593.2 274.555   8
   0   1   3 15403.8 492.233   4
   0   1   4 28611.0 726.793   4
   0   1   4 27959.4 328.984  32
   0  -1  -4 28113.8 930.875   4
   0  -1  -4 28653.6 431.490   7
   0  -1  -4 28027.3 344.055  24
   0  -1  -5 18279.1 398.940   7
   0  -1  -5 17342.9 317.696  24
   0   1   5 17567.1 293.212  32
   0   1   6 3104.25 167.968  32
   0  -1  -6 3057.68 172.719  24
   0   1   6 3308.67 152.767  34
   0  -1  -6 3280.99 229.552  22
   0  -1  -6 3438.58 158.051  26
   0  -1  -6 3199.99 216.633   7
   0  -1  -7 5532.82 296.544   7
   0  -1  -7 6427.51 218.714  26
   0  -1  -7 7011.50 315.330  22
   0  -1  -7 6146.64 248.703  24
   0   1   7 5704.41 219.887  32
   0   1   8 5042.50 227.454  32
   0  -1  -8 5534.43 224.145  26
   0  -1  -8 4978.10 247.781  24
   0  -1  -9-8.21464 109.216  26
   0   1   9 7.61105 146.345   5
   0  -1  -9-23.0016 130.012  24
   0  -1 -10 1309.46 187.585  24
   0   1  10 1244.11 217.231  45
   0  -1 -10 1367.15 223.414  38
   0  -1 -10 1476.96 200.183  48
   0   1  10 1033.96 209.615   5
   0   1  10 1173.49 173.991  49
   0  -1 -11 143.747 161.086  48
   0   1  11 60.4935 173.824  45
   0  -1 -11 184.459 178.929  38
   0  -1 -11 169.343 135.835  24
   0  -1 -12 1978.93 232.542  38
   0   1  12 1927.91 216.487  45
   0  -1 -12 2467.87 204.816  48
   0   1  13 8073.35 273.068  50
   0  -1 -13 7533.31 282.999  38
   0   1  14 69.5493 133.851  50
   0   1  14 78.9784 117.240  45
   0  -1 -14 74.5779 134.014  38
   0   2 -14 5593.39 160.010  59
   0  -2  14 5586.43 184.611  45
   0   2 -13 275.709 131.472  38
   0  -2  13 321.732 138.394  45
   0   2 -13 183.782 142.533  59
   0   2 -12 33.0842 141.624  47
   0   2 -12 374.887 155.725  38
   0  -2  12 145.301 157.119  45
   0  -2  11 31.7685 148.228  52
   0   2 -11 117.385 178.374  38
   0   2 -11 20.9105 120.806  24
   0   2 -11 217.588 155.303  47
   0  -2  11 103.716 164.755  45
   0   2 -11 1.61604 148.429  48
   0   2 -10 42.5536 148.925  48
   0   2 -10-6.01865 183.308  38
   0   2 -10-136.384 170.447  47
   0  -2  10-87.0213 189.766   5
   0  -2  10 96.0555 171.565  52
   0  -2  10 32.0514 174.875  45
   0   2 -10 93.8501 118.119  24
   0   2  -9-5.73027 125.768  24
   0  -2   9-22.2587 138.612  33
   0  -2   9 32.7643 155.440   5
   0   2  -8 235.770 124.816  24
   0  -2   8 141.759 155.129   5
   0  -2   8 359.923 136.571  33
   0  -2   7 39936.0 578.072  33
   0  -2   7 39908.1 504.545  32
   0   2  -6 110.208 93.3879  24
   0   2  -6 225.748 129.760  15
   0  -2   6 133.921 126.465  33
   0  -2   6 244.621 108.296  32
   0  -2   5 8639.23 224.466  32
   0  -2   5 8412.09 287.513  33
   0   2  -5 8185.38 231.649  24
   0   2  -5 8584.03 265.729  15
   0   2  -4 2362.75 262.802   2
   0  -2   4 2405.23 220.659   4
   0  -2   4 2332.54 195.740  33
   0  -2   4 2277.76 165.331   3
   0   2  -4 2363.16 154.707  15
   0   2  -4 2232.44 127.096  24
   0   2  -3 69.0344 74.9248  24
   0  -2   3 15.5222 143.217  33
   0   2  -3 29.0972 153.871   2
   0  -2   3 108.728 116.625   4
   0  -2   3 17.7139 140.543  31
   0  -2   3-12.1727 109.018  19
   0   2  -3 16.5378 97.5976  15
   0  -2   2 42487.5 457.501  20
   0   2  -2 42772.8 738.384   2
   0   2  -2 42847.4 384.706  15
   0  -2   2 43649.1 536.887   4
   0  -2   2 42563.1 455.666  19
   0  -2   1 59542.4 804.853   2
   0  -2   1 60905.7 379.592   4
   0  -2   0 198855. 1384.78   2
   0  -2   0 201078. 1003.05   4
   0   2   1 84388.3 764.463   4
   0  -2  -1 80440.2 953.907   4
   0  -2  -2 1767.98 287.066   4
   0   2   2 1529.16 182.266   4
   0   2   2 1469.44 108.960  14
   0  -2  -3 23733.8 837.943   4
   0   2   3 23723.6 612.385   4
   0  -2  -3 22956.8 343.379   8
   0  -2  -4 18857.5 439.956   3
   0  -2  -4 18624.2 269.020  25
   0   2   4 19753.1 632.551   4
   0  -2  -4 17821.4 349.285   8
   0   2   4 16701.7 249.812  34
   0  -2  -4 17728.9 835.280   4
   0   2   4 17442.6 263.276  32
   0  -2  -4 17827.1 279.443  24
   0  -2  -5 355.978 85.7280  28
   0   2   5 330.550 109.392  32
   0  -2  -5 275.675 96.2827  24
   0   2   5 299.495 107.968  34
   0   2   6 745.006 128.555  34
   0  -2  -6 682.448 196.378  22
   0  -2  -6 594.508 136.209   7
   0   2   6 668.095 125.131  32
   0  -2  -6 738.114 119.908  24
   0   2   7 2229.56 154.173  34
   0  -2  -7 2036.78 239.293  22
   0   2   7 2143.97 161.367  32
   0  -2  -7 1988.75 166.005  24
   0  -2  -7 1805.70 203.691   7
   0  -2  -7 2003.21 146.195  26
   0  -2  -8 4477.58 203.418  26
   0   2   8 4039.21 211.183  32
   0  -2  -8 4175.02 291.461   7
   0  -2  -8 4087.75 236.515  24
   0  -2  -8 4626.46 334.156  22
   0  -2  -9 61.6839 129.684  24
   0   2   9 101.779 152.630   5
   0   2  10 1766.47 197.692  49
   0   2  10 1489.65 229.930  45
   0   2  10 1561.65 227.348   5
   0  -2 -10 2095.78 213.751  48
   0  -2 -10 1608.13 246.106  38
   0  -2 -10 1577.86 197.279  24
   0  -2 -11 889.166 179.581  48
   0   2  11 526.946 187.626  45
   0  -2 -11 676.543 214.548  38
   0  -2 -11 654.730 165.067  24
   0   2  11 683.232 156.754  49
   0   2  12 5742.90 245.197  49
   0  -2 -12 6220.99 272.820  48
   0  -2 -12 6177.80 306.600  38
   0   2  12 6819.46 294.600  50
   0  -2 -13 6987.37 283.085  56
   0  -2 -13 6891.49 277.175  38
   0   2  13 7444.48 266.176  50
   0   2  14 2388.46 159.105  45
   0  -2 -14 2694.02 177.217  38
   0   2  14 2515.81 157.196  50
   0   3 -13 3.34523 130.019  59
   0  -3  13 150.552 127.469  45
   0  -3  12 805.310 167.294  45
   0   3 -12 1012.27 163.320  38
   0  -3  11 360.610 174.123  45
   0   3 -11 311.184 157.219  47
   0  -3  11 288.286 163.808  52
   0   3 -11 452.992 181.516  38
   0   3 -11 399.307 148.411  48
   0   3 -10 178.808 153.645  48
   0  -3  10 116.309 181.617  52
   0   3 -10 200.024 149.955  47
   0  -3  10 186.462 177.636  45
   0   3 -10 88.6218 114.691  24
   0   3 -10 35.8021 173.869  38
   0  -3  10 27.1428 135.783  33
   0   3  -9 776.938 149.389  24
   0  -3   9 566.506 202.616  52
   0  -3   9 846.759 196.657  45
   0   3  -9 716.884 194.338  38
   0  -3   9 671.322 163.643  33
   0   3  -9 705.693 180.763  47
   0   3  -9 617.418 154.650  48
   0   3  -8 570.378 135.185  24
   0  -3   8 570.819 184.686   5
   0  -3   8 643.142 167.564  33
   0   3  -7 11594.0 333.660  24
   0   3  -7 13489.4 401.035  15
   0  -3   7 12308.9 419.729   5
   0  -3   7 12885.7 383.220  33
   0   3  -6 97.2878 89.2266  24
   0  -3   6 67.2458 159.963  33
   0   3  -6 181.443 128.124  15
   0  -3   6 240.219 131.120   5
   0  -3   5 868.102 178.840  33
   0   3  -5 584.904 101.819  24
   0   3  -5 730.314 135.242  15
   0   3  -4 7370.95 242.334  15
   0  -3   4 7102.82 292.110  19
   0   3  -4 6689.29 204.073  24
   0  -3   4 7038.22 305.284  33
   0  -3   3 3680.49 218.064  31
   0  -3   3 3324.24 199.639  20
   0  -3   3 3735.66 238.505  33
   0   3  -3 3679.99 156.145  11
   0   3  -3 3484.48 171.309  15
   0  -3   3 3304.62 194.525  19
   0  -3   2 226.137 177.877   2
   0   3  -2 413.814 134.443  18
   0   3  -2 412.451 81.9511  14
   0  -3   2 418.826 164.874  33
   0   3  -2 331.544 100.049  15
   0  -3   2 284.159 89.7864  21
   0  -3   2 407.693 107.495  20
   0   3  -2 439.967 107.493  11
   0  -3   1 54086.3 485.113  21
   0   3  -1 50857.6 464.173  11
   0   3  -1 54141.1 446.663  14
   0  -3   1 53809.0 537.121  12
   0   3  -1 51693.9 455.512  18
   0  -3   1 51892.5 923.056   2
   0   3  -1 52649.3 464.458  15
   0   3   0 17014.8 267.368  14
   0  -3   0 17103.9 269.611  16
   0   3   0 16805.1 270.071  18
   0  -3   0 17630.7 529.733   2
   0  -3   0 17063.3 421.057   4
   0   3   1 14082.9 256.004  14
   0  -3  -1 14935.8 525.391   4
   0   3   2 7787.41 208.479  14
   0   3   2 7824.10 202.739  11
   0  -3  -2 8138.76 508.299   4
   0  -3  -2 7667.40 167.218   0
   0   3   2 7396.04 169.042  34
   0   3   3 4097.87 159.470  11
   0   3   3 4544.45 314.882   4
   0   3   3 3808.14 145.104  34
   0  -3  -3 4215.03 472.829   4
   0   3   4 50.6008 103.330  34
   0  -3  -4 78.6340 100.206   8
   0   3   4 70.6598 91.8952  32
   0  -3  -4 62.2623 76.6053  25
   0   3   4 107.446 90.1345  11
   0  -3  -4 107.043 65.6737  28
   0  -3  -5 10109.4 220.207  28
   0   3   5 9791.80 225.746  34
   0  -3  -5 9564.82 315.738   8
   0  -3  -5 10236.8 246.713  25
   0  -3  -5 9869.12 250.686  24
   0   3   5 9934.91 231.998  32
   0  -3  -6 49075.2 601.535  24
   0  -3  -6 47765.0 823.454  22
   0  -3  -6 52365.1 532.345  28
   0   3   6 48815.8 491.737  34
   0   3   6 50863.6 532.094  32
   0  -3  -7 4656.88 283.238   7
   0   3   7 4925.01 202.542  34
   0  -3  -7 4442.44 341.333  22
   0  -3  -7 5114.49 242.713  24
   0   3   8 329.175 133.859  34
   0  -3  -8 182.989 152.953   7
   0  -3  -8 329.351 144.046  24
   0  -3  -8 335.357 232.344  22
   0  -3  -9 484.464 196.835   7
   0  -3  -9 328.184 154.156  24
   0  -3  -9 385.340 259.823  22
   0   3   9 303.372 158.155   5
   0   3  10 32.8837 173.906  45
   0   3  10 4.12851 157.320  49
   0  -3 -10-2.48366 212.443  38
   0   3  10-6.39550 214.458  50
   0   3  10 45.1391 152.596   5
   0  -3 -10 86.2732 143.435  24
   0   3  11 547.458 188.574  45
   0  -3 -11 796.870 167.814  24
   0   3  11 776.655 164.584  49
   0   3  11 953.043 206.896  50
   0  -3 -11 910.039 224.310  38
   0   3  12 54.8894 192.592  50
   0  -3 -12 36.6483 182.071  38
   0   3  12 0.32890 156.666  45
   0   3  13 839.919 168.510  45
   0  -3 -13 1114.06 184.579  56
   0  -3 -13 1251.38 183.595  38
   0   3  13 1443.28 189.303  50
   0  -3 -14 6816.53 221.433  56
   0   3  14 6409.18 213.657  45
   0   4 -13 411.532 122.079  59
   0  -4  13 584.918 119.864  45
   0  -4  12 20.8966 136.906  46
   0   4 -12 426.280 151.588  59
   0  -4  12 473.064 147.057  45
   0   4 -11 1659.15 186.193  47
   0  -4  11 1416.96 197.312  52
   0  -4  11 1484.70 199.178  45
   0  -4  10 10773.6 366.802  45
   0   4 -10 10041.9 328.982  47
   0  -4  10 11146.5 356.595  52
   0  -4  10 11240.3 363.017  33
   0  -4   9 14862.2 416.495  45
   0  -4   9 14982.4 427.527  33
   0   4  -9 15327.6 362.303  48
   0   4  -9 15033.9 511.667  18
   0   4  -9 15055.7 383.852  47
   0   4  -8 218.744 148.418  47
   0   4  -8 184.643 214.206  18
   0  -4   8 181.481 162.525  33
   0   4  -7 5176.13 316.343  18
   0  -4   7 5707.15 300.922  33
   0  -4   6 2064.07 208.189  30
   0   4  -6 2024.29 195.984  15
   0  -4   6 1954.95 228.427  33
   0   4  -6 2073.74 232.404  18
   0   4  -5 75.3129 123.567  15
   0   4  -5 247.629 158.899  18
   0  -4   5 136.494 186.921  33
   0   4  -4 5105.47 252.622  18
   0  -4   4 4771.17 274.919  19
   0   4  -4 5439.76 229.053  15
   0  -4   3 26024.8 557.299  33
   0   4  -3 27555.7 460.539  18
   0   4  -3 29348.5 429.537  11
   0  -4   3 28831.5 522.089  31
   0  -4   3 27240.5 538.731  20
   0   4  -3 28293.9 445.459  15
   0  -4   3 27705.4 543.524  19
   0  -4   2 24987.8 507.771  33
   0   4  -2 26459.0 372.317  14
   0  -4   2 25167.6 433.501  21
   0   4  -2 25666.3 397.827  15
   0   4  -2 25590.9 402.477  11
   0  -4   2 26080.9 445.905  31
   0  -4   2 26664.4 485.892  20
   0   4  -2 25676.7 409.783  18
   0   4  -1 55063.5 570.206  11
   0   4  -1 54322.8 540.193  14
   0  -4   1 55593.8 587.464  21
   0  -4   1 54194.4 645.278  33
   0   4  -1 54179.7 552.228  18
   0  -4   1 54396.1 515.155  16
   0  -4   1 53943.5 666.143  12
   0   4   0 52536.6 376.127  34
   0   4   0 50401.5 529.680  14
   0  -4   0 51513.2 535.816  16
   0   4   0 51652.8 525.637  18
   0  -4   0 54718.1 925.373   4
   0   4   0 49885.3 549.742  11
   0  -4   0 54291.3 522.846  22
   0   4   1 36.9207 97.8674  34
   0  -4  -1 126.119 231.723   4
   0   4   1 100.400 107.664  11
   0   4   1 102.174 107.028   4
   0   4   1 20.2906 102.475  14
   0  -4  -1 43.1193 149.641  22
   0  -4  -2 21823.4 468.521  22
   0   4   2 21692.6 376.307  14
   0   4   2 21719.9 357.073  11
   0  -4  -2 22715.8 910.374   4
   0  -4  -3 6646.97 647.163   4
   0   4   3 6448.21 193.293  34
   0   4   3 6857.44 226.778  11
   0   4   4 2339.85 154.649  11
   0   4   4 2267.23 149.216  34
   0  -4  -4 2196.07 117.207  28
   0  -4  -4 2262.95 179.851   8
   0  -4  -4 2179.70 253.415  22
   0   4   5 6308.68 204.494  34
   0  -4  -5 6158.59 370.100  22
   0  -4  -5 6919.93 227.608  25
   0  -4  -5 6243.88 189.222  28
   0  -4  -5 6652.27 292.011   8
   0  -4  -6 27868.8 708.953  22
   0  -4  -6 28733.5 417.066  28
   0  -4  -6 29746.8 477.250  25
   0  -4  -6 29265.0 489.022  24
   0   4   6 28367.8 405.494  34
   0  -4  -6 30491.2 629.722   8
   0   4   7-23.7910 129.847  34
   0  -4  -7 102.891 118.843  24
   0   4   7-21.6956 113.445   5
   0  -4  -7-81.2963 247.540  22
   0   4   8 1794.65 194.132   5
   0  -4  -8 1629.01 189.266  24
   0  -4  -8 1540.60 304.571  22
   0  -4  -8 1601.38 221.391   7
   0   4   8 1780.53 174.821  34
   0   4   9 1351.05 228.771  50
   0   4   9 1698.67 184.389  34
   0   4   9 1181.05 205.199  45
   0  -4  -9 1350.26 314.631  22
   0   4   9 1624.04 194.908  49
   0  -4  -9 1677.83 205.699  24
   0  -4  -9 1255.41 238.908   7
   0   4   9 1212.88 211.155   5
   0  -4 -10-147.272 263.271  22
   0  -4 -10-124.988 172.534   7
   0   4  10 113.360 162.847  45
   0  -4 -10 13.8892 144.760  24
   0   4  10-58.3173 172.630   5
   0  -4 -10-23.3203 224.069  38
   0   4  10-2.62361 203.085  50
   0   4  10-15.0859 144.236  49
   0  -4 -11 32.6486 137.315  24
   0   4  11 87.3990 168.838  45
   0   4  11 34.2055 147.718  49
   0  -4 -11 48.2378 181.429  38
   0   4  11-92.8155 198.555  50
   0   4  12 867.814 183.241  45
   0  -4 -12 1252.58 212.132  38
   0   4  12 1305.31 203.490  50
   0  -4 -13 17786.7 401.300  56
   0   4  13 19070.7 346.731  50
   0  -4 -13 18482.5 364.778  38
   0  -4 -14 333.992 127.652  56
   0  -4 -14 380.793 116.851  38
   0  -5  12-9.13935 121.120  45
   0  -5  12-23.2032 118.098  46
   0   5 -12 22.1671 116.210  59
   0  -5  11 9.18307 148.779  45
   0   5 -11-9.33456 148.370  59
   0  -5  11 6.80025 141.028  52
   0   5 -10 49.2075 165.716  59
   0  -5  10 51.1979 172.217  45
   0   5 -10-25.8345 144.281  47
   0  -5  10 4.02465 167.211  52
   0   5  -9 398.676 162.046  47
   0   5  -9 349.970 153.644  55
   0  -5   9 331.267 155.616  33
   0  -5   9 305.672 180.422  45
   0  -5   8 20637.9 487.227  45
   0   5  -8 21386.2 429.558  55
   0  -5   8 20637.3 509.547  33
   0   5  -8 21416.9 439.869  47
   0   5  -8 21171.3 584.674  18
   0  -5   7 3679.05 274.056  33
   0   5  -7 3287.71 299.603  18
   0  -5   7 3583.87 260.079  30
   0   5  -6 781.271 202.460  18
   0  -5   6 970.986 220.016  33
   0  -5   6 706.559 200.726  30
   0   5  -5 3252.21 222.671  15
   0  -5   5 3437.93 285.563  19
   0   5  -5 3369.03 258.395  18
   0  -5   5 3363.86 293.995  33
   0   5  -4 5058.19 246.272  15
   0   5  -4 5130.40 272.867  18
   0  -5   4 4610.66 297.484  19
   0   5  -3 2636.15 205.581  18
   0  -5   3 2286.46 216.793  19
   0   5  -3 2383.60 177.767  11
   0  -5   3 2501.88 222.355  20
   0  -5   3 2366.53 285.334  33
   0   5  -2 39.0663 119.746  11
   0   5  -2 7.31050 139.179  18
   0  -5   2 20.4866 96.6212  21
   0  -5   2 79.1508 218.235  33
   0  -5   2 35.6897 119.020  20
   0   5  -2-15.7145 96.2485  14
   0   5  -1 6238.70 232.926  14
   0  -5   1 6297.82 227.179  16
   0  -5   1 6256.20 250.415  21
   0  -5   1 6270.59 337.076  33
   0   5  -1 6344.58 254.243  18
   0  -5   1 6345.16 263.734  20
   0   5  -1 6072.32 245.637  11
   0   5   0 5912.00 233.183  14
   0   5   0 6170.74 253.570  11
   0  -5   0 6273.81 299.943  33
   0   5   0 6180.85 246.705  18
   0  -5   0 6048.18 247.889  21
   0  -5   0 5879.74 236.062  16
   0   5   0 5890.24 166.923  34
   0   5   1 929.227 142.189  14
   0   5   1 1101.96 156.205  11
   0   5   1 973.074 112.775  34
   0  -5  -1 896.688 154.651  16
   0  -5  -1 932.755 166.807  22
   0  -5  -2 5450.08 231.316  30
   0   5   2 5727.63 234.081  11
   0  -5  -2 5792.74 324.501  22
   0   5   2 5131.10 177.500  34
   0   5   3 2373.04 151.790  34
   0  -5  -3 2390.39 269.902  22
   0   5   3 2546.29 178.305  11
   0  -5  -4 3643.83 160.717  28
   0  -5  -4 3443.72 231.348   8
   0   5   4 3562.70 173.736  34
   0  -5  -4 3210.63 312.806  22
   0   5   4 3636.39 199.514  11
   0  -5  -5 590.286 115.581  25
   0  -5  -5 681.129 165.128   8
   0  -5  -5 562.341 96.0340  28
   0   5   5 571.790 138.586  34
   0  -5  -5 722.448 248.042  22
   0  -5  -6 2254.56 239.798   8
   0   5   6 2133.65 173.660  34
   0  -5  -6 2395.18 179.985  25
   0  -5  -6 1771.24 311.777  22
   0  -5  -7 26276.2 672.141   8
   0  -5  -7 25159.7 522.743  24
   0  -5  -7 25352.3 509.094  25
   0   5   7 25213.0 436.513  34
   0   5   8 83.8052 146.960  34
   0  -5  -8-31.0894 275.910  22
   0  -5  -8 134.615 183.254   7
   0  -5  -8 68.9234 139.894  24
   0  -5  -9 35.0111 172.459   7
   0   5   9 30.6394 155.505  49
   0   5   9 14.0463 146.354  34
   0   5   9-15.0370 155.947  45
   0  -5  -9-55.2954 149.066  24
   0  -5  -9 5.38310 277.052  22
   0   5   9-90.8534 205.342  50
   0   5  10 880.345 197.776  50
   0   5  10 709.045 169.020  49
   0   5  10 822.868 158.488  34
   0  -5 -10 754.086 178.833  24
   0   5  10 514.565 190.165  45
   0   5  11 446.898 184.977  45
   0   5  11 1083.72 209.891  50
   0  -5 -12 1810.87 196.290  38
   0   5  12 2225.36 216.741  50
   0   5  13-39.7084 152.600  50
   0  -5 -13 29.8562 155.867  56
   0  -5 -14 1574.05 142.967  56
   0   5  14 1715.23 119.745  42
   0   6 -12 73.4972 99.7901  59
   0  -6  11-35.6220 125.977  45
   0  -6  11 14.7522 121.581  52
   0   6 -11 27.1629 128.182  59
   0   6 -10 3055.88 200.903  59
   0  -6  10 3588.01 215.543  45
   0  -6  10 2953.79 212.757  52
   0   6 -10 2908.80 189.745  55
   0   6  -9 12351.0 345.181  59
   0   6  -9 12153.6 328.432  55
   0  -6   9 12854.6 381.969  45
   0   6  -9 11720.7 341.353  47
   0   6  -8 9675.74 308.451  55
   0   6  -8 10452.1 316.668  59
   0  -6   8 9868.22 381.950  33
   0   6  -8 10733.5 334.918  47
   0  -6   8 9944.80 366.229  45
   0  -6   7 286.702 172.145  30
   0   6  -7 360.970 149.832  47
   0   6  -7 325.949 179.128  18
   0  -6   7 384.162 182.314  33
   0   6  -7 281.190 172.858  43
   0   6  -7 380.179 166.747  59
   0   6  -6 2958.73 287.289  18
   0  -6   6 2708.88 279.421  30
   0  -6   6 3212.81 293.844  33
   0   6  -6 3152.32 227.143  63
   0  -6   5 141.080 184.528  19
   0  -6   5-179.242 217.509  30
   0  -6   5 174.510 220.111  33
   0   6  -5 45.2422 169.250  18
   0   6  -4 606.504 191.294  18
   0  -6   4 652.115 194.006  19
   0  -6   4 551.070 256.763  33
   0  -6   4 618.025 227.617  30
   0  -6   3 1771.77 218.370  19
   0  -6   3 1973.68 310.425  33
   0  -6   3 2329.10 234.414  20
   0   6  -3 2559.00 232.466  18
   0   6  -3 2263.57 200.254  11
   0  -6   2 3844.35 266.366  20
   0   6  -2 3805.42 235.218  11
   0   6  -2 3627.14 240.205  18
   0  -6   2 3045.07 344.467  33
   0   6  -1 41824.0 629.610  18
   0  -6   1 41902.7 686.940  21
   0  -6   1 43632.3 739.942  20
   0   6  -1 43545.9 661.032  11
   0   6   0 607.630 118.582  34
   0   6   0 757.694 168.309  11
   0  -6   0 621.776 142.709  16
   0   6   0 757.749 175.428  18
   0  -6   0 763.950 145.219  21
   0  -6  -1 391.362 148.757  16
   0   6   1 766.217 159.668  11
   0  -6  -1 465.011 164.648  30
   0   6   1 523.487 116.481  34
   0  -6  -2 324.489 141.127  30
   0   6   2 309.795 145.595  11
   0  -6  -2 380.511 157.487  16
   0  -6  -2 335.327 201.126  22
   0   6   2 281.882 112.734  34
   0   6   3 176.801 114.441  34
   0   6   3 235.796 137.517  11
   0  -6  -3 125.680 226.701  22
   0  -6  -3 237.207 163.820  16
   0  -6  -4 2185.28 210.706   8
   0  -6  -4 2362.26 151.393  28
   0   6   4 2360.41 199.698  11
   0  -6  -4 2167.21 305.635  22
   0   6   4 2072.17 168.201  34
   0  -6  -5 2033.27 227.044   8
   0   6   5 1933.83 171.765  34
   0  -6  -5 1956.17 311.044  22
   0  -6  -5 2174.90 174.812  25
   0  -6  -6 4554.92 405.408  22
   0  -6  -6 4768.48 322.322   8
   0   6   6 5394.22 238.159  34
   0  -6  -6 5408.36 257.718  25
   0  -6  -7 1636.62 346.963  22
   0   6   7 1778.43 194.916  34
   0  -6  -7 1584.71 247.771   8
   0  -6  -7 1941.40 201.925  24
   0  -6  -7 1961.11 192.261  25
   0   6   8 5128.24 277.352  50
   0   6   8 5037.57 249.230  49
   0   6   8 5398.85 260.859  41
   0   6   8 5066.48 255.786  34
   0  -6  -8 4933.16 372.613   7
   0  -6  -8 4553.29 286.496  24
   0  -6  -9-23.8396 190.260  16
   0   6   9-64.7992 186.766  50
   0  -6  -9 94.5700 138.084  24
   0   6   9-108.976 149.343  34
   0  -6  -9 67.9877 275.479  22
   0  -6  -9 101.411 167.953   7
   0   6  10 8.03044 192.189  50
   0   6  11 125.538 178.519  50
   0   6  12 790.449 175.567  50
   0  -6 -13 51.6246 145.981  56
   0   6  13 186.821 111.131  42
   0   6  13 131.742 112.714  50
   0   7 -11-21.7319 101.970  59
   0  -7  11 12.0816 100.050  45
   0  -7  11 36.8934 101.148  52
   0   7 -10 160.097 108.605  55
   0  -7  10-54.1183 137.632  52
   0   7 -10 26.9784 127.958  59
   0  -7  10-55.1383 128.025  45
   0   7  -9 402.127 151.607  59
   0  -7   9 348.543 159.228  45
   0   7  -9 287.584 143.164  55
   0  -7   8 4074.58 262.200  45
   0   7  -8 3892.69 221.470  59
   0   7  -8 3755.06 215.341  55
   0   7  -7 135.660 149.668  59
   0   7  -7 281.032 145.701  55
   0  -7   7 83.0136 176.990  30
   0   7  -7 208.202 144.182  47
   0   7  -7 134.818 163.534  43
   0  -7   7 113.094 179.911  33
   0  -7   7 41.1958 195.595  45
   0  -7   6 1412.60 230.751  33
   0   7  -6 1109.88 242.377  18
   0  -7   6 1480.67 246.604  30
   0   7  -6 1405.12 202.978  43
   0  -7   5 1808.91 283.985  30
   0  -7   5 1445.36 261.259  19
   0   7  -5 1808.73 255.029  18
   0   7  -5 2067.25 217.628  43
   0  -7   5 1925.45 288.662  33
   0  -7   4 23.7033 197.728  19
   0  -7   4 84.3196 233.483  30
   0  -7   4 257.421 248.991  33
   0   7  -4-31.7528 207.187  18
   0  -7   3 43.3726 238.525  30
   0  -7   3 107.223 170.065  19
   0  -7   3 90.5044 162.909  20
   0  -7   3 270.126 251.990  33
   0   7  -3-22.1068 151.160  11
   0   7  -3 193.310 175.052  18
   0  -7   2 773.525 257.004  30
   0  -7   2 926.920 198.069  19
   0   7  -2 1042.98 213.554  18
   0  -7   2 748.548 189.502  20
   0  -7   2 650.327 282.355  33
   0   7  -2 788.825 185.126  11
   0  -7   1 267.631 157.981  20
   0  -7   1 279.470 223.171  30
   0   7  -1 316.794 190.369  18
   0   7  -1 418.605 164.934  11
   0  -7   1 402.722 148.108  21
   0  -7   0 62.3952 130.926  20
   0   7   0 88.9948 164.794  11
   0  -7   0 113.742 185.175  30
   0  -7   0 119.489 135.002  21
   0  -7  -1 30.3424 139.282  21
   0  -7  -1 173.764 144.087  16
   0   7   1 137.259 118.748  34
   0  -7  -1 145.464 165.152  30
   0   7   1 160.487 156.288  11
   0  -7  -2 110.964 156.653  16
   0   7   2-46.0950 139.254  11
   0   7   2 71.1185 117.888  34
   0   7   3 132.870 126.852  34
   0   7   3 151.097 146.869  11
   0  -7  -3 39.9538 187.935  16
   0  -7  -4 4715.10 405.266  22
   0   7   4 4233.76 267.271  11
   0   7   4 4320.73 218.273  34
   0  -7  -4 3833.53 336.260  16
   0  -7  -4 4286.68 311.081   8
   0  -7  -5 25162.1 515.359  25
   0   7   5 24707.3 453.159  34
   0  -7  -5 22596.4 750.593  22
   0  -7  -5 23339.4 720.017  16
   0  -7  -5 24002.9 654.847   8
   0   7   6 16237.7 391.807  50
   0  -7  -6 15885.2 559.054   8
   0  -7  -6 14502.7 414.456  25
   0   7   6 15564.3 377.968  41
   0   7   6 15402.4 378.285  34
   0  -7  -6 13590.8 577.750  16
   0  -7  -6 13491.9 627.357  22
   0  -7  -7 8362.66 447.551   8
   0  -7  -7 7694.84 474.926  16
   0   7   7 9451.28 316.143  41
   0   7   7 9511.12 318.001  34
   0  -7  -7 8562.82 530.543  22
   0  -7  -7 8838.98 361.575  24
   0  -7  -7 8776.74 346.910  25
   0   7   7 8903.06 326.235  50
   0   7   8 571.149 172.272  41
   0  -7  -8 389.168 155.929  24
   0   7   8 506.603 158.391  42
   0  -7  -8 96.6687 284.467  22
   0   7   8 466.556 202.255  50
   0   7   8 460.615 164.163  34
   0  -7  -8 281.714 222.834  16
   0   7   9 285.668 154.423  42
   0   7   9 317.009 163.557  34
   0   7   9 285.766 168.344  41
   0   7   9 275.846 182.806  50
   0  -7  -9 406.657 168.741  24
   0   7  10 72.9972 132.338  42
   0   7  10 86.0528 194.322  50
   0   7  11 1293.85 182.524  50
   0   7  11 1273.67 158.522  42
   0  -7 -12 3075.25 220.956  56
   0   7  12 3501.10 167.504  42
   0   7  12 3498.42 187.658  50
   0  -7 -13 339.518 119.216  56
   0  -8  10 196.217 108.873  52
   0  -8  10 213.081 102.259  45
   0  -8   9 612.212 153.569  52
   0   8  -9 621.623 127.140  55
   0  -8   9 664.064 146.648  45
   0   8  -8 4773.08 222.779  55
   0  -8   8 4888.78 251.448  45
   0  -8   7 4888.05 282.297  45
   0   8  -7 4482.46 228.068  55
   0   8  -6 2708.48 237.151  43
   0   8  -6 2674.74 204.649  55
   0   8  -5 1195.30 201.831  43
   0  -8   5 1310.85 257.157  33
   0  -8   5 1062.58 251.086  30
   0  -8   4 313.069 226.596  33
   0   8  -4 257.774 165.193  43
   0  -8   4 43.1742 234.214  30
   0  -8   4 103.499 190.512  19
   0   8  -4 235.598 212.702  18
   0   8  -3 1520.67 264.261  18
   0  -8   3 1513.42 260.930  19
   0   8  -3 1814.78 244.424  11
   0   8  -3 1894.99 218.364  43
   0  -8   3 1695.24 287.946  30
   0  -8   2 429.100 242.195  30
   0   8  -2 347.687 188.319  11
   0   8  -2 255.213 206.349  18
   0   8  -2 535.386 185.425  43
   0   8  -2 518.065 175.140  53
   0  -8   2 308.764 192.628  19
   0  -8   2 447.292 200.241  20
   0  -8   1 311.204 230.130  30
   0   8  -1 474.866 184.184  11
   0  -8   1 429.551 182.367  20
   0   8   0 226.922 165.722  11
   0  -8   0 252.821 209.775  30
   0  -8   0 241.804 169.866  20
   0  -8   0 294.742 182.816  21
   0  -8  -1 45.7932 169.889  21
   0  -8  -1 139.375 173.945  30
   0   8   1 163.601 180.976  11
   0   8   2 4963.28 305.760  11
   0  -8  -2 4718.28 346.356  16
   0  -8  -2 4730.46 342.325  21
   0   8   2 5552.02 235.928  34
   0  -8  -3 14011.7 560.552  16
   0   8   3 14680.7 473.142  11
   0   8   3 14612.0 358.354  34
   0   8   4 6363.27 255.091  53
   0  -8  -4 5899.17 407.873  16
   0   8   4 6378.31 331.696  11
   0   8   4 6273.22 275.605  41
   0   8   4 6312.68 261.773  34
   0  -8  -4 6254.52 383.488   8
   0  -8  -5 103.305 128.385  25
   0  -8  -5 165.231 200.164  16
   0   8   5 211.563 160.126  41
   0  -8  -5 156.817 166.359   8
   0   8   5 52.8290 137.545  34
   0  -8  -5-20.0272 263.303  22
   0   8   6 46.0149 159.208  41
   0  -8  -6-278.736 284.679  22
   0  -8  -6-64.2355 233.490  16
   0  -8  -6 34.9150 181.968   8
   0  -8  -6 31.3431 126.885  25
   0   8   6-76.6366 145.389  34
   0   8   6 34.5893 198.860  50
   0   8   7 1488.06 186.412  41
   0   8   7 1397.04 179.989  34
   0   8   7 1426.04 216.644  50
   0  -8  -7 1300.41 188.750  24
   0  -8  -7 1267.99 186.799  25
   0   8   8 521.829 169.876  41
   0   8   8 564.464 199.305  50
   0   8   9-71.8601 156.914  41
   0   8   9 36.3444 166.610  50
   0   8  10 466.542 175.069  50
   0   8  10 471.085 142.230  41
   0   8  10 305.663 134.114  42
   0   8  11 1672.07 135.067  42
   0  -8 -11 1419.74 189.903  56
   0  -9   9 505.710 111.683  52
   0  -9   8 1626.51 166.168  45
   0   9  -8 1616.36 142.168  55
   0  -9   7 11.3740 160.526  45
   0   9  -7 58.0818 122.165  55
   0   9  -6 85.2718 131.243  55
   0   9  -5 227.364 139.307  55
   0   9  -4 1729.24 210.079  43
   0  -9   3 3795.48 325.559  30
   0   9  -3 3960.89 263.110  43
   0   9  -3 4308.99 229.402  53
   0  -9   2 1216.59 235.337  20
   0   9  -2 1285.90 187.446  53
   0  -9   2 1342.79 253.380  30
   0   9  -2 1311.64 199.586  43
   0  -9   2 1461.52 256.307  19
   0  -9   1 638.653 212.388  20
   0   9  -1 526.082 169.258  43
   0  -9   1 525.437 207.353  19
   0   9  -1 367.903 189.029  11
   0   9  -1 255.080 168.011  53
   0  -9   1 552.315 210.897  30
   0  -9   0 116.676 178.948  20
   0  -9   0 222.822 188.230  21
   0   9   0 317.235 154.042  43
   0   9   0 340.375 171.680  53
   0   9   0 178.449 190.171  11
   0  -9   0 243.888 195.462  30
   0   9   1 267.947 155.214  53
   0   9   1 344.478 178.746  11
   0  -9  -1 564.130 187.756  21
   0  -9  -1 506.807 185.771  20
   0  -9  -2 405.006 181.907  20
   0   9   2 331.964 184.021  11
   0  -9  -2 410.538 191.214  21
   0   9   2 514.161 176.694  53
   0   9   2 494.385 171.917  41
   0   9   3 1160.82 170.334  53
   0   9   3 1461.29 187.027  41
   0   9   3 1055.35 168.439  34
   0   9   3 1166.95 212.074  11
   0  -9  -3 982.956 213.595  21
   0  -9  -4 2662.32 323.172  16
   0   9   4 3503.61 221.399  53
   0  -9  -4 2695.01 311.549  21
   0  -9  -4 3338.33 243.395  25
   0   9   4 3298.96 234.624  41
   0   9   4 3380.14 208.505  34
   0   9   5 24692.1 459.904  34
   0   9   5 24186.6 427.435  53
   0  -9  -5 24073.1 544.006  25
   0   9   5 22954.8 458.712  41
   0   9   6 319.162 167.817  41
   0   9   7-25.1694 165.010  41
   0   9   8 54.0719 146.595  41
   0   9   9 787.819 153.996  41
   0   9  10 188.171 118.783  41
   0  10  -7 2372.51 138.126  55
   0 -10   7 2606.41 160.261  45
   0  10  -6-24.1206 113.759  55
   0 -10   6 95.1016 151.408  45
   0  10  -5 43.6041 124.509  55
   0  10  -4 328.671 126.278  55
   0  10  -3 469.803 149.193  44
   0  10  -3 787.260 145.576  55
   0  10  -3 741.250 150.325  53
   0  10  -2 260.884 143.476  44
   0  10  -2 205.521 158.604  53
   0  10  -1 52.4827 159.285  53
   0  10   0 573.569 166.252  53
   0  10   1 1866.92 197.588  53
   0  10   2 19.9336 151.079  41
   0  10   2 36.3201 147.386  53
   0  10   3 3.37688 157.850  41
   0  10   3-90.3213 145.308  53
   0  10   4 2885.76 219.122  41
   0  10   4 2751.93 200.830  53
   0  10   5 2656.54 190.290  53
   0  10   5 2516.84 205.855  41
   0  10   6 85.6151 148.744  41
   0  10   7 1915.73 176.037  41
   0  10   8 225.526 134.393  41
   0  10   9 242.785 118.645  41
   0  11  -5 19.7001 87.5031  44
   0 -11   5 88.7204 127.657  45
   0  11  -5 22.9102 91.9744  55
   0  11  -4 43.8341 93.2508  55
   0  11  -4-28.2675 96.4627  44
   0  11  -3 134.348 109.554  44
   0  11  -2 3374.33 187.169  53
   0  11  -1 60.5293 142.012  53
   0  11   0 574.506 162.526  53
   0  11   1 499.843 151.753  53
   0  11   2 928.492 163.867  53
   0  11   3 879.609 151.228  41
   0  11   3 841.037 147.142  53
   0  11   4 576.476 143.524  53
   0  11   4 678.204 151.143  41
   0  11   5 219.086 133.649  41
   0  11   5 327.898 123.815  53
   0  11   6 737.199 137.186  41
   0  11   7 183.479 121.467  41
   0  11   8 56.4914 96.7533  41
   0  12  -1 469.840 113.630  53
   0  12   0 109.797 111.675  53
   0  12   1 10.7576 113.284  53
   0  12   2 165.675 109.539  53
   0  12   3 681.616 123.533  53
   0  12   4 737.415 108.853  41
   0  12   4 714.141 114.065  53
   0  12   5 23.7347 92.9702  41
  -1  12   4 541.579 103.542  53
  -1  12   3 102.958 102.509  53
  -1  12   2 70.1814 111.600  53
  -1  12   1-53.5868 116.549  53
  -1  12   0 176.903 116.428  53
  -1  12  -1 41.7298 103.501  53
  -1  11   7 26.5953 112.062  41
  -1  11   6 367.645 120.944  41
  -1  11   5 11.9910 113.037  53
  -1  11   5 19.5093 123.966  41
  -1  11   4 296.956 139.625  41
  -1  11   4 453.540 130.912  53
  -1  11   3 349.836 137.622  53
  -1  11   3 411.942 140.514  41
  -1  11   2-106.705 145.826  53
  -1  11   1 252.428 145.486  53
  -1  11   0 850.137 156.209  53
  -1  11  -1 1198.82 154.643  44
  -1  11  -1 2348.51 179.353  53
  -1  11  -2 89.2640 105.925  44
  -1  11  -2 44.3380 123.905  53
  -1  11  -3 247.013 107.415  44
  -1  11  -4 240.627 111.552  44
  -1  11  -5 181.038 90.0733  44
  -1  10   9 198.176 110.490  41
  -1  10   8 347.007 133.387  41
  -1  10   7 1647.44 179.486  41
  -1  10   6 34.8376 143.459  41
  -1  10   5 69.5484 145.495  41
  -1  10   5 87.0017 145.742  53
  -1  10   4 61.0401 143.072  53
  -1  10   4 79.2860 159.700  41
  -1  10   3 163.070 153.509  41
  -1  10   3 93.1538 143.588  53
  -1  10   2 816.166 165.359  53
  -1  10   2 877.456 166.961  41
  -1  10   1 365.223 161.333  53
  -1  10   0 118.345 150.638  53
  -1  10   0 111.299 141.083  44
  -1  10  -1 1432.16 166.645  44
  -1  10  -1 1189.05 179.817  53
  -1  10  -2 167.533 153.004  53
  -1  10  -2 24.3565 141.178  44
  -1  10  -3-23.2793 130.054  53
  -1  10  -3 67.7140 121.645  44
  -1  10  -3 7.74033 118.914  55
  -1  10  -4 387.212 128.187  55
  -1  10  -4 349.065 134.749  44
  -1  10  -5 21.5585 121.408  55
  -1  10  -5-42.3296 121.531  44
  -1  10  -6-3.12833 108.218  55
  -1  10  -6 67.1020 104.984  44
  -1  10  -7 206.469 101.930  44
  -1   9  10-34.0938 101.041  41
  -1   9   9 34.8947 130.493  41
  -1   9   9 66.4257 117.606  42
  -1   9   8 15.7330 145.356  41
  -1   9   7 763.725 170.475  41
  -1   9   6 3763.15 230.027  41
  -1   9   5 1266.92 191.535  41
   1  -9  -5 1287.13 180.866  25
  -1   9   5 1320.84 176.387  53
  -1   9   5 1433.73 182.425  34
  -1   9   4 246.551 137.389  34
  -1   9   4 468.045 151.588  53
   1  -9  -4 270.080 131.890  25
  -1   9   4 302.710 164.107  41
  -1   9   3 84.1872 167.379  41
  -1   9   3 45.8037 145.470  53
   1  -9  -3 52.4721 154.432  21
  -1   9   2 83.8781 153.615  53
   1  -9  -2 39.7845 147.898  20
  -1   9   2 105.635 159.070  41
   1  -9  -2 114.457 161.977  21
  -1   9   1 828.280 177.886  53
  -1   9   1 900.223 163.773  40
   1  -9  -1 717.184 203.076  20
   1  -9   0 280.718 171.623  20
  -1   9   0 334.294 143.186  40
   1  -9   0 193.062 220.478  30
  -1   9   0 220.232 165.543  53
   1  -9   0 374.223 192.956  19
  -1   9   0 321.393 150.928  44
   1  -9   1 273.470 192.056  19
  -1   9  -1 91.0889 161.173  53
  -1   9  -1 174.269 142.021  44
   1  -9   1 124.030 169.832  20
   1  -9   1 166.456 226.942  30
  -1   9  -1 110.865 143.947  40
   1  -9   2 1163.37 297.006  30
  -1   9  -2 1266.15 185.436  53
  -1   9  -2 1320.22 164.515  40
  -1   9  -3 217.247 140.455  55
   1  -9   3 30.5908 242.590  30
  -1   9  -3 246.332 146.829  53
  -1   9  -4-15.4327 140.597  55
  -1   9  -5 112.967 134.142  55
   1  -9   6 1568.11 198.454  45
  -1   9  -6 1508.14 164.300  55
   1  -9   7 318.241 143.350  45
  -1   9  -7 288.173 127.145  55
  -1   9  -9 18.0852 89.5810  44
   1  -9   9 826.486 116.806  52
  -1   8  11-32.1561 109.605  42
  -1   8  10 101.664 129.468  42
  -1   8   9 128.996 148.228  41
  -1   8   9 129.753 143.822  42
  -1   8   8 527.477 144.399  42
  -1   8   8 569.394 168.894  41
  -1   8   7 511.316 171.342  41
  -1   8   7 743.667 151.926  42
   1  -8  -7 508.395 160.846  24
  -1   8   7 567.889 170.111  34
  -1   8   6 6046.91 253.898  42
   1  -8  -6 4977.53 422.725  16
   1  -8  -6 5070.95 377.624   8
   1  -8  -6 5781.06 296.121  25
   1  -8  -6 5184.19 483.451  22
  -1   8   6 5639.82 265.741  34
  -1   8   6 5943.76 267.652  41
   1  -8  -5 19.0088 169.463   8
   1  -8  -5 99.3762 136.032  25
  -1   8   5-8.19089 146.642  34
  -1   8   5 33.9239 165.249  41
   1  -8  -5-3.01972 202.672  16
   1  -8  -4 275.020 214.694  16
  -1   8   4 369.166 175.812  41
   1  -8  -4 459.915 203.121   8
  -1   8   4 461.008 143.957  34
  -1   8   4 453.590 159.618  53
  -1   8   3 241.423 154.806  40
  -1   8   3 286.415 175.824  41
  -1   8   3 494.970 156.297  53
  -1   8   3 346.192 172.703  11
  -1   8   3 391.957 136.139  34
   1  -8  -3 227.446 200.456  16
  -1   8   2 13.0967 165.081  11
   1  -8  -2 145.369 155.853  21
   1  -8  -1 235.119 164.347  21
   1  -8  -1 109.087 213.877  30
  -1   8   1 223.896 169.192  11
   1  -8  -1 247.026 165.024  20
  -1   8   0 266.548 181.098  11
   1  -8   0 209.934 162.638  20
   1  -8   0 217.896 232.388  30
  -1   8  -1 97.5587 165.386  43
   1  -8   1-4.49958 177.690  19
   1  -8   1-30.5939 175.528  20
  -1   8  -1 73.1625 165.097  11
   1  -8   1 69.9156 256.974  30
  -1   8  -1 95.7191 171.392  53
   1  -8   2 45.7524 175.276  20
  -1   8  -2 73.8143 163.099  43
   1  -8   2 81.6412 277.186  30
  -1   8  -2 170.271 197.117  18
  -1   8  -2 32.8760 145.005  40
  -1   8  -2 36.5698 162.629  53
   1  -8   2 43.3140 188.304  19
   1  -8   3 350.353 201.382  19
   1  -8   3 137.399 260.651  30
   1  -8   3 70.0343 302.740  33
  -1   8  -3 257.157 170.692  43
  -1   8  -3 288.976 209.664  18
   1  -8   4 562.028 209.933  19
  -1   8  -4 543.085 186.480  43
   1  -8   4 354.519 250.688  30
  -1   8  -4 468.030 221.052  18
   1  -8   4 316.823 264.559  33
  -1   8  -4 482.193 153.972  55
  -1   8  -5 422.338 156.645  55
   1  -8   5 668.516 259.778  33
   1  -8   5 312.531 226.170  30
  -1   8  -6 3458.99 217.118  55
   1  -8   7 1314.41 200.012  45
  -1   8  -7 1176.45 172.104  55
  -1   8  -7 1290.75 158.114  59
   1  -8   8 711.447 151.820  45
  -1   8  -8 602.023 149.755  59
  -1   8  -8 478.554 142.350  55
  -1   8  -9 49.7485 122.954  59
   1  -8   9 52.1286 145.001  52
   1  -8  10 55.4555 105.543  52
  -1   7  12 60.6079 116.575  42
  -1   7  11 153.091 129.888  42
  -1   7  10 43.2292 145.666  42
  -1   7  10 139.889 167.508  50
  -1   7   9 236.366 140.082  42
  -1   7   9 304.113 164.202  41
  -1   7   9 289.965 184.938  50
  -1   7   8 524.437 196.553  50
  -1   7   8 309.486 159.707  34
  -1   7   8 272.554 158.433  42
   1  -7  -8 371.229 152.012  24
  -1   7   8 408.954 162.588  41
   1  -7  -7 1988.17 216.343  24
  -1   7   7 2184.20 209.383  41
   1  -7  -7 1922.09 269.502   8
   1  -7  -7 1586.94 352.591  22
  -1   7   7 2190.74 199.178  34
  -1   7   7 2240.52 241.570  50
  -1   7   7 2133.27 202.178  42
   1  -7  -6 1401.92 334.475  22
  -1   7   6 1205.01 193.845  41
  -1   7   6 1363.17 195.854  42
   1  -7  -6 1136.10 214.371   8
  -1   7   6 1808.90 215.765  50
  -1   7   6 1377.30 187.814  34
   1  -7  -6 1394.35 178.981  25
   1  -7  -5 72.1876 118.422  25
  -1   7   5 22.5885 142.197  34
   1  -7  -5-70.8427 165.325   8
   1  -7  -5-110.172 310.603  22
   1  -7  -4 483.013 167.520   8
  -1   7   4 505.780 162.275  11
  -1   7   4 454.976 144.916  34
   1  -7  -4 557.291 273.873  22
   1  -7  -3 417.697 188.038  16
  -1   7   3 201.284 155.290  11
  -1   7   3 344.418 134.589  34
  -1   7   2 59.7648 154.594  11
  -1   7   2 78.4542 123.093  34
   1  -7  -2 76.5330 148.668  16
  -1   7   1 41.6536 151.915  11
   1  -7  -1 29.0691 134.073  21
  -1   7   0 790.357 177.555  11
   1  -7   0 798.579 165.314  21
  -1   7   0 860.877 165.480  14
   1  -7   0 877.745 174.136  20
  -1   7  -1-40.9673 132.498  14
  -1   7  -1 30.4541 164.714  11
   1  -7   1-23.3387 144.710  20
   1  -7   1 135.269 340.162  33
  -1   7  -1-73.0764 170.709  18
   1  -7   2 38.0214 144.702  20
  -1   7  -2 51.5822 149.832  11
   1  -7   2 65.6078 170.914  19
  -1   7  -2 11.7151 138.236  14
  -1   7  -2 0.00000 187.982  18
   1  -7   2 113.502 343.767  33
   1  -7   3 545.074 345.780  33
   1  -7   3 1099.14 206.068  20
  -1   7  -3 840.921 221.048  18
   1  -7   3 794.674 215.432  19
  -1   7  -4 657.640 206.425  18
   1  -7   4 523.388 334.911  33
   1  -7   4 665.899 222.707  19
  -1   7  -5 1751.44 191.607  55
  -1   7  -5 1883.68 222.756  43
   1  -7   5 1526.59 303.202  30
  -1   7  -5 1327.36 236.084  18
   1  -7   5 1774.08 317.773  33
   1  -7   6 265.764 242.816  33
  -1   7  -6 485.779 156.444  59
   1  -7   6 391.586 222.148  30
  -1   7  -6 210.215 212.063  18
  -1   7  -6 230.404 151.998  55
  -1   7  -7 3509.40 222.149  59
   1  -7   7 3297.94 298.059  33
  -1   7  -7 3321.72 215.092  55
   1  -7   7 3081.43 306.572  30
   1  -7   7 4042.65 270.598  45
  -1   7  -8 249.410 141.194  55
  -1   7  -8 195.714 152.514  59
   1  -7   8 414.674 177.161  45
  -1   7  -9 36.2374 127.136  55
   1  -7   9-35.9877 146.555  45
  -1   7  -9 56.0251 135.388  59
   1  -7  10-101.513 134.490  52
  -1   7 -10-26.4324 129.755  59
   1  -7  11 83.5975 106.578  52
   1  -7  11-13.8105 96.9595  46
  -1   7 -11 70.5495 104.053  59
   1  -6 -13 179.404 137.611  56
  -1   6  13 272.316 114.109  42
  -1   6  12 161.822 122.453  42
  -1   6  10 68.8990 147.218  49
  -1   6  10 108.597 182.178  50
  -1   6   9 623.969 169.186  34
   1  -6  -9 357.467 291.223  22
   1  -6  -9 439.709 161.756  24
  -1   6   9 487.458 155.823  49
  -1   6   9 410.528 190.986  50
   1  -6  -8 2700.71 401.171  22
  -1   6   8 3223.47 244.470  50
  -1   6   8 2917.82 211.246  49
  -1   6   8 3053.89 217.234  34
  -1   6   8 3263.23 237.365  41
   1  -6  -8 2724.88 308.571   7
   1  -6  -8 2930.76 240.855  24
   1  -6  -7 3758.25 423.218  22
   1  -6  -7 4433.52 327.149   8
   1  -6  -7 4578.10 264.084  24
  -1   6   7 4644.73 246.623  34
   1  -6  -6 1128.33 209.193   8
   1  -6  -6 1260.54 154.728  25
   1  -6  -6 940.748 296.627  22
  -1   6   6 1120.18 163.987  34
  -1   6   5 849.436 157.050  34
   1  -6  -5 846.319 133.796  25
   1  -6  -5 857.756 277.656  22
   1  -6  -5 914.721 178.727   8
  -1   6   4 243.365 143.291  11
  -1   6   4 146.308 119.605  34
   1  -6  -4 231.372 249.442  22
  -1   6   3 65.1002 137.016  11
  -1   6   3 22.9625 115.823  34
   1  -6  -3 129.592 248.856  22
  -1   6   2-23.3419 147.721  11
   1  -6  -2 100.427 189.932  22
  -1   6   2-1.28328 140.072  14
  -1   6   2 35.3599 104.133  34
  -1   6   1 82.7416 144.396  11
   1  -6  -1 120.194 124.474  16
  -1   6   1 134.972 135.767  14
  -1   6   1 80.0601 103.499  34
  -1   6   0 672.760 169.673  18
   1  -6   0 614.371 129.279  21
  -1   6   0 750.284 168.261  11
  -1   6   0 642.920 147.809  14
  -1   6  -1 97.3790 164.817  18
  -1   6  -1 147.192 144.287  11
   1  -6   1 208.796 244.338  33
  -1   6  -1 100.328 126.709  14
   1  -6   1 29.1962 112.469  21
   1  -6   1 28.5304 115.354  20
   1  -6   2 35.7821 145.798  19
   1  -6   2 86.8248 128.602  20
  -1   6  -2 93.2435 120.504  14
  -1   6  -2 123.070 170.405  18
   1  -6   2 128.568 285.236  33
  -1   6  -2 51.4438 146.506  11
   1  -6   3 378.802 155.384  20
   1  -6   3 376.197 168.687  19
  -1   6  -3 440.578 177.266  18
   1  -6   3 531.916 318.902  33
  -1   6  -3 371.047 155.598  11
   1  -6   4 12.6084 300.647  33
  -1   6  -4 24.7104 165.995  18
   1  -6   4 153.704 181.056  19
   1  -6   5 2978.02 359.394  33
  -1   6  -5 2849.59 273.110  18
  -1   6  -6 3168.48 215.682  47
  -1   6  -6 3113.78 218.562  55
  -1   6  -6 3252.75 281.206  18
  -1   6  -6 3775.58 244.756  43
   1  -6   6 2963.69 337.561  33
  -1   6  -6 3424.20 210.365  59
  -1   6  -7 384.486 170.580  59
   1  -6   7 309.425 208.222  33
  -1   6  -7 332.533 146.619  55
   1  -6   7 377.493 212.555  30
  -1   6  -7 486.594 213.145  18
  -1   6  -7 241.480 156.566  47
   1  -6   7 590.413 197.137  45
   1  -6   8 1309.76 222.303  45
  -1   6  -8 1264.90 180.638  55
  -1   6  -8 1385.01 181.456  59
   1  -6   8 999.976 205.079  33
  -1   6  -9 7.00819 144.436  55
   1  -6   9 4.42461 165.831  45
  -1   6  -9-35.2962 158.965  59
   1  -6  10 56.8358 156.231  52
   1  -6  10-51.4544 143.241  45
  -1   6 -10 76.8707 150.178  59
   1  -6  11-94.5040 128.762  52
  -1   6 -11-2.66723 124.940  59
  -1   6 -12 396.012 103.828  59
   1  -6  12 107.430 91.9904  46
  -1   5  14-11.3287 85.0150  42
  -1   5  13 122.729 115.453  42
   1  -5 -13-15.0413 135.908  38
   1  -5 -12 277.959 163.863  38
  -1   5  11 15.2658 151.681  45
  -1   5  11 33.3345 139.818  49
   1  -5 -11 114.191 199.822  38
  -1   5  10 316.006 154.135  49
  -1   5  10 662.031 151.360  34
   1  -5 -10 332.628 147.287  24
  -1   5  10 520.842 181.966  50
  -1   5  10 314.187 170.777  45
  -1   5   9 1202.40 215.243  50
   1  -5  -9 933.469 316.518  22
  -1   5   9 898.134 190.145  45
  -1   5   9 1038.89 179.342  49
  -1   5   9 1143.76 172.035  34
   1  -5  -9 1182.65 182.186  24
   1  -5  -9 1355.77 233.544   7
   1  -5  -8 81.7713 174.078   7
   1  -5  -8 33.5658 285.247  22
  -1   5   8 46.8075 150.899  34
   1  -5  -8 51.3079 139.026  24
  -1   5   7 351.283 145.117  34
   1  -5  -7 349.951 117.852  25
   1  -5  -7 417.830 130.192  24
   1  -5  -7 522.159 186.264   7
   1  -5  -7 186.814 267.913  22
   1  -5  -6 15.9296 129.530   8
   1  -5  -6-2.00294 112.321  24
   1  -5  -6 14.8242 106.360  25
  -1   5   6 55.3469 134.436  34
   1  -5  -5 112.919 96.8246  25
   1  -5  -5 132.857 128.773   8
  -1   5   5 56.9446 120.272  34
  -1   5   4 340.364 124.677  34
  -1   5   4 352.907 128.930  11
   1  -5  -4 504.812 136.853   8
  -1   5   3 104.122 125.972  14
  -1   5   3 178.974 118.441  11
  -1   5   3 138.443 108.626  34
  -1   5   2 460.197 129.833  14
  -1   5   2 429.523 114.526  34
  -1   5   2 297.523 128.184  11
  -1   5   1 2158.49 186.545  11
  -1   5   1 2400.76 131.376  34
  -1   5   1 2321.45 176.277  14
  -1   5   0 10084.9 204.820  34
  -1   5   0 9930.49 316.161  11
  -1   5   0 9380.40 299.521  18
  -1   5   0 9387.81 303.365  14
   1  -5   0 9288.66 283.635  16
  -1   5  -1 67.0271 127.498  11
  -1   5  -1 140.849 119.063  14
   1  -5   1 108.194 86.6411  21
   1  -5   1 123.205 174.864  12
   1  -5   1 130.270 98.3556  20
  -1   5  -1 78.3144 146.525  18
   1  -5   2 305.413 238.463  12
  -1   5  -2 454.709 141.526  11
   1  -5   2 310.393 175.057  31
   1  -5   2 425.732 107.872  21
  -1   5  -2 416.606 117.846  14
   1  -5   2 527.862 142.557  19
  -1   5  -2 339.037 159.204  18
   1  -5   2 441.057 209.245  33
   1  -5   2 491.287 130.905  20
   1  -5   3 30.3865 143.319  19
   1  -5   3 70.5895 128.807  20
  -1   5  -3-1.24502 123.506  11
   1  -5   3 85.1187 234.372  33
  -1   5  -3 17.5930 154.914  18
   1  -5   3 129.402 196.677  31
  -1   5  -4 473.202 181.184  18
   1  -5   4 565.783 234.047  31
   1  -5   4 531.659 269.204  33
   1  -5   4 529.932 186.691  19
   1  -5   5-121.153 250.073  33
  -1   5  -5-33.7052 168.750  18
  -1   5  -6-8.79015 165.685  18
   1  -5   6 32.1036 226.920  33
  -1   5  -7 1115.47 186.803  55
   1  -5   7 1117.67 225.546  33
  -1   5  -7 1046.52 235.311  18
   1  -5   7 894.528 228.807  30
   1  -5   8 3514.04 248.897  45
  -1   5  -8 3255.35 225.951  59
  -1   5  -8 2782.85 288.136  18
   1  -5   8 3381.59 272.478  33
  -1   5  -8 3011.44 217.641  47
  -1   5  -8 3352.22 221.374  55
  -1   5  -9 124.196 156.333  47
   1  -5   9 27.1396 175.887  45
  -1   5  -9 220.579 148.601  55
  -1   5  -9 223.681 164.438  59
   1  -5   9 214.499 155.575  33
   1  -5  10 112.561 161.163  52
  -1   5 -10 27.9702 170.543  59
   1  -5  10 32.7238 159.456  45
  -1   5 -10 63.0111 140.870  55
   1  -5  11 317.439 140.109  45
   1  -5  11 219.453 149.130  52
  -1   5 -11 231.337 149.602  59
   1  -5  12 57.9188 122.875  46
  -1   5 -12 108.350 128.200  59
  -1   4  14 366.569 105.746  42
   1  -4 -14 426.718 116.628  38
   1  -4 -14 324.591 116.857  56
  -1   4  13-9.65836 133.049  45
   1  -4 -13 17.0850 152.109  38
   1  -4 -12 259.740 182.850  38
  -1   4  12 256.570 156.124  45
  -1   4  12 162.357 142.211  49
  -1   4  11 373.690 158.253  49
   1  -4 -11 336.240 212.609  38
  -1   4  11 296.839 169.628  45
  -1   4  10 169.247 154.433  49
   1  -4 -10 418.863 270.959  22
  -1   4  10 270.446 170.459  45
  -1   4  10 228.295 188.943  50
   1  -4 -10 226.177 209.260  13
  -1   4  10 337.531 153.899  34
   1  -4 -10 326.142 144.573  24
   1  -4 -10 248.698 165.555   7
  -1   4   9 0.20778 149.561  34
   1  -4  -9-27.8362 137.840  24
  -1   4   9 26.3972 148.473   5
   1  -4  -9 9.07131 177.672   7
  -1   4   9 9.18371 152.271  49
   1  -4  -9 200.300 274.575  22
  -1   4   9 20.0616 195.479  50
  -1   4   9-7.79878 168.121  45
   1  -4  -8 1656.82 329.295  22
  -1   4   8 1703.19 179.663  34
   1  -4  -8 1562.14 175.116  24
  -1   4   8 1747.03 190.307   5
   1  -4  -8 1610.43 234.328   7
  -1   4   7 711.906 146.432   5
  -1   4   7 509.135 155.635  34
   1  -4  -7 605.966 175.752   7
   1  -4  -7 575.280 128.858  24
  -1   4   6 118.507 110.032   5
  -1   4   6 41.6439 123.811  34
   1  -4  -6 78.2295 127.052   8
   1  -4  -6-41.6185 103.747  24
   1  -4  -6 87.6650 85.7775  25
   1  -4  -5 204.650 122.589   8
   1  -4  -5 192.989 87.8750  25
  -1   4   5 207.426 115.160  34
  -1   4   4-18.1600 109.419  34
  -1   4   4 68.1067 105.632  14
   1  -4  -4 7.63639 110.381   8
  -1   4   4 55.0681 106.124  11
  -1   4   3 236.068 121.591  11
  -1   4   3 338.681 111.576  34
  -1   4   3 293.842 115.364  14
   1  -4  -2 36.2813 165.706   2
  -1   4   2 46.0258 96.8832  34
  -1   4   2 80.1946 112.049  11
  -1   4   2 61.5305 115.062  14
   1  -4  -2 53.2052 200.192   4
  -1   4   1 1336.74 152.160  11
  -1   4   1 1279.02 117.375  34
  -1   4   1 1300.61 142.670  14
   1  -4  -1 1356.51 212.143   4
  -1   4   0 182.987 116.833  14
  -1   4   0 228.575 137.914  18
   1  -4   0 212.119 132.852   4
  -1   4   0 207.876 119.343  11
   1  -4   1-1.05185 135.366  12
   1  -4   1 30.3934 72.5203  21
  -1   4  -1 24.6480 128.809  11
  -1   4  -1-7.24002 120.939  18
  -1   4  -1 44.6698 100.632  14
   1  -4   2 1750.65 167.408  19
   1  -4   2 1797.36 153.448  20
   1  -4   2 1853.39 164.638  31
  -1   4  -2 1688.06 172.045  18
  -1   4  -2 1863.53 146.544  14
  -1   4  -2 1898.68 167.418  11
   1  -4   2 1610.00 211.795  12
   1  -4   2 1822.10 136.678  21
   1  -4   3 576.276 202.979  33
   1  -4   3 420.859 127.220  20
  -1   4  -3 499.280 153.340  18
   1  -4   3 433.532 164.019  31
  -1   4  -3 692.579 111.167  14
   1  -4   3 426.969 141.432  19
  -1   4  -3 460.480 132.762  11
   1  -4   3 568.910 247.639  12
   1  -4   4 526.184 157.223  19
   1  -4   4 512.351 195.079  31
   1  -4   4 287.234 209.307  33
  -1   4  -4 397.721 160.428  18
  -1   4  -5 10.2386 163.858  18
   1  -4   5-134.308 203.454  31
   1  -4   5-16.0848 217.166  33
  -1   4  -6 557.151 175.055  18
   1  -4   6 508.928 226.518  33
   1  -4   7 1685.58 242.126  33
  -1   4  -7 1479.49 226.673  18
  -1   4  -8 1190.93 250.438  18
  -1   4  -8 1198.46 193.842  55
  -1   4  -8 1288.31 173.756  47
   1  -4   8 1373.33 220.220  33
   1  -4   9 787.819 182.508  33
  -1   4  -9 426.280 231.960  18
   1  -4   9 802.939 185.768  52
  -1   4  -9 757.958 165.357  47
  -1   4  -9 877.154 176.753  55
   1  -4   9 945.258 188.742  45
   1  -4  10 16.2059 138.762  33
   1  -4  10-39.8426 165.359  45
  -1   4 -10-8.32911 161.340  59
  -1   4 -10 93.4734 141.860  47
   1  -4  10-1.97154 172.856  52
  -1   4 -11 43.1315 153.459  59
   1  -4  11 91.4845 154.561  45
   1  -4  11 26.5108 172.527  52
  -1   4 -12 96.4055 137.706  59
   1  -4  12 197.555 132.721  52
   1  -4  12 198.907 132.437  45
   1  -4  12 37.1135 135.622  46
  -1   4 -13 339.083 111.200  59
   1  -4  13 51.4136 99.4838  46
   1  -3 -14-49.3844 127.181  38
   1  -3 -14 49.3372 96.7081  56
  -1   3  14-26.9960 115.278  45
   1  -3 -13 66.2095 163.958  38
  -1   3  13-30.6181 137.815  45
  -1   3  12 123.245 140.588  49
  -1   3  12 183.060 159.528  45
   1  -3 -12 270.289 192.554  38
  -1   3  11 120.388 142.117  49
  -1   3  11 139.035 159.856  45
   1  -3 -11 47.6548 135.430  24
  -1   3  10 16.9972 175.088  45
  -1   3  10-13.5078 168.827   5
   1  -3 -10-77.5723 147.904  27
  -1   3  10 29.4100 143.404  49
   1  -3 -10 94.3598 131.371  24
   1  -3  -9 948.746 298.245  22
   1  -3  -9 804.710 209.335   7
  -1   3   9 954.051 183.556   5
   1  -3  -9 1006.55 222.763  13
   1  -3  -9 825.318 164.784  24
  -1   3   9 1362.58 184.566  34
   1  -3  -8 1378.09 296.196  22
   1  -3  -8 1454.90 170.896  24
  -1   3   8 1194.47 178.844   5
  -1   3   8 1636.93 173.055  34
   1  -3  -8 1503.74 226.881   7
  -1   3   7 1287.09 160.188   5
   1  -3  -7 1234.62 198.145   7
  -1   3   7 1184.99 153.200  34
   1  -3  -7 1184.12 148.085  24
   1  -3  -6 230.218 130.410   7
  -1   3   6 143.762 113.065   5
   1  -3  -6 211.821 101.255  24
  -1   3   6 194.240 121.569  34
  -1   3   5 19.3125 111.810  34
  -1   3   5-28.9884 93.8668   5
   1  -3  -5-26.2517 108.636   8
   1  -3  -5 14.0329 72.4471  25
   1  -3  -5 14.9033 84.8563  24
  -1   3   4 217.125 85.1822   5
   1  -3  -4 262.700 75.1881  25
   1  -3  -4 232.054 98.2810   8
   1  -3  -4 74.8504 170.950   3
  -1   3   4 228.943 99.0985  14
  -1   3   4 198.407 108.190  34
  -1   3   3 341.451 163.036   4
  -1   3   3 270.190 108.206  34
  -1   3   3 236.013 105.078  11
  -1   3   3 278.574 71.4354   5
  -1   3   3 269.680 102.207  14
   1  -3  -3 268.962 159.922   3
   1  -3  -3 363.701 230.980   4
   1  -3  -2 1236.90 198.566   2
  -1   3   2 1429.63 139.981  11
   1  -3  -2 1343.52 231.037   4
  -1   3   2 1249.99 199.915   4
  -1   3   2 1418.97 117.102  34
   1  -3  -2 1359.89 223.599   3
  -1   3   2 1441.47 131.173  14
   1  -3  -2 1351.07 125.680   1
   1  -3  -1 2496.25 242.622   2
  -1   3   1 3067.17 165.070  18
  -1   3   1 3111.69 163.447  11
   1  -3  -1 2820.88 244.805   4
   1  -3  -1 2859.75 123.077   0
   1  -3  -1 2670.89 260.270   3
  -1   3   1 2992.48 159.041  14
   1  -3   0 2012.31 230.856   2
  -1   3   0 1689.20 115.174   1
  -1   3   0 2119.32 147.669  18
   1  -3   0 1880.57 247.817   3
   1  -3   0 1924.91 196.046   4
  -1   3   0 2033.98 142.923  14
  -1   3   0 2013.71 150.868  11
   1  -3   1 983.674 91.4964  21
  -1   3  -1 988.368 130.722  11
   1  -3   1 1088.40 151.437   4
  -1   3  -1 943.612 133.833  18
   1  -3   1 1127.97 106.277   6
   1  -3   1 1041.04 214.816   2
  -1   3  -1 808.114 189.587   2
  -1   3  -1 1072.41 122.473  14
   1  -3   1 777.438 199.603   3
  -1   3  -1 760.884 122.365   0
  -1   3  -2 374.133 166.662   2
   1  -3   2 625.402 176.813   3
   1  -3   2 609.300 109.105  31
  -1   3  -2 511.133 123.632  11
   1  -3   2 511.718 87.9314  21
  -1   3  -2 471.263 127.466  18
   1  -3   2 558.338 103.109  20
  -1   3  -2 592.361 145.273   0
   1  -3   2 551.631 154.876  12
  -1   3  -2 419.492 99.8212  14
   1  -3   2 585.503 122.290  19
   1  -3   2 471.348 117.865   6
  -1   3  -2 515.567 84.9086  15
  -1   3  -3 315.744 155.339   0
   1  -3   3 434.476 156.301   3
   1  -3   3 350.365 140.596  31
   1  -3   3 333.412 195.522  12
   1  -3   3 294.943 130.861  19
  -1   3  -3 405.768 112.821  11
  -1   3  -3 347.893 87.3460  15
  -1   3  -3 378.107 139.745  18
  -1   3  -3 380.416 92.8099  14
  -1   3  -4 281.892 95.9075  15
   1  -3   4 221.129 176.440  31
  -1   3  -4 231.713 80.2215  24
   1  -3   4 180.617 133.443  19
   1  -3   4 221.296 177.089  33
   1  -3   5-78.4861 187.655  33
  -1   3  -5 17.9401 83.7600  24
   1  -3   5-45.2307 186.572  31
  -1   3  -6 51.7212 89.1399  24
   1  -3   6-19.3672 182.298  33
  -1   3  -7 59.8761 98.4550  24
   1  -3   7 1.55298 176.456  33
   1  -3   8 67.8315 164.143  33
  -1   3  -8 139.058 117.094  24
   1  -3   9 268.239 174.349  45
  -1   3  -9 182.660 151.167  48
  -1   3  -9 122.709 144.544  47
   1  -3   9 222.002 153.463  33
  -1   3  -9 89.6180 120.576  24
   1  -3   9 8.15020 181.409  52
  -1   3  -9 209.674 178.170  38
   1  -3  10 175.244 166.689  45
  -1   3 -10-41.7199 149.092  47
  -1   3 -10 57.0348 176.016  38
   1  -3  10 78.0743 176.925  52
   1  -3  10 74.3159 145.019  33
   1  -3  11 507.800 157.852  45
  -1   3 -11 440.400 169.400  59
  -1   3 -11 305.219 168.303  38
   1  -3  11 455.744 180.143  52
   1  -3  12 574.683 161.760  46
  -1   3 -12 613.115 162.687  59
  -1   3 -12 748.630 153.435  38
   1  -3  12 850.704 157.067  45
   1  -3  13 9.72312 114.770  46
  -1   3 -13 12.3501 122.521  59
  -1   3 -13 217.982 119.442  38
   1  -2 -14 74.3206 128.868  38
  -1   2  14-37.5670 121.493  45
   1  -2 -13 692.055 182.189  38
   1  -2 -13 696.354 148.971  48
   1  -2 -13 769.402 171.165  56
  -1   2  13 421.739 157.975  45
  -1   2  12 139.816 133.624  49
   1  -2 -12 15.7442 153.057  48
   1  -2 -12-38.3968 190.407  38
  -1   2  12 149.065 170.805  45
   1  -2 -11-18.1194 174.042  48
  -1   2  11 23.1031 174.069  45
   1  -2 -11 87.7066 191.213  38
  -1   2  11 39.5285 142.805  49
   1  -2 -11 109.348 131.895  24
  -1   2  10 21.1530 156.072   5
  -1   2  10 18.7374 185.691  45
   1  -2 -10-7.07804 190.338  48
   1  -2 -10 24.2734 134.768  24
  -1   2  10-68.7347 160.842  49
   1  -2  -9 303.847 146.119  27
   1  -2  -9 327.181 136.620  24
   1  -2  -9 349.154 186.473  13
  -1   2   9 193.146 157.260   5
   1  -2  -9 344.186 231.914  22
   1  -2  -8 56.0930 158.921  13
   1  -2  -8-35.0813 168.319   7
   1  -2  -8 99.0372 121.112  24
   1  -2  -8-5.91494 220.821  22
  -1   2   8-43.8519 132.084   5
  -1   2   8 24.0545 135.097  34
  -1   2   7 338.746 125.166   5
  -1   2   7 185.897 135.214  34
   1  -2  -7 221.258 121.592  24
   1  -2  -7 215.311 148.706   7
  -1   2   6 607.550 126.452   5
   1  -2  -6 489.294 148.667   7
  -1   2   6 742.523 130.498  34
   1  -2  -6 677.738 116.971  24
   1  -2  -5 21.2677 119.484   7
   1  -2  -5 16.6316 87.0815  24
  -1   2   5 25.3207 123.588  34
  -1   2   5 62.0721 98.4415   5
   1  -2  -4 20.3908 130.100   3
   1  -2  -4 99.6075 257.028   4
   1  -2  -4 17.1013 74.4595  24
  -1   2   4 3.52440 111.098  34
  -1   2   4-11.5833 86.5449   5
   1  -2  -4 30.8293 80.9114   8
   1  -2  -3 599.731 222.151   4
  -1   2   3 767.146 183.529   4
  -1   2   3 785.943 93.7691   5
   1  -2  -3 762.616 95.5164   8
  -1   2   3 700.474 113.241  34
   1  -2  -3 766.217 167.477   3
  -1   2   3 740.141 96.6679  14
   1  -2  -2 42.2918 137.340   3
  -1   2   2 56.6256 134.723   4
   1  -2  -2 0.59172 155.540   4
  -1   2   2 68.3234 82.1977  14
  -1   2   2 86.4502 105.508  11
   1  -2  -1 4233.18 165.840   1
   1  -2  -1 4457.21 253.787   4
   1  -2  -1 4322.18 228.810   2
  -1   2   1 4479.38 156.050  14
  -1   2   1 4515.14 163.434  11
   1  -2  -1 4274.72 262.743   3
  -1   2   0 1423.15 170.900   2
   1  -2   0 1388.16 124.256   0
   1  -2   0 1308.36 176.529   2
   1  -2   0 1360.31 178.021   3
   1  -2   0 1387.53 157.702   4
  -1   2   0 1327.54 119.938   1
  -1   2   0 1574.39 128.689  11
  -1   2  -1 186.769 106.412  11
   1  -2   1 192.504 147.601   3
  -1   2  -1 214.779 145.027   2
  -1   2  -1 120.377 114.713  18
  -1   2  -1 172.167 114.787   0
   1  -2   2 126.377 82.4473  20
  -1   2  -2 102.727 160.356   2
   1  -2   2 163.394 108.785   6
  -1   2  -2 143.912 95.9135  11
   1  -2   2 147.900 135.527   3
  -1   2  -2 179.495 85.5939  14
  -1   2  -2 109.832 136.572   0
   1  -2   2 143.306 99.1326  19
   1  -2   2 73.6084 134.638  12
  -1   2  -3 60.7842 161.332   0
   1  -2   3 159.942 185.036  12
   1  -2   3 98.2543 121.247  31
   1  -2   3 111.492 179.619   4
  -1   2  -3 115.715 80.9906  14
  -1   2  -3-6.54192 189.671   2
  -1   2  -3 120.399 68.7598  24
   1  -2   3 98.3127 111.995  19
  -1   2  -3 125.319 81.0350  26
   1  -2   3 118.444 126.307   3
   1  -2   4 188.594 108.517   3
   1  -2   4 167.301 156.592  33
   1  -2   4 280.603 144.464  32
  -1   2  -4 217.998 79.4065  15
   1  -2   4 216.255 154.188  31
  -1   2  -4 204.683 88.2139  26
  -1   2  -4 223.231 80.8092  24
   1  -2   4 184.981 212.605   4
   1  -2   5 2285.55 230.210  31
  -1   2  -5 2378.66 145.634  15
  -1   2  -5 2340.37 146.125  26
  -1   2  -5 2078.94 132.679  24
   1  -2   5 2277.57 228.737  33
   1  -2   5 2262.23 196.474  32
  -1   2  -6 371.611 106.888  26
   1  -2   6 460.315 146.710  32
  -1   2  -6 476.672 103.111  24
   1  -2   6 526.590 181.967  33
   1  -2   7 55.8917 129.548  32
  -1   2  -7 11.5246 99.7214  24
   1  -2   7-37.1591 158.075  33
  -1   2  -8 2.26972 108.700  24
   1  -2   8-47.1540 155.189  33
   1  -2   8 20.4877 136.419  32
  -1   2  -9 293.099 131.584  24
   1  -2   9 194.421 152.452  33
  -1   2 -10-15.7936 155.725  48
   1  -2  10-143.594 175.984   5
  -1   2 -10-65.3914 177.306  38
   1  -2  10-9.42501 174.200  52
   1  -2  10 4.68053 168.619  45
  -1   2 -10 74.6641 161.573  47
  -1   2 -10-9.00865 117.414  24
   1  -2  11 7.78267 155.502  45
   1  -2  11 37.6182 170.273  52
  -1   2 -11 14.0115 115.908  24
   1  -2  11 52.4054 153.150  46
  -1   2 -11-31.4269 169.168  38
  -1   2 -11 140.412 153.532  47
   1  -2  12 141.005 145.710  46
  -1   2 -12 174.534 144.831  59
   1  -2  12 71.6534 154.579  45
  -1   2 -12 245.583 152.899  38
   1  -2  13 89.8247 123.070  46
  -1   2 -13 182.765 150.980  38
  -1   2 -13 249.575 131.301  59
   1  -2  13 395.347 134.483  45
   1  -2  14 1069.85 138.696  50
  -1   2 -14 1094.66 116.698  38
   1  -1 -14 390.388 137.844  38
  -1   1  14 231.174 129.222  45
   1  -1 -13 181.599 137.961  48
   1  -1 -13 164.220 169.226  38
  -1   1  13 20.5852 153.586  45
   1  -1 -12 62.3056 157.637  48
  -1   1  12 123.622 169.216  45
   1  -1 -12 223.389 196.683  38
  -1   1  12 115.770 131.481  49
   1  -1 -11 488.417 150.981  24
   1  -1 -11 384.980 176.372  48
   1  -1 -11 424.878 201.942  38
  -1   1  11 429.080 156.520  49
   1  -1 -11 439.017 176.266  60
  -1   1  11 467.038 180.768  45
  -1   1  10 723.153 187.883   5
  -1   1  10 721.099 199.677  45
  -1   1  10 563.050 174.690  49
   1  -1 -10 836.218 209.374  48
   1  -1 -10 684.944 156.952  24
   1  -1 -10 923.008 206.776  60
   1  -1  -9 82.8848 126.600  24
  -1   1   9 173.225 156.496   5
   1  -1  -8 447.888 136.119  24
   1  -1  -8 439.233 128.367  27
  -1   1   8 330.860 146.122   5
   1  -1  -8 494.559 175.654  13
   1  -1  -7 47.5476 103.013  24
  -1   1   7 6.38640 122.921   5
   1  -1  -7-12.5322 138.595  13
  -1   1   7-16.2710 116.955  34
   1  -1  -7-25.1833 134.434   7
   1  -1  -6 42.1856 94.4490  24
  -1   1   6 49.3854 109.133   5
   1  -1  -6 24.1258 125.578   7
  -1   1   6 25.4566 124.647  34
  -1   1   5-7.83138 119.224  34
  -1   1   5 45.6396 95.1476  32
   1  -1  -5-20.0827 118.131   7
   1  -1  -5 6.36290 65.7244  26
   1  -1  -5-32.4396 88.1943  24
   1  -1  -4 9.70661 76.1933  24
  -1   1   4-43.4284 161.202   4
   1  -1  -4 82.4407 228.562   4
   1  -1  -4 23.9740 106.543   7
  -1   1   4-47.2275 112.677  34
   1  -1  -3 349.005 113.950   3
   1  -1  -3 314.085 182.984   4
  -1   1   3 313.279 159.400   4
  -1   1   3 282.844 91.8502   5
   1  -1  -3 360.264 110.712   7
  -1   1   2 11.9771 129.039   4
  -1   1   2 40.8963 104.846   3
   1  -1  -2-19.9252 102.639   3
   1  -1  -2-29.7149 132.949   4
  -1   1   1 154.621 106.679   3
   1  -1  -1 172.931 103.865   3
   1  -1  -1 91.8829 99.2160   4
   1  -1  -1 103.371 68.2935   2
  -1   1   0 63.0084 81.1886   1
  -1   1   0 7.88640 94.9664   3
   1  -1   0 64.8854 76.0379   0
   1  -1   0 67.1769 102.825   3
  -1   1   0 16.1648 81.8073   2
   1  -1   1 197.514 111.266   3
  -1   1  -1 31.1871 97.4885   0
   1  -1   1 122.279 105.602   0
  -1   1  -1 104.634 99.3516   3
   1  -1   2 312.624 132.983  12
  -1   1  -2 291.118 148.884   0
   1  -1   2 235.895 109.414   3
   1  -1   3-56.0615 214.317   4
   1  -1   3 70.1929 183.690  12
  -1   1  -3-23.8955 168.382   0
   1  -1   3 16.6454 95.7407   3
   1  -1   4-59.1893 141.025  33
   1  -1   4 5.72914 149.939  31
  -1   1  -4 60.4213 203.686   0
  -1   1  -4 34.7648 78.9485  26
   1  -1   4 73.9787 244.160   4
   1  -1   4 48.1465 144.137  32
  -1   1  -4-4.10813 73.3971  24
   1  -1   5 918.113 169.326  33
   1  -1   5 1145.70 171.028  32
  -1   1  -5 957.011 107.688  24
   1  -1   5 905.533 182.956  31
  -1   1  -5 999.505 109.412  26
  -1   1  -6 177.418 96.4157  24
   1  -1   6 183.873 147.898  33
   1  -1   6 240.236 146.887  32
  -1   1  -6 238.845 98.1036  26
   1  -1   7 46.6676 134.935  32
  -1   1  -7-24.8891 102.089  24
  -1   1  -7 9.46925 101.116  26
   1  -1   7-42.4979 120.955  33
   1  -1   8-4.26451 128.132  33
  -1   1  -8 9.08482 112.463  24
   1  -1   8-4.08739 141.349  32
  -1   1  -8-25.8207 110.994  26
   1  -1   9 68.9277 139.905  32
  -1   1  -9 8.63910 132.598  24
   1  -1  10 235.128 166.667  45
   1  -1  10 155.886 136.581  32
   1  -1  10 125.190 168.545   5
   1  -1  10 116.136 168.249  52
  -1   1 -10 101.407 174.626  38
  -1   1 -10 230.958 132.578  24
  -1   1 -10 225.564 157.328  47
  -1   1 -10 197.170 162.150  48
   1  -1  11 192.411 159.628  46
  -1   1 -11 112.534 156.188  47
   1  -1  11 255.218 162.751  45
  -1   1 -11 97.7580 178.868  38
  -1   1 -11 143.071 145.544  48
  -1   1 -11 209.212 135.580  24
  -1   1 -12-20.3074 179.120  38
   1  -1  12 18.1383 147.339  46
   1  -1  12 79.2757 157.369  45
   1  -1  13 66.2014 125.777  45
  -1   1 -13 128.342 150.557  38
  -1   1 -14-30.1906 120.367  38
   1  -1  14 107.592 138.173  50
  -1   0  14 56.2413 122.922  45
   1   0 -14 185.323 130.245  38
   1   0 -13 1785.59 192.994  38
  -1   0  13 1652.21 191.789  45
   1   0 -13 1657.89 175.727  48
  -1   0  12 1403.40 210.492  45
   1   0 -12 1236.91 203.586  38
   1   0 -12 1350.12 193.450  48
   1   0 -11 536.028 146.897  24
   1   0 -11 453.406 162.357  48
   1   0 -11 620.175 197.312  38
  -1   0  11 395.864 180.790  45
  -1   0  10 34.5114 163.678   5
  -1   0  10 97.2427 178.692  45
   1   0 -10 156.349 183.107  60
   1   0 -10 9.48463 206.629  38
   1   0 -10 122.215 127.022  24
   1   0 -10 178.145 185.879  48
  -1   0   9 241.474 163.639   5
   1   0  -9 587.839 140.070  24
  -1   0   8 776.448 165.256   5
   1   0  -8 952.407 139.352  27
   1   0  -8 1123.04 156.422  24
   1   0  -7 6.24541 102.070  27
   1   0  -7 12.4098 125.602  13
  -1   0   7 4.18279 129.650   5
   1   0  -7 22.8784 102.066  24
  -1   0   7 5.95357 88.9093  33
   1   0  -7 12.1365 91.2895  26
  -1   0   6-25.3127 119.311   5
   1   0  -6-26.2712 80.5865  26
  -1   0   6 24.0807 94.5601  32
  -1   0   6-4.51099 108.527  34
  -1   0   6 49.1993 81.2760  33
   1   0  -6-48.0433 120.796  13
   1   0  -6-30.3683 92.4876  24
   1   0  -6 2.39795 97.2787  27
  -1   0   5 6.87859 105.563  34
   1   0  -5 21.4398 69.3053  26
  -1   0   5 28.5319 78.1824  33
  -1   0   5 43.7683 90.4411  32
   1   0  -5-2.25495 84.9151  24
   1   0  -5 58.1306 109.113  13
   1   0  -5 12.1793 90.0869  27
   1   0  -5 56.4195 278.873   4
   1   0  -4 173.949 105.866   7
   1   0  -4 169.022 105.211  13
   1   0  -4 4.99533 215.546   4
   1   0  -4 175.885 82.0913  24
  -1   0   4 41.7839 162.444   4
  -1   0   4 167.551 88.6265  32
  -1   0   4 161.923 78.2061  33
  -1   0   3 70.3220 88.0127   5
  -1   0   3-15.6427 147.032   4
   1   0  -3 38.8868 165.249   4
   1   0  -3-2.32026 102.759  13
   1   0  -3 32.4833 95.6225   7
  -1   0   3-10.2553 71.9912   3
   1   0  -2 36.2238 104.320   4
  -1   0   2 21.9848 110.089   4
  -1   0   2-2.99899 85.4265   3
  -1   0   1 7.12971 80.0340   3
   1   0  -1 15.1761 74.1065   4
   1   0   0 85.1671 72.2094   1
  -1   0   0 65.0468 74.8463   1
   1   0   1 56.6708 87.2743   0
  -1   0  -1 57.4212 82.1060   3
  -1   0  -1 41.3322 85.4323   0
  -1   0  -2 95.4272 89.6134   3
   1   0   2-2.26426 162.571   4
  -1   0  -2 153.382 136.210   0
  -1   0  -3 6.59493 81.8807   3
  -1   0  -3 81.8702 182.959   0
   1   0   3-85.4025 245.379   4
   1   0   4 126.021 136.699  31
   1   0   4 96.1719 264.114   4
   1   0   4 190.591 141.670  32
  -1   0  -4 165.789 109.573  22
  -1   0  -4 135.173 81.5493  24
  -1   0  -4 105.418 84.9714   7
  -1   0  -4 40.2556 190.358   0
   1   0   5 19.4830 109.393  33
  -1   0  -5 31.1546 87.0119  26
  -1   0  -5-39.4418 118.431  22
   1   0   5 12.3477 140.577  32
  -1   0  -5-8.56850 88.6006   7
  -1   0  -5 43.0780 87.3866  24
  -1   0  -6 594.951 109.815  26
  -1   0  -6 614.585 115.558  24
   1   0   6 559.353 155.506  32
   1   0   6 540.319 115.407  33
  -1   0  -7 55.5061 104.007  24
   1   0   7 83.3585 139.505  32
  -1   0  -7 61.3917 105.053  26
   1   0   8 573.659 153.032  32
  -1   0  -8 574.746 129.399  26
  -1   0  -8 506.795 139.635  24
   1   0   9 544.725 159.056  32
  -1   0  -9 772.997 141.637  26
  -1   0  -9 650.820 148.393  24
  -1   0 -10 17.7331 125.541  26
  -1   0 -10 173.879 186.890  38
  -1   0 -10 81.5964 142.251  24
   1   0  10 82.7118 149.954  32
  -1   0 -10 66.9897 165.273  48
   1   0  10 240.048 170.220  46
   1   0  10-31.4943 176.139  45
   1   0  11 25.6553 158.363  46
  -1   0 -11 120.377 175.481  38
   1   0  11-48.7977 165.447  45
  -1   0 -11 26.5672 162.304  48
  -1   0 -11 17.1359 132.344  24
   1   0  12 52.5221 170.743  45
   1   0  12 121.913 153.073  46
  -1   0 -12 195.678 185.324  38
  -1   0 -13 364.906 166.728  38
   1   0  13 141.092 145.287  45
   1   0  14-83.0923 144.829  50
  -1   0 -14 197.113 127.273  38
   1   0  14 0.27323 100.908  45
  -1  -1  14 117.865 116.711  45
   1   1 -14 76.0860 100.938  59
   1   1 -14 48.5654 108.116  38
  -1  -1  13 179.789 151.824  45
   1   1 -13-37.7642 133.048  48
   1   1 -13 171.928 145.168  38
  -1  -1  12 47.5379 171.388  45
   1   1 -12 52.7102 139.237  47
   1   1 -12 21.0864 154.880  48
   1   1 -12 219.762 173.638  38
  -1  -1  11 548.174 186.807  45
   1   1 -11 676.355 195.785  38
   1   1 -11 456.282 168.269  47
   1   1 -11 529.168 145.903  24
   1   1 -11 563.136 166.874  48
   1   1 -10 720.244 194.142  47
  -1  -1  10 856.874 187.119  52
   1   1 -10 829.626 187.307  48
   1   1 -10 821.767 203.239  60
   1   1 -10 903.051 222.967  15
  -1  -1  10 731.421 195.990  45
  -1  -1  10 604.357 206.800   5
   1   1 -10 756.847 151.979  24
   1   1 -10 728.848 211.725  38
  -1  -1   9 281.991 135.183  33
  -1  -1   9 264.974 169.935   5
   1   1  -9 215.768 127.260  24
   1   1  -8 174.070 114.596  24
  -1  -1   8 103.102 151.785   5
  -1  -1   8 245.892 113.242  33
   1   1  -7 326.980 112.201  27
  -1  -1   7 322.467 105.521  33
  -1  -1   7 355.640 140.696   5
   1   1  -7 376.304 113.081  24
  -1  -1   6 192.185 98.8399  33
  -1  -1   6 280.559 104.107  32
   1   1  -6 309.254 103.587  27
   1   1  -6 172.373 103.098  13
   1   1  -6 246.146 99.9338  24
  -1  -1   6 153.861 121.864   5
  -1  -1   5 816.436 106.714  33
  -1  -1   5 852.819 194.545   4
   1   1  -5 721.056 100.052  27
   1   1  -5 750.380 125.645  13
   1   1  -5 948.386 263.636   4
  -1  -1   5 599.877 129.675   5
   1   1  -5 752.361 103.481  24
  -1  -1   5 711.369 110.822  32
  -1  -1   4 2739.08 234.406   4
  -1  -1   4 2596.40 160.033   5
   1   1  -4 2499.63 157.215  13
   1   1  -4 2109.02 289.060   4
   1   1  -4 2471.44 125.204  24
  -1  -1   4 2499.45 130.305  33
   1   1  -4 2425.49 126.927  27
   1   1  -4 2811.08 216.732   2
   1   1  -3 959.139 114.505  13
   1   1  -3 1108.69 184.026   4
  -1  -1   3 1110.96 153.548   4
  -1  -1   3 1033.82 111.807   5
   1   1  -3 1173.74 145.267   2
  -1  -1   2 34.1156 94.2492   4
   1   1  -2-10.4419 91.8975   4
   1   1  -2 44.3563 88.1103   2
  -1  -1   1 2521.45 133.475   2
   1   1  -1 2752.54 118.269   4
   1   1   0 58.7307 80.4440   1
   1   1   1 130.612 112.615   4
   1   1   1 100.770 88.7811   0
  -1  -1  -1 29.4630 88.7458   0
   1   1   2 86.6953 208.708   4
  -1  -1  -2 47.7974 128.789   0
  -1  -1  -3 72.4763 190.661   4
   1   1   3 24.8922 237.481   4
  -1  -1  -3 1.31585 168.815   0
  -1  -1  -3 72.2990 98.2195   8
  -1  -1  -3 41.0919 126.317  22
  -1  -1  -4 174.657 145.416  22
  -1  -1  -4 26.8085 194.680   0
  -1  -1  -4 36.0073 231.436   4
   1   1   4 33.3012 241.958   4
   1   1   4 141.770 132.843  32
  -1  -1  -4 143.702 77.5151  28
  -1  -1  -4 176.621 85.6621  24
  -1  -1  -5 313.785 100.465  24
   1   1   5 430.196 142.348  32
  -1  -1  -5 428.438 110.882   7
  -1  -1  -5 326.871 141.722  22
  -1  -1  -6 310.146 158.792  22
   1   1   6 362.477 136.737  32
  -1  -1  -6 408.884 110.421  24
  -1  -1  -6 329.333 121.290   7
   1   1   7 412.178 133.783  32
  -1  -1  -7 349.007 134.464   7
  -1  -1  -7 399.712 123.282  24
  -1  -1  -7 453.330 110.347  26
  -1  -1  -7 510.323 169.209  22
  -1  -1  -8 98.4458 110.030  26
   1   1   8 132.246 136.262  32
  -1  -1  -8 115.898 123.191  24
   1   1   9 986.132 165.790  32
  -1  -1  -9 983.639 164.960  24
  -1  -1  -9 961.874 149.637  26
  -1  -1 -10 643.791 209.582  38
   1   1  10 640.097 180.645  46
   1   1  10 656.854 162.370  32
  -1  -1 -10 712.455 179.968  48
  -1  -1 -10 578.095 158.155  24
  -1  -1 -10 653.110 139.132  26
   1   1  10 802.774 192.298  45
  -1  -1 -11 1995.02 203.716  48
  -1  -1 -11 1892.97 220.264  56
  -1  -1 -11 1919.72 205.427  24
   1   1  11 1861.06 215.909  45
  -1  -1 -11 1668.73 213.107  38
   1   1  12-7.29040 163.884  45
  -1  -1 -12 92.1442 176.276  56
  -1  -1 -12 74.0910 187.528  38
   1   1  13-2.11952 135.407  45
  -1  -1 -13 57.2560 166.797  38
   1   1  13 35.0052 175.186  50
   1   1  14 70.8976 105.681  45
   1   1  14 95.1065 144.010  50
  -1  -1 -14 90.6673 126.394  38
  -1  -2  14 66.8470 103.417  45
   1   2 -14 1.59500 97.5999  59
   1   2 -13 26.0215 131.165  38
  -1  -2  13-2.74051 145.209  45
   1   2 -12 383.047 146.479  47
   1   2 -12 316.598 147.252  48
   1   2 -12 266.895 166.556  38
  -1  -2  12 143.196 162.440  45
   1   2 -11 205.888 162.833  47
  -1  -2  11 221.800 171.152  45
   1   2 -11 169.714 120.023  24
  -1  -2  11 178.914 166.041  52
   1   2 -11 40.3078 155.080  48
   1   2 -11 207.560 172.413  38
   1   2 -10 26.1328 116.133  24
   1   2 -10-2.34526 152.768  47
   1   2 -10 76.7826 171.206  48
  -1  -2  10 92.5629 172.723   5
  -1  -2  10-9.83354 184.177  45
  -1  -2  10-23.0104 165.426  52
   1   2 -10-100.332 182.282  38
  -1  -2   9 109.576 138.056  33
   1   2  -9 123.360 173.784  15
  -1  -2   9 58.4718 170.257   5
   1   2  -9-5.80967 120.113  24
   1   2  -8 74.3896 162.688  15
  -1  -2   8 149.433 158.300   5
   1   2  -8 43.0845 109.486  24
  -1  -2   8 93.4681 124.943  33
  -1  -2   7 913.772 179.415   5
  -1  -2   7 1045.12 143.239  33
   1   2  -7 897.202 135.432  24
   1   2  -7 1121.62 187.302  15
   1   2  -6-14.9786 92.4860  24
  -1  -2   6 25.5995 127.806   5
  -1  -2   6-25.6503 105.308  33
  -1  -2   5 10.1155 109.562  33
   1   2  -5 8.51700 83.7488  24
  -1  -2   5-42.4811 84.8423  30
  -1  -2   5-6.54696 110.318   5
   1   2  -4 4979.09 170.383  24
  -1  -2   4 5588.48 177.113  30
  -1  -2   4 5312.27 193.748  33
   1   2  -4 5606.60 323.701   2
  -1  -2   4 5012.41 203.980   5
   1   2  -4 5393.32 306.698   4
  -1  -2   3 9928.45 226.247  17
  -1  -2   3 9857.11 262.478  19
  -1  -2   3 10468.4 242.073  33
   1   2  -3 9989.64 200.852  24
   1   2  -3 9755.03 256.174  15
  -1  -2   3 10055.5 232.777   5
   1   2  -3 9943.54 322.329   4
   1   2  -2 8306.03 193.059   4
   1   2  -2 8721.23 218.200  15
  -1  -2   2 9197.61 235.249  20
  -1  -2   2 9728.24 222.037  19
  -1  -2   2 9031.53 342.910   2
  -1  -2   1 4649.44 248.190   2
  -1  -2   1 4447.29 158.062  21
   1   2  -1 4632.94 153.970  15
   1   2   0 272.473 94.6006   1
   1   2   0 278.082 109.964   4
   1   2   1 89.9784 84.6731   0
   1   2   1 63.0216 168.177   4
  -1  -2  -1 47.8414 91.0542   1
   1   2   2-40.3912 200.932   4
  -1  -2  -2 127.448 188.209   4
  -1  -2  -2 143.233 132.725  22
  -1  -2  -2 64.0818 114.576   0
  -1  -2  -3 184.358 235.236   4
  -1  -2  -3 25.9941 146.741   0
   1   2   3 48.2773 191.570   4
  -1  -2  -3 17.2034 146.312  22
  -1  -2  -3-80.8815 91.3515   8
  -1  -2  -3 37.8776 68.5243  25
  -1  -2  -4 47.5621 75.6388  28
  -1  -2  -4-36.0547 161.189  22
  -1  -2  -4 116.308 271.976   4
  -1  -2  -4 14.1262 79.7693  25
  -1  -2  -4 8.22681 76.3201  24
  -1  -2  -4 32.4121 110.921   8
   1   2   4 75.4325 114.331  32
   1   2   4 31.8467 98.5370  34
  -1  -2  -4 20.5595 175.004   0
   1   2   5 345.702 103.443  34
  -1  -2  -5 453.469 178.435  22
   1   2   5 334.610 126.021  32
  -1  -2  -5 286.351 90.5992  24
  -1  -2  -5 376.139 94.2530  28
   1   2   6-9.98035 99.5901  34
  -1  -2  -6-58.2865 166.974  22
   1   2   6 27.9223 116.160  32
  -1  -2  -6 75.6722 89.2330  28
  -1  -2  -6-14.5624 109.671   7
  -1  -2  -6 40.0929 103.343  24
   1   2   7 118.922 118.244  32
  -1  -2  -7 48.9864 122.476   7
  -1  -2  -7-7.86231 177.544  22
  -1  -2  -7-19.3963 114.550  24
  -1  -2  -8 662.162 217.669  22
  -1  -2  -8 775.030 150.013  24
  -1  -2  -8 805.059 181.088   7
   1   2   8 918.485 154.394  32
  -1  -2  -8 728.349 127.859  26
  -1  -2  -9 71.9441 116.897  26
   1   2   9-25.0019 141.956  32
  -1  -2  -9 102.538 137.537  24
  -1  -2 -10 253.099 169.161  48
  -1  -2 -10 67.1820 145.688  24
  -1  -2 -10 59.6759 125.447  26
   1   2  10 17.2409 135.271  32
  -1  -2 -10 81.7736 203.579  38
   1   2  10 79.1447 149.122  49
   1   2  10-64.2617 187.218  45
   1   2  11 194.062 167.588  45
  -1  -2 -11 100.916 137.656  24
  -1  -2 -11 150.074 191.857  38
  -1  -2 -11 222.818 156.290  48
   1   2  12 903.274 188.949  45
  -1  -2 -12 1253.50 202.904  38
  -1  -2 -12 1273.87 211.073  56
   1   2  12 1077.52 209.248  50
  -1  -2 -13 380.121 163.947  38
  -1  -2 -13 329.509 155.122  56
   1   2  13 307.721 143.372  45
   1   2  13 327.577 185.789  50
   1   2  14 54.0623 147.572  50
   1   2  14 143.985 98.0413  45
  -1  -2 -14 7.81344 130.562  38
  -1  -3  13-72.3063 131.112  45
   1   3 -13 43.7292 127.841  59
  -1  -3  12-6.67258 160.352  45
   1   3 -12 89.1890 134.879  47
   1   3 -12 42.3911 138.747  48
   1   3 -11 784.503 173.517  48
   1   3 -11 809.276 177.108  47
  -1  -3  11 675.854 187.528  45
  -1  -3  11 792.464 163.620  52
   1   3 -10 228.352 149.651  48
  -1  -3  10 95.0385 178.609  52
  -1  -3  10 279.368 174.863  45
   1   3 -10 204.980 164.179  47
  -1  -3  10 142.332 144.350  33
  -1  -3   9 17.1054 189.592  45
  -1  -3   9 26.2469 146.783  33
   1   3  -9 5.15823 112.275  24
   1   3  -9 52.9099 158.859  47
   1   3  -9 15.5882 186.451  15
  -1  -3   9 15.9559 174.204  52
  -1  -3   9 60.8751 173.914   5
   1   3  -9 16.3771 148.148  48
  -1  -3   8 655.540 162.595  33
   1   3  -8 511.477 128.029  24
  -1  -3   8 341.137 180.188   5
   1   3  -8 690.453 188.265  15
  -1  -3   7 1477.31 204.267   5
   1   3  -7 1269.14 189.905  15
  -1  -3   7 1241.99 166.333  33
   1   3  -7 1346.72 152.147  24
   1   3  -6 245.502 136.528  15
   1   3  -6 265.901 98.0534  24
  -1  -3   6 253.689 145.126   5
  -1  -3   6 293.941 133.833  33
  -1  -3   5 1712.41 144.431  30
   1   3  -5 1218.21 162.189  15
  -1  -3   5 1323.21 154.291  33
   1   3  -5 1264.03 125.311  24
  -1  -3   5 1342.61 152.910   5
  -1  -3   4-18.5379 125.408  19
   1   3  -4 13.9415 115.975  15
   1   3  -4-12.8752 77.9774  24
  -1  -3   4 68.6674 111.511  30
  -1  -3   4 34.8554 119.674  33
  -1  -3   4-19.1813 99.6044   5
  -1  -3   3 902.682 110.374   5
  -1  -3   3 837.576 133.219  19
  -1  -3   3 882.636 114.713  17
  -1  -3   3 1087.66 151.216  33
   1   3  -3 905.548 107.611  10
   1   3  -3 986.638 131.680  15
  -1  -3   3 946.152 135.019  30
   1   3  -2 117.041 118.334  18
   1   3  -2 24.2286 105.461  15
  -1  -3   2 99.5911 128.146  33
  -1  -3   2 31.7090 115.627  30
  -1  -3   2 46.9917 156.706   2
  -1  -3   2 66.3334 101.456  20
   1   3  -2 86.5642 104.067  10
   1   3  -1 1531.33 144.543  10
  -1  -3   1 1799.90 152.802  30
   1   3  -1 1524.45 134.517  15
  -1  -3   1 1594.29 119.317  20
   1   3  -1 1621.10 129.436  18
  -1  -3   1 1571.69 130.096  21
  -1  -3   1 1617.92 224.487   2
   1   3   0 451.181 110.462  18
  -1  -3   0 548.952 106.047  16
   1   3   0 417.175 75.4809   4
   1   3   0 458.417 130.357  10
   1   3   0 478.993 86.4668   1
  -1  -3   0 551.277 98.3881  21
   1   3   1 348.546 120.166  10
  -1  -3  -1 263.160 150.764   4
  -1  -3  -1 347.380 127.120  22
  -1  -3  -1 329.291 110.281  16
   1   3   1 306.896 64.1630   0
   1   3   1 338.815 130.127   4
   1   3   2 86.2672 164.680   4
  -1  -3  -2 152.976 92.9416   1
   1   3   2 179.025 107.734  10
  -1  -3  -2 79.1674 223.258   4
   1   3   2 97.6985 97.0582  34
   1   3   2 190.006 95.0128  23
  -1  -3  -2 147.720 137.132  22
  -1  -3  -3 394.382 170.587  22
  -1  -3  -3 158.008 105.997   8
  -1  -3  -3 292.161 75.0972  28
  -1  -3  -3 367.075 276.767   4
  -1  -3  -3 225.549 123.193   0
   1   3   3 348.703 168.805   4
   1   3   3 253.505 99.4934  10
   1   3   3 180.555 99.7859  34
   1   3   4 220.747 100.075  32
  -1  -3  -4 276.083 152.728   0
  -1  -3  -4 198.629 106.681   8
   1   3   4 225.542 100.503  34
  -1  -3  -4 263.221 77.1898  28
   1   3   4 248.310 84.0719  10
  -1  -3  -4 183.536 183.130  22
  -1  -3  -4 200.857 86.2305  25
   1   3   5 1503.20 130.297  34
  -1  -3  -5 1246.84 126.107  25
  -1  -3  -5 1267.08 112.118  28
  -1  -3  -5 1315.37 124.726  24
  -1  -3  -5 1381.21 171.888   8
  -1  -3  -5 1418.00 231.385  22
   1   3   5 1288.39 128.745  32
   1   3   6 57.8086 101.994  34
   1   3   6 48.4699 99.7861  32
  -1  -3  -6 69.8847 104.421  24
  -1  -3  -6 128.077 198.050  22
  -1  -3  -6 49.7623 91.2921  28
  -1  -3  -7 472.511 155.323   7
  -1  -3  -7 394.676 217.908  22
   1   3   7 320.912 123.165  32
   1   3   7 351.193 128.660  34
  -1  -3  -7 321.503 105.091  28
  -1  -3  -7 337.804 129.306  24
   1   3   8 72.4521 120.392  32
  -1  -3  -8 25.5678 143.026  24
  -1  -3  -8 82.2546 149.619   7
  -1  -3  -8 55.5387 203.731  22
  -1  -3  -9 15.0179 171.216   7
  -1  -3  -9 191.651 147.034  24
  -1  -3  -9 71.7618 118.102  26
   1   3   9 27.6267 132.937  32
   1   3  10 93.2818 159.468   5
   1   3  10 147.323 163.975  45
   1   3  10-52.9518 206.372  50
  -1  -3 -10 63.1956 145.589  24
  -1  -3 -10 86.6815 188.820  38
   1   3  10 92.7015 149.456  49
   1   3  11 86.7883 163.828  45
   1   3  11 78.4262 205.123  50
  -1  -3 -11 102.022 187.638  38
  -1  -3 -11 103.031 147.196  24
  -1  -3 -12 218.893 191.257  56
   1   3  12 274.642 162.796  45
   1   3  12 63.2503 208.355  50
  -1  -3 -12 108.676 189.327  38
   1   3  13 311.428 168.069  50
  -1  -3 -13 92.1830 167.565  56
   1   3  13 41.1158 136.279  45
  -1  -3 -13 204.905 153.766  38
   1   3  14 12.7655 142.238  50
  -1  -3 -14-7.57450 122.741  38
  -1  -3 -14-54.5893 116.769  56
   1   4 -13 306.320 119.402  59
  -1  -4  13 317.530 119.343  45
  -1  -4  12 21.3644 145.885  45
   1   4 -12 37.1650 125.075  47
   1   4 -11 1.90707 151.734  47
   1   4 -11-26.1205 138.045  48
  -1  -4  11 20.9744 140.776  52
  -1  -4  11 71.6508 159.032  45
  -1  -4  10 891.467 168.890  33
   1   4 -10 1146.12 175.678  48
  -1  -4  10 945.378 196.441  52
   1   4 -10 1006.75 179.582  47
  -1  -4  10 853.232 197.312  45
   1   4 -10 1019.09 170.769  63
   1   4  -9 149.890 149.229  63
   1   4  -9 230.358 213.582  18
   1   4  -9 110.495 150.234  48
  -1  -4   9 80.9747 191.963  45
  -1  -4   9-14.4827 172.255  52
   1   4  -9 16.7196 153.014  47
  -1  -4   9 104.851 141.208  33
   1   4  -8 83.7873 158.221  63
  -1  -4   8 1.74923 197.660  45
   1   4  -8-18.0650 223.870  18
  -1  -4   8-12.3312 161.364  33
   1   4  -8 34.6476 192.202  15
   1   4  -8-34.7959 176.282  47
  -1  -4   7 74.6457 142.110  33
   1   4  -7 52.1823 163.843  15
   1   4  -7 22.4690 194.304  18
  -1  -4   6-23.5070 147.722  33
   1   4  -6 7.46016 143.610  15
   1   4  -6-104.825 176.552  18
  -1  -4   6-8.45670 124.769  30
  -1  -4   5 312.864 151.599  33
   1   4  -5 591.519 151.119  15
  -1  -4   5 441.715 140.274  30
   1   4  -5 277.535 157.319  18
   1   4  -4 849.206 160.889  18
  -1  -4   4 873.218 167.973  19
   1   4  -4 777.983 143.234  15
  -1  -4   4 943.121 166.257  33
  -1  -4   4 702.972 152.432  30
   1   4  -3 2959.04 191.309  15
   1   4  -3 2923.91 190.292  18
  -1  -4   3 3146.21 209.249  19
  -1  -4   3 3058.45 207.266  30
  -1  -4   3 2812.84 214.901  20
  -1  -4   3 3127.20 213.206  33
   1   4  -2 1554.57 144.729  10
   1   4  -2 1721.49 158.772  18
  -1  -4   2 1828.26 177.696  30
   1   4  -2 1685.49 155.486  15
  -1  -4   2 1581.22 181.735  33
  -1  -4   2 1616.04 162.489  20
   1   4  -1 2723.50 161.933  18
   1   4  -1 2468.21 160.871  15
  -1  -4   1 2755.69 169.999  20
  -1  -4   1 2674.88 165.360  21
  -1  -4   1 2325.79 188.118  33
   1   4  -1 2452.03 170.387  10
  -1  -4   1 2653.05 185.120  30
  -1  -4   0 1556.50 142.723  16
  -1  -4   0 1522.73 136.933  21
   1   4   0 1720.92 146.992  18
   1   4   0 1638.73 154.094  10
  -1  -4   0 1699.21 152.848  30
   1   4   1 2690.03 174.700  10
   1   4   1 3067.23 197.199   4
  -1  -4  -1 2711.15 174.899  16
   1   4   1 2404.36 133.732  34
  -1  -4  -1 3093.15 156.559  30
  -1  -4  -1 3117.93 184.511  22
  -1  -4  -2 647.385 92.9493  30
   1   4   2 630.643 114.473  34
   1   4   2 650.239 155.601   4
   1   4   2 580.334 113.532  10
  -1  -4  -2 678.500 172.588  22
  -1  -4  -2 851.178 139.085  16
  -1  -4  -2 640.701 230.853   4
   1   4   3 241.267 110.345  34
  -1  -4  -3 219.903 83.8394  28
   1   4   3 220.540 105.100  10
   1   4   3 310.238 78.4391  32
  -1  -4  -3 266.643 180.573  22
  -1  -4  -3 131.751 290.854   4
  -1  -4  -4 641.391 106.408  25
   1   4   4 539.726 115.940  34
   1   4   4 545.591 98.2691  32
  -1  -4  -4 505.256 201.951  22
  -1  -4  -4 522.870 134.020   8
  -1  -4  -4 567.837 96.2321  28
  -1  -4  -5 5214.17 273.430   8
   1   4   5 5305.83 187.228  32
  -1  -4  -5 5228.31 191.365  28
   1   4   5 5160.31 195.586  34
  -1  -4  -5 5398.16 213.773  25
  -1  -4  -5 5276.61 333.899  22
  -1  -4  -6 364.499 214.605  22
  -1  -4  -6 372.485 116.073  24
   1   4   6 274.418 119.088  34
  -1  -4  -6 323.616 106.909  28
   1   4   6 316.346 107.584  32
  -1  -4  -6 344.102 114.403  25
  -1  -4  -6 300.128 163.903   8
   1   4   7 103.515 107.525  32
  -1  -4  -7 235.574 132.366  24
  -1  -4  -7 194.478 233.623  22
  -1  -4  -7 260.370 110.730  28
   1   4   7 226.229 130.123  34
  -1  -4  -8-64.7003 247.435  22
   1   4   8-53.6562 133.463  34
  -1  -4  -8-2.91864 137.647  24
  -1  -4  -8-45.2426 153.033   7
   1   4   9-38.6479 205.641  50
  -1  -4  -9-35.8355 155.352  24
   1   4   9 86.6270 161.923  45
  -1  -4  -9 49.0046 193.234   7
   1   4   9 54.3042 159.354  49
   1   4  10 472.045 198.481  50
  -1  -4 -10 330.238 162.677  24
   1   4  10 101.359 183.722   5
   1   4  10 107.858 166.007  45
  -1  -4 -10 339.431 205.076  38
   1   4  11 56.8081 196.715  50
  -1  -4 -11-66.5878 195.576  38
  -1  -4 -11 55.6980 143.535  24
   1   4  11 25.4183 157.393  45
   1   4  12 146.692 151.715  45
  -1  -4 -12 22.7603 210.628  56
   1   4  12 70.7893 197.917  50
  -1  -4 -12 209.745 181.165  38
  -1  -4 -13 52.8711 147.711  38
   1   4  13 70.0911 159.087  50
  -1  -4 -13-14.6997 174.458  56
   1   4  14 29.7296 127.546  50
  -1  -4 -14 187.425 120.526  56
  -1  -5  12 28.3633 127.099  45
   1   5 -12-145.327 126.832  59
   1   5 -11 752.620 169.431  59
  -1  -5  11 746.886 154.188  52
  -1  -5  11 646.033 166.709  45
   1   5 -11 636.924 151.420  47
  -1  -5  10 1450.20 196.652  52
  -1  -5  10 1345.40 209.096  45
   1   5 -10 1270.05 179.895  47
   1   5  -9 1302.53 183.739  47
   1   5  -9 1322.48 168.003  55
  -1  -5   9 1242.84 218.728  45
   1   5  -9 1143.32 180.322  63
  -1  -5   9 1301.33 189.329  33
   1   5  -8-107.656 197.613  18
  -1  -5   8-30.0489 157.215  33
   1   5  -8 70.1375 146.111  47
  -1  -5   8 92.6469 191.589  45
   1   5  -8 53.6593 151.028  63
  -1  -5   7 603.389 171.700  33
   1   5  -7 658.125 199.204  15
   1   5  -7 493.257 222.939  18
  -1  -5   6 210.953 162.361  33
   1   5  -6 150.871 178.560  18
   1   5  -6 155.299 161.282  15
  -1  -5   6 135.586 149.814  30
   1   5  -5 537.482 160.982  15
  -1  -5   5 624.014 189.597  19
  -1  -5   5 585.873 176.772  33
  -1  -5   5 504.661 163.490  30
   1   5  -5 646.173 195.256  18
   1   5  -4 991.067 182.374  18
   1   5  -4 1091.45 165.223  15
  -1  -5   4 958.137 183.581  19
  -1  -5   4 969.198 191.909  33
  -1  -5   4 790.030 176.823  30
   1   5  -3 625.214 142.465  11
   1   5  -3 779.103 150.251  15
  -1  -5   3 871.489 182.779  33
   1   5  -3 731.767 166.192  18
  -1  -5   3 841.740 165.600  20
  -1  -5   3 827.375 170.150  30
  -1  -5   3 736.601 165.435  19
   1   5  -2 594.148 147.027  18
  -1  -5   2 618.135 137.187  20
  -1  -5   2 727.698 174.514  33
  -1  -5   2 664.440 164.826  30
   1   5  -1 929.014 114.524  34
  -1  -5   1 958.477 139.536  20
   1   5  -1 1057.03 157.010  18
  -1  -5   1 1082.75 179.349  30
  -1  -5   1 945.858 173.675  33
  -1  -5   1 1032.76 143.024  21
  -1  -5   0-2.61890 101.395  21
  -1  -5   0 72.1231 120.683  16
   1   5   0 34.8243 126.042  18
   1   5   0 11.3929 120.408  10
   1   5   0 30.3407 103.407  34
  -1  -5   0 6.10427 131.619  30
   1   5   1 7.97904 105.186  34
  -1  -5  -1 52.3242 124.586  16
  -1  -5  -1-30.4531 114.807  30
   1   5   1 16.6359 113.863  10
   1   5   2-12.7142 105.218  34
  -1  -5  -2 0.70061 132.237  16
  -1  -5  -2 9.33608 160.937  22
  -1  -5  -2 9.43795 95.3392  30
  -1  -5  -3 690.147 167.473  16
  -1  -5  -3 583.150 209.153  22
   1   5   3 582.150 123.101  34
  -1  -5  -4 150.183 205.452  22
   1   5   4 254.114 119.886  34
  -1  -5  -4 259.474 90.1539  28
   1   5   4 165.239 107.538  11
  -1  -5  -4 266.288 141.128   8
  -1  -5  -4 212.534 163.599  16
  -1  -5  -5 989.092 250.287  22
  -1  -5  -5 1085.77 138.700  25
  -1  -5  -5 943.783 177.967   8
   1   5   5 1152.78 145.007  34
  -1  -5  -5 1018.93 121.931  28
   1   5   6 958.342 145.994  34
  -1  -5  -6 1032.00 192.097   8
  -1  -5  -6 1132.42 136.714  28
  -1  -5  -6 1087.53 147.078  25
  -1  -5  -6 992.153 271.934  22
  -1  -5  -7 100.057 127.174  25
  -1  -5  -7 63.4013 250.694  22
  -1  -5  -7 68.4830 105.035  28
   1   5   7 168.713 135.648  34
  -1  -5  -7 54.1195 134.483  24
  -1  -5  -8 271.209 144.788  24
  -1  -5  -8 152.972 266.860  22
   1   5   8 215.100 143.233  34
  -1  -5  -8 211.029 201.520  16
  -1  -5  -8 343.456 183.212   7
  -1  -5  -9-35.9133 199.014   7
   1   5   9 194.718 212.029  50
  -1  -5  -9 71.5520 191.108  16
   1   5   9 117.718 142.400  34
   1   5   9 46.0886 173.946  45
  -1  -5  -9 60.5478 148.032  24
  -1  -5 -10 81.5644 146.597  24
   1   5  10 164.933 191.751  50
   1   5  10 128.986 159.822  45
   1   5  11 80.8424 159.951  45
   1   5  11 357.253 201.895  50
   1   5  12 1331.84 208.893  50
  -1  -5 -12 1039.11 214.047  56
  -1  -5 -13-73.2213 153.677  56
   1   5  13-31.6077 154.752  50
  -1  -5 -14 14.3844 98.3448  56
   1   6 -12 1.52738 92.5009  59
  -1  -6  12 7.95041 98.5570  45
  -1  -6  11 37.7941 136.234  45
  -1  -6  11-41.3633 115.583  52
   1   6 -11-31.6710 126.857  59
  -1  -6  10 1640.59 186.826  52
   1   6 -10 1848.50 180.803  59
   1   6 -10 1760.56 174.190  47
  -1  -6  10 1814.50 197.599  45
   1   6 -10 1993.20 165.641  55
   1   6  -9 1524.16 185.752  59
  -1  -6   9 1253.63 207.637  45
   1   6  -9 1506.52 184.065  47
   1   6  -9 1338.43 166.404  55
   1   6  -8 121.788 158.707  63
  -1  -6   8 82.3022 157.091  33
   1   6  -8-15.3395 155.754  47
  -1  -6   8 235.634 195.851  45
  -1  -6   7-24.7089 162.846  30
   1   6  -7-168.494 211.109  18
   1   6  -7 76.7918 146.060  47
   1   6  -7-37.8842 153.662  43
   1   6  -7 1.50814 152.398  63
  -1  -6   7 135.253 162.761  33
  -1  -6   6 374.808 178.078  33
   1   6  -6 288.669 199.321  18
  -1  -6   6 271.724 170.243  30
   1   6  -6 256.724 157.029  15
   1   6  -6 218.715 157.133  63
  -1  -6   5 504.272 184.873  33
  -1  -6   5 529.570 203.337  19
  -1  -6   5 517.955 187.013  30
   1   6  -5 725.908 202.272  18
  -1  -6   4 1121.24 207.106  33
   1   6  -4 831.486 198.307  18
  -1  -6   4 894.129 203.415  19
  -1  -6   4 916.072 203.044  30
   1   6  -3 247.040 170.057  18
  -1  -6   3 94.9523 170.415  33
   1   6  -3 254.248 132.745  11
  -1  -6   3 148.931 152.203  19
  -1  -6   3 232.901 154.711  20
  -1  -6   3 180.648 178.781  30
   1   6  -2 6707.72 290.868  18
  -1  -6   2 6037.25 326.384  20
  -1  -6   2 6454.13 316.417  33
  -1  -6   2 6256.02 320.925  30
   1   6  -2 6586.21 286.270  11
   1   6  -1 1305.73 132.466  34
  -1  -6   1 1233.60 173.074  20
   1   6  -1 1428.53 184.988  18
  -1  -6   1 1110.99 166.233  21
   1   6  -1 1399.77 185.397  11
  -1  -6   1 1339.86 195.955  30
   1   6   0 401.392 143.299  11
   1   6   0 304.857 112.473  34
  -1  -6   0 426.365 133.026  21
  -1  -6   0 442.973 158.599  30
   1   6   1-6.25873 104.628  34
  -1  -6  -1-13.1099 122.570  21
   1   6   1-28.3828 125.636  11
  -1  -6  -1 1.43382 137.472  16
  -1  -6  -1 9.73540 131.294  30
  -1  -6  -2 44.8226 113.538  30
   1   6   2-0.92963 111.197  34
   1   6   2 29.3240 123.383  11
  -1  -6  -2 31.8171 156.925  16
   1   6   3 218.680 127.327  34
   1   6   3 240.793 135.299  11
  -1  -6  -3 259.266 178.203  16
  -1  -6  -3 309.036 213.954  22
   1   6   4 11.5116 129.638  34
  -1  -6  -4 50.5574 202.484  22
   1   6   4-70.7580 122.947  11
  -1  -6  -4 16.2480 92.4898  28
  -1  -6  -4 25.7534 184.436  16
  -1  -6  -4-29.4863 153.804   8
   1   6   5 8.05068 140.155  34
  -1  -6  -5-31.9127 118.433  25
  -1  -6  -5-6.41977 247.185  22
  -1  -6  -5 38.9396 192.983  16
  -1  -6  -5-25.6650 98.9424  28
  -1  -6  -5-13.2684 156.000   8
  -1  -6  -6 43.4284 263.543  22
   1   6   6 280.716 141.669  34
  -1  -6  -6 167.017 112.080  28
  -1  -6  -6 191.468 204.290  16
  -1  -6  -6 171.269 173.546   8
  -1  -6  -6 216.227 127.463  25
   1   6   7 368.226 151.253  34
  -1  -6  -7 285.399 193.476   8
  -1  -6  -7 304.816 216.109  16
  -1  -6  -7 351.840 148.806  25
  -1  -6  -7 413.343 141.887  24
  -1  -6  -7 366.836 276.172  22
   1   6   8 203.701 150.373  34
   1   6   8 149.109 173.433  41
  -1  -6  -8 80.5671 148.255  24
  -1  -6  -8-8.22553 201.238  16
   1   6   8 157.062 201.188  50
   1   6   9 163.827 149.517  34
  -1  -6  -9 205.661 197.466  16
   1   6   9 50.6295 199.537  50
  -1  -6  -9 86.7256 144.870  24
  -1  -6  -9-97.2928 212.601   7
   1   6  10-89.6427 210.932  50
   1   6  11 214.238 184.602  50
  -1  -6 -12 54.2900 184.959  56
   1   6  12 0.79301 174.981  50
   1   6  13 26.0195 142.105  50
  -1  -6 -13 145.222 144.844  56
   1   6  13-71.1832 100.045  42
   1   7 -11 149.636 94.0738  59
  -1  -7  11 259.735 106.143  45
   1   7 -10 756.157 134.238  59
  -1  -7  10 829.762 157.349  45
  -1  -7  10 750.767 143.456  52
   1   7 -10 608.082 120.591  55
   1   7  -9 20.1251 129.220  55
  -1  -7   9 106.672 164.253  45
   1   7  -9 56.1312 148.063  59
   1   7  -8 2619.08 199.902  55
  -1  -7   8 2811.26 249.620  45
   1   7  -8 2827.96 198.319  47
   1   7  -8 3044.84 207.563  59
  -1  -7   7 2502.02 243.006  33
  -1  -7   7 2100.32 226.990  30
   1   7  -7 2467.46 226.834  43
   1   7  -7 2336.70 192.562  47
  -1  -7   6 239.375 176.055  30
   1   7  -6 377.021 172.343  43
  -1  -7   6 342.101 177.077  33
   1   7  -6 327.089 165.360  63
   1   7  -5 468.668 181.887  43
  -1  -7   5 459.249 195.401  33
  -1  -7   5 298.042 205.623  30
   1   7  -5 217.310 199.966  18
  -1  -7   5 294.207 204.839  19
   1   7  -5 356.241 159.400  63
  -1  -7   4 43.3200 186.896  33
  -1  -7   4-56.6769 185.703  30
  -1  -7   4 71.0270 185.094  19
   1   7  -4-6.17326 202.874  18
  -1  -7   3-14.6334 172.617  19
  -1  -7   3 102.375 164.726  20
   1   7  -3-16.0961 191.276  18
   1   7  -3-15.1403 146.312  11
  -1  -7   3-55.3312 173.010  33
  -1  -7   3 25.7658 191.998  30
   1   7  -2-28.0102 178.729  18
  -1  -7   2-14.1285 152.609  20
  -1  -7   2 34.5679 189.815  30
  -1  -7   2 22.2158 156.546  19
   1   7  -2-89.0175 163.420  11
  -1  -7   1-38.8980 158.707  20
   1   7  -1 63.5698 145.291  11
   1   7  -1 56.9256 171.694  18
  -1  -7   1 103.311 149.703  21
  -1  -7   1 13.9365 174.783  30
   1   7   0 2.00271 114.755  34
   1   7   0 96.2010 146.729  11
  -1  -7   0-1.47920 135.683  20
  -1  -7   0 37.7007 160.447  30
  -1  -7   0-16.4129 141.560  21
  -1  -7  -1 689.090 183.557  16
   1   7   1 461.681 163.812  11
   1   7   1 602.131 135.591  34
  -1  -7  -1 449.670 160.468  30
  -1  -7  -1 462.255 161.036  21
   1   7   2 796.664 147.817  34
  -1  -7  -2 791.805 185.905  21
   1   7   2 748.567 173.150  11
  -1  -7  -2 568.966 192.739  16
   1   7   3 431.653 141.108  34
   1   7   3 495.847 157.692  11
  -1  -7  -3 381.907 203.492  16
  -1  -7  -4 5289.41 373.392  16
  -1  -7  -4 5430.26 239.822  28
   1   7   4 5507.68 288.771  11
  -1  -7  -4 5362.88 335.202   8
   1   7   4 5488.69 243.313  34
  -1  -7  -5 5714.41 272.289  25
  -1  -7  -5 5984.44 361.148   8
   1   7   5 6007.33 266.083  34
  -1  -7  -5 5491.87 407.500  16
  -1  -7  -5 6188.40 259.961  28
   1   7   6 3796.80 261.342  50
   1   7   6 3630.82 231.788  34
  -1  -7  -6 2732.65 340.854  16
  -1  -7  -6 3364.86 233.629  25
  -1  -7  -6 3542.27 308.867   8
   1   7   6 3697.80 231.695  41
  -1  -7  -7 1379.11 252.063   8
  -1  -7  -7 1273.94 188.779  24
   1   7   7 1453.42 184.316  34
   1   7   7 1475.76 226.206  50
   1   7   7 1515.05 195.518  41
  -1  -7  -7 959.144 261.670  16
  -1  -7  -7 1312.43 184.804  25
   1   7   8 151.881 141.474  34
  -1  -7  -8 174.772 142.678  24
   1   7   8 149.490 206.196  50
   1   7   8 176.495 162.428  41
  -1  -7  -8 109.127 201.388  16
   1   7   9 236.971 191.563  50
   1   7   9 203.844 170.531  41
  -1  -7  -9 158.794 157.625  24
   1   7  10-77.5841 140.371  42
   1   7  10-47.0092 186.196  50
  -1  -7 -11 548.910 205.751  56
   1   7  11 464.252 184.661  50
   1   7  11 581.830 128.215  42
   1   7  12 39.9546 154.223  50
  -1  -7 -12 20.0949 161.293  56
   1   7  12-56.4270 103.724  42
  -1  -8  10 250.077 111.264  45
  -1  -8   9 605.468 144.442  52
  -1  -8   9 739.402 152.462  45
   1   8  -9 677.421 122.600  55
   1   8  -8 604.800 148.082  55
  -1  -8   8 560.809 187.257  45
  -1  -8   7 630.539 207.754  45
   1   8  -7 632.680 175.770  43
   1   8  -7 582.761 155.960  55
   1   8  -6 414.707 175.778  43
   1   8  -5 1990.40 220.169  43
  -1  -8   5 1775.78 241.210  30
  -1  -8   5 1854.95 248.821  33
  -1  -8   4 65.2595 199.791  19
  -1  -8   4-71.6912 190.877  30
   1   8  -4 17.4808 178.247  43
  -1  -8   3 153.844 185.759  19
   1   8  -3 174.299 190.975  11
  -1  -8   3 157.322 207.355  30
   1   8  -3 169.953 175.140  43
  -1  -8   2 105.256 186.096  20
   1   8  -2 215.336 169.787  11
   1   8  -2 65.5012 161.952  53
  -1  -8   2 5.57806 189.237  19
  -1  -8   2 166.837 203.686  30
   1   8  -2 143.456 167.298  43
  -1  -8   1 282.063 167.753  20
  -1  -8   1 206.694 190.623  30
   1   8  -1 265.625 180.343  11
  -1  -8   0-11.6657 170.850  30
  -1  -8   0 81.1069 172.999  20
   1   8   0 52.4263 171.274  11
  -1  -8   0 158.398 181.922  21
   1   8   1 198.391 162.607  11
  -1  -8  -1-29.7040 168.640  30
  -1  -8  -1 13.2695 156.262  20
   1   8   1 69.7593 139.747  34
  -1  -8  -1 36.1414 172.643  21
   1   8   2 2159.01 237.385  11
   1   8   2 2319.88 186.944  34
  -1  -8  -2 2034.29 257.298  21
  -1  -8  -3 1508.56 172.071  28
  -1  -8  -3 1378.14 242.824  21
   1   8   3 1349.59 203.330  11
  -1  -8  -3 1382.17 278.093  16
   1   8   3 1731.21 179.046  34
   1   8   4 4715.42 296.141  11
  -1  -8  -4 4586.60 346.625   8
  -1  -8  -4 4609.93 243.591  28
   1   8   4 4887.61 247.916  53
   1   8   4 4459.79 247.440  41
  -1  -8  -4 4089.88 385.596  16
   1   8   4 4810.01 244.985  34
  -1  -8  -4 4514.06 349.041  21
  -1  -8  -5 2107.83 272.791   8
   1   8   5 2135.91 240.560  50
  -1  -8  -5 2062.88 326.122  16
   1   8   5 2227.70 203.657  41
  -1  -8  -5 1960.02 208.272  25
   1   8   5 2133.06 197.723  34
  -1  -8  -6 72.2593 127.314  25
   1   8   6 33.6062 140.613  34
  -1  -8  -6 41.9032 221.313  16
   1   8   6 16.0090 211.603  50
   1   8   6 7.68069 158.948  41
  -1  -8  -6-67.0115 189.439   8
   1   8   7 290.893 152.665  34
   1   8   7 283.918 183.214  50
  -1  -8  -7 196.227 143.211  24
   1   8   7 253.549 166.057  41
  -1  -8  -7 213.692 146.246  25
   1   8   8 323.950 167.744  41
   1   8   8 366.056 207.413  50
   1   8   9 1.42899 191.482  50
   1   8   9 35.8111 154.685  41
  -1  -8 -10 255.050 183.083  56
   1   8  10 242.657 171.859  50
   1   8  10 287.804 139.422  41
   1   8  11 394.656 147.247  50
  -1  -8 -11 289.420 155.623  56
  -1  -9   9 478.615 110.576  45
   1   9  -9 334.679 92.8673  55
  -1  -9   8 1116.23 155.207  45
   1   9  -8 911.686 130.424  55
  -1  -9   7 470.443 173.406  45
   1   9  -7 389.298 128.611  55
   1   9  -6 315.537 164.942  43
   1   9  -6 370.955 146.206  55
   1   9  -5 207.691 160.897  43
   1   9  -4-60.1323 163.517  43
   1   9  -3 480.244 158.602  53
  -1  -9   3 301.514 206.863  30
   1   9  -3 275.951 181.008  43
  -1  -9   2 462.161 206.872  19
   1   9  -2 209.600 167.465  43
   1   9  -2 394.346 163.048  53
  -1  -9   2 394.388 193.865  30
  -1  -9   2 208.776 215.001  20
  -1  -9   1-33.2449 184.419  19
   1   9  -1 45.2882 166.649  53
  -1  -9   1-2.48553 175.864  20
  -1  -9   1-88.2976 174.281  30
   1   9  -1 123.845 180.947  11
   1   9  -1 16.0345 154.120  43
   1   9   0 265.754 170.702  53
  -1  -9   0 207.060 174.716  20
   1   9   0 116.882 173.433  11
  -1  -9   0 241.934 168.549  30
   1   9   0 350.501 165.405  43
   1   9   1 240.268 188.982  11
  -1  -9  -1 327.072 205.531  21
   1   9   1 222.832 159.826  53
  -1  -9  -1 324.745 193.496  20
   1   9   2 179.923 161.037  41
   1   9   2 171.399 145.686  34
   1   9   2-7.96432 174.322  11
  -1  -9  -2 168.326 169.775  20
   1   9   2 178.038 158.861  53
  -1  -9  -2 169.266 126.232  28
  -1  -9  -2 138.981 194.822  21
   1   9   3 1382.78 172.585  34
  -1  -9  -3 1510.08 174.991  28
  -1  -9  -3 1221.95 252.880  21
   1   9   3 1674.05 184.231  53
   1   9   3 1450.07 196.130  41
  -1  -9  -3 1187.22 241.988   8
   1   9   3 1260.90 218.766  11
  -1  -9  -4 6598.02 420.254  21
   1   9   4 6930.66 276.885  53
  -1  -9  -4 6761.81 332.958  25
   1   9   4 7284.82 290.346  41
   1   9   5 809.379 172.877  34
   1   9   5 769.692 166.732  53
   1   9   5 763.421 176.228  41
  -1  -9  -5 808.119 171.379  25
   1   9   6 404.715 167.007  41
   1   9   7 44.2184 165.310  41
   1   9   8 115.260 152.583  41
   1   9   9 50.6252 137.972  41
   1   9  10 262.428 121.861  41
   1  10  -7 16.6822 98.8385  55
  -1 -10   7-107.374 136.100  45
   1  10  -6-0.76285 116.496  55
  -1 -10   6-57.1333 160.340  45
   1  10  -5 119.911 124.504  55
   1  10  -4 1119.64 184.964  43
   1  10  -4 1162.50 147.326  55
   1  10  -3 668.977 167.906  43
   1  10  -3 590.747 151.439  53
   1  10  -2 357.154 165.025  43
   1  10  -2 311.561 162.757  53
   1  10  -1 539.953 163.260  43
   1  10  -1 626.670 173.810  53
   1  10   0-103.858 157.130  53
   1  10   0 21.1014 143.460  43
   1  10   1 63.3333 157.059  53
   1  10   2-113.061 157.291  53
   1  10   2 74.7472 153.876  41
   1  10   3 376.208 159.996  53
   1  10   3 424.295 156.779  41
   1  10   4 3127.11 220.744  41
   1  10   4 2927.27 207.749  53
   1  10   5 100.759 138.843  53
   1  10   5-44.4258 151.375  41
   1  10   6 19.0955 148.353  41
   1  10   7 184.420 149.305  41
   1  10   8 69.3330 130.376  41
   1  10   9 40.7374 116.721  41
  -1 -11   5 64.3304 139.469  45
   1  11  -5 49.6183 90.5377  55
   1  11  -4 58.7496 97.9523  55
   1  11  -3 545.234 115.827  55
   1  11  -2-45.6236 130.996  53
   1  11  -1 427.005 147.954  53
   1  11   0 223.149 144.291  53
   1  11   1-31.6213 141.916  53
   1  11   2 1037.90 165.845  53
   1  11   3 54.2789 129.909  41
   1  11   3 53.8722 139.784  53
   1  11   4 194.583 131.569  53
   1  11   4 153.169 135.955  41
   1  11   5 801.705 133.088  53
   1  11   5 878.343 146.260  41
   1  11   6 1616.23 158.681  41
   1  11   7 32.4560 121.610  41
   1  11   8 82.4201 99.5356  41
   1  12  -1-56.5482 105.381  53
   1  12   0 71.5671 111.688  53
   1  12   1 1113.18 134.459  53
   1  12   2 41.9905 111.364  53
   1  12   3 113.549 110.114  53
   1  12   4 53.6038 96.1544  41
   1  12   4 144.935 102.652  53
   1  12   5 133.689 90.5934  41
  -2  12   3-46.5890 90.9332  53
  -2  12   2 143.911 92.1997  53
  -2  12   1 241.827 102.606  53
  -2  12   0 220.107 100.149  53
  -2  11   5 1147.75 131.871  53
  -2  11   5 1232.11 138.776  41
  -2  11   4 92.0427 115.755  53
  -2  11   4 93.7694 125.769  41
  -2  11   3 291.434 128.766  53
  -2  11   2 195.347 129.462  53
  -2  11   1 483.255 144.804  53
  -2  11   0 170.471 138.540  53
  -2  11  -1 21.0781 129.207  53
  -2  11  -1-104.885 113.797  44
  -2  11  -2 11.2949 122.261  53
  -2  11  -2-0.28017 110.514  44
  -2  11  -3 149.255 107.434  44
  -2  11  -4 52.4945 96.3776  44
  -2  11  -5-17.3578 74.5994  44
  -2  10   8 2983.26 170.988  41
  -2  10   7 3963.61 203.111  41
  -2  10   6 2648.84 196.362  41
  -2  10   5 691.743 150.450  53
  -2  10   5 848.668 161.867  41
  -2  10   4 378.665 153.802  41
  -2  10   4 290.230 144.042  53
  -2  10   3 528.784 161.757  41
  -2  10   3 399.006 156.270  53
  -2  10   2 1289.10 176.611  41
  -2  10   2 1120.15 180.179  53
  -2  10   1 161.384 154.345  53
  -2  10   1 37.3093 135.878  44
  -2  10   0 6448.13 269.857  53
  -2  10   0 6072.61 266.828  44
  -2  10   0 6693.49 265.223  40
  -2  10  -1 2525.54 200.126  44
  -2  10  -1 2461.49 193.094  40
  -2  10  -1 2587.95 211.146  53
  -2  10  -2 429.430 138.155  40
  -2  10  -2 593.632 157.326  53
  -2  10  -2 513.144 137.447  44
  -2  10  -3 16.3246 122.767  44
  -2  10  -3-27.2587 121.795  40
  -2  10  -3-75.5239 136.517  53
  -2  10  -4 480.913 138.234  44
  -2  10  -4 667.522 128.289  55
  -2  10  -5 247.263 123.984  44
  -2  10  -6 2725.68 172.838  44
   2 -10   7 1450.47 137.538  52
  -2  10  -7 371.757 111.957  44
  -2   9  10 82.1607 100.337  42
  -2   9   9 123.600 113.927  42
  -2   9   9 140.718 128.671  41
  -2   9   8 1673.05 160.426  42
  -2   9   8 1588.50 181.107  41
  -2   9   7 2.95584 149.368  41
  -2   9   7 42.2767 131.605  42
  -2   9   6 5844.67 245.308  42
  -2   9   6 5587.62 265.160  41
  -2   9   5 1068.17 185.092  41
  -2   9   5 1022.24 176.564  53
  -2   9   5 1090.32 180.893  42
  -2   9   4 1603.24 182.785  53
  -2   9   4 1467.81 191.918  41
  -2   9   3 828.762 184.245  41
  -2   9   3 749.208 163.540  53
  -2   9   2 700.700 158.706  40
  -2   9   2 680.877 171.767  53
  -2   9   2 532.732 161.754  44
  -2   9   2 644.217 174.333  41
  -2   9   1 344.381 154.344  53
  -2   9   1 257.174 143.863  40
  -2   9   1 202.321 152.469  44
   2  -9  -1 240.937 203.414  19
  -2   9   0-2.37151 163.974  53
  -2   9   0 176.760 141.507  44
  -2   9   0 88.8188 133.452  40
   2  -9   0 64.3608 226.187  30
   2  -9   1 943.422 284.092  30
  -2   9  -1 898.863 160.246  44
  -2   9  -1 981.450 160.441  40
  -2   9  -1 753.037 173.176  53
  -2   9  -2 368.238 165.515  53
   2  -9   2 142.845 258.376  30
  -2   9  -2 204.409 133.685  40
  -2   9  -2 335.319 152.235  44
  -2   9  -3 781.773 163.903  53
  -2   9  -3 535.090 151.610  44
  -2   9  -3 726.944 152.436  55
  -2   9  -3 715.822 149.021  40
  -2   9  -4 340.278 147.174  55
  -2   9  -5 2985.47 194.837  55
  -2   9  -6 573.090 138.934  55
  -2   9  -7 1450.26 163.044  44
   2  -9   8 286.708 130.365  52
  -2   9  -8-14.6851 108.367  44
  -2   8  11 186.620 115.844  42
  -2   8  10-79.1049 128.351  42
  -2   8   9-106.806 131.119  42
  -2   8   9-8.88889 151.137  41
  -2   8   8 1547.83 179.059  42
  -2   8   8 1271.18 185.557  41
  -2   8   7 18870.7 422.295  41
  -2   8   7 19409.5 409.666  42
  -2   8   6 2857.31 221.982  41
  -2   8   6 3301.14 221.324  34
   2  -8  -6 2627.20 232.748  24
  -2   8   6 3076.63 218.642  42
  -2   8   5 1980.43 188.708  34
  -2   8   5 1802.03 188.853  42
  -2   8   5 1905.63 197.328  53
   2  -8  -5 1639.99 269.122  16
  -2   8   5 1806.42 201.902  41
  -2   8   4-15.5112 145.907  34
  -2   8   4-36.9906 156.802  53
  -2   8   4 37.2368 154.302  42
  -2   8   4 84.5915 164.382  41
   2  -8  -4-18.6581 198.139  16
  -2   8   3 219.093 175.325  61
  -2   8   3 60.8495 170.990  42
  -2   8   3 178.470 172.417  41
  -2   8   3 183.487 144.274  40
  -2   8   3 148.712 146.206  53
  -2   8   2 457.078 149.725  40
  -2   8   2 339.550 160.816  44
  -2   8   2 363.724 171.671  41
  -2   8   2 396.894 170.684  53
  -2   8   2 333.861 183.244  61
  -2   8   1 1095.58 207.519  61
   2  -8  -1 898.627 187.393  20
  -2   8   1 788.578 159.843  40
  -2   8   1 1235.74 185.316  53
  -2   8   1 1209.89 196.449  44
  -2   8   1 1071.78 202.113  41
  -2   8   0-68.9903 164.017  14
   2  -8   0 54.2349 142.397  20
  -2   8   0 20.8342 167.711  53
  -2   8   0-78.1722 151.208  44
   2  -8   0 47.3136 178.703  19
  -2   8   0 22.1558 139.166  40
  -2   8  -1 544.022 157.445  44
  -2   8  -1 496.582 184.787  53
  -2   8  -1 570.911 185.137  14
  -2   8  -1 483.965 149.748  40
   2  -8   1 653.118 220.471  19
   2  -8   2 1639.97 452.894  33
  -2   8  -2 1659.93 174.444  40
  -2   8  -2 1912.44 192.980  53
   2  -8   2 1893.98 276.176  19
  -2   8  -3 587.624 158.646  55
   2  -8   3 764.578 358.911  33
   2  -8   3 712.853 221.868  19
  -2   8  -3 611.536 202.516  18
  -2   8  -3 748.071 156.942  53
  -2   8  -3 478.837 144.117  40
   2  -8   4 508.869 318.995  33
  -2   8  -4 685.686 161.659  55
  -2   8  -4 894.403 220.412  18
   2  -8   5 1695.24 325.723  33
   2  -8   5 1608.79 304.269  30
  -2   8  -5 1915.59 183.175  55
  -2   8  -6 198.711 137.929  55
  -2   8  -6 253.894 140.319  59
  -2   8  -7 752.937 156.117  59
  -2   8  -7 694.497 147.660  55
  -2   8  -8 274.503 135.866  59
   2  -8   9-2.09048 140.939  52
  -2   8  -9-45.5132 118.151  59
   2  -8  10 121.347 97.3708  52
   2  -8  10-9.80821 96.3667  46
  -2   7  12 66.7542 109.273  42
  -2   7  11 156.341 121.618  42
  -2   7  10 311.664 148.387  42
  -2   7   9 1097.90 172.823  42
  -2   7   9 1180.21 184.176  41
  -2   7   8 39.4463 142.927  49
  -2   7   8 154.561 149.946  34
  -2   7   8 58.9159 146.524  42
  -2   7   8 110.211 157.496  41
   2  -7  -8 51.7941 137.100  24
   2  -7  -7 3793.65 431.169  22
  -2   7   7 4414.89 245.921  34
  -2   7   7 4269.24 249.989  41
   2  -7  -7 4309.75 268.205  24
  -2   7   7 4203.69 229.466  42
   2  -7  -7 4361.27 368.256   7
  -2   7   6 119.931 144.450  34
   2  -7  -6-100.080 319.703  22
  -2   7   6-64.9733 162.841  42
  -2   7   6-15.7269 171.615  41
   2  -7  -6 4.95489 123.347  24
  -2   7   5 3630.14 218.841  34
  -2   7   5 3636.26 242.954  41
  -2   7   4 3201.94 207.064  34
   2  -7  -4 2964.17 377.827  22
   2  -7  -4 3509.74 280.171   8
  -2   7   3 138.484 156.152  14
  -2   7   3 284.362 137.319  34
  -2   7   2 1431.99 213.315  14
  -2   7   1 3157.94 257.425  14
  -2   7   0 970.253 182.074  14
   2  -7   0 1195.94 178.913  20
   2  -7   1 397.617 156.122  20
   2  -7   1 425.151 176.475  19
   2  -7   1 294.717 286.687  33
  -2   7  -1 535.179 203.462  18
  -2   7  -1 512.126 169.350  14
   2  -7   2 200.905 186.649  19
   2  -7   2 28.6518 140.379  20
   2  -7   2 183.104 330.409  33
  -2   7  -2 161.802 201.753  18
  -2   7  -2 72.1446 133.630  14
   2  -7   3 667.692 401.583  33
   2  -7   3 574.742 214.123  19
  -2   7  -3 431.961 216.820  18
   2  -7   4 12501.5 551.025  19
  -2   7  -4 12456.8 464.977  18
   2  -7   4 12500.3 677.154  33
  -2   7  -4 13000.5 341.974  55
  -2   7  -4 13239.5 350.115  40
  -2   7  -5 7537.16 275.501  55
   2  -7   5 6565.24 504.546  33
  -2   7  -5 7708.46 273.519  59
  -2   7  -5 7494.47 372.399  18
   2  -7   6 22303.8 713.915  33
  -2   7  -6 23040.3 424.953  59
  -2   7  -6 21579.8 428.353  55
  -2   7  -7 1275.24 167.330  55
  -2   7  -7 1211.08 184.027  59
  -2   7  -8-23.4324 138.236  55
  -2   7  -8 67.3551 157.906  59
   2  -7   9 75.6088 154.404  52
  -2   7  -9 84.7499 138.450  59
  -2   7 -10 241.031 129.083  59
   2  -7  10 364.095 142.113  52
  -2   7 -11 525.221 104.244  59
   2  -7  11 552.000 108.405  52
   2  -7  11 296.326 102.745  46
  -2   6  13 815.241 108.403  42
  -2   6  12 16.8927 120.256  42
  -2   6  11 21.6553 143.524  42
  -2   6  10-21.6258 130.475  42
  -2   6  10 107.187 142.005  49
   2  -6  -9 18467.4 489.996  24
  -2   6   9 17117.7 395.967  49
  -2   6   9 17014.8 389.682  42
  -2   6   9 18733.6 424.349  34
  -2   6   8 7367.05 289.472  34
  -2   6   8 6983.08 278.453  49
   2  -6  -8 6715.06 440.145   7
  -2   6   8 6476.77 270.133  42
  -2   6   8 6594.61 284.244  41
   2  -6  -8 6115.04 500.609  22
   2  -6  -8 6878.84 321.288  24
  -2   6   7 8915.13 301.222  49
   2  -6  -7 8239.70 457.952   7
  -2   6   7 8709.09 295.776  42
  -2   6   7 8813.74 316.021  34
  -2   6   7 8968.23 312.413  41
   2  -6  -7 8626.12 335.587  24
  -2   6   6 217.996 155.681  34
   2  -6  -6 223.811 122.165  24
  -2   6   5 700.654 153.207  34
  -2   6   4 623.363 162.627  14
  -2   6   4 639.764 146.488  34
   2  -6  -4 750.723 156.262   8
  -2   6   3 181.295 125.079  34
  -2   6   3 298.615 139.949  14
  -2   6   2 124.610 110.105  34
  -2   6   2 125.022 138.229  14
  -2   6   1 3570.07 244.554  14
  -2   6   0 1562.14 189.669  14
  -2   6   0 1450.73 212.369  18
   2  -6   1 1499.60 178.524  20
   2  -6   1 1587.87 265.736  12
  -2   6  -1 1514.95 187.911  14
  -2   6  -1 1335.25 201.533  18
   2  -6   2 1268.33 180.706  20
   2  -6   2 1018.25 192.000  19
  -2   6  -2 909.691 185.596  18
  -2   6  -2 1119.45 164.936  14
   2  -6   2 1042.43 329.805  12
   2  -6   3 8970.80 519.298  33
  -2   6  -3 9459.34 378.462  18
   2  -6   3 10680.1 482.219  31
   2  -6   3 10286.9 451.408  19
   2  -6   4 117.861 179.308  19
   2  -6   4 206.000 301.649  31
  -2   6  -4 94.3636 182.918  18
   2  -6   4 127.812 317.537  33
   2  -6   5 1606.90 373.553  33
  -2   6  -5 1928.19 250.752  18
   2  -6   5 1578.45 361.033  31
  -2   6  -6 22556.1 437.552  55
  -2   6  -6 21942.4 416.705  59
  -2   6  -6 22082.9 582.716  18
   2  -6   7 2826.63 321.431  33
  -2   6  -7 3111.62 271.150  18
  -2   6  -7 3072.91 216.777  55
  -2   6  -7 2740.69 207.841  59
   2  -6   8 580.973 209.274  33
  -2   6  -8 541.227 169.286  59
  -2   6  -8 731.763 162.527  55
   2  -6   9 20.6944 187.850  52
  -2   6  -9 29.7356 159.753  59
  -2   6  -9 129.692 142.078  55
   2  -6  10-74.6915 161.187  52
  -2   6 -10 55.5272 141.769  59
  -2   6 -11 769.300 136.306  59
   2  -6  11 706.651 137.751  52
   2  -6  11 649.449 141.298  46
  -2   5  13 57.0105 112.134  42
   2  -5 -13-26.6551 133.342  38
  -2   5  12 98.2019 131.237  49
  -2   5  12 141.162 141.781  42
   2  -5 -12 255.111 167.497  38
  -2   5  11-76.7931 148.954  45
  -2   5  11-68.2251 148.156  49
  -2   5  10 1471.45 181.793  49
  -2   5  10 1318.11 194.938  45
  -2   5  10 1709.22 190.314  34
   2  -5 -10 1531.28 215.170  27
   2  -5 -10 1777.37 200.564  24
  -2   5   9 1034.54 181.278  45
  -2   5   9 954.036 169.271  49
  -2   5   9 1010.04 171.562  34
   2  -5  -9 586.893 307.194  22
   2  -5  -9 685.989 159.786  24
   2  -5  -9 977.420 231.550   7
   2  -5  -9 832.347 244.314  13
  -2   5   8 6595.09 284.284  34
  -2   5   8 6818.23 277.564  49
  -2   5   8 6211.82 279.378  45
   2  -5  -8 6168.38 292.769  24
   2  -5  -8 5658.09 379.913   7
  -2   5   7 309.610 151.249  34
   2  -5  -7 363.556 123.494  24
   2  -5  -7 335.099 173.946   7
  -2   5   6 1194.71 169.111  34
   2  -5  -6 1087.60 140.230  24
  -2   5   5 967.386 152.873  34
  -2   5   4 1940.01 157.717  34
  -2   5   4 1882.80 189.641  14
   2  -5  -4 2039.97 181.383   8
  -2   5   3 120.988 122.291  34
  -2   5   3 58.0312 130.677  14
  -2   5   2 8509.92 225.999  34
  -2   5   2 8610.16 312.947  14
  -2   5   1 60856.6 789.049  11
  -2   5   1 59525.4 758.378  14
  -2   5   0 13729.6 368.547  18
  -2   5   0 13760.4 381.156  14
  -2   5   0 14257.6 401.744  11
   2  -5   1 10599.4 387.458  12
   2  -5   1 10611.5 328.952  20
  -2   5  -1 10438.5 334.243  14
  -2   5  -1 10441.5 331.839  18
   2  -5   2 869.491 144.336  20
   2  -5   2 943.282 155.002  31
   2  -5   2 905.009 167.440  19
   2  -5   2 1063.05 227.292  12
  -2   5  -2 808.524 181.295  18
  -2   5  -2 930.460 151.715  14
   2  -5   3 742.497 169.050  19
  -2   5  -3 632.178 170.003  18
   2  -5   3 813.867 287.199  12
   2  -5   3 675.797 198.479  31
  -2   5  -3 781.950 140.558  14
   2  -5   4 6370.22 421.868  33
   2  -5   4 6915.77 369.687  19
   2  -5   4 6753.30 385.623  31
  -2   5  -4 6895.72 314.669  18
  -2   5  -5 1228.37 206.809  18
   2  -5   5 1135.32 308.713  33
   2  -5   5 1018.34 285.948  31
   2  -5   6 5880.74 429.442  33
  -2   5  -6 6757.26 353.761  18
  -2   5  -7 23982.2 458.575  55
   2  -5   7 22468.2 648.602  33
  -2   5  -7 23864.9 444.432  59
  -2   5  -7 23938.5 596.828  18
  -2   5  -8 9513.93 316.644  59
   2  -5   8 10063.8 443.147  33
  -2   5  -8 10179.6 321.939  55
  -2   5  -8 9749.74 428.993  18
   2  -5   9 225.413 188.209  33
  -2   5  -9 369.601 152.344  55
   2  -5   9 370.781 186.768  52
  -2   5  -9 552.128 170.303  59
   2  -5  10 61.2580 161.835  52
  -2   5 -10 32.4166 153.291  59
   2  -5  11 1533.15 183.478  52
  -2   5 -11 1869.13 172.538  59
   2  -5  12 172.631 125.115  46
  -2   5 -12 360.984 126.335  59
  -2   4  14 55.6823 88.6247  42
   2  -4 -14 111.078 101.702  38
  -2   4  13-23.9398 120.923  45
  -2   4  13 133.760 116.163  42
   2  -4 -13 50.8883 144.435  38
   2  -4 -12 26.0942 182.836  38
  -2   4  12 86.1010 142.277  45
  -2   4  12 68.1064 137.981  49
  -2   4  11 87.0921 154.516  45
  -2   4  11-25.2477 154.381  49
   2  -4 -10 1069.33 191.271  27
  -2   4  10 1184.84 173.269  34
   2  -4 -10 720.283 313.872  22
  -2   4  10 1061.38 178.702  49
  -2   4  10 972.071 189.837  45
   2  -4 -10 879.638 166.893  24
   2  -4  -9 10472.2 369.247  24
   2  -4  -9 9972.75 563.784  22
   2  -4  -9 9485.67 472.135   7
  -2   4   9 9273.01 334.072  45
   2  -4  -9 10303.1 519.637  13
  -2   4   9 10390.2 326.626  49
  -2   4   9 11364.4 344.118  34
   2  -4  -8 3265.51 304.092   7
  -2   4   8 3081.47 226.838  34
   2  -4  -8 3110.44 221.718  24
   2  -4  -7-22.0073 158.432   7
  -2   4   7 27.0380 127.092   5
  -2   4   7 85.9977 147.145  34
   2  -4  -7-1.76658 110.162  24
  -2   4   6 441.604 148.838  34
   2  -4  -6 421.785 113.167  24
   2  -4  -6 403.206 150.260   7
  -2   4   5 4117.35 208.482  34
   2  -4  -5 4299.50 187.797  24
  -2   4   5 4367.19 223.172  14
  -2   4   4 4002.33 181.817  34
   2  -4  -4 4245.24 207.624   8
  -2   4   4 3979.27 210.992  14
  -2   4   3 4485.25 185.959  34
  -2   4   3 4676.97 217.159  14
  -2   4   2 687.555 121.402  34
   2  -4  -2 759.687 200.441   2
  -2   4   2 811.453 141.929  14
   2  -4  -1 27416.8 771.992   4
  -2   4   1 26884.2 465.057  14
   2  -4   0 6573.07 403.092   4
  -2   4   0 5945.80 241.131  14
  -2   4   0 6223.64 240.152  18
  -2   4  -1 2392.79 175.793  14
   2  -4   1 2450.88 163.631   6
  -2   4  -1 2326.57 187.533  18
   2  -4   1 2509.33 155.267  20
   2  -4   2 7762.11 266.115   6
  -2   4  -2 7527.32 272.022  18
   2  -4   2 7678.76 318.090  12
   2  -4   2 7856.33 270.373  20
   2  -4   2 7593.96 295.206  19
  -2   4  -2 7784.71 269.320  14
   2  -4   3 832.762 167.844  19
   2  -4   3 754.240 153.636  31
  -2   4  -3 1006.27 135.618  14
  -2   4  -3 961.975 168.433  18
   2  -4   3 1085.63 223.606  12
   2  -4   3 731.359 174.478   6
   2  -4   4 68.1289 149.539  19
   2  -4   4-0.58805 189.102  31
  -2   4  -4 76.9039 155.952  18
   2  -4   4 62.1881 247.817  12
   2  -4   5 11935.7 459.201  31
   2  -4   5 11075.1 459.553  33
  -2   4  -5 12008.1 381.768  18
  -2   4  -6 27372.7 580.705  18
   2  -4   6 26845.8 686.850  31
   2  -4   6 25629.4 682.617  33
  -2   4  -7 1380.53 237.761  18
   2  -4   7 1442.15 271.726  33
   2  -4   8 1084.10 237.160  33
  -2   4  -8 1010.33 185.496  59
  -2   4  -8 982.435 245.541  18
  -2   4  -8 1265.45 201.103  55
  -2   4  -8 1295.37 190.693  38
  -2   4  -9 1598.58 206.826  38
  -2   4  -9 1355.93 189.940  59
   2  -4   9 1486.28 224.226  33
  -2   4  -9 1183.21 174.545  55
   2  -4   9 1363.70 205.521  52
  -2   4  -9 1344.48 236.728  18
   2  -4  10 100.822 166.467  52
  -2   4 -10-3.06982 161.261  38
  -2   4 -10 160.064 154.379  59
  -2   4 -11 2076.26 186.153  59
  -2   4 -11 2275.69 197.744  38
   2  -4  11 2022.50 205.174  52
  -2   4 -12 209.082 132.547  59
  -2   4 -12 189.541 118.868  38
   2  -4  12 212.489 135.303  46
   2  -4  13 61.6591 91.6170  46
  -2   4 -13 104.271 94.4484  59
  -2   3  14 1685.86 122.177  42
   2  -3 -14 1858.78 146.735  38
  -2   3  13 177.492 148.044  45
  -2   3  13 296.598 126.165  49
   2  -3 -13 565.988 156.712  38
  -2   3  12 265.363 153.179  45
  -2   3  12 257.329 147.439  49
   2  -3 -12 281.278 190.082  38
  -2   3  11 49.0390 159.475  45
  -2   3  11 142.132 151.027  49
   2  -3 -11 97.8729 148.168  27
   2  -3 -10 58.2165 194.442  13
   2  -3 -10-44.1650 150.157  27
  -2   3  10 12.6218 157.666   5
  -2   3  10 126.720 156.848  49
  -2   3  10-48.2703 173.794  45
  -2   3  10 90.2252 146.083  34
   2  -3 -10-4.65269 116.060  24
   2  -3  -9 1745.04 287.032  13
  -2   3   9 2084.64 201.193  49
   2  -3  -9 1929.76 334.131  22
  -2   3   9 2342.17 238.207   5
   2  -3  -9 2151.75 204.977  24
  -2   3   9 1630.07 219.032  45
  -2   3   9 2029.13 211.670  34
   2  -3  -9 2043.91 222.765  27
   2  -3  -8 5477.01 372.693  13
   2  -3  -8 4782.90 341.908   7
  -2   3   8 5417.37 292.934   5
   2  -3  -8 5223.89 261.059  24
  -2   3   8 5698.59 255.241  34
   2  -3  -7 5007.91 236.175  24
  -2   3   7 5312.46 238.953  34
  -2   3   7 5455.52 272.059   5
   2  -3  -7 5280.08 334.314   7
   2  -3  -6 14013.7 478.771   7
  -2   3   6 13791.0 323.288  34
   2  -3  -6 14429.5 334.737  24
  -2   3   5 1799.83 156.198   5
  -2   3   5 1927.12 147.180  14
   2  -3  -5 1915.94 133.019  24
  -2   3   5 1665.87 154.282  34
   2  -3  -5 1840.88 197.644   7
  -2   3   4 47.2922 83.4518   5
   2  -3  -4 43.3064 82.2078   8
  -2   3   4 60.3473 121.463  34
  -2   3   4 50.6184 96.6642  14
  -2   3   3 28490.1 360.590   5
  -2   3   3 26021.7 340.635  34
   2  -3  -3 27238.2 616.985   1
  -2   3   3 27794.7 424.226  14
   2  -3  -3 29498.5 834.359   3
   2  -3  -2 38130.7 895.681   4
   2  -3  -2 38436.1 629.981   1
  -2   3   2 37747.0 364.412  34
   2  -3  -2 37044.4 895.174   3
   2  -3  -2 37134.8 729.032   2
  -2   3   2 37189.8 485.100  14
  -2   3   2 38519.5 368.233   5
   2  -3  -1 13663.8 375.576   0
   2  -3  -1 13261.4 515.397   4
   2  -3  -1 12993.3 462.067   2
  -2   3   1 13335.0 302.791  14
   2  -3  -1 13892.0 549.216   3
  -2   3   0 568.150 119.538  14
   2  -3   0 663.705 171.129   4
  -2   3   0 595.035 128.070  18
  -2   3   0 435.633 128.171   1
   2  -3   0 730.831 153.822   0
   2  -3   0 447.149 199.435   3
   2  -3   1 1168.81 104.722  20
  -2   3  -1 1052.49 178.046   1
  -2   3  -1 987.323 130.943  14
  -2   3  -1 1150.71 146.358  18
  -2   3  -1 1015.19 200.957   2
   2  -3   1 1390.39 239.149   3
   2  -3   2 253.725 90.3733  20
  -2   3  -2 331.483 132.666  18
   2  -3   2 381.630 203.549   3
   2  -3   2 325.430 128.714   6
   2  -3   2 353.387 94.0096  32
   2  -3   2 363.632 114.927  19
   2  -3   2 407.095 150.740  12
  -2   3  -2 261.812 154.773   0
  -2   3  -2 366.849 115.873  14
   2  -3   3 5732.40 258.635   6
  -2   3  -3 5188.99 227.775  18
   2  -3   3 5631.26 189.564  32
   2  -3   3 5534.30 215.905  31
   2  -3   3 5661.39 288.852  12
   2  -3   3 5602.37 259.832  19
   2  -3   3 4743.54 387.248   3
  -2   3  -3 5594.03 216.455  14
   2  -3   4 1157.53 159.300  32
  -2   3  -4 963.791 169.188  18
   2  -3   4 1064.65 258.164  12
   2  -3   4 870.201 177.465  31
  -2   3  -4 1003.84 127.614  14
  -2   3  -5 27086.6 507.242  18
   2  -3   5 28933.8 610.884  33
   2  -3   5 27910.9 598.163  31
  -2   3  -5 29054.7 422.361  24
   2  -3   6 5327.46 338.618  33
   2  -3   6 5543.96 356.546  31
  -2   3  -6 5317.81 211.705  24
   2  -3   7 2351.55 281.376  33
  -2   3  -7 2415.37 175.061  24
  -2   3  -8 1525.17 242.108  18
   2  -3   8 1344.56 239.877  33
  -2   3  -8 1464.71 162.697  24
  -2   3  -9 39.8493 191.806  18
   2  -3   9-18.3255 180.294  52
  -2   3  -9-41.4539 168.839  59
   2  -3   9-32.7465 170.115  33
  -2   3  -9-48.3161 113.179  24
  -2   3  -9 69.4071 164.651  38
  -2   3 -10 191.840 167.212  59
   2  -3  10 150.239 172.524  52
  -2   3 -10 42.6248 172.159  38
  -2   3 -11 181.212 157.258  59
  -2   3 -11 191.422 167.508  38
   2  -3  11 282.215 168.007  52
   2  -3  11 36.0142 166.105  46
  -2   3 -12 4188.08 203.159  59
  -2   3 -12 4318.98 223.816  38
   2  -3  12 3811.38 221.712  46
  -2   3 -13 700.408 123.571  59
  -2   3 -13 698.657 127.675  38
   2  -3  13 474.129 123.845  46
   2  -2 -14 24.7348 123.296  38
  -2   2  14 53.3160 110.397  45
  -2   2  14 63.2945 98.3629  42
  -2   2  13 145.384 121.094  49
   2  -2 -13 418.362 124.254  48
  -2   2  13 382.088 144.200  45
   2  -2 -13 278.635 163.926  38
  -2   2  12 148.834 163.958  45
  -2   2  12 216.691 141.222  49
   2  -2 -12 86.0889 156.733  48
   2  -2 -12 65.5184 197.760  38
  -2   2  11 163.613 171.958  45
  -2   2  11 78.9950 148.815  49
   2  -2 -11 61.0339 164.357  48
   2  -2 -11 119.299 130.819  24
  -2   2  10-21.4461 157.421  49
   2  -2 -10 149.425 145.920  27
  -2   2  10 63.6960 179.233  45
  -2   2  10-51.6267 157.650   5
   2  -2 -10 56.6717 123.001  24
  -2   2   9 7130.72 286.341  34
   2  -2  -9 6161.75 388.138  13
   2  -2  -9 6297.49 300.084  27
   2  -2  -9 6776.01 299.129  24
  -2   2   9 6380.95 341.173   5
  -2   2   8 4284.82 273.502   5
   2  -2  -8 4867.01 344.131  13
   2  -2  -8 4744.70 247.579  24
   2  -2  -8 4873.49 264.383  27
  -2   2   8 4943.95 249.124  34
   2  -2  -7 13129.4 477.890  13
   2  -2  -7 12373.2 341.163  24
   2  -2  -7 11631.9 454.957   7
  -2   2   7 12014.8 381.509   5
  -2   2   7 12382.5 326.642  34
  -2   2   6 1319.61 155.555  34
   2  -2  -6 1255.09 133.379  24
   2  -2  -6 1263.99 188.951   7
  -2   2   6 1249.31 152.458   5
   2  -2  -5-7.58728 133.959   7
  -2   2   5 3.86955 132.777  34
  -2   2   5-0.40463 110.876   5
   2  -2  -5 2.12056 88.2050  24
  -2   2   4 2084.69 152.672  34
  -2   2   4 1976.51 126.014  14
   2  -2  -4 2118.53 244.552   3
   2  -2  -4 2102.20 122.062  24
  -2   2   4 2098.17 145.386   5
   2  -2  -4 2356.58 184.841   7
   2  -2  -3 65520.9 1167.51   4
   2  -2  -3 67737.1 714.683   2
  -2   2   3 67393.8 557.558  14
  -2   2   3 64385.3 552.987   5
   2  -2  -3 68816.4 1093.51   3
   2  -2  -3 66411.4 499.162   8
  -2   2   3 65174.8 496.217  34
   2  -2  -2 6699.55 258.344   2
   2  -2  -2 6481.99 369.938   4
  -2   2   2 6301.19 169.691   5
  -2   2   2 6455.64 172.566  34
   2  -2  -2 6235.64 294.064   1
  -2   2   2 6443.46 197.865  14
   2  -2  -2 6472.51 370.069   3
   2  -2  -1 43502.8 834.504   4
   2  -2  -1 48184.7 904.226   3
   2  -2  -1 45159.6 649.649   1
  -2   2   1 45837.5 470.998  14
  -2   2   1 46191.4 839.758   3
   2  -2   0 23576.9 491.273   0
  -2   2   0 22437.6 343.952  14
  -2   2   0 22342.8 293.745  18
   2  -2   0 22860.8 637.849   3
  -2   2   0 22038.7 532.117   2
  -2   2   0 22598.3 596.868   3
   2  -2   1-48.5483 175.793   3
  -2   2  -1-8.53449 157.873   3
   2  -2   1 91.5767 84.6684  19
  -2   2  -1-20.5927 160.765   2
  -2   2  -1 89.4185 110.272  18
  -2   2  -1-51.2253 146.494   1
  -2   2  -1 6.93827 105.829  14
   2  -2   1 58.3860 152.160   0
  -2   2  -2 17289.7 293.178  18
   2  -2   2 18940.0 336.392   6
  -2   2  -2 19418.8 609.071   2
  -2   2  -2 17311.7 320.687  14
   2  -2   2 17970.4 584.126   3
   2  -2   2 17565.9 342.392  19
  -2   2  -2 16964.2 488.062   0
  -2   2  -3 15685.1 313.290  14
   2  -2   3 15922.7 366.863   6
   2  -2   3 15717.4 378.838  12
  -2   2  -3 16291.0 263.915  26
  -2   2  -3 15667.1 527.430   0
   2  -2   3 16555.0 278.934  32
   2  -2   3 15114.1 544.877   3
  -2   2  -3 16163.9 241.153  24
  -2   2  -4 50729.8 470.015  24
   2  -2   4 49168.9 774.379  12
   2  -2   4 48317.1 556.579  32
   2  -2   4 50702.7 616.827  31
  -2   2  -4 47776.0 493.096  26
  -2   2  -4 52708.5 560.791  14
  -2   2  -5 966.129 105.451  24
   2  -2   5 1041.02 207.798  31
   2  -2   5 941.858 179.648  32
  -2   2  -5 852.110 118.496  26
   2  -2   5 988.198 191.871  33
   2  -2   6 1994.72 249.998  33
   2  -2   6 2254.55 221.391  32
  -2   2  -6 1973.43 156.876  26
  -2   2  -6 2174.95 148.463  24
   2  -2   6 2053.28 263.729  31
  -2   2  -7 272.890 124.956  26
   2  -2   7 253.359 176.564  32
  -2   2  -7 328.269 110.178  24
   2  -2   7 192.250 190.226  33
   2  -2   8 1746.36 201.274  32
   2  -2   8 1713.25 223.316  33
  -2   2  -8 1815.15 173.159  24
  -2   2  -9 329.297 129.550  24
  -2   2  -9 288.626 159.885  47
   2  -2   9 114.952 158.994  32
   2  -2   9 289.776 186.606  52
  -2   2  -9 242.662 182.974  38
  -2   2 -10 878.592 181.365  59
   2  -2  10 658.184 201.842  52
  -2   2 -10 966.536 161.537  24
  -2   2 -10 773.552 190.795  38
  -2   2 -11 184.735 171.954  38
  -2   2 -11 105.342 162.958  59
   2  -2  11 178.930 168.552  52
   2  -2  11 270.594 169.696  46
  -2   2 -12 2605.22 184.566  59
   2  -2  12 2072.64 202.429  46
  -2   2 -12 2563.55 200.912  38
  -2   2 -13 879.697 135.614  59
  -2   2 -13 1086.28 148.528  38
   2  -2  13 653.984 142.206  46
   2  -2  14 102.852 114.184  50
   2  -1 -14 485.814 131.874  38
  -2   1  14 173.927 125.657  45
  -2   1  13 43.8268 110.501  49
  -2   1  13 42.7162 143.856  45
   2  -1 -13 7.09210 128.917  48
   2  -1 -13 114.604 153.236  38
  -2   1  12 264.037 176.208  45
   2  -1 -12 99.0272 161.834  48
  -2   1  12 207.064 140.403  49
   2  -1 -12 321.689 205.565  38
  -2   1  11 1032.00 207.700  45
   2  -1 -11 1227.54 201.706  60
  -2   1  11 1079.11 175.015  49
   2  -1 -11 1341.86 193.750  48
   2  -1 -11 1316.27 169.343  24
   2  -1 -10 7682.44 359.546  60
  -2   1  10 6985.34 371.004   5
  -2   1  10 6757.50 283.652  49
  -2   1  10 6952.42 309.175  45
   2  -1 -10 7116.71 308.767  24
   2  -1 -10 7033.84 315.908  27
   2  -1  -9 5757.76 362.703  13
  -2   1   9 5809.69 335.976   5
   2  -1  -9 6179.56 291.858  27
   2  -1  -9 5465.19 274.152  24
  -2   1   8 411.587 153.848   5
  -2   1   8 526.695 149.633  34
   2  -1  -8 267.519 127.232  24
   2  -1  -8 335.000 148.180  27
   2  -1  -8 406.170 185.520  13
   2  -1  -7 1964.38 220.596  13
   2  -1  -7 1900.32 156.360  24
  -2   1   7 1930.86 201.530   5
   2  -1  -7 2099.22 180.494  27
  -2   1   7 1884.80 175.759  34
   2  -1  -6 1017.06 174.453  13
  -2   1   6 1005.02 146.829  34
   2  -1  -6 1016.97 135.338  27
   2  -1  -6 808.943 116.504  24
   2  -1  -6 911.847 163.112   7
  -2   1   6 1111.02 156.960   5
   2  -1  -5 9458.38 333.350  13
  -2   1   5 9035.77 243.913  34
   2  -1  -5 9031.44 233.434  24
  -2   1   5 9369.43 294.551   5
   2  -1  -5 8532.58 328.381   7
  -2   1   4 9492.06 227.769  34
  -2   1   4 9169.59 263.230   5
   2  -1  -4 9781.10 211.889  24
   2  -1  -4 9152.85 299.392   7
   2  -1  -4 8790.63 502.664   4
   2  -1  -3 169260. 1696.71   4
  -2   1   3 166735. 745.862  34
   2  -1  -3 165661. 1052.88   7
  -2   1   3 169389. 1423.27   3
  -2   1   3 167729. 895.895   5
  -2   1   2 582064. 5935.94   5
   2  -1  -2 632398. 6982.72   7
   2  -1  -2 575706. 10952.5   3
   2  -1  -2 586639. 2855.79   4
   2  -1  -2 583389. 10145.6   1
  -2   1   2 621199. 10970.1   3
  -2   1   1 6007.95 156.042   5
  -2   1   1 5691.52 169.128  14
   2  -1  -1 5560.01 316.711   3
  -2   1   1 5758.38 194.323   2
  -2   1   1 6093.29 314.022   3
   2  -1  -1 5742.88 271.677   1
  -2   1   0 18394.3 414.422   2
   2  -1   0 18206.9 518.465   3
  -2   1   0 18520.4 507.470   3
  -2   1   0 19290.8 287.710  14
  -2   1   0 18374.1 420.619   1
  -2   1  -1 19583.0 448.431   1
   2  -1   1 20261.5 548.562   3
   2  -1   1 21286.7 483.769   0
  -2   1  -1 22144.6 545.898   3
  -2   1  -1 21278.4 321.258  14
   2  -1   2 27537.3 376.861   6
  -2   1  -2 26247.0 370.129  14
  -2   1  -2 25596.3 571.235   0
   2  -1   2 27239.9 608.062   0
  -2   1  -2 27524.3 597.025   3
   2  -1   3 57986.3 640.212   6
   2  -1   3 59183.4 631.627  12
  -2   1  -3 58295.3 942.082   0
  -2   1  -3 59403.4 463.025  26
   2  -1   3 58817.6 500.173  32
  -2   1  -3 57726.7 562.170  14
  -2   1  -3 60188.0 855.941   3
   2  -1   4 1993.65 243.363  12
   2  -1   4 1887.76 183.279  32
   2  -1   4 2106.54 176.814  31
  -2   1  -4 2009.58 148.850  14
  -2   1  -4 1980.11 126.851  26
  -2   1  -4 2104.70 115.874  24
   2  -1   5 111333. 955.672  32
   2  -1   5 110179. 1023.65  31
   2  -1   5 113917. 955.203  33
  -2   1  -5 106588. 742.341  24
  -2   1  -5 106866. 776.074  26
   2  -1   6 11085.4 368.090  33
   2  -1   6 10246.3 358.256  32
   2  -1   6 10137.8 395.759  31
  -2   1  -6 9782.39 277.103  26
  -2   1  -6 10348.7 273.741  24
   2  -1   7 41.0035 177.831  32
   2  -1   7 158.060 161.549  33
  -2   1  -7 26.6986 99.1828  24
  -2   1  -7 87.5444 117.374  26
   2  -1   8 6173.71 297.120  32
  -2   1  -8 6246.60 267.219  26
  -2   1  -8 6602.42 274.349  24
  -2   1  -9 1039.43 159.773  24
   2  -1   9 922.088 183.937  32
  -2   1  -9 839.837 151.289  26
   2  -1  10 2103.51 208.843  32
   2  -1  10 2327.36 214.084  52
   2  -1  10 2157.53 218.654  46
  -2   1 -10 2582.70 208.995  24
  -2   1 -10 2211.44 223.871  38
  -2   1 -11 3972.05 225.604  59
   2  -1  11 4090.24 242.322  32
  -2   1 -11 4070.51 254.058  24
   2  -1  11 3656.08 255.848  46
  -2   1 -11 3689.39 245.950  38
   2  -1  12 10518.6 319.780  46
  -2   1 -12 10484.9 323.683  38
   2  -1  13-4.47788 123.462  46
  -2   1 -13 75.9731 141.994  38
   2  -1  14 936.252 143.026  50
  -2   1 -14 986.277 125.901  38
  -2   0  14 759.457 139.604  45
   2   0 -14 1435.91 144.243  38
   2   0 -13 84.0965 128.186  48
  -2   0  13 16.5259 144.084  45
   2   0 -13-2.64287 159.999  38
  -2   0  12 26.2472 167.919  45
   2   0 -12 51.2157 156.757  48
   2   0 -12-26.7301 179.333  38
   2   0 -11 1611.84 216.842  60
  -2   0  11 1384.70 207.612  45
   2   0 -11 1447.19 181.293  24
  -2   0  11 1651.99 178.665  49
   2   0 -11 1379.15 195.757  48
   2   0 -11 1678.05 231.315  38
   2   0 -10-108.767 203.959  60
  -2   0  10-22.6523 145.503  36
  -2   0  10-60.0771 165.913   5
  -2   0  10 15.0543 154.426  49
   2   0 -10 119.371 166.422  47
  -2   0  10 32.3150 159.551  45
   2   0 -10 52.8485 127.575  24
  -2   0   9 1319.16 221.732   5
   2   0  -9 1524.37 184.575  27
   2   0  -9 1420.81 174.797  24
   2   0  -8 510.956 180.540  13
  -2   0   8 521.787 174.523   5
   2   0  -8 643.651 146.037  27
   2   0  -8 661.054 130.273  24
   2   0  -7 8568.64 364.476  13
   2   0  -7 8342.78 282.942  27
   2   0  -7 8094.86 272.181  24
  -2   0   7 7843.18 338.884   5
  -2   0   6 12862.5 379.861   5
   2   0  -6 12850.7 314.703  27
   2   0  -6 12694.3 299.667  24
  -2   0   6 12685.7 283.704  34
   2   0  -6 12425.8 397.388  13
   2   0  -5 5116.72 199.268  27
   2   0  -5 5596.15 261.235  13
  -2   0   5 5581.70 205.425  34
  -2   0   5 5699.56 244.531   5
   2   0  -5 5471.66 185.522  24
   2   0  -4 25321.1 462.342  13
  -2   0   4 25783.2 335.762  34
   2   0  -4 26150.4 751.619   4
  -2   0   4 26214.2 424.102   5
  -2   0   4 27235.7 537.405   3
   2   0  -4 24767.8 355.073  27
   2   0  -4 26759.9 329.349  24
   2   0  -3 100123. 812.757  13
  -2   0   3 101813. 720.332   5
   2   0  -3 102844. 1203.43   4
   2   0  -3 101416. 627.432  27
  -2   0   3 100450. 1083.70   3
  -2   0   2 6709.82 187.331   5
   2   0  -2 6101.83 202.477  13
   2   0  -2 5774.55 287.553   4
  -2   0   2 5959.66 296.414   3
  -2   0   1 3924.74 256.048   3
   2   0  -1 4217.66 249.668   1
  -2   0   1 4150.98 137.957   5
   2   0  -1 4202.23 155.938   9
   2   0   0 18157.3 413.296   1
  -2   0   0 18610.9 419.998   1
   2   0   1 34701.8 581.199   0
  -2   0  -1 34719.9 565.957   1
  -2   0  -1 34444.0 651.749   3
   2   0   2 28653.4 371.674   6
   2   0   2 28198.0 590.554   0
  -2   0  -2 28285.8 597.653   3
  -2   0  -2 27341.9 577.538   0
  -2   0  -3 496.437 150.323   3
  -2   0  -3 555.182 89.9287  28
   2   0   3 136.229 239.977   4
   2   0   3 548.137 132.878  32
  -2   0  -3 515.502 188.299   0
   2   0   3 584.177 148.229  12
   2   0   4 17346.9 362.841  32
   2   0   4 18552.8 356.795  31
  -2   0  -4 18041.0 276.751  24
  -2   0  -4 18499.4 464.132   3
   2   0   4 17976.9 270.552  23
   2   0   5 24514.4 420.702  33
   2   0   5 23516.7 470.325  32
   2   0   5 24523.1 480.053  31
  -2   0  -5 24295.2 423.899  14
  -2   0  -5 23044.9 357.485  24
   2   0   5 25202.7 319.477  23
  -2   0  -6 775.905 118.495  24
  -2   0  -6 732.305 120.403  26
   2   0   6 618.040 182.931  32
   2   0   7 3774.35 250.357  32
  -2   0  -7 4002.84 207.120  24
  -2   0  -7 3271.95 193.828  26
   2   0   8 63.1590 172.379  32
  -2   0  -8 22.6544 119.255  24
  -2   0  -8 131.803 121.862  26
  -2   0  -9 273.624 132.062  26
   2   0   9 371.490 159.964  32
  -2   0  -9 359.363 142.551  24
   2   0  10 7176.45 304.122  32
   2   0  10 7444.94 311.318  46
  -2   0 -10 6722.89 297.770  38
  -2   0 -10 6803.55 294.518  26
  -2   0 -10 7730.55 322.862  24
   2   0  11 18854.8 438.626  32
   2   0  11 16890.4 423.588  46
  -2   0 -11 19958.2 482.389  24
  -2   0 -12 7023.06 289.034  38
   2   0  12 6801.51 280.953  46
  -2   0 -13 1403.61 183.444  38
   2   0  13 1203.85 156.717  46
   2   0  14 432.885 150.535  50
  -2   0 -14 452.828 131.092  38
   2   1 -14 67.3776 94.8562  59
  -2  -1  14 37.5744 108.595  45
   2   1 -14 10.6362 89.5299  38
   2   1 -13 31.4024 130.767  48
  -2  -1  13 6.42338 142.264  45
   2   1 -13 67.6419 137.703  38
   2   1 -12 188.139 143.177  47
   2   1 -12 442.810 164.261  48
  -2  -1  12 313.804 171.736  45
   2   1 -12 491.922 178.015  38
   2   1 -11 151.680 181.518  60
  -2  -1  11 2.58641 172.814  45
   2   1 -11 230.763 156.735  47
   2   1 -11 111.118 197.638  38
   2   1 -11 63.3043 162.831  48
   2   1 -11 119.837 115.491  24
  -2  -1  10 6047.97 363.556   5
   2   1 -10 6549.04 320.983  60
   2   1 -10 6766.94 391.853  15
   2   1 -10 6838.49 288.516  47
  -2  -1  10 6351.18 298.703  45
   2   1 -10 6475.69 285.623  24
   2   1 -10 6525.21 308.504  38
   2   1 -10 5862.10 293.252  48
  -2  -1  10 6278.99 306.993  36
   2   1  -9 10171.7 343.032  24
  -2  -1   9 8526.99 415.803   5
   2   1  -8 815.381 146.424  27
  -2  -1   8 455.338 173.543   5
   2   1  -8 692.665 133.504  24
  -2  -1   7 1066.03 131.481  33
  -2  -1   7 1148.43 186.259   5
   2   1  -7 1208.53 143.046  27
   2   1  -7 1152.82 138.066  24
  -2  -1   6 3374.36 172.133  33
   2   1  -6 3745.96 180.614  24
   2   1  -6 3750.98 191.199  27
  -2  -1   6 3611.30 230.964   5
  -2  -1   5 919.062 115.766  33
   2   1  -5 991.862 124.360   9
   2   1  -5 925.034 124.299  27
   2   1  -5 903.845 104.837  24
  -2  -1   5 1053.44 150.585   5
   2   1  -4 15704.7 568.601   4
  -2  -1   4 15527.1 343.376   5
   2   1  -4 15576.0 287.593  27
   2   1  -4 15568.8 303.793   9
   2   1  -4 16171.1 266.810  24
  -2  -1   4 15884.5 449.728   3
  -2  -1   4 16032.5 279.315  33
  -2  -1   3 65902.8 597.271   5
   2   1  -3 66391.0 563.917   9
  -2  -1   3 65846.6 637.469  17
   2   1  -3 65849.0 521.439  27
  -2  -1   3 67510.2 496.395  33
  -2  -1   2 969935. 8922.32  17
  -2  -1   2 955953. 8020.31   5
   2   1  -1 1414.87 119.184   9
  -2  -1   1 1491.53 109.928   5
   2   1  -1 1545.98 200.893   1
   2   1   0 28013.4 505.203   1
  -2  -1   0 28009.4 510.048   1
  -2  -1  -1 17948.7 424.541   1
   2   1   1 18268.5 428.204   0
   2   1   2 4984.79 198.402   6
   2   1   2 5095.21 283.300   0
  -2  -1  -2 5198.28 281.596   0
  -2  -1  -2 5221.07 172.464   8
  -2  -1  -3 5566.51 323.115   0
   2   1   3 5667.14 469.413   4
   2   1   3 5632.52 229.122  12
   2   1   3 5397.57 213.524  32
   2   1   3 6054.69 180.875  23
  -2  -1  -3 5848.24 158.382  28
  -2  -1  -3 5769.48 168.270  16
   2   1   4 4036.85 228.275  32
  -2  -1  -4 3883.19 312.343   0
  -2  -1  -4 3915.11 153.684  16
  -2  -1  -4 3681.29 154.764  28
  -2  -1  -4 4003.07 154.595  24
   2   1   4 4186.79 197.590  31
   2   1   4 4129.32 172.585  23
   2   1   5 7354.51 287.476  32
   2   1   5 7339.44 269.322  31
  -2  -1  -5 7501.65 222.914  28
  -2  -1  -5 7292.15 218.830  24
   2   1   5 7557.00 208.777  23
   2   1   6 18758.6 435.837  32
  -2  -1  -6 19033.6 374.402  24
  -2  -1  -7 835.928 132.770  24
   2   1   7 742.692 174.015  32
  -2  -1  -7 772.758 130.063  26
   2   1   8 18.4635 159.800  32
  -2  -1  -8 150.330 116.204  26
  -2  -1  -8 165.012 125.282  24
  -2  -1  -9 1719.54 177.405  26
  -2  -1  -9 1802.45 192.870  24
   2   1   9 1619.38 207.773  32
  -2  -1 -10 4670.32 267.120  38
   2   1  10 5306.39 278.143  46
  -2  -1 -10 4837.56 291.249  56
   2   1  10 5104.58 276.910  32
  -2  -1 -10 5075.98 261.351  26
  -2  -1 -10 5419.38 283.883  24
  -2  -1 -11 192.143 179.894  56
  -2  -1 -11-74.2183 129.163  26
  -2  -1 -11 120.404 132.993  24
   2   1  11 164.533 142.992  32
   2   1  11 55.5103 160.925  46
  -2  -1 -11 94.5291 181.135  38
  -2  -1 -12-86.1449 175.926  56
   2   1  12 36.0518 146.620  46
  -2  -1 -12 64.9208 181.789  38
   2   1  13 4.57287 189.649  50
  -2  -1 -13 201.588 154.878  38
   2   1  14 68.1719 144.355  50
  -2  -1 -14 13.2761 124.133  38
  -2  -2  14 986.021 119.246  45
   2   2 -13 24.9350 110.561  47
  -2  -2  13-32.2391 142.503  45
   2   2 -13-44.8098 121.083  48
  -2  -2  12 349.529 171.885  45
   2   2 -12 260.116 144.922  47
   2   2 -12 270.726 152.341  48
   2   2 -12 232.577 156.257  38
   2   2 -11 86.4386 154.586  48
   2   2 -11 98.7567 160.820  47
  -2  -2  11 0.48328 180.445  45
   2   2 -11 4.35776 170.888  38
  -2  -2  10 2983.79 236.425  36
  -2  -2  10 2606.72 285.450   5
  -2  -2  10 2749.71 240.095  45
   2   2 -10 2826.11 222.552  48
   2   2 -10 2928.49 224.335  47
   2   2 -10 3044.86 306.766  15
   2   2 -10 2928.16 255.503  60
   2   2 -10 2784.01 213.742  24
   2   2 -10 3388.15 242.405  38
  -2  -2   9 2118.53 250.348   5
  -2  -2   9 1923.32 220.376  45
   2   2  -9 2126.01 206.973  47
   2   2  -9 2107.62 255.485  15
   2   2  -9 1879.61 247.606  60
   2   2  -9 1773.97 178.002  24
  -2  -2   9 1824.40 212.357  36
   2   2  -8 182.473 177.105  15
  -2  -2   8 211.273 126.792  33
  -2  -2   8 128.867 166.776   5
   2   2  -8 254.652 116.042  24
   2   2  -7 96.0155 177.984  15
  -2  -2   7 80.6691 117.444  33
  -2  -2   7 292.342 156.668   5
   2   2  -7 96.6404 99.1985  24
  -2  -2   6 386.758 114.800  33
  -2  -2   6 589.679 160.603   5
   2   2  -6 497.290 104.688  24
  -2  -2   5 855.073 124.535  33
  -2  -2   5 746.036 145.648   5
  -2  -2   5 769.155 95.6311  30
   2   2  -5 806.767 105.376  24
  -2  -2   4 4396.84 208.315   5
  -2  -2   4 4365.06 150.403  30
  -2  -2   4 4201.57 170.962  33
  -2  -2   4 4283.25 203.844  17
   2   2  -4 4210.17 139.587  29
   2   2  -4 4274.22 156.884  24
  -2  -2   3 5147.45 157.271  30
  -2  -2   3 5253.64 173.119  33
  -2  -2   3 4917.13 205.132  17
   2   2  -3 4974.03 246.642   4
  -2  -2   3 5159.61 197.047   5
   2   2  -3 5216.45 177.652   9
  -2  -2   3 5114.54 191.902  19
   2   2  -3 4899.65 212.765  15
   2   2  -3 4994.25 149.470  24
  -2  -2   2 17204.4 254.249  33
  -2  -2   2 16977.2 274.023  19
   2   2  -2 16485.2 314.643  15
  -2  -2   2 16242.4 421.973   2
   2   2  -2 17544.8 349.697   4
  -2  -2   2 17021.4 292.067   5
  -2  -2   2 16849.1 247.122  30
  -2  -2   1 2281.35 118.638   5
   2   2  -1 2211.01 139.991  15
  -2  -2   1 2412.25 128.782  20
   2   2  -1 2503.82 218.900   1
  -2  -2   0 7890.05 201.112  21
   2   2   0 7862.69 188.871  15
  -2  -2   0 7491.98 168.831   5
   2   2   0 7938.59 297.102   1
  -2  -2  -1 6804.59 176.912  21
   2   2   1 6155.35 269.684   0
  -2  -2  -1 6792.81 282.308   1
   2   2   2 7755.64 322.289   0
  -2  -2  -2 7673.71 313.871   1
  -2  -2  -2 8025.03 217.517  16
  -2  -2  -2 8041.47 168.258  28
  -2  -2  -2 7654.01 209.837   8
   2   2   2 7389.58 460.288   4
   2   2   2 7747.97 199.016  23
   2   2   3 2932.27 390.692   4
   2   2   3 3144.90 187.411  32
  -2  -2  -3 2895.89 128.803  25
  -2  -2  -3 2966.48 169.197   8
  -2  -2  -3 2992.85 126.893  28
  -2  -2  -3 3182.23 260.211   0
   2   2   3 2989.79 125.604  34
  -2  -2  -3 3347.61 164.876  16
   2   2   3 2976.99 153.220  23
  -2  -2  -4 26484.4 701.243   0
   2   2   4 24947.9 281.859  34
   2   2   4 25598.3 424.723  10
   2   2   4 24692.3 413.993  32
  -2  -2  -4 24518.7 339.050  28
  -2  -2  -4 22787.4 444.955   8
  -2  -2  -4 25376.0 405.436  16
  -2  -2  -4 23632.2 350.984  25
  -2  -2  -4 24943.3 336.652  24
   2   2   4 24240.1 343.755  23
  -2  -2  -5 26090.9 455.674  16
   2   2   5 25755.4 302.899  34
   2   2   5 23499.7 434.068  32
  -2  -2  -5 24395.1 382.385  28
  -2  -2  -5 24717.2 386.040  24
   2   2   5 25135.3 373.863  23
  -2  -2  -6 2119.16 154.583  24
   2   2   6 2347.55 201.193  32
  -2  -2  -6 2308.32 185.015  16
  -2  -2  -6 2225.69 157.758  28
  -2  -2  -6 2179.93 180.933   7
   2   2   7 564.302 155.558  32
  -2  -2  -7 568.953 128.008  24
   2   2   8 1303.81 184.790  32
  -2  -2  -8 1637.80 179.180  24
   2   2   9 758.001 183.222  32
  -2  -2  -9 980.435 159.788  26
  -2  -2  -9 887.238 164.883  24
  -2  -2 -10 8007.09 331.933  56
  -2  -2 -10 8140.37 340.709  24
  -2  -2 -10 7666.53 316.083  38
   2   2  10 7528.75 310.073  32
  -2  -2 -10 7436.96 304.392  26
   2   2  10 7947.58 314.654  46
   2   2  11 13653.3 375.520  45
   2   2  11 12802.0 379.920  32
  -2  -2 -11 12337.2 366.904  26
  -2  -2 -11 12708.4 397.123  56
  -2  -2 -11 13535.7 422.057  24
   2   2  11 12520.0 364.087  46
  -2  -2 -11 11927.7 369.800  38
   2   2  12 1008.35 164.813  45
  -2  -2 -12 998.770 204.657  56
   2   2  12 891.020 211.862  50
  -2  -2 -12 957.244 201.487  38
  -2  -2 -13 93.9008 152.867  56
   2   2  13 64.2368 171.646  50
  -2  -2 -13 109.685 143.376  38
  -2  -2 -14-5.43872 76.3566  56
  -2  -2 -14-37.6358 125.597  38
   2   2  14 170.472 142.812  50
   2   3 -13 1436.22 135.079  47
  -2  -3  13 1469.92 158.591  45
  -2  -3  12 3771.22 226.813  45
   2   3 -12 3397.45 201.058  48
   2   3 -12 3643.45 210.609  47
  -2  -3  11 912.090 191.497  45
   2   3 -11 801.024 165.958  48
   2   3 -11 1051.38 176.896  47
   2   3 -10 236.218 166.184  48
   2   3 -10 292.919 159.779  47
  -2  -3  10 334.725 181.680  45
   2   3  -9 4512.59 243.133  48
  -2  -3   9 4423.21 343.075   5
   2   3  -9 4951.39 251.811  63
  -2  -3   9 4379.67 254.571  33
   2   3  -9 4320.68 274.358  60
  -2  -3   9 4539.95 275.099  45
   2   3  -9 5346.61 349.035  15
   2   3  -9 4729.86 254.924  47
  -2  -3   9 4613.74 281.452  36
  -2  -3   8 2123.58 257.191   5
  -2  -3   8 2117.69 198.553  33
   2   3  -8 1987.59 240.621  15
   2   3  -8 1948.09 174.222  24
   2   3  -7 422.895 119.411  24
  -2  -3   7 671.702 172.299   5
  -2  -3   7 621.487 145.574  33
   2   3  -7 464.871 178.032  15
   2   3  -6 1115.79 180.630  15
   2   3  -6 1001.13 128.637  24
  -2  -3   6 1183.96 152.150  33
  -2  -3   6 1218.38 178.005   5
  -2  -3   5 9607.79 244.132  30
  -2  -3   5 9448.95 275.464  33
  -2  -3   5 10039.6 324.875   5
   2   3  -5 9419.19 258.352  24
   2   3  -5 9525.58 340.555  15
  -2  -3   4 40101.5 504.900  33
  -2  -3   4 43200.0 567.380   5
  -2  -3   4 43808.9 605.661  17
   2   3  -4 41192.1 612.829  15
  -2  -3   4 42416.7 626.617  19
  -2  -3   4 42164.4 472.769  30
  -2  -3   3 22612.4 416.553  19
  -2  -3   3 22573.7 346.304  30
  -2  -3   3 23399.8 646.097   2
  -2  -3   3 22312.5 369.868   5
  -2  -3   3 23367.4 427.914  17
   2   3  -3 22504.0 428.920  10
   2   3  -3 22578.1 425.650  15
  -2  -3   3 22525.2 351.105  33
  -2  -3   2 1729.62 149.310  20
  -2  -3   2 1696.59 128.537  30
   2   3  -2 1733.56 153.671  15
  -2  -3   2 1769.71 124.315   5
   2   3  -2 1713.21 204.686  10
   2   3  -2 1932.36 128.129  18
  -2  -3   2 1790.33 221.249   2
  -2  -3   2 1735.76 122.903  33
  -2  -3   1 5649.19 177.190  30
  -2  -3   1 6008.42 166.044   5
  -2  -3   1 6087.94 210.546  20
   2   3  -1 5280.20 215.753   4
   2   3  -1 5750.58 207.214  15
  -2  -3   1 5738.89 331.424   2
  -2  -3   1 5844.09 219.482  21
   2   3  -1 5593.66 283.516  10
   2   3  -1 6328.33 296.199   1
  -2  -3   0 30498.0 427.590  21
   2   3   0 29315.0 538.925  10
   2   3   0 30111.6 526.790   1
  -2  -3   0 29916.5 334.173  30
  -2  -3   0 30029.3 314.841   5
   2   3   0 29972.2 394.809  15
   2   3   1 79.0837 165.776   4
  -2  -3  -1 16.1746 73.8909  30
   2   3   1 13.7828 99.8167  23
  -2  -3  -1 37.7656 103.402  16
  -2  -3  -1 64.3634 85.2020  21
   2   3   1-7.13339 158.746  10
   2   3   1-38.8567 105.980   0
   2   3   2 17756.4 416.135  10
  -2  -3  -2 19697.3 371.677  16
   2   3   2 19785.7 467.928   0
   2   3   2 21171.1 731.743   4
  -2  -3  -2 20680.6 478.534   1
   2   3   3 22667.2 433.737  10
  -2  -3  -3 24505.8 332.698  28
   2   3   3 24898.6 349.451  32
   2   3   3 23093.9 844.676   4
  -2  -3  -3 25095.9 437.347  16
  -2  -3  -3 23903.8 427.809   8
   2   3   3 22807.5 304.805  34
  -2  -3  -3 24437.1 339.711  25
  -2  -3  -3 25947.4 599.874   1
   2   3   3 23199.8 337.695  23
  -2  -3  -4 31744.3 526.178  16
  -2  -3  -4 31599.0 540.201   8
  -2  -3  -4 30694.5 399.917  28
   2   3   4 30549.2 351.362  34
  -2  -3  -4 30871.6 414.433  25
   2   3   4 31007.3 419.763  32
   2   3   4 32153.1 464.827  10
   2   3   4 32396.9 415.925  23
   2   3   5 4405.98 165.946  34
  -2  -3  -5 4501.31 187.399  28
  -2  -3  -5 4642.33 243.836  16
   2   3   5 4411.91 204.731  32
  -2  -3  -5 4567.93 254.210   8
  -2  -3  -5 4367.86 195.977  25
  -2  -3  -5 4433.74 188.319  24
   2   3   6 22.2827 110.005  34
  -2  -3  -6 46.9879 99.0771  28
   2   3   6 68.1866 129.796  32
  -2  -3  -6 26.1425 131.008  16
  -2  -3  -6 71.8698 100.720  24
  -2  -3  -7 6868.93 264.179  28
   2   3   7 5959.77 256.718  32
  -2  -3  -7 7180.26 321.643  16
  -2  -3  -7 6892.60 334.228   7
  -2  -3  -7 6897.99 277.554  24
   2   3   8 1414.75 174.482  32
  -2  -3  -8 1274.64 175.217  24
   2   3   9 1413.05 181.507  32
  -2  -3  -9 1218.97 167.945  26
  -2  -3  -9 1640.25 197.718  24
   2   3  10 16634.0 424.424  32
   2   3  10 17629.5 416.049  45
  -2  -3 -10 17520.1 484.190  24
   2   3  10 15566.6 402.090  50
  -2  -3 -10 15654.5 413.735  26
  -2  -3 -10 15489.2 413.342  38
  -2  -3 -11 35572.0 623.568  56
   2   3  11 38093.6 577.219  45
  -2  -3 -11 35795.1 590.561  26
   2   3  11 35929.9 571.972  50
  -2  -3 -11 38415.1 687.897  24
  -2  -3 -11 36295.2 581.982  38
   2   3  12-36.2406 203.587  50
  -2  -3 -12 86.9228 170.430  38
  -2  -3 -12 31.7560 179.523  56
   2   3  12-12.4921 144.151  45
  -2  -3 -13 793.187 179.119  56
   2   3  13 684.792 180.027  50
  -2  -3 -13 772.440 168.001  38
   2   3  14 135.449 136.575  50
  -2  -3 -14 164.289 116.020  56
  -2  -3 -14 135.364 112.639  38
  -2  -4  13 221.412 108.150  45
   2   4 -13 81.8419 108.795  59
   2   4 -12 449.463 137.352  47
  -2  -4  12 245.791 145.220  45
   2   4 -11 456.499 145.531  48
   2   4 -11 512.990 160.079  47
  -2  -4  11 511.639 172.419  45
   2   4 -10 1779.06 191.065  63
   2   4 -10 1827.05 196.464  47
  -2  -4  10 1602.10 220.194  45
   2   4 -10 1684.60 185.927  48
   2   4  -9 5068.70 248.419  48
  -2  -4   9 4663.54 266.598  33
   2   4  -9 4726.58 265.860  47
  -2  -4   9 4582.86 279.845  45
   2   4  -9 4606.87 342.369  15
   2   4  -9 4756.25 247.297  63
  -2  -4   8 1024.20 192.262  36
   2   4  -8 884.999 207.023  60
   2   4  -8 1004.69 183.664  63
   2   4  -8 1100.63 251.229  18
   2   4  -8 935.189 195.501  47
  -2  -4   8 874.864 217.855  45
  -2  -4   8 966.783 178.177  33
   2   4  -8 818.716 218.998  15
   2   4  -7 78.7627 189.981  18
   2   4  -7-5.11225 171.511  15
  -2  -4   7 26.8682 141.505  33
   2   4  -6 265.854 171.898  18
  -2  -4   6 117.909 134.139  33
  -2  -4   6 250.087 118.258  30
   2   4  -6 337.260 170.871  15
   2   4  -5 3957.77 242.766  18
  -2  -4   5 3945.61 215.998  33
  -2  -4   5 3489.31 192.695  30
   2   4  -5 3842.97 257.078  15
  -2  -4   4 8672.50 265.768  30
  -2  -4   4 8965.85 342.207  19
   2   4  -4 8674.75 324.475  15
  -2  -4   4 8624.65 273.702  33
   2   4  -4 9306.32 296.020  18
  -2  -4   3 14394.6 388.799  19
   2   4  -3 14637.6 320.104  18
   2   4  -3 15281.4 373.739  10
  -2  -4   3 13536.3 322.249  30
   2   4  -3 13827.7 372.733  15
  -2  -4   3 14051.1 363.283  17
  -2  -4   3 13900.6 317.837  33
   2   4  -2 9222.62 309.610  10
  -2  -4   2 8910.21 262.259  30
  -2  -4   2 8630.21 307.470  20
  -2  -4   2 8905.66 249.050  33
   2   4  -2 9614.72 243.875  18
   2   4  -2 8799.46 292.463  15
   2   4  -1 5177.22 178.454  18
  -2  -4   1 4990.10 228.998  21
  -2  -4   1 4919.84 177.171  33
   2   4  -1 4463.34 239.224  10
  -2  -4   1 4823.68 198.074  30
   2   4  -1 4642.16 213.671  15
  -2  -4   1 5295.07 226.905  20
   2   4   0 3621.22 160.525  18
   2   4   0 3140.38 221.353  10
  -2  -4   0 3319.80 189.189  21
  -2  -4   0 3292.87 158.967  30
   2   4   0 3363.18 143.380  23
   2   4   1 70.1798 137.185  10
  -2  -4  -1 109.701 102.138  21
   2   4   1 99.2043 95.5220  23
  -2  -4  -1 111.061 85.7424  30
  -2  -4  -1 42.1088 116.168  16
  -2  -4  -2 3560.44 140.179  30
   2   4   2 3128.28 166.092  34
   2   4   2 3551.78 312.876   4
  -2  -4  -2 3465.39 208.226  16
   2   4   2 3275.61 209.351  10
   2   4   2 3691.80 166.439  23
  -2  -4  -3 8277.94 295.291   8
  -2  -4  -3 8319.52 308.399  16
  -2  -4  -3 8635.61 227.661  28
   2   4   3 8228.60 282.396  10
   2   4   3 8125.23 216.795  34
   2   4   3 8411.70 230.207  23
  -2  -4  -4 77707.2 912.099  16
   2   4   4 79633.3 601.932  32
   2   4   4 79302.3 790.240  10
  -2  -4  -4 76778.4 672.635  28
  -2  -4  -4 76665.8 893.785   8
  -2  -4  -4 77137.3 708.041  25
   2   4   4 77554.9 607.054  34
  -2  -4  -5 348.387 109.435  25
  -2  -4  -5 473.214 154.927  16
  -2  -4  -5 382.603 106.180  28
   2   4   5 463.024 113.142  32
  -2  -4  -5 505.272 151.245   8
   2   4   5 434.294 123.102  34
  -2  -4  -6 432.867 121.708  28
   2   4   6 452.591 121.326  34
   2   4   6 342.423 119.207  32
  -2  -4  -6 468.762 128.108  25
  -2  -4  -6 256.295 158.680  16
  -2  -4  -6 492.450 180.590   8
  -2  -4  -6 436.756 121.711  24
   2   4   7 1979.58 173.456  32
  -2  -4  -7 1957.22 237.555  16
  -2  -4  -7 1821.78 170.580  28
  -2  -4  -7 2087.55 191.067  24
   2   4   7 2084.67 167.889  34
  -2  -4  -8 4723.74 271.262  24
  -2  -4  -8 4135.12 313.901  16
   2   4   8 4982.98 243.528  32
  -2  -4  -8 5141.97 257.632  28
   2   4   9 95.4134 140.277  32
   2   4   9-26.1188 171.043  45
  -2  -4  -9 103.561 153.277  24
   2   4   9 148.659 212.045  50
  -2  -4 -10-21.8362 123.196  26
   2   4  10 143.179 200.570  50
   2   4  10-73.2130 155.592  45
  -2  -4 -10-35.3501 147.861  24
   2   4  11-16.2678 214.108  50
   2   4  11-88.8710 148.163  45
  -2  -4 -11 139.355 197.055  56
  -2  -4 -12 5081.53 286.774  56
   2   4  12 5224.80 276.035  50
  -2  -4 -13 147.441 157.139  56
   2   4  13-10.5325 168.219  50
  -2  -4 -14 609.686 121.158  56
   2   4  14 722.063 132.696  50
   2   5 -12 5259.62 191.822  59
  -2  -5  12 5937.01 216.486  45
   2   5 -11 12970.4 323.246  47
  -2  -5  11 13466.0 343.095  45
   2   5 -10 335.005 159.178  47
   2   5 -10 324.670 151.498  63
  -2  -5  10 298.673 173.542  45
  -2  -5   9 1131.00 177.256  33
   2   5  -9 932.612 178.037  63
   2   5  -9 965.248 176.888  47
  -2  -5   9 925.839 199.985  45
  -2  -5   8 416.069 165.349  33
   2   5  -8 268.084 162.471  47
   2   5  -8 595.189 192.882  15
  -2  -5   8 332.843 198.200  45
   2   5  -8 483.950 159.605  63
  -2  -5   7 120.584 152.635  33
  -2  -5   7 218.955 166.576  36
  -2  -5   7 282.785 203.904  45
   2   5  -7 356.949 165.107  47
   2   5  -7 307.382 195.284  15
   2   5  -7 251.771 159.070  63
  -2  -5   6 860.150 172.353  33
  -2  -5   6 1059.54 167.320  30
   2   5  -6 1186.60 211.626  15
   2   5  -5 7280.82 338.927  15
  -2  -5   5 7221.75 301.801  33
  -2  -5   5 7390.65 288.749  30
   2   5  -5 7945.92 328.770  18
  -2  -5   4 9116.76 315.522  30
  -2  -5   4 9169.13 384.471  19
  -2  -5   4 9493.71 319.163  33
   2   5  -4 10484.9 338.732  18
   2   5  -4 9387.48 361.177  15
  -2  -5   3 28142.4 508.949  30
  -2  -5   3 28415.7 598.345  19
  -2  -5   3 27308.4 628.227  20
   2   5  -3 28622.3 562.820  15
  -2  -5   3 29647.9 504.088  33
   2   5  -3 28402.7 515.835  10
  -2  -5   2 6703.69 308.515  20
  -2  -5   2 7409.70 255.338  33
  -2  -5   2 6957.83 270.174  30
   2   5  -2 7386.50 289.645  10
   2   5  -2 7239.90 294.233  15
  -2  -5   1 185.315 118.991  20
   2   5  -1 109.508 142.110  10
  -2  -5   1 139.320 123.072  30
  -2  -5   1 76.3031 121.509  21
   2   5   0 4299.89 246.919  10
  -2  -5   0 3745.76 196.790  30
  -2  -5   0 4169.48 228.010  21
  -2  -5  -1 5010.60 201.674  30
   2   5   1 5143.73 255.534  10
  -2  -5  -1 5080.87 267.013  16
  -2  -5  -1 4814.53 246.287  21
   2   5   1 5013.42 194.148  34
   2   5   2-1.32602 112.822  34
  -2  -5  -2-3.20586 90.2283  30
  -2  -5  -2 18.7892 131.229  16
   2   5   2 13.0349 130.277  10
  -2  -5  -2 75.2096 113.967  21
   2   5   3 65.6614 111.116  10
  -2  -5  -3 32.6985 146.025  16
  -2  -5  -3 53.2105 85.7967  28
   2   5   3 42.9486 122.619  34
   2   5   4 34501.0 457.908  34
   2   5   4 33869.5 549.026  10
  -2  -5  -4 34446.2 689.354  16
  -2  -5  -4 35194.0 667.571   8
  -2  -5  -4 35650.9 494.523  28
  -2  -5  -4 34412.2 522.181  25
   2   5   5 718.322 141.112  34
  -2  -5  -5 747.009 193.760  16
  -2  -5  -5 690.565 125.156  28
  -2  -5  -5 612.405 168.715   8
  -2  -5  -5 692.845 135.592  25
   2   5   6 3512.79 204.538  34
   2   5   6 3705.13 184.383  32
  -2  -5  -6 3540.75 289.889   8
  -2  -5  -6 2948.11 284.520  16
  -2  -5  -6 3340.90 200.505  28
  -2  -5  -6 3065.04 212.672  25
  -2  -5  -6 3263.30 213.986  24
   2   5   7 2828.14 180.409  32
   2   5   7 2605.72 187.607  34
  -2  -5  -7 2428.03 276.505  16
  -2  -5  -7 2788.29 210.506  28
  -2  -5  -7 2414.11 208.975  24
   2   5   8 398.976 146.299  34
  -2  -5  -8 363.950 206.165  16
   2   5   8 393.491 220.913  50
  -2  -5  -8 426.593 146.253  28
  -2  -5  -8 408.638 199.314   7
  -2  -5  -8 483.125 159.339  24
   2   5   9 202.012 171.879  58
   2   5   9 12.8549 208.491  50
   2   5   9-59.4842 157.425  45
  -2  -5  -9 84.9146 150.491  24
   2   5  10 46.0466 206.187  50
  -2  -5 -10-79.7983 157.767  24
  -2  -5 -11 13156.4 433.545  56
   2   5  11 13544.8 382.907  50
  -2  -5 -12 912.231 200.783  56
   2   5  12 903.913 193.102  50
  -2  -5 -13 405.836 165.994  56
   2   5  13 447.051 154.871  50
  -2  -6  12 341.723 102.339  45
   2   6 -11 803.318 138.110  59
   2   6 -11 652.880 131.348  47
  -2  -6  11 923.487 145.745  45
   2   6 -10 7486.93 254.297  59
   2   6 -10 6602.27 257.752  47
  -2  -6  10 7045.87 288.031  45
  -2  -6   9 430.630 193.437  45
   2   6  -9 437.689 164.803  63
   2   6  -9 600.547 167.260  47
   2   6  -9 398.633 141.089  55
  -2  -6   8 168.796 146.446  33
   2   6  -8 28.3271 151.298  47
  -2  -6   8 39.9945 192.639  45
   2   6  -8 108.161 155.653  63
   2   6  -7 464.281 180.877  15
  -2  -6   7 396.713 154.382  33
   2   6  -7 398.157 164.107  47
   2   6  -7 494.541 164.840  63
  -2  -6   7 339.235 214.198  45
   2   6  -7 545.773 179.450  43
   2   6  -6 178.367 177.857  47
  -2  -6   6 221.296 175.936  36
  -2  -6   6 273.806 169.223  33
   2   6  -6 188.447 174.786  43
   2   6  -6 287.902 167.466  63
  -2  -6   6 247.513 152.591  30
   2   6  -6 259.966 175.472  15
  -2  -6   5 822.624 209.497  19
  -2  -6   5 427.871 176.882  33
  -2  -6   5 515.935 168.578  30
   2   6  -5 518.263 177.318  15
  -2  -6   4 39.5191 155.106  30
  -2  -6   4 286.718 171.941  19
  -2  -6   4 145.761 148.372  33
   2   6  -4 178.207 149.047  15
  -2  -6   3 1062.69 201.448  20
  -2  -6   3 880.639 189.739  19
  -2  -6   3 1236.72 166.611  33
  -2  -6   3 982.524 184.007  30
   2   6  -3 1011.82 167.583  11
   2   6  -2 2151.76 154.654  34
  -2  -6   2 2253.96 204.157  30
  -2  -6   2 1990.64 212.825  20
   2   6  -1 659.572 127.529  34
  -2  -6   1 776.176 157.164  21
  -2  -6   1 768.939 158.920  20
   2   6  -1 829.517 157.662  10
  -2  -6   1 580.475 155.953  30
  -2  -6   0 814.468 155.295  20
  -2  -6   0 904.356 167.234  21
   2   6   0 957.707 164.963  10
   2   6   0 787.372 139.869  34
  -2  -6   0 749.445 148.366  30
  -2  -6  -1-26.1099 132.857  21
   2   6   1 31.4868 129.331  10
  -2  -6  -1-4.84957 118.070  30
   2   6   1 15.0764 125.910  34
   2   6   2 6957.12 242.477  34
  -2  -6  -2 7299.56 247.707  30
   2   6   2 7543.98 304.116  10
  -2  -6  -2 7477.86 355.937  16
  -2  -6  -2 7383.87 342.079  21
   2   6   3 1164.07 161.462  34
  -2  -6  -3 992.300 207.034  16
  -2  -6  -3 1137.69 132.502  28
   2   6   4 1188.96 157.544  11
   2   6   4 1169.65 158.400  34
  -2  -6  -4 1063.47 230.711  16
  -2  -6  -4 985.368 128.714  28
  -2  -6  -4 1059.88 191.567   8
  -2  -6  -4 842.344 142.854  25
   2   6   5 7927.29 272.491  34
  -2  -6  -5 7838.70 419.893  16
  -2  -6  -5 8298.74 289.563  28
  -2  -6  -5 8530.92 401.042   8
  -2  -6  -5 8131.35 307.418  25
  -2  -6  -6 408.370 124.599  28
   2   6   6 296.301 146.516  34
  -2  -6  -6 381.451 191.563   8
  -2  -6  -6 359.158 145.589  25
  -2  -6  -6 384.497 201.832  16
  -2  -6  -7 24.8772 196.522  16
  -2  -6  -7 80.7462 131.782  28
   2   6   7 9.38493 181.592  58
   2   6   7 261.839 198.426  50
   2   6   7 64.2586 147.139  34
  -2  -6  -7 105.158 137.314  25
  -2  -6  -7 136.974 144.419  24
  -2  -6  -8 427.193 140.816  28
   2   6   8 253.841 152.186  34
   2   6   8 405.214 174.005  58
   2   6   8 487.462 206.881  50
  -2  -6  -8 398.108 155.879  24
  -2  -6  -8 467.202 217.459  16
   2   6   8 325.700 173.816  41
   2   6   9 1745.47 200.586  58
   2   6   9 1697.50 180.761  34
   2   6   9 1726.77 242.950  50
  -2  -6  -9 1566.34 197.726  24
   2   6  10 5723.05 283.239  50
  -2  -6 -10 5515.46 327.480  56
  -2  -6 -11-75.2329 204.121  56
   2   6  11-66.9705 200.262  50
  -2  -6 -12 295.254 177.761  56
   2   6  12 232.286 169.275  50
   2   6  13 214.138 135.721  50
  -2  -6 -13 116.365 134.978  56
  -2  -7  11 1023.76 121.350  45
  -2  -7  10 2799.69 190.677  45
   2   7  -9 273.071 133.268  55
  -2  -7   9 296.868 167.039  45
   2   7  -9 227.300 131.909  47
   2   7  -8 910.480 163.921  47
  -2  -7   8 1102.40 199.412  45
   2   7  -7 1492.18 205.711  43
  -2  -7   7 1332.30 207.923  33
  -2  -7   7 1339.18 230.249  45
   2   7  -7 1420.86 194.756  63
  -2  -7   6-217.836 176.303  33
  -2  -7   6 13.5900 163.991  36
   2   7  -6 52.7835 155.470  63
   2   7  -6 32.1195 158.884  43
  -2  -7   6 14.7125 153.499  30
  -2  -7   5 454.639 182.394  36
   2   7  -5 553.002 167.423  43
  -2  -7   5 219.109 168.536  30
   2   7  -5 399.448 159.158  63
  -2  -7   5 292.934 165.722  33
  -2  -7   4 756.372 221.079  19
  -2  -7   4 982.450 195.814  33
  -2  -7   4 889.818 196.935  30
   2   7  -4 1144.94 197.989  43
   2   7  -4 1154.98 173.002  63
  -2  -7   3 2980.93 256.788  30
   2   7  -3 3633.19 275.855  11
  -2  -7   3 3049.65 293.613  19
   2   7  -2 949.612 197.429  11
  -2  -7   2 857.493 199.524  19
  -2  -7   2 804.570 192.340  30
  -2  -7   2 955.745 208.375  20
  -2  -7   1 675.318 170.534  30
  -2  -7   1 1103.40 197.373  20
   2   7  -1 945.085 150.737  34
   2   7  -1 773.765 182.667  11
   2   7   0 8573.20 263.274  34
  -2  -7   0 7693.01 384.328  21
  -2  -7   0 8464.90 394.846  20
  -2  -7   0 8012.18 321.536  30
   2   7   0 8487.94 353.296  11
   2   7   1 15423.9 348.744  34
   2   7   1 15533.0 455.983  11
  -2  -7  -1 14654.1 391.605  30
   2   7   2 3283.72 203.988  34
  -2  -7  -2 3038.39 271.957  21
   2   7   2 3551.73 253.273  11
  -2  -7  -2 3238.54 216.192  30
   2   7   3 914.026 162.383  34
  -2  -7  -3 918.725 236.014  16
  -2  -7  -3 975.905 204.946  21
  -2  -7  -3 754.944 139.537  28
   2   7   3 858.273 179.632  11
   2   7   4 3511.41 219.209  34
  -2  -7  -4 3565.53 312.089  21
  -2  -7  -4 3651.65 237.839  25
   2   7   4 3774.26 255.997  11
  -2  -7  -4 3425.83 336.033  16
  -2  -7  -4 3461.05 211.111  28
  -2  -7  -4 3439.90 301.617   8
  -2  -7  -5 4920.82 273.449  25
   2   7   5 5124.89 256.341  34
  -2  -7  -5 4748.87 387.731  16
  -2  -7  -5 5188.71 358.881   8
  -2  -7  -5 5092.31 249.447  28
  -2  -7  -6 2088.38 194.516  28
   2   7   6 2398.71 255.046  50
  -2  -7  -6 2014.84 318.983  16
   2   7   6 2693.29 211.395  34
  -2  -7  -6 2340.56 280.386   8
  -2  -7  -6 2589.15 222.400  25
   2   7   6 2289.62 207.063  41
   2   7   7 627.739 167.856  34
  -2  -7  -7 750.504 160.564  28
  -2  -7  -7 791.027 164.363  25
  -2  -7  -7 731.358 234.817   8
   2   7   7 688.218 178.916  41
  -2  -7  -7 700.145 164.292  24
  -2  -7  -7 523.991 247.681  16
   2   7   7 792.020 213.221  50
   2   7   8 1504.47 190.454  34
   2   7   8 1663.63 228.045  50
   2   7   8 1723.30 198.877  41
  -2  -7  -8 1398.48 190.526  24
  -2  -7  -9 1777.72 237.209  56
   2   7   9 2167.66 242.829  50
   2   7   9 2403.21 210.924  41
  -2  -7 -10 26.1723 197.091  56
   2   7  10 18.7687 197.946  50
  -2  -7 -11-107.844 182.831  56
   2   7  11-2.51956 166.606  50
   2   7  12-87.3226 149.364  50
  -2  -7 -12 107.542 154.520  56
  -2  -8  10 322.675 108.068  45
  -2  -8   9 258.580 146.650  45
   2   8  -9 247.719 111.319  55
   2   8  -8 599.135 145.691  55
  -2  -8   8 704.444 187.786  45
  -2  -8   7 245.843 198.250  45
   2   8  -7 302.254 165.605  43
   2   8  -6 1096.19 183.661  43
  -2  -8   5 2389.80 228.519  36
  -2  -8   5 1877.32 225.619  30
   2   8  -5 2108.28 205.471  63
   2   8  -5 2088.02 224.152  43
   2   8  -4 444.423 192.825  43
  -2  -8   4 428.320 208.581  19
  -2  -8   4 453.148 185.824  30
   2   8  -4 563.428 151.091  63
   2   8  -3 327.744 160.335  11
  -2  -8   3 410.643 202.524  19
   2   8  -3 125.469 180.989  43
  -2  -8   3 264.500 176.169  30
   2   8  -3 193.015 141.083  63
   2   8  -2 256.916 184.119  11
  -2  -8   2-12.8851 201.788  19
  -2  -8   2-12.3419 172.293  30
  -2  -8   2 41.7752 178.731  20
   2   8  -2 31.4745 180.487  43
   2   8  -1 90.3881 173.024  11
  -2  -8   1 17.1133 184.029  20
  -2  -8   1 98.3155 159.831  30
   2   8  -1 82.6190 158.899  43
   2   8   0 184.474 177.019  11
   2   8   0 286.423 135.210  34
  -2  -8   0 183.438 185.851  21
  -2  -8   0 176.434 165.222  30
  -2  -8   0 177.316 162.111  20
   2   8   1 70.4412 139.352  34
   2   8   1 151.340 169.311  11
  -2  -8  -1 213.819 171.606  20
  -2  -8  -1 147.978 156.889  30
  -2  -8  -1 72.7100 186.198  21
  -2  -8  -2 3922.24 333.146  21
   2   8   2 4022.87 224.670  34
   2   8   2 4160.29 287.714  11
   2   8   3 28026.2 636.349  11
   2   8   3 28862.2 489.585  35
   2   8   3 27568.7 496.703  34
   2   8   3 27944.0 476.122  41
  -2  -8  -3 27410.4 756.921   8
  -2  -8  -3 28383.7 550.095  28
   2   8   4 14629.1 358.367  35
  -2  -8  -4 12283.5 548.861  21
   2   8   4 13500.5 374.637  34
   2   8   4 12844.1 350.938  41
  -2  -8  -4 13911.7 437.181  25
   2   8   4 14249.4 463.156  11
  -2  -8  -4 13654.1 390.711  28
  -2  -8  -4 13873.3 555.244   8
  -2  -8  -5 787.074 227.982  21
   2   8   5 902.210 228.286  50
   2   8   5 987.112 171.753  34
  -2  -8  -5 787.467 274.901  16
  -2  -8  -5 985.071 176.710  25
  -2  -8  -5 1062.56 159.175  28
  -2  -8  -5 819.052 241.032   8
   2   8   5 980.653 174.631  53
   2   8   5 869.703 181.974  41
  -2  -8  -6 1186.16 268.759  21
   2   8   6 1815.17 230.844  50
  -2  -8  -6 1396.19 302.267  16
  -2  -8  -6 1495.39 176.676  28
   2   8   6 1603.22 183.366  34
  -2  -8  -6 1430.81 191.368  25
  -2  -8  -6 904.236 237.397   8
   2   8   6 1713.98 194.631  41
   2   8   7 2141.42 247.120  50
  -2  -8  -7 1927.97 215.504  25
   2   8   7 2341.68 207.341  34
   2   8   7 2490.38 211.513  41
  -2  -8  -7 1956.30 214.150  24
   2   8   8-58.8072 199.150  50
   2   8   8 112.530 160.789  41
   2   8   9 235.442 192.340  50
   2   8   9 156.044 160.101  41
   2   8  10 1336.95 200.701  50
   2   8  10 1634.86 160.270  41
   2   8  11 355.877 154.918  50
  -2  -8 -11 368.066 142.702  56
  -2  -8 -12 194.798 110.604  62
  -2  -9   9 2573.61 142.884  45
   2   9  -8 37.3125 113.037  55
  -2  -9   8 81.4255 141.950  45
   2   9  -7 861.843 143.141  55
  -2  -9   7 1101.79 203.558  45
   2   9  -6 407.927 154.107  43
  -2  -9   5 2191.46 211.146  36
   2   9  -5 1972.91 218.422  43
  -2  -9   4 1002.55 191.814  36
   2   9  -4 837.431 203.457  43
   2   9  -3 838.542 187.422  43
   2   9  -3 861.876 169.579  53
  -2  -9   3 694.801 198.110  30
   2   9  -2 935.449 177.208  53
  -2  -9   2 704.653 202.645  30
   2   9  -2 873.776 183.661  43
  -2  -9   1 917.862 228.389  20
   2   9  -1 1105.22 192.973  53
  -2  -9   1 851.940 193.947  30
   2   9  -1 949.094 182.152  43
  -2  -9   1 882.907 233.058  19
  -2  -9   0 1246.50 244.922  20
   2   9   0 1323.26 189.372  43
   2   9   0 1444.72 218.112  11
   2   9   0 1204.85 187.374  53
  -2  -9   0 1146.57 210.843  30
   2   9   1 10101.6 322.689  53
   2   9   1 11548.3 334.015  34
  -2  -9  -1 10607.0 525.506  21
   2   9   1 10472.1 433.358  11
  -2  -9  -1 10993.6 537.931  20
   2   9   2 10732.4 333.316  34
  -2  -9  -2 10115.5 516.713  21
  -2  -9  -2 9726.62 502.440  20
   2   9   2 9713.11 421.573  11
   2   9   2 10024.8 319.475  53
  -2  -9  -2 10667.1 375.561  28
   2   9   2 11215.0 337.083  41
  -2  -9  -3 2804.30 303.744  20
   2   9   3 3262.94 217.448  34
   2   9   3 2986.92 215.523  53
  -2  -9  -3 3260.21 260.387  25
  -2  -9  -3 3204.35 227.634  28
   2   9   3 3368.82 226.896  41
  -2  -9  -3 2750.81 321.442  21
   2   9   4 958.734 175.752  53
  -2  -9  -4 896.280 161.557  28
  -2  -9  -4 694.926 174.823  25
   2   9   4 995.065 176.113  34
   2   9   4 962.076 176.322  41
   2   9   5 6.75350 155.190  34
  -2  -9  -5 118.016 122.901  28
   2   9   5 227.968 162.256  41
   2   9   5 197.761 143.340  53
  -2  -9  -5 309.959 158.007  25
   2   9   6 676.031 180.485  41
   2   9   7 95.6271 165.233  41
   2   9   8 1171.31 174.889  41
   2   9   9 2943.06 189.409  41
   2   9  10 205.350 113.368  41
  -2  -9 -11 616.871 127.392  62
  -2 -10   7 41.8408 130.756  45
   2  10  -7 175.270 94.4348  55
   2  10  -6 11.3047 113.993  55
  -2 -10   6 82.3065 161.699  45
   2  10  -5 1707.85 157.375  55
   2  10  -5 1740.07 181.476  43
  -2 -10   4 1405.85 181.990  36
   2  10  -4 1405.74 190.947  43
  -2 -10   3 257.289 164.939  36
   2  10  -3 300.969 142.893  53
   2  10  -3 389.345 164.045  43
   2  10  -2 114.094 152.705  53
   2  10  -2 23.7685 157.694  43
   2  10  -1 481.204 168.063  53
   2  10  -1 536.071 167.637  43
   2  10   0 1764.41 184.862  43
   2  10   0 1862.93 201.179  53
   2  10   1 120.871 157.457  53
   2  10   2 212.269 155.808  53
   2  10   3 8509.05 296.043  53
   2  10   3 8729.05 301.306  41
   2  10   4 768.187 161.968  53
   2  10   4 698.612 175.859  41
   2  10   5 155.452 144.248  53
   2  10   5 9.17027 153.249  41
   2  10   6 46.0815 149.686  41
   2  10   7 114.743 148.790  41
   2  10   8 154.551 130.931  41
  -2 -10  -9 103.949 130.172  62
   2  10   9 88.7156 115.110  41
   2  11  -5 159.693 89.2725  55
  -2 -11   5 243.683 137.157  45
   2  11  -4 187.252 101.738  55
   2  11  -3-75.0895 104.348  55
  -2 -11   2-10.7380 144.041  36
   2  11  -2 17.0659 122.874  53
   2  11  -2-60.9912 127.476  43
   2  11  -1 51.0873 129.724  43
   2  11  -1 111.287 138.712  53
   2  11   0 39.4989 139.468  53
   2  11   1 53.7850 147.051  53
   2  11   2 115.990 144.232  53
   2  11   3 1696.44 167.569  53
   2  11   3 1747.64 162.294  41
   2  11   4 80.6302 130.805  53
   2  11   4 47.5341 129.063  41
   2  11   5 2205.83 156.405  53
   2  11   5 2181.96 174.547  41
   2  11   6 1074.54 139.832  41
   2  11   7 432.012 127.249  41
   2  11   8 151.703 97.7210  41
   2  12  -1 198.873 102.785  53
   2  12   0 693.808 120.354  53
  -2 -12   0 730.516 140.279  36
   2  12   1 395.044 121.697  53
   2  12   2 58.3178 112.097  53
   2  12   3 130.586 105.459  53
   2  12   4 25.8002 93.1321  53
  -3  11   5-17.4545 80.5175  53
  -3  11   4-16.5454 108.550  53
  -3  11   3-41.0956 120.575  53
  -3  11   2 302.588 122.338  53
  -3  11   1 491.989 136.867  53
  -3  11   0 12.0362 123.579  53
  -3  11  -1-94.2400 121.044  53
  -3  11  -2 16.6100 109.369  53
  -3  10   8 803.744 106.605  42
  -3  10   7 432.619 113.590  42
  -3  10   6 80.0788 116.575  42
  -3  10   5 3.91664 127.724  53
  -3  10   5 37.2560 128.789  42
  -3  10   4 29.7268 132.763  53
  -3  10   4 41.4064 134.926  42
  -3  10   3 527.806 152.560  53
  -3  10   2 1586.40 179.124  53
  -3  10   1 1554.21 181.673  53
  -3  10   1 1310.01 169.480  40
  -3  10   0 78.5993 151.447  53
  -3  10   0-134.769 142.190  44
  -3  10   0 72.5878 133.806  40
  -3  10  -1 89.3347 149.412  53
  -3  10  -1 20.1687 125.052  44
  -3  10  -1 56.1630 121.653  40
  -3  10  -2 440.378 144.870  53
  -3  10  -2 505.804 142.487  44
  -3  10  -2 382.039 128.252  40
  -3  10  -3 703.891 136.700  53
  -3  10  -3 412.868 145.864  44
  -3  10  -3 686.165 129.699  40
  -3  10  -4 32.4623 116.967  44
  -3  10  -5 565.953 125.820  44
  -3  10  -6 36.9820 93.6995  44
  -3   9  10 37.9884 88.6056  42
  -3   9   9 1545.79 139.629  42
  -3   9   8 665.989 136.124  42
  -3   9   7-4.31572 131.432  42
  -3   9   7-30.2349 145.889  41
  -3   9   6-40.4934 143.814  42
  -3   9   6 0.09202 155.459  41
  -3   9   5 441.739 165.160  42
  -3   9   5 574.329 156.204  53
  -3   9   5 405.848 177.842  41
  -3   9   4 418.516 150.990  53
  -3   9   4 275.992 162.062  61
  -3   9   4 395.970 168.494  41
  -3   9   4 392.667 160.379  42
  -3   9   3 345.348 159.544  53
  -3   9   3 446.772 160.646  42
  -3   9   3 437.389 169.279  41
  -3   9   3 551.696 148.233  40
  -3   9   2 235.938 158.226  42
  -3   9   2 187.175 154.371  53
  -3   9   2 250.987 166.201  41
  -3   9   2 273.642 143.620  40
  -3   9   1 516.365 154.189  44
  -3   9   1 360.495 145.448  40
  -3   9   1 417.241 173.452  53
  -3   9   1 482.802 165.566  41
  -3   9   0 116.647 153.306  53
  -3   9   0 338.831 152.133  44
  -3   9   0 163.028 136.208  40
  -3   9  -1 163.369 138.968  44
  -3   9  -1 51.7166 161.319  53
  -3   9  -1 40.8116 131.720  40
  -3   9  -2 705.641 165.967  53
  -3   9  -2 514.233 166.250  44
  -3   9  -2 643.415 147.067  40
  -3   9  -3-17.5334 147.093  53
  -3   9  -3-28.3015 138.710  44
  -3   9  -3 2.04649 126.260  40
  -3   9  -4 297.181 141.559  44
  -3   9  -4 172.257 126.517  40
  -3   9  -5 704.529 150.715  44
  -3   9  -6 1922.72 175.574  44
  -3   9  -7 45.3589 105.709  44
   3  -9   8 10.3524 102.789  52
  -3   8  11 42.9176 93.4915  42
  -3   8  10 399.622 127.391  42
  -3   8   9 2683.29 177.308  42
  -3   8   8 1082.94 168.900  42
  -3   8   8 1270.35 178.454  41
  -3   8   7 277.565 146.355  42
  -3   8   7 285.223 166.308  41
  -3   8   6-52.4807 166.329  42
  -3   8   6 7.72123 167.878  41
  -3   8   6 38.0621 150.499  34
  -3   8   5 212.588 148.709  34
  -3   8   5 210.955 157.651  42
  -3   8   5 263.982 155.282  53
  -3   8   5 365.784 179.100  41
  -3   8   4 86.5020 166.867  61
  -3   8   4-9.80295 168.878  41
  -3   8   4-31.4862 131.235  40
  -3   8   4-23.3704 157.784  42
  -3   8   4-36.4916 150.436  53
  -3   8   3 357.606 166.385  42
  -3   8   3 149.858 158.009  53
  -3   8   3 137.363 173.277  41
  -3   8   3 141.777 140.979  40
  -3   8   3 234.866 165.679  61
  -3   8   2 306.581 178.469  14
  -3   8   2 291.437 175.956  61
  -3   8   2 304.458 172.915  53
  -3   8   2 237.653 160.869  44
  -3   8   2 431.636 167.414  42
  -3   8   2 180.218 174.132  41
  -3   8   2 350.597 141.365  40
  -3   8   1-18.4166 174.075  14
  -3   8   1-25.3678 180.226  61
  -3   8   1 31.1708 153.181  53
  -3   8   1 141.392 156.853  44
  -3   8   1-5.47559 171.587  42
  -3   8   1-9.57485 167.604  41
  -3   8   1-48.6176 133.453  40
  -3   8   0 211.113 185.698  61
  -3   8   0 385.170 181.075  53
  -3   8   0 448.004 156.931  44
  -3   8   0 466.229 140.413  40
  -3   8   0 365.897 181.627  14
   3  -8   1 256.782 306.525  33
  -3   8  -1 118.529 162.532  53
  -3   8  -1 154.668 168.750  14
  -3   8  -1 76.2970 146.967  44
  -3   8  -1 115.419 135.693  40
   3  -8   2 57.1811 202.855  19
  -3   8  -2-35.6918 131.616  44
  -3   8  -2 2.66705 153.176  53
   3  -8   2-4.85026 319.275  33
  -3   8  -2-33.0442 133.580  40
  -3   8  -3 694.463 167.837  44
   3  -8   3 918.499 375.861  33
  -3   8  -3 1169.79 164.587  55
  -3   8  -3 1040.76 168.982  53
  -3   8  -3 994.394 155.177  40
  -3   8  -4 580.917 159.523  59
   3  -8   4 532.037 346.460  33
  -3   8  -4 676.831 158.922  55
  -3   8  -4 678.171 148.334  40
  -3   8  -5 2181.69 184.571  59
  -3   8  -5 2054.83 192.969  55
  -3   8  -5 2138.74 177.916  40
  -3   8  -6 508.173 147.519  59
  -3   8  -7 172.251 149.388  59
  -3   8  -7 68.8024 135.779  44
  -3   8  -8 16.3922 125.316  59
   3  -8   8 24.3083 133.276  52
  -3   8  -8-137.994 119.635  44
  -3   8  -9-18.9262 110.044  59
   3  -8   9 21.9754 117.904  52
  -3   7  12 41.9989 93.1075  42
  -3   7  11 48.7692 113.857  42
  -3   7  10 202.324 140.396  42
  -3   7   9 370.106 146.301  49
  -3   7   9 586.519 151.125  42
  -3   7   8 809.186 165.635  42
  -3   7   8 966.015 182.827  41
  -3   7   7 1203.77 173.798  34
  -3   7   7 966.646 177.688  42
  -3   7   7 1108.08 193.037  41
  -3   7   6 183.128 148.229  34
   3  -7  -6 52.2115 293.296  22
  -3   7   6 120.252 169.192  41
   3  -7  -6 105.281 207.536   7
  -3   7   6 224.123 151.450  42
  -3   7   5 7.50241 148.789  34
  -3   7   5 98.8915 169.017  42
  -3   7   5 144.600 175.349  41
   3  -7  -5-13.6000 194.263   7
  -3   7   4 196.119 142.082  34
  -3   7   4 136.744 160.928  53
  -3   7   4 172.651 161.260  14
  -3   7   4 262.795 161.875  42
  -3   7   4 233.017 185.399  41
  -3   7   4 219.292 147.533  40
  -3   7   3 178.974 161.415  14
  -3   7   2 11.5835 165.714  14
  -3   7   1-93.0911 156.482  14
   3  -7   0 136.377 161.961  19
  -3   7   0 70.4043 152.140  14
   3  -7   1 138.293 178.417  19
  -3   7  -1 245.678 164.933  14
   3  -7   2 526.735 199.095  19
  -3   7  -2 543.767 193.234  18
   3  -7   2 607.459 303.455  33
  -3   7  -2 588.392 174.606  14
  -3   7  -3 890.216 185.756  53
   3  -7   3 799.795 367.985  33
  -3   7  -3 805.561 161.160  55
  -3   7  -3 700.590 214.704  18
  -3   7  -3 771.414 175.104  59
   3  -7   3 1136.95 230.175  19
  -3   7  -3 881.620 164.559  40
   3  -7   4 6987.27 561.004  33
  -3   7  -4 7914.58 279.322  59
  -3   7  -4 8094.99 282.394  55
  -3   7  -4 7812.56 385.187  18
  -3   7  -4 8217.94 297.288  40
  -3   7  -5 1280.45 173.785  59
  -3   7  -5 1238.63 172.458  55
  -3   7  -5 1216.18 217.708  18
   3  -7   5 973.263 370.479  33
  -3   7  -5 1370.46 171.995  40
  -3   7  -6 271.609 158.098  55
   3  -7   6 464.710 291.331  33
  -3   7  -6 169.902 164.140  59
  -3   7  -7 109.955 147.659  59
  -3   7  -7 7.96748 134.364  55
  -3   7  -8-57.6914 151.780  59
  -3   7  -9 47.9447 135.188  59
   3  -7   9-12.3142 153.042  52
  -3   7  -9-29.0984 104.469  44
  -3   7 -10 177.891 121.691  59
   3  -7  10 198.662 118.336  52
   3  -7  10 199.581 125.209  46
  -3   6  12 88.8743 114.224  42
   3  -6 -12-14.3972 117.298  38
  -3   6  11 68.6986 134.261  42
  -3   6  11 97.1986 121.362  49
  -3   6  10 396.978 146.256  42
  -3   6  10 430.163 147.084  49
  -3   6   9 861.088 167.201  42
  -3   6   9 911.464 166.057  49
   3  -6  -8 122.335 269.340  22
  -3   6   8 207.244 150.876  34
  -3   6   8 233.067 167.384  42
  -3   6   8 260.503 169.091  41
  -3   6   8 283.676 147.693  49
   3  -6  -7 173.912 182.612   7
  -3   6   7 43.9422 153.812  34
  -3   6   7 204.992 157.268  42
  -3   6   7 260.496 177.681  41
  -3   6   6 233.672 150.225  34
  -3   6   6-6.72213 159.304  42
  -3   6   6 103.845 176.628  41
   3  -6  -6 77.2106 168.846   7
  -3   6   5 249.076 148.304  34
   3  -6  -5 328.506 180.922   7
  -3   6   4-10.4023 142.061  34
  -3   6   4 48.9634 138.544  14
  -3   6   3 112.744 133.038  34
  -3   6   3 102.409 148.164  14
  -3   6   2 1270.76 194.822  14
  -3   6   1 353.142 161.777  14
   3  -6   0 85.0682 127.001  19
  -3   6   0-40.4095 146.759  14
   3  -6   1 98.3838 133.597  19
   3  -6   1 72.8707 222.554  12
  -3   6  -1 60.9528 182.077  18
  -3   6  -1 144.490 145.924  14
   3  -6   2 1663.51 223.904  19
   3  -6   2 1498.62 319.713  12
  -3   6  -2 1361.77 208.048  18
   3  -6   2 1550.76 227.340  31
  -3   6  -2 1249.60 196.566  14
  -3   6  -3 1803.14 231.056  18
   3  -6   3 1623.04 381.738  12
   3  -6   3 1805.67 239.699  19
   3  -6   3 1875.55 279.791  31
  -3   6  -3 1578.40 204.957  14
   3  -6   4 843.494 316.558  31
  -3   6  -4 786.125 198.227  18
   3  -6   4 882.203 334.727  33
  -3   6  -5 5380.07 246.842  59
  -3   6  -5 5982.38 264.645  55
   3  -6   5 5865.41 505.745  33
  -3   6  -5 5622.74 339.625  18
   3  -6   5 5345.29 486.813  31
  -3   6  -5 5898.45 265.763  40
  -3   6  -6 2014.02 198.104  59
   3  -6   6 1860.97 369.295  33
  -3   6  -6 2145.30 205.132  55
   3  -6   6 2079.07 360.597  31
  -3   6  -6 1916.10 244.525  18
  -3   6  -6 2338.04 198.014  40
   3  -6   7 139.177 255.080  33
  -3   6  -7 96.1163 152.155  55
  -3   6  -7 179.485 166.284  59
  -3   6  -8-51.1777 165.140  59
  -3   6  -9 94.1187 163.576  59
   3  -6   9 92.5204 168.760  52
   3  -6  10 57.3842 147.709  52
  -3   6 -10 61.1882 139.221  59
  -3   6 -11 47.3643 116.614  59
   3  -6  11 27.1461 117.444  52
   3  -6  11 80.6702 113.627  46
  -3   5  13 137.443 102.969  42
   3  -5 -13 343.304 124.984  38
  -3   5  12 55.0605 124.619  49
  -3   5  12 148.430 123.602  42
   3  -5 -12 137.852 162.913  38
  -3   5  11 64.8096 144.494  42
  -3   5  11-13.4708 140.834  49
  -3   5  10 1394.38 188.523  45
  -3   5  10 1537.38 179.004  42
  -3   5  10 1563.59 185.045  49
  -3   5   9 1301.66 188.055  45
   3  -5  -9 1699.12 217.069  27
  -3   5   9 1599.68 186.070  42
  -3   5   9 1768.56 190.135  49
  -3   5   9 1854.12 202.971  34
   3  -5  -8-3.75001 213.829  13
  -3   5   8-14.5994 150.174  49
  -3   5   8 35.7805 162.209  34
  -3   5   8 58.2623 152.891  45
  -3   5   8 35.9580 140.363  42
   3  -5  -8 21.7418 178.021   7
  -3   5   7 4.93784 159.402  34
   3  -5  -7 103.685 198.503   7
  -3   5   7 61.6678 162.642  42
  -3   5   6 133.753 153.212  34
   3  -5  -6 66.9505 185.887   7
  -3   5   5 87.5984 135.163  14
   3  -5  -5-19.4438 163.332   7
  -3   5   5-24.9856 153.023  34
  -3   5   4-29.1864 138.296  34
  -3   5   4 77.5781 133.541  14
  -3   5   3 1164.26 152.589  34
  -3   5   3 928.284 169.556  14
  -3   5   2 743.544 140.986  34
  -3   5   2 815.334 168.541  14
  -3   5   1 124.591 143.574  14
  -3   5   0 135.630 145.402  18
  -3   5   0 9.24525 140.344  14
   3  -5   1 6.97083 133.000   6
  -3   5  -1-24.1183 131.374  14
  -3   5  -1-7.88568 162.796  18
   3  -5   1-16.8342 113.668  19
   3  -5   2-72.6148 209.314  12
   3  -5   2 55.1658 137.152  19
  -3   5  -2 25.8137 150.304  18
   3  -5   2-20.2631 161.826   6
  -3   5  -2 11.5835 135.554  14
   3  -5   3 1302.81 203.006  19
   3  -5   3 1517.72 246.874   6
   3  -5   3 1223.34 213.059  31
  -3   5  -3 1453.69 177.419  14
  -3   5  -3 1367.42 196.032  18
   3  -5   3 1383.29 311.510  12
   3  -5   4 1470.26 353.239  12
  -3   5  -4 1226.80 203.059  18
   3  -5   4 1603.64 274.390  31
   3  -5   5 663.530 299.646  33
  -3   5  -5 820.066 193.080  18
   3  -5   5 709.795 274.711  31
  -3   5  -6 823.363 175.227  59
  -3   5  -6 763.037 189.362  55
  -3   5  -6 810.956 204.699  18
   3  -5   6 649.106 309.533  31
   3  -5   6 837.345 331.836  33
   3  -5   7-43.5645 256.808  33
  -3   5  -7 80.0746 192.917  18
  -3   5  -7 16.6146 163.007  59
  -3   5  -7-5.11800 158.864  55
  -3   5  -8-138.755 159.000  59
   3  -5   8-36.8635 210.578  33
  -3   5  -8 73.1957 151.166  38
   3  -5   9 107.508 188.613  52
  -3   5  -9-33.7138 165.521  59
  -3   5  -9 84.7630 152.607  38
  -3   5 -10 837.571 165.727  59
   3  -5  10 879.959 183.216  52
  -3   5 -11 65.8697 125.219  59
   3  -5  11 44.2799 138.118  58
   3  -5  11 33.6541 135.801  52
   3  -5  11 137.112 134.845  46
   3  -5  12 53.9564 103.805  46
  -3   5 -12 49.3032 101.479  59
   3  -4 -13 6.56662 138.380  38
  -3   4  13 43.9253 111.973  42
  -3   4  13 26.9097 104.689  49
  -3   4  12 455.653 142.388  49
  -3   4  12 390.514 138.008  45
  -3   4  12 674.273 133.280  42
  -3   4  11 906.059 164.980  49
  -3   4  11 716.242 175.604  45
  -3   4  10 910.485 176.325  34
  -3   4  10 942.118 172.194  49
   3  -4 -10 998.377 192.903  27
  -3   4  10 504.821 167.322  45
   3  -4  -9 146.107 212.873  13
  -3   4   9 88.6707 159.961  34
  -3   4   9 112.258 157.406  49
  -3   4   9 118.690 154.597  45
   3  -4  -9 203.416 169.672  27
   3  -4  -8 60.3851 220.920  13
  -3   4   8 8.28235 157.159  34
  -3   4   8 84.2918 150.882  49
  -3   4   8 113.957 164.807  45
   3  -4  -8-21.2875 174.392   7
  -3   4   7 74.9880 158.058  34
   3  -4  -7-10.3010 183.714   7
  -3   4   6 130.270 152.463  34
   3  -4  -6 319.136 177.222   7
  -3   4   5-19.8237 138.234  34
   3  -4  -5-51.7115 154.876   7
  -3   4   5 35.0801 121.773  14
  -3   4   4 438.947 136.382  34
   3  -4  -4 380.429 149.893   7
  -3   4   4 378.090 130.231  14
  -3   4   3 1120.86 138.659  34
  -3   4   3 1158.89 160.586  14
  -3   4   2 2842.51 196.357  14
  -3   4   2 3142.97 161.113  34
  -3   4   1 960.705 115.499  34
  -3   4   1 850.891 148.313  14
  -3   4   0 89.3368 141.917  18
  -3   4   0 50.3161 122.087  14
   3  -4   1 12.9083 106.343  19
  -3   4  -1 14.2767 138.623  18
  -3   4  -1 135.131 130.603  14
   3  -4   1 63.6550 138.712   6
   3  -4   2 12.7034 161.732  12
   3  -4   2-12.6919 132.177  19
   3  -4   2-20.0063 102.558  32
   3  -4   2 167.880 150.341   6
  -3   4  -2 27.8851 136.778  18
  -3   4  -2 92.2948 118.619  14
   3  -4   3 258.638 128.980  32
   3  -4   3 101.655 156.856   6
   3  -4   3 152.392 134.287  19
  -3   4  -3 179.972 144.076  18
   3  -4   3 227.268 203.555  12
  -3   4  -3 101.539 124.282  14
   3  -4   4 160.847 247.693  12
  -3   4  -4 258.120 124.898  14
  -3   4  -4 158.623 155.357  18
   3  -4   4 218.509 169.527  31
   3  -4   5 197.995 221.082  31
   3  -4   5 204.234 223.843  33
  -3   4  -5 384.609 164.382  18
   3  -4   6 973.018 284.325  33
  -3   4  -6 1071.89 199.184  18
   3  -4   6 855.266 283.164  31
  -3   4  -7 44.3541 169.753  59
  -3   4  -7 15.7467 170.197  55
   3  -4   7 261.942 260.855  33
  -3   4  -7 164.024 174.917  18
   3  -4   7 95.4636 262.473  31
  -3   4  -8-22.3215 165.763  38
  -3   4  -8 74.5445 160.245  59
   3  -4   8-24.4171 224.235  33
  -3   4  -8 150.601 190.126  18
  -3   4  -9-19.8969 156.068  59
   3  -4   9 109.614 176.094  33
   3  -4   9 133.826 176.547  52
  -3   4  -9 27.8029 162.063  38
  -3   4 -10 492.353 165.299  59
   3  -4  10 525.425 181.918  52
  -3   4 -10 672.670 171.899  38
   3  -4  11-28.2027 158.284  52
   3  -4  11-136.760 161.694  58
   3  -4  11-50.2380 151.802  46
  -3   4 -11 46.1306 131.688  59
  -3   4 -11-50.3500 144.706  38
   3  -4  12-50.3307 129.575  46
  -3   4 -12-12.1209 117.608  59
  -3   4 -12 19.4050 110.568  38
   3  -3 -14 171.546 108.004  38
  -3   3  13 388.431 121.883  49
  -3   3  13 452.448 134.488  45
  -3   3  13 494.123 127.447  42
   3  -3 -13 412.837 156.677  38
  -3   3  12-17.9712 138.761  49
  -3   3  12 90.1126 137.606  45
   3  -3 -12 69.6280 134.888  48
   3  -3 -11 104.320 146.520  48
  -3   3  11 102.591 141.030  49
  -3   3  11-9.12410 155.268  45
   3  -3 -10 1042.85 191.175  27
  -3   3  10 1133.01 179.216  49
  -3   3  10 706.208 184.642  45
   3  -3  -9 296.142 227.571  13
  -3   3   9 313.454 177.046  45
  -3   3   9 405.798 173.280  34
   3  -3  -9 258.164 162.307  27
  -3   3   9 247.958 158.047   5
  -3   3   9 325.183 161.747  49
   3  -3  -8 733.152 240.302  13
  -3   3   8 653.661 194.697  34
  -3   3   8 1030.34 182.397   5
   3  -3  -8 752.690 188.869  27
   3  -3  -7 393.908 202.389  13
  -3   3   7 367.206 173.466  34
  -3   3   7 388.421 145.109   5
   3  -3  -7 396.701 178.867   7
  -3   3   6-13.9946 141.543  34
  -3   3   6-44.3803 118.818   5
   3  -3  -6 2.26538 150.644   7
  -3   3   5 1502.22 170.834  34
  -3   3   5 1338.59 149.793   5
   3  -3  -5 1405.64 205.326   7
  -3   3   4 149.831 132.358  34
  -3   3   4 93.5910 95.6802   5
   3  -3  -4 64.4840 120.381   7
  -3   3   4 52.6283 108.365  14
  -3   3   3-34.0281 127.069  34
  -3   3   3 3.92756 109.519  14
  -3   3   3-31.9151 87.7091   5
   3  -3  -3-11.2855 112.241   7
  -3   3   2-23.7753 112.284  34
   3  -3  -2 0.65364 184.802   1
  -3   3   2 32.8572 79.1065   5
  -3   3   2 27.2062 113.777  14
  -3   3   1 630.233 118.897  34
   3  -3  -1 582.296 173.279   0
  -3   3   1 725.654 140.598  14
  -3   3   1 382.963 88.9859   5
   3  -3   0-15.4179 173.530   0
   3  -3   0 10.1687 79.1519  19
  -3   3   0-55.8745 160.497   1
  -3   3   0 46.6373 127.080  18
  -3   3   0 34.4544 159.359   2
  -3   3   0 5.92553 127.984  14
   3  -3   1 196.527 99.0999  19
  -3   3  -1 79.7464 163.353   1
  -3   3  -1 181.769 130.047  18
  -3   3  -1 159.640 117.046  14
   3  -3   1 204.282 191.671   0
   3  -3   1 174.402 85.8368  23
   3  -3   2-35.4391 107.275  19
  -3   3  -2 58.9775 130.607  18
   3  -3   2-22.1834 144.245   6
  -3   3  -2-17.0083 123.562  14
   3  -3   2 92.2137 102.740  32
   3  -3   3 654.323 177.424   6
   3  -3   3 583.101 182.985  12
   3  -3   3 674.044 132.109  32
  -3   3  -3 648.443 141.301  18
  -3   3  -3 796.925 146.114  14
   3  -3   4 1392.71 182.298  31
   3  -3   4 1826.55 182.719  32
  -3   3  -4 1148.30 166.578  18
  -3   3  -4 1585.97 163.651  14
   3  -3   4 1700.13 260.880  12
  -3   3  -5 1560.69 189.270  18
   3  -3   5 1298.56 324.398  12
   3  -3   5 1363.60 232.950  31
   3  -3   5 1298.70 210.864  32
   3  -3   6 411.490 228.628  33
   3  -3   6 585.022 253.085  31
   3  -3   6 579.538 222.167  32
  -3   3  -6 567.548 175.580  18
  -3   3  -7 265.017 182.421  18
   3  -3   7 407.432 248.786  31
   3  -3   7 236.676 250.392  33
   3  -3   7 172.827 198.274  32
  -3   3  -8 52.2420 192.576  18
  -3   3  -8 110.339 172.526  59
   3  -3   8 50.6434 226.416  33
   3  -3   8 36.3008 191.450  52
  -3   3  -8 4.34356 166.961  38
  -3   3  -9 142.299 154.589  59
  -3   3  -9-16.8503 171.543  38
   3  -3   9 31.9677 169.407  52
  -3   3  -9 191.725 202.468  18
  -3   3 -10-8.95685 153.057  59
   3  -3  10 25.5105 168.856  52
  -3   3 -10 137.616 169.837  38
   3  -3  11 71.1665 176.570  58
   3  -3  11 242.121 165.068  46
  -3   3 -11 171.568 146.028  59
   3  -3  11-11.0305 159.036  52
  -3   3 -11 256.245 160.263  38
  -3   3 -12 336.367 130.525  59
  -3   3 -12 316.770 138.745  38
   3  -3  12 495.278 147.865  46
  -3   3 -13 329.398 100.577  59
   3  -3  13 230.136 110.779  46
  -3   3 -13 267.368 104.635  38
  -3   2  14 23.6141 86.9879  45
   3  -2 -14-34.7696 109.657  38
  -3   2  13-102.268 131.003  45
   3  -2 -13 8.41010 112.546  48
  -3   2  13 34.9014 109.885  49
  -3   2  13 80.7149 108.808  42
   3  -2 -13 3.16561 161.130  38
   3  -2 -12 409.610 150.470  60
   3  -2 -12 261.723 143.924  48
  -3   2  12 103.120 144.668  49
  -3   2  12 153.364 153.111  45
   3  -2 -12 162.648 193.035  38
   3  -2 -11 1252.00 214.203  60
   3  -2 -11 947.749 182.948  48
  -3   2  11 811.517 177.191  49
  -3   2  11 735.935 181.750  45
   3  -2 -10 439.404 204.107  13
   3  -2 -10 838.114 241.635  60
  -3   2  10 661.631 192.992   5
  -3   2  10 542.811 169.879  49
   3  -2 -10 595.363 168.334  27
  -3   2  10 649.089 183.675  45
   3  -2  -9 96.1348 209.598  13
  -3   2   9-7.89324 152.494  51
  -3   2   9 29.5842 160.265  49
  -3   2   9 104.867 148.421   5
  -3   2   9 7.96461 160.994  45
   3  -2  -9-13.9456 165.976  27
  -3   2   8-43.0522 176.908  34
   3  -2  -8-54.9035 189.651  13
  -3   2   8-59.1747 142.426   5
   3  -2  -8-14.7106 150.142  27
   3  -2  -8-16.6326 125.464  24
   3  -2  -7 1.42079 176.424  13
  -3   2   7-43.5410 164.979  34
  -3   2   7-24.5240 133.584   5
   3  -2  -7 36.6268 148.070  27
   3  -2  -7-76.7139 105.187  24
   3  -2  -6-4.58267 172.551  13
  -3   2   6-67.3325 147.394  34
   3  -2  -6-48.9621 132.348  27
   3  -2  -6 28.2203 151.799   7
  -3   2   6-7.29374 124.319   5
   3  -2  -5 459.392 170.264  13
  -3   2   5 393.473 151.553  34
  -3   2   5 397.260 126.060   5
   3  -2  -5 275.442 148.792   7
   3  -2  -4 552.781 163.668  13
  -3   2   4 429.436 141.925  34
  -3   2   4 450.338 112.449   5
   3  -2  -4 425.025 130.130   7
  -3   2   4 496.578 104.230  14
  -3   2   3 1656.54 153.382  34
  -3   2   3 1863.82 143.832  14
  -3   2   3 1798.35 133.436   5
   3  -2  -3 1873.71 166.125   7
   3  -2  -2 2329.46 177.621  13
   3  -2  -2 2005.79 243.302   1
  -3   2   2 1997.07 145.760  34
  -3   2   2 1999.24 134.337   5
  -3   2   2 1927.06 151.209  14
   3  -2  -2 2060.28 291.219   3
   3  -2  -2 2166.16 149.813   7
   3  -2  -1 534.387 214.705   3
   3  -2  -1 416.942 119.405  13
  -3   2   1 379.584 104.792  34
   3  -2  -1 462.024 182.202   1
   3  -2  -1 366.239 181.479   4
  -3   2   1 222.696 103.712   2
   3  -2  -1 361.343 87.8828   7
  -3   2   1 334.502 120.340  14
  -3   2   1 352.660 93.6152   5
   3  -2   0 14.1053 188.708   3
  -3   2   0 83.1175 151.624   2
  -3   2   0 9.35362 82.2125   5
   3  -2   0 9.25201 82.4174  13
  -3   2   0 90.9530 108.755  18
   3  -2   0 27.5846 99.5553   9
   3  -2   0-19.2843 173.702   0
  -3   2   0 75.6482 155.126   1
  -3   2   0 72.2213 116.764  14
   3  -2   1-50.1795 211.969   3
   3  -2   1 91.6625 86.8616  19
  -3   2  -1 73.3389 112.056  18
   3  -2   1 149.897 171.520   0
  -3   2  -1 90.3005 157.589   2
   3  -2   1 52.6863 91.0070   9
  -3   2  -1 8.05375 117.366  14
  -3   2  -1-87.3127 178.100   1
   3  -2   1 36.9337 81.1083  23
   3  -2   2 742.087 95.4113  23
   3  -2   2 750.277 154.812   6
  -3   2  -2 687.629 135.466  18
   3  -2   2 728.417 118.385  32
  -3   2  -2 696.466 81.7595  26
  -3   2  -2 720.682 131.770  14
   3  -2   3 229.971 123.550  32
  -3   2  -3 136.793 118.295  18
   3  -2   3 192.658 159.371  12
  -3   2  -3 285.553 77.3703  26
  -3   2  -3 187.324 120.058  14
   3  -2   3 129.413 157.701   6
  -3   2  -4 429.228 76.5191  24
   3  -2   4 518.658 153.121  32
   3  -2   4 314.724 205.042  12
   3  -2   4 421.028 142.310  31
  -3   2  -4 320.716 115.958  14
  -3   2  -4 419.764 97.0384  26
  -3   2  -4 512.458 139.478  18
   3  -2   5-30.7910 249.746  12
   3  -2   5 17.9989 176.686  31
  -3   2  -5 6.61050 97.2159  26
  -3   2  -5 54.9620 112.562  14
   3  -2   5 10.5722 170.991  32
  -3   2  -5 17.7693 70.6922  24
  -3   2  -6 2.09608 109.109  26
   3  -2   6 171.303 201.712  32
   3  -2   6-43.0736 207.221  31
   3  -2   6 81.0567 191.903  33
  -3   2  -6 8.19695 84.2585  24
   3  -2   7 235.031 213.160  32
   3  -2   7 402.154 255.350  31
  -3   2  -7 284.839 124.628  26
  -3   2  -7 227.535 102.476  24
   3  -2   7 208.065 231.622  33
   3  -2   8-60.3698 198.972  32
  -3   2  -8-35.7096 106.412  24
  -3   2  -9 334.825 166.530  59
   3  -2   9 233.265 168.673  32
   3  -2   9 208.012 167.101  52
  -3   2  -9 258.286 214.834  18
  -3   2  -9 285.378 181.992  38
  -3   2  -9 331.220 128.310  24
  -3   2 -10 272.415 158.706  59
   3  -2  10 260.564 192.637  58
   3  -2  10 130.957 184.074  52
   3  -2  10 222.539 175.068  46
  -3   2 -10 382.577 171.570  38
  -3   2 -10 228.197 122.001  24
  -3   2 -11 101.281 146.843  59
   3  -2  11 148.364 177.840  58
   3  -2  11 248.238 171.052  46
  -3   2 -11 198.227 163.831  38
  -3   2 -12 61.7812 129.990  59
   3  -2  12-26.4706 152.471  46
  -3   2 -12-15.8842 152.718  38
   3  -2  13 455.058 128.630  46
  -3   2 -13 597.094 134.370  38
  -3   1  14 99.1976 94.1213  45
   3  -1 -14 47.5360 107.980  38
   3  -1 -13-10.2510 124.436  48
  -3   1  13-21.9517 104.890  49
  -3   1  13 11.1552 133.572  45
   3  -1 -13 187.278 145.993  38
   3  -1 -12 21.0112 153.639  60
  -3   1  12 97.5796 147.398  45
   3  -1 -12 214.149 148.867  48
  -3   1  12-42.0108 133.271  49
   3  -1 -12-21.0265 190.053  38
  -3   1  11 79.6608 167.095  45
   3  -1 -11 26.9373 187.447  60
  -3   1  11 60.8314 147.524  49
   3  -1 -10-86.9974 220.221  60
   3  -1 -10 27.3145 146.913  27
  -3   1  10-23.7173 147.247  49
  -3   1  10-94.4929 163.567  45
  -3   1  10 144.162 156.944   5
  -3   1   9 32.9738 155.988  36
   3  -1  -9 137.002 185.350  13
  -3   1   9-53.9328 169.821  45
  -3   1   9 42.4876 146.571   5
   3  -1  -9 25.2520 150.223  27
   3  -1  -9 51.9059 127.050  24
   3  -1  -8 270.744 185.178  13
  -3   1   8 281.441 161.411   5
   3  -1  -8 224.926 151.835  27
   3  -1  -8 289.147 121.814  24
   3  -1  -7 55.9508 167.316  13
  -3   1   7-46.7017 155.986  34
  -3   1   7-36.3659 137.312   5
   3  -1  -7 37.9157 132.631  27
   3  -1  -7 25.8574 104.740  24
   3  -1  -6 30.3178 152.379  13
  -3   1   6-19.7763 145.755  34
  -3   1   6 41.1664 132.359   5
   3  -1  -6 3.39715 121.171  27
   3  -1  -6 45.0667 89.9641  24
   3  -1  -5 1137.68 181.102  13
  -3   1   5 1171.09 160.573  34
  -3   1   5 1286.26 160.385   5
   3  -1  -5 1115.98 142.108  27
   3  -1  -4 1848.28 193.619  13
  -3   1   4 1747.52 222.330   3
  -3   1   4 1588.73 151.842   5
   3  -1  -4 1857.33 150.226  27
  -3   1   4 1731.47 163.629  34
   3  -1  -4 1593.28 169.232   7
   3  -1  -3 5705.21 260.304  13
  -3   1   3 5527.20 198.174  34
  -3   1   3 5459.50 208.840   5
   3  -1  -3 5778.44 199.543  27
  -3   1   3 5976.25 190.793  14
   3  -1  -3 5745.87 235.718   7
  -3   1   3 5932.98 372.058   3
   3  -1  -2 2247.00 170.764  13
  -3   1   2 1907.22 137.730   5
   3  -1  -2 1970.23 260.433   4
   3  -1  -2 2230.33 126.979  27
  -3   1   2 2113.14 139.895  14
   3  -1  -2 2153.48 146.200   7
  -3   1   2 2267.30 257.340   3
   3  -1  -2 2691.50 278.218   1
  -3   1   2 2125.42 141.733  34
  -3   1   1 65.0844 82.8691   2
   3  -1  -1 63.9206 105.386  13
  -3   1   1 125.565 177.874   3
  -3   1   1 39.8852 107.030  34
   3  -1  -1 45.2694 113.521   9
  -3   1   1 75.8976 97.1932  14
   3  -1  -1 14.7377 173.463   1
  -3   1   1 46.7643 90.8570   5
   3  -1   0 516.023 99.9002  13
  -3   1   0 460.231 187.335   1
   3  -1   0 484.087 116.116   9
  -3   1   0 496.218 216.472   3
   3  -1   0 472.862 172.956   0
  -3   1   0 529.242 118.962  14
  -3   1   0 530.021 101.881   5
  -3   1  -1 1105.55 226.787   3
  -3   1  -1 1113.34 208.351   1
   3  -1   1 1174.12 118.318   9
  -3   1  -1 1046.36 142.924  14
   3  -1   1 1081.78 197.654   0
   3  -1   1 1146.71 107.461  23
   3  -1   2-16.9493 84.0605  23
   3  -1   2 17.3221 93.4840  32
  -3   1  -2-23.1947 167.145   3
   3  -1   2-18.9150 139.598   6
  -3   1  -2 98.0418 105.020  18
   3  -1   2 151.734 183.658   0
  -3   1  -2-65.3045 189.541   1
  -3   1  -2 40.2722 106.836  14
   3  -1   3 213.427 100.707  23
   3  -1   3 236.570 114.837  32
   3  -1   3 274.876 160.322   6
  -3   1  -3 388.587 168.066   3
  -3   1  -3 266.353 85.7333  26
  -3   1  -3 284.100 127.958  14
   3  -1   3 137.247 138.393  12
   3  -1   4 177.161 150.697  32
   3  -1   4 138.230 180.027  12
   3  -1   4 201.258 128.649  31
  -3   1  -4 245.712 95.4680  26
  -3   1  -4 259.251 129.134  14
  -3   1  -4 220.443 67.1625  24
   3  -1   5 62.3843 240.600  12
   3  -1   5 113.484 163.371  31
   3  -1   5 93.1175 168.593  32
  -3   1  -5 30.2915 91.9264  26
  -3   1  -5-11.4521 113.920  14
  -3   1  -5 1.34528 73.2450  24
   3  -1   6-35.4584 180.065  33
   3  -1   6 29.4717 211.234  32
   3  -1   6 153.596 196.756  31
  -3   1  -6 44.9656 104.234  26
  -3   1  -6 91.1023 85.3789  24
   3  -1   7-115.879 226.204  32
   3  -1   7-53.1884 234.365  31
  -3   1  -7-19.5642 117.150  26
  -3   1  -7-4.91729 92.0713  24
   3  -1   8 244.942 199.436  32
  -3   1  -8 75.3277 127.041  26
  -3   1  -8 58.2545 111.340  24
   3  -1   9 67.6548 168.004  32
   3  -1   9 8.56873 177.690  52
  -3   1  -9 36.8918 127.007  26
   3  -1   9 112.227 177.796  46
   3  -1   9 186.199 190.090  58
  -3   1  -9 38.9150 122.427  24
  -3   1  -9 59.8418 177.662  38
  -3   1 -10 124.663 173.412  38
   3  -1  10 36.1164 197.346  58
   3  -1  10 137.337 162.395  32
   3  -1  10 53.6559 176.668  52
   3  -1  10 137.486 170.559  46
  -3   1 -10 82.8855 130.910  24
   3  -1  11 159.784 186.079  58
   3  -1  11 87.3260 166.705  46
  -3   1 -11 190.190 171.742  38
   3  -1  12 735.725 170.087  46
  -3   1 -12 862.033 171.611  38
   3  -1  13 59.4884 120.150  46
  -3   1 -13 70.8986 134.901  38
   3  -1  14-6.07153 114.958  50
  -3   1 -14-27.1604 96.3423  38
  -3   0  14-15.8177 93.8643  45
   3   0 -13 541.015 136.874  48
  -3   0  13 285.545 145.079  45
   3   0 -13 493.584 148.863  38
   3   0 -12 425.145 169.644  60
  -3   0  12 350.025 139.462  49
   3   0 -12 246.320 159.120  48
  -3   0  12 173.358 162.544  45
   3   0 -12 417.558 184.806  38
   3   0 -11 116.384 190.026  60
  -3   0  11 241.230 146.545  49
   3   0 -11 322.906 172.391  48
  -3   0  11 140.012 168.005  45
  -3   0  10 99.7013 154.113  36
   3   0 -10 229.665 215.196  60
  -3   0  10 180.087 148.867  49
   3   0 -10 301.326 160.921  47
  -3   0  10 232.043 169.388  45
  -3   0  10 57.9986 170.549   5
   3   0 -10 170.687 146.587  27
  -3   0   9 72.6681 149.581  36
   3   0  -9-10.7988 268.545  60
  -3   0   9-17.4549 179.558  45
   3   0  -9 131.921 183.217  47
  -3   0   9-4.62542 163.633   5
   3   0  -9 29.8689 142.755  27
   3   0  -9 51.8231 115.833  24
  -3   0   8 125.095 163.598   5
   3   0  -8 67.3923 135.007  27
   3   0  -8 141.020 108.707  24
   3   0  -7 121.071 146.125   9
  -3   0   7 101.094 154.003   5
   3   0  -7 96.4714 138.299  27
   3   0  -7 36.0232 161.416  13
   3   0  -7 149.727 99.2938  24
   3   0  -6 39.3065 135.286  13
  -3   0   6-13.5487 149.396   5
   3   0  -6 41.1070 114.060  27
   3   0  -6-20.3429 79.8869  24
   3   0  -5 299.231 140.307  13
  -3   0   5 376.187 134.822   5
   3   0  -5 344.237 114.683  27
   3   0  -5 320.513 84.7673  24
   3   0  -4 73.1504 133.561  13
  -3   0   4 38.2301 162.462   3
   3   0  -4 105.506 109.496  27
  -3   0   4 79.7085 117.104   5
   3   0  -3 3920.73 222.220  13
   3   0  -3 3759.56 206.083   9
   3   0  -3 4459.04 319.650   4
  -3   0   3 3963.75 187.563   5
   3   0  -3 4112.75 174.505  27
  -3   0   3 4467.57 333.365   3
   3   0  -2 7898.79 263.764  13
  -3   0   2 8030.83 232.405   5
   3   0  -2 8358.92 391.199   4
   3   0  -2 7899.90 248.910   9
   3   0  -2 7936.34 203.670  27
  -3   0   2 8542.68 210.777  14
  -3   0   2 8338.44 425.164   3
   3   0  -2 8613.92 413.884   1
   3   0  -1 6033.06 343.167   1
   3   0  -1 6240.23 169.365  29
  -3   0   1 5851.11 196.780   5
  -3   0   1 5997.98 216.965  17
  -3   0   1 5454.33 350.065   3
   3   0  -1 5671.09 210.953   9
  -3   0   1 5893.04 202.305  14
  -3   0   0 1110.72 216.670   3
  -3   0   0 1294.06 215.002   1
  -3   0   0 1161.41 115.632   5
  -3   0   0 1152.72 130.313  14
   3   0   0 1366.93 216.580   1
   3   0   0 1142.96 134.492   9
   3   0   0 1219.72 114.939  23
  -3   0   0 1407.62 126.342  17
   3   0   1-8.21694 94.2184  23
  -3   0  -1 39.3556 180.975   3
  -3   0  -1 13.2793 158.987   1
  -3   0  -1-4.02268 80.2210  17
   3   0   1-52.8821 161.949   0
  -3   0  -1 17.9668 119.343  14
   3   0   2 219.012 105.080  32
   3   0   2 280.973 95.2447  23
   3   0   2 332.017 130.261   6
   3   0   2 174.228 181.538   0
  -3   0  -2 202.094 173.508   3
  -3   0  -2 246.233 179.929   1
  -3   0  -2 180.388 125.669  14
   3   0   3 62.0698 109.290  23
  -3   0  -3 22.2929 173.091   3
   3   0   3-45.8005 137.193  12
   3   0   3 115.054 149.663   6
   3   0   3-17.8801 122.686  32
  -3   0  -3 32.3070 83.9059  28
  -3   0  -3 11.2669 123.562  14
   3   0   4 97.8600 113.694  23
   3   0   4 25.5082 159.748  32
   3   0   4 26.0301 120.092  31
  -3   0  -4 16.4539 121.414  14
   3   0   4 18.6963 176.783  12
  -3   0  -4 58.8081 65.7111  24
   3   0   5-46.3165 160.600  31
   3   0   5 7.08193 109.392  23
   3   0   5 24.9143 190.178  32
  -3   0  -5 10.2318 80.3608  24
  -3   0  -5 16.5966 121.407  14
   3   0   6-34.0340 198.677  31
   3   0   6-27.0475 211.578  32
  -3   0  -6-21.9813 112.677  26
  -3   0  -6-7.51123 131.125  14
  -3   0  -6 17.6632 88.6704  24
   3   0   7-15.9620 211.529  32
  -3   0  -7 51.6196 118.949  26
  -3   0  -7-3.88710 105.677  24
   3   0   8-62.0390 201.379  32
  -3   0  -8-12.9261 109.199  24
  -3   0  -8-6.28464 139.701  26
   3   0   9 198.960 207.092  58
  -3   0  -9 228.913 204.508  56
   3   0   9 172.183 189.514  52
   3   0   9 242.703 193.395  32
   3   0   9 240.509 166.546  46
  -3   0  -9 244.220 140.505  26
  -3   0  -9 210.890 127.688  24
  -3   0  -9 61.6616 183.756  38
   3   0  10 20.1898 163.689  32
  -3   0 -10 40.1839 172.806  38
   3   0  10-29.4304 157.902  46
  -3   0 -10-59.3605 131.683  26
  -3   0 -10-19.9516 175.085  56
   3   0  10 72.1750 189.330  58
  -3   0 -10-18.4643 132.395  24
   3   0  11-59.0091 184.122  58
  -3   0 -11 25.1776 170.437  56
   3   0  11-20.6333 167.432  46
  -3   0 -11-38.5499 165.739  38
   3   0  12 136.409 141.607  46
  -3   0 -12 144.336 167.911  38
  -3   0 -13 11.7419 131.203  38
   3   0  13 48.0860 163.464  50
   3   0  14 80.0865 126.549  50
  -3   0 -14 120.548 107.241  38
   3   1 -13 203.246 124.588  48
  -3  -1  13 116.583 125.533  45
   3   1 -13 56.3904 126.401  38
  -3  -1  12 28.6792 154.402  45
   3   1 -12-3.75995 153.189  48
   3   1 -12 59.9913 131.503  47
   3   1 -12-52.2658 161.319  38
  -3  -1  11 150.414 144.049  36
   3   1 -11 118.243 166.912  48
   3   1 -11 253.613 186.966  60
   3   1 -11 398.390 154.143  47
  -3  -1  11 313.753 171.929  45
   3   1 -11 312.950 184.893  38
  -3  -1  10 618.714 170.940  36
   3   1 -10 556.642 135.649  24
   3   1 -10 750.846 179.213  47
  -3  -1  10 566.420 180.184  45
   3   1 -10 593.938 209.246  60
  -3  -1   9-7.94116 153.180  36
   3   1  -9 162.579 235.823  60
   3   1  -9 122.242 178.431  47
  -3  -1   9 109.606 176.526  45
  -3  -1   9-17.5441 168.109   5
   3   1  -9 97.6703 116.348  24
  -3  -1   8-3.18930 156.737   5
   3   1  -8-64.7286 134.147  27
   3   1  -8 27.5336 107.622  24
  -3  -1   7 155.255 146.870   5
   3   1  -7 173.986 125.396  27
   3   1  -7 185.450 96.4716  24
  -3  -1   6 578.333 154.402   5
   3   1  -6 473.769 131.277  27
   3   1  -6 530.099 96.9539  24
   3   1  -6 573.068 116.762  29
  -3  -1   5 78.8175 121.794   5
   3   1  -5 49.2860 95.1885  29
   3   1  -5 44.9853 122.756   9
   3   1  -5 90.4619 112.614  27
   3   1  -5 56.3171 68.0140  24
   3   1  -4 103.089 102.955  29
   3   1  -4 67.4179 125.404   9
   3   1  -4 56.7517 195.260   4
   3   1  -4 171.599 106.794  27
  -3  -1   4 112.435 114.133   5
  -3  -1   4 80.5203 77.0275  30
  -3  -1   3 1987.27 155.233   5
   3   1  -3 2069.84 222.889   4
  -3  -1   3 1968.66 114.880  30
  -3  -1   3 1719.23 168.569  17
   3   1  -3 1810.54 161.498   9
   3   1  -3 1899.79 126.531  29
   3   1  -3 1918.08 137.566  27
  -3  -1   3 1773.23 252.972   3
   3   1  -2 157.233 192.659   1
  -3  -1   2 344.468 121.201  17
   3   1  -2 308.275 119.325   9
  -3  -1   2 359.822 85.2697  30
   3   1  -2 327.327 89.3821  27
   3   1  -2 330.343 150.173   4
  -3  -1   2 300.459 64.0979   2
  -3  -1   2 433.196 109.237   5
  -3  -1   2 465.773 95.2670  14
   3   1  -2 409.633 102.569  29
   3   1  -2 427.622 98.7616  23
   3   1  -1 3023.45 283.200   1
  -3  -1   1 2289.32 123.404  30
   3   1  -1 2581.98 162.937   9
  -3  -1   1 2687.30 148.922   5
  -3  -1   1 2628.87 162.821  17
   3   1  -1 2662.12 130.903  29
   3   1  -1 2414.17 141.081  15
   3   1  -1 2702.04 135.341  23
   3   1   0 1616.92 220.997   1
  -3  -1   0 1314.19 120.802   5
  -3  -1   0 1416.49 109.502  30
   3   1   0 1486.94 108.839  29
   3   1   0 1512.72 108.453  15
   3   1   0 1389.34 117.740  23
   3   1   1 380.578 100.408  23
   3   1   1 358.806 113.935   6
   3   1   1 224.312 175.064   0
  -3  -1  -1 404.292 173.687   1
   3   1   2 14.4237 101.960  23
   3   1   2 103.168 126.287   6
   3   1   2 68.6763 167.528   0
  -3  -1  -2-10.7291 156.805   1
  -3  -1  -2-24.2644 70.9677  28
   3   1   2-2.53503 104.985  32
   3   1   3 180.378 121.105  23
   3   1   3 122.411 130.120  12
  -3  -1  -3 153.779 79.5321  28
   3   1   3 179.361 135.680  32
  -3  -1  -4 55.8511 199.188   3
   3   1   4 56.8864 131.862  23
   3   1   4 25.6594 164.241  12
   3   1   4 92.0018 165.563  32
   3   1   4 65.4767 118.134  31
  -3  -1  -4 72.5547 95.1569  28
  -3  -1  -4 38.7726 79.6026  24
   3   1   5 18.4078 123.673  23
   3   1   5 99.1399 192.091  32
   3   1   5 54.3518 162.149  31
  -3  -1  -5-10.9158 96.6701  28
  -3  -1  -5 29.6225 85.6662  24
   3   1   6 56.5179 117.126  23
   3   1   6 92.3953 198.739  32
   3   1   6 44.1543 163.458  31
  -3  -1  -6 48.2813 101.237  24
   3   1   7 15.5915 207.134  32
  -3  -1  -7 24.8269 107.792  24
   3   1   8 305.624 193.356  32
  -3  -1  -8 243.239 133.429  26
  -3  -1  -8 227.420 123.048  24
   3   1   9 17.4011 207.240  58
  -3  -1  -9-95.2956 202.495  56
   3   1   9 156.230 176.827  46
   3   1   9 6.58019 188.501  32
  -3  -1  -9 6.32441 132.718  26
  -3  -1  -9 48.1053 128.047  24
  -3  -1  -9-48.7928 196.227  38
   3   1  10 491.152 165.557  32
  -3  -1 -10 581.470 202.083  56
   3   1  10 401.410 174.269  46
   3   1  10 472.284 207.592  58
  -3  -1 -10 571.397 146.800  26
  -3  -1 -10 644.727 151.156  24
  -3  -1 -10 508.294 191.582  38
   3   1  11 30.2534 154.097  32
   3   1  11 224.148 176.772  58
  -3  -1 -11 193.575 167.894  56
   3   1  11 39.2869 165.348  46
  -3  -1 -11 204.868 137.968  26
  -3  -1 -11 278.360 138.705  24
  -3  -1 -11 200.777 165.346  38
  -3  -1 -12 59.7555 156.733  56
   3   1  12 68.2865 141.240  46
  -3  -1 -12 16.8125 166.773  38
  -3  -1 -13 87.3363 129.155  56
   3   1  13 63.8999 174.463  50
  -3  -1 -13 15.8165 141.181  38
   3   1  14-29.9500 132.193  50
  -3  -1 -14 36.5944 109.026  38
   3   2 -13 70.4780 112.862  48
  -3  -2  13-22.1810 130.589  45
   3   2 -13 55.1828 108.077  47
   3   2 -12 751.478 156.181  47
   3   2 -12 554.547 158.642  48
  -3  -2  12 650.877 164.288  45
  -3  -2  11 119.368 145.502  36
   3   2 -11 78.2349 171.913  60
   3   2 -11 63.7931 159.070  47
  -3  -2  11 16.4917 160.257  45
   3   2 -11-53.8328 166.916  48
  -3  -2  10 60.9273 154.155  36
  -3  -2  10 117.464 172.784  45
   3   2 -10-2.91904 189.795  60
   3   2 -10 124.625 173.863  47
  -3  -2   9 762.859 170.327  36
   3   2  -9 471.300 211.907  60
   3   2  -9 353.107 177.972  47
   3   2  -9 519.903 208.477  15
  -3  -2   9 537.610 177.768  45
  -3  -2   9 348.532 183.939   5
   3   2  -9 584.910 133.391  24
   3   2  -8 230.530 181.998  15
  -3  -2   8 297.820 189.799   5
   3   2  -8 199.384 110.373  24
   3   2  -7 972.902 202.080  15
  -3  -2   7 1071.51 194.890   5
   3   2  -7 1017.08 134.845  24
  -3  -2   6 592.530 160.881   5
   3   2  -6 525.231 187.400  15
   3   2  -6 565.792 103.369  24
  -3  -2   5 298.150 113.042  33
   3   2  -5 477.263 109.519  29
   3   2  -5 202.841 159.333  15
  -3  -2   5 269.848 141.093   5
  -3  -2   5 412.212 97.7979  30
   3   2  -5 299.374 85.2476  24
   3   2  -4 60.2670 142.056  15
   3   2  -4 102.470 111.429   9
  -3  -2   4 74.1431 100.660  33
  -3  -2   4 134.710 120.216  17
  -3  -2   4 102.509 84.9950  30
   3   2  -4 85.3396 96.5408  29
  -3  -2   4 93.4476 116.961   5
   3   2  -4 149.192 71.9797  24
   3   2  -3 196.813 90.8769  23
  -3  -2   3 209.261 94.4014  33
  -3  -2   3 350.500 129.598  17
   3   2  -3 272.802 92.8117  29
   3   2  -3 191.937 132.435  15
  -3  -2   3 258.784 113.517   5
  -3  -2   3 204.498 88.4680  30
   3   2  -2 250.137 94.3175  23
  -3  -2   2 214.372 118.372  17
   3   2  -2 195.174 89.2740  29
   3   2  -2 289.915 119.918  15
   3   2  -2 265.652 109.902   4
  -3  -2   2 192.887 93.7070   2
  -3  -2   2 203.143 106.904   5
  -3  -2   2 224.157 89.2550  30
   3   2  -1 341.268 96.5312  23
  -3  -2   1 292.753 88.5338  30
  -3  -2   1 300.128 86.1954  20
   3   2  -1 239.936 107.075  15
   3   2  -1 160.703 194.978   1
  -3  -2   1 299.690 96.3928   5
   3   2   0 337.344 109.656  23
  -3  -2   0 300.844 69.3989  20
   3   2   0 292.035 171.351   1
  -3  -2   0 375.227 91.7630  30
   3   2   0 330.348 96.6087  15
  -3  -2   0 359.140 95.4764   5
   3   2   1 60.7115 108.594  23
   3   2   1-20.3753 94.4728   6
  -3  -2  -1 114.674 78.7762  21
   3   2   1 77.5534 155.650   0
  -3  -2  -1 150.602 165.984   1
  -3  -2  -1 48.2726 83.3987  30
  -3  -2  -1 43.1637 65.2883  28
  -3  -2  -1 57.2107 75.5129   8
   3   2   2 17.5968 111.545  23
  -3  -2  -2 15.4879 77.1429  30
  -3  -2  -2 4.41125 73.8508  28
   3   2   2 44.3745 114.887  32
   3   2   2 77.2885 169.240   0
  -3  -2  -2 25.0082 67.7435  21
   3   2   2 23.1160 237.191   4
  -3  -2  -2 46.7176 161.879   1
  -3  -2  -2 28.6894 93.3565   8
  -3  -2  -2 15.9845 68.6194  25
   3   2   3 8.59485 126.699  23
  -3  -2  -3 91.2105 67.3693  21
   3   2   3 22.0721 138.877  32
  -3  -2  -3 42.5236 79.4614  28
  -3  -2  -3 56.7058 82.0104  25
  -3  -2  -3 90.7013 96.4422   8
  -3  -2  -3 49.2560 64.2631  24
   3   2   4 9.67090 132.871  23
   3   2   4-4.15574 170.784  32
  -3  -2  -4-15.9848 103.882  16
  -3  -2  -4 11.1723 91.3906  28
  -3  -2  -4 1.20588 78.9173  24
   3   2   4 59.6196 97.4655  34
   3   2   5 49.6246 127.899  23
   3   2   5 9.53914 185.988  32
  -3  -2  -5 10.5574 103.721  16
  -3  -2  -5 55.7499 96.3974  28
  -3  -2  -5 69.5179 94.8830  24
   3   2   6 28.4636 127.186  23
  -3  -2  -6 16.9498 106.242  28
  -3  -2  -6 15.4396 96.4635  24
   3   2   6 121.882 175.535  32
   3   2   7 157.983 174.744  32
  -3  -2  -7 46.6094 112.009  24
   3   2   8-6.67993 171.920  32
  -3  -2  -8-2.63967 121.270  24
   3   2   9-15.2389 186.946  58
  -3  -2  -9 85.6129 182.280  56
   3   2   9 1.55918 170.924  32
   3   2   9-130.922 170.754  46
  -3  -2  -9 6.06683 137.605  26
  -3  -2  -9 75.6111 132.202  24
  -3  -2  -9 78.1262 192.757  38
   3   2  10 27.1365 155.654  32
   3   2  10 76.9244 198.597  58
  -3  -2 -10 174.621 197.212  56
  -3  -2 -10 201.415 134.947  26
   3   2  10 120.075 150.050  46
  -3  -2 -10 63.6032 142.865  24
  -3  -2 -10 71.5658 178.157  38
   3   2  11-67.5397 170.382  58
   3   2  11-69.7755 212.943  50
  -3  -2 -11 9.47926 192.790  56
   3   2  11-103.603 153.978  46
  -3  -2 -11 49.6638 171.828  38
   3   2  12-88.8634 190.091  50
  -3  -2 -12 51.8647 165.818  56
  -3  -2 -12 18.1314 162.518  38
   3   2  13 118.565 175.925  50
  -3  -2 -13 117.198 145.729  56
  -3  -2 -13 158.899 145.282  38
   3   2  14 87.1466 129.035  50
  -3  -2 -14 44.3679 102.940  38
  -3  -3  13 17.2471 114.144  45
   3   3 -13 74.1951 97.2493  47
   3   3 -12 74.6762 128.698  48
   3   3 -12 135.158 136.361  47
  -3  -3  12 103.510 148.342  45
  -3  -3  11-45.9011 130.742  36
   3   3 -11 83.8858 160.948  47
   3   3 -11 78.9482 147.785  48
  -3  -3  11 8.16379 164.102  45
  -3  -3  10-10.6986 145.985  36
   3   3 -10-45.8185 165.389  48
   3   3 -10 0.77229 177.592  60
   3   3 -10-1.33603 159.249  47
  -3  -3  10 153.310 170.285  45
   3   3 -10 2.14023 147.698  63
  -3  -3   9 247.883 160.969  36
   3   3  -9 395.839 188.110  60
   3   3  -9 281.668 161.963  63
  -3  -3   9 242.605 176.580  45
   3   3  -9 394.897 185.884  47
   3   3  -9 247.554 204.116  15
  -3  -3   9 449.386 191.961   5
  -3  -3   8-56.2059 171.932  36
   3   3  -8-41.4794 217.751  60
  -3  -3   8-39.8318 182.721  45
   3   3  -8-17.2711 183.688  47
   3   3  -8 94.3290 180.106  15
  -3  -3   8 39.9749 181.214   5
  -3  -3   7 185.714 131.909  33
   3   3  -7 37.5647 175.699  15
  -3  -3   7 156.522 153.383   5
   3   3  -6 4063.23 288.109  15
  -3  -3   6 4356.41 272.869   5
  -3  -3   6 4127.80 224.588  33
  -3  -3   5 9965.49 344.465   5
  -3  -3   5 10045.9 297.691  33
  -3  -3   5 10119.7 264.783  30
   3   3  -5 9829.49 369.724  15
  -3  -3   4 5044.87 209.928  33
  -3  -3   4 5194.41 241.923   5
   3   3  -4 5120.53 280.247  10
   3   3  -4 5280.78 267.377  15
  -3  -3   4 4854.60 257.097  17
  -3  -3   4 4904.98 192.628  30
   3   3  -3 1476.45 240.349  10
  -3  -3   3 1365.93 143.355   5
  -3  -3   3 1405.76 165.350  17
  -3  -3   3 1368.70 125.427  30
   3   3  -3 1225.65 170.050  15
  -3  -3   3 1368.20 129.417  33
   3   3  -2 209.755 95.5094  23
  -3  -3   2 155.492 84.0347  19
  -3  -3   2 216.006 96.9443  30
   3   3  -2 371.314 135.547  15
  -3  -3   2 207.761 89.2478  33
  -3  -3   2 232.026 101.362   5
   3   3  -1 1816.95 225.331   1
  -3  -3   1 1503.56 134.563  20
  -3  -3   1 1555.97 125.479  30
  -3  -3   1 1702.57 131.878   5
   3   3  -1 1568.13 146.154  15
   3   3  -1 1715.93 128.661  23
   3   3   0 24.3651 104.874  23
  -3  -3   0-12.4014 83.0609   5
  -3  -3   0-28.3225 98.1647  21
   3   3   0 27.8500 161.812   4
   3   3   0-24.8109 158.538   1
  -3  -3   0 34.5065 81.4856  30
   3   3   0 10.3099 99.6248  15
  -3  -3   0 17.7513 81.4823  20
   3   3   1 59.9812 109.854  23
  -3  -3  -1 12.2050 84.2424  30
   3   3   1-40.3696 217.476   4
  -3  -3  -1 18.0894 93.2095  21
   3   3   1 131.223 140.113   0
   3   3   2-33.1843 122.884  23
  -3  -3  -2-39.7309 84.9526  21
  -3  -3  -2 33.2406 165.444   1
   3   3   2-37.2808 122.903  32
  -3  -3  -2-45.9827 81.1605  30
  -3  -3  -2-34.0752 95.8844   8
  -3  -3  -2 13.3601 72.0213  25
  -3  -3  -2-18.8322 80.2794  28
   3   3   2-13.1416 162.452   0
   3   3   2 0.00000 256.672   4
   3   3   3 3736.42 162.175  34
   3   3   3 3780.44 214.757  32
  -3  -3  -3 3859.48 144.824  30
  -3  -3  -3 3636.03 211.709  16
  -3  -3  -3 3467.44 156.475  28
  -3  -3  -3 3467.60 194.313   8
  -3  -3  -3 3631.69 157.791  25
   3   3   3 3319.04 191.182  23
   3   3   4 522.131 142.647  23
   3   3   4 529.444 115.136  34
  -3  -3  -4 445.832 129.381  16
   3   3   4 394.458 160.377  32
   3   3   4 334.524 174.632  10
  -3  -3  -4 404.339 101.435  28
  -3  -3  -4 491.952 136.950   8
  -3  -3  -4 562.647 108.627  25
   3   3   5 141.629 124.964  23
  -3  -3  -5 72.3334 98.4307  28
   3   3   5 123.166 100.707  34
  -3  -3  -5 87.8697 91.8801  24
   3   3   5 8.17856 160.022  32
  -3  -3  -5 63.9797 130.722  16
  -3  -3  -6-1.58308 112.458  28
   3   3   6 59.5047 160.396  32
  -3  -3  -6 54.9399 105.928  24
  -3  -3  -6 184.911 136.892  16
   3   3   7 56.0719 168.517  32
  -3  -3  -7 46.2900 119.673  28
  -3  -3  -7-24.8632 127.721  24
   3   3   8 97.1759 164.622  32
  -3  -3  -8 4.98858 132.581  24
   3   3   9 60.6076 183.188  58
  -3  -3  -9 307.207 207.022  56
   3   3   9 271.502 155.375  32
   3   3   9 100.764 222.975  50
  -3  -3  -9 307.860 150.607  26
  -3  -3  -9 160.558 142.034  24
   3   3  10 1509.41 214.442  58
   3   3  10 1425.52 191.581  32
   3   3  10 1444.09 241.358  50
  -3  -3 -10 1233.15 180.604  26
  -3  -3 -10 1357.41 187.031  24
  -3  -3 -10 1452.75 234.151  56
  -3  -3 -10 1335.05 206.500  38
   3   3  11 87.3304 163.895  58
  -3  -3 -11 1.99511 188.402  56
   3   3  11 194.638 194.480  50
  -3  -3 -11 23.2283 172.164  38
   3   3  12 161.747 187.311  50
  -3  -3 -12 213.693 176.985  56
  -3  -3 -12 286.265 151.050  38
  -3  -3 -13 120.808 134.633  56
   3   3  13 43.7612 171.328  50
  -3  -3 -13 76.6942 137.339  38
   3   3  14-58.7139 117.418  50
  -3  -3 -14 6.03634 97.1862  56
   3   4 -12 302.614 123.036  47
  -3  -4  12 82.1809 136.585  45
   3   4 -11 182.060 130.094  63
   3   4 -11 207.708 131.019  48
   3   4 -11 261.161 147.034  47
  -3  -4  11 98.1294 158.301  45
  -3  -4  10 298.376 146.758  36
   3   4 -10 509.779 152.434  48
   3   4 -10 333.883 167.025  47
  -3  -4  10 142.941 177.666  45
   3   4 -10 427.223 153.562  63
  -3  -4   9 154.815 161.841  36
   3   4  -9 270.328 159.525  63
   3   4  -9 287.677 155.956  48
   3   4  -9 241.235 157.100  47
  -3  -4   9 306.106 178.374  45
  -3  -4   8 692.507 184.998  36
   3   4  -8 517.698 193.175  60
   3   4  -8 325.734 213.401  15
   3   4  -8 608.086 174.429  63
   3   4  -8 529.993 181.984  47
  -3  -4   8 525.732 197.272  45
  -3  -4   7 908.019 164.144  33
   3   4  -7 815.199 216.626  15
  -3  -4   6 1.37521 132.959  33
  -3  -4   6 19.2822 118.393  30
   3   4  -6 17.1498 173.336  15
  -3  -4   5 1223.98 143.654  30
   3   4  -5 1315.75 205.572  15
  -3  -4   5 1390.22 165.741  33
   3   4  -4 287.435 149.661  10
  -3  -4   4 348.764 124.379  33
  -3  -4   4 321.167 117.021  30
  -3  -4   4 280.474 133.424  17
   3   4  -4 265.060 162.551  15
  -3  -4   3 2929.35 177.990  33
   3   4  -3 2611.55 233.402  10
  -3  -4   3 3174.28 205.668  19
  -3  -4   3 2980.07 221.140  17
  -3  -4   3 2756.90 174.894  30
   3   4  -3 2946.56 221.630  15
  -3  -4   2 577.667 132.718  20
   3   4  -2 513.516 186.510  10
  -3  -4   2 615.780 110.848  33
  -3  -4   2 487.275 117.862  30
   3   4  -2 604.392 151.767  15
  -3  -4   1 752.629 98.5019  33
  -3  -4   1 724.854 131.202  20
   3   4  -1 617.953 216.244  10
  -3  -4   1 618.891 117.239  30
   3   4  -1 740.050 142.090  15
   3   4   0 80.2477 111.443  23
  -3  -4   0 29.9280 111.829  21
  -3  -4   0 8.75813 92.3832  20
   3   4   0-22.8023 194.535  10
  -3  -4   0-0.82204 93.2294  30
   3   4   1 7.57950 118.613  23
  -3  -4  -1-24.7357 102.446  21
   3   4   1-25.9160 190.666  10
  -3  -4  -1 8.74518 91.0178  30
  -3  -4  -2 3531.40 199.575  21
  -3  -4  -2 3383.98 195.036   8
   3   4   2 2939.96 259.726  10
  -3  -4  -2 3485.55 156.818  30
   3   4   2 3226.92 188.242  23
   3   4   3 709.146 145.691  23
  -3  -4  -3 792.973 159.880  16
  -3  -4  -3 770.503 131.166  21
   3   4   3 987.882 184.233  10
  -3  -4  -3 991.868 108.448  30
  -3  -4  -3 801.960 111.636  28
  -3  -4  -3 813.444 141.383   8
  -3  -4  -3 829.153 113.693  25
   3   4   3 947.788 132.428  34
   3   4   4 451.518 133.710  23
   3   4   4 354.086 148.310  10
  -3  -4  -4 301.224 149.234  16
  -3  -4  -4 401.089 136.935   8
  -3  -4  -4 365.764 109.868  28
  -3  -4  -4 306.982 102.817  25
   3   4   4 377.617 123.816  34
  -3  -4  -5 247.087 107.836  28
   3   4   5 269.792 132.026  32
  -3  -4  -5 244.577 156.108  16
  -3  -4  -5 242.719 148.476   8
  -3  -4  -5 243.505 112.326  25
  -3  -4  -5 283.043 104.684  24
   3   4   5 283.369 119.525  34
  -3  -4  -6 257.408 162.192  16
   3   4   6 298.733 131.413  34
   3   4   6 297.154 140.781  32
  -3  -4  -6 272.747 125.069  28
  -3  -4  -6 174.421 112.541  24
   3   4   7 82.6779 137.704  32
  -3  -4  -7 42.3729 169.767  16
  -3  -4  -7-35.8646 136.690  28
  -3  -4  -7 36.4627 125.978  24
   3   4   8-15.2513 138.872  32
  -3  -4  -8 67.8189 134.503  28
  -3  -4  -8-10.3264 143.624  24
   3   4   9 48.6620 185.642  58
  -3  -4  -9 148.257 211.832  56
   3   4   9 6.48848 142.791  32
   3   4   9-73.9782 215.028  50
  -3  -4  -9 12.6858 150.102  24
  -3  -4 -10 1284.16 237.071  56
   3   4  10 1507.34 230.212  50
   3   4  10 1429.28 191.113  32
  -3  -4 -10 1467.23 189.067  26
  -3  -4 -10 1554.98 202.325  24
   3   4  10 1654.35 205.430  58
   3   4  11-38.8859 198.713  50
  -3  -4 -11 32.1286 202.479  56
   3   4  11 25.6437 158.841  58
  -3  -4 -12-52.4464 193.595  56
   3   4  12 18.1976 181.964  50
  -3  -4 -13-68.4451 145.004  56
   3   4  13-91.7184 160.060  50
   3   5 -12 1209.11 123.742  59
   3   5 -12 1250.22 127.576  47
  -3  -5  12 1178.56 135.007  45
   3   5 -11 545.706 143.915  47
  -3  -5  11 434.316 148.090  45
  -3  -5  10-5.25011 122.784  36
   3   5 -10-80.8605 141.454  63
   3   5 -10-54.2947 158.253  47
  -3  -5  10 3.62261 155.861  45
  -3  -5   9-13.7661 156.252  36
   3   5  -9-23.6592 161.373  47
  -3  -5   9-5.70564 173.219  45
   3   5  -9 55.1481 152.008  63
  -3  -5   8 34.7488 163.044  36
   3   5  -8-115.912 169.863  63
   3   5  -8-52.3425 163.745  47
  -3  -5   8 64.8840 186.467  45
  -3  -5   7 182.992 169.255  36
  -3  -5   7 177.931 145.723  33
   3   5  -7 163.639 175.428  47
  -3  -5   7 343.663 196.325  45
   3   5  -7 40.0137 194.644  15
   3   5  -7 138.219 164.868  63
  -3  -5   6 495.195 156.176  33
  -3  -5   6 376.991 143.351  30
   3   5  -6 416.597 193.670  15
  -3  -5   5 2226.44 201.927  33
  -3  -5   5 1929.28 186.060  30
   3   5  -5 1938.03 243.680  15
  -3  -5   4 1004.12 165.257  33
  -3  -5   4 897.069 161.181  30
   3   5  -4 1087.81 195.602  15
   3   5  -3 777.016 174.200  10
  -3  -5   3 807.155 158.400  17
  -3  -5   3 795.336 148.287  30
  -3  -5   3 873.087 149.425  33
   3   5  -3 781.107 177.872  15
  -3  -5   3 883.041 164.997  19
  -3  -5   2 1361.30 179.837  20
   3   5  -2 1474.23 197.854  10
  -3  -5   2 1006.94 153.244  30
   3   5  -2 1041.39 182.929  15
  -3  -5   2 1435.75 142.377  33
  -3  -5   1 1293.71 174.997  20
  -3  -5   1 1309.05 150.772  30
   3   5  -1 1432.27 214.078  10
   3   5   0 61.7725 165.189  10
  -3  -5   0 180.802 108.923  30
  -3  -5   0 101.625 106.537  20
  -3  -5   0 138.569 131.654  21
   3   5   1 662.722 127.948  23
  -3  -5  -1 613.814 147.350  21
   3   5   1 603.872 175.162  10
  -3  -5  -1 648.382 119.623  30
   3   5   2 1198.74 151.977  34
  -3  -5  -2 1352.21 168.255  21
   3   5   2 1175.34 190.859  10
  -3  -5  -2 1202.73 127.699  30
   3   5   2 1173.74 141.513  23
   3   5   3 2959.77 232.195  10
  -3  -5  -3 2584.39 241.045  16
  -3  -5  -3 2900.17 176.234  28
  -3  -5  -3 2882.43 224.442   8
  -3  -5  -3 2827.44 175.235  25
   3   5   3 2862.01 181.426  34
  -3  -5  -3 2783.29 217.826  21
   3   5   3 2928.16 184.804  23
  -3  -5  -4 200.693 128.148  21
   3   5   4 219.394 140.462  10
   3   5   4 174.127 134.010  34
  -3  -5  -4 240.169 163.634  16
  -3  -5  -4 182.129 110.917  28
  -3  -5  -4 139.111 132.685   8
  -3  -5  -4 170.178 109.805  25
   3   5   5-13.9114 134.250  34
  -3  -5  -5 21.4889 117.409  28
  -3  -5  -5 53.3904 158.405   8
  -3  -5  -5-21.8635 115.711  25
  -3  -5  -5 73.5137 166.723  16
   3   5   6 124.946 137.771  34
  -3  -5  -6 123.203 182.093  16
  -3  -5  -6 62.3865 125.117  28
  -3  -5  -6 85.6621 128.220  25
  -3  -5  -6 148.108 158.251   8
  -3  -5  -6 7.50521 121.401  24
  -3  -5  -7 463.265 144.422  28
   3   5   7 535.437 157.178  34
  -3  -5  -7 539.568 216.561  16
  -3  -5  -7 532.168 155.947  24
   3   5   8 7.95234 172.271  58
  -3  -5  -8 60.5996 139.760  28
  -3  -5  -8-5.83608 224.930  56
   3   5   8 33.4038 136.131  32
   3   5   8-55.5549 209.517  50
  -3  -5  -8-10.7482 142.266  24
   3   5   9-37.8085 168.815  58
  -3  -5  -9 121.641 213.259  56
   3   5   9 41.7447 215.470  50
  -3  -5  -9 81.4930 147.009  24
   3   5  10 79.5726 168.697  58
  -3  -5 -10-9.99243 217.220  56
   3   5  10 56.0144 195.622  50
  -3  -5 -11 127.186 205.398  56
   3   5  11 20.6018 153.903  58
   3   5  11-30.0526 209.860  50
  -3  -5 -12-3.59253 177.723  56
  -3  -5 -12-22.2263 139.712  62
   3   5  12 18.9346 180.303  50
  -3  -5 -13-128.262 143.531  56
   3   5  13 62.5625 142.633  50
   3   6 -11 510.293 114.552  59
   3   6 -11 583.843 112.392  47
  -3  -6  11 608.699 134.986  45
   3   6 -10 236.363 132.918  47
  -3  -6  10 203.816 147.337  45
  -3  -6   9 713.737 146.396  36
   3   6  -9 566.819 162.795  63
   3   6  -9 720.977 155.592  47
  -3  -6   9 563.702 179.963  45
  -3  -6   8 24.6876 153.906  36
   3   6  -8 10.4257 165.146  63
   3   6  -8 100.554 150.748  47
  -3  -6   8 131.495 186.842  45
  -3  -6   7 338.017 182.975  36
   3   6  -7 298.839 152.195  47
  -3  -6   7 335.965 157.936  33
  -3  -6   7 186.706 204.571  45
   3   6  -7 403.911 169.725  43
   3   6  -7 303.398 166.844  63
  -3  -6   6 37.7961 167.904  36
  -3  -6   6-51.3487 152.972  33
   3   6  -6 31.8353 165.255  63
  -3  -6   6-38.8564 145.738  30
   3   6  -6-118.237 177.881  15
   3   6  -6-15.8757 154.671  43
   3   6  -6 42.8629 156.158  47
  -3  -6   5 250.637 178.757  36
   3   6  -5 92.1877 166.966  63
  -3  -6   5 214.142 156.099  33
  -3  -6   5 120.127 154.554  30
   3   6  -5 95.9930 186.245  15
   3   6  -5 289.333 183.420  43
  -3  -6   4 149.224 138.676  33
  -3  -6   4 172.940 153.303  30
   3   6  -4 197.396 160.218  15
  -3  -6   3 239.804 153.167  19
  -3  -6   3 209.898 135.474  33
   3   6  -3 330.440 149.156  10
  -3  -6   3 213.275 148.538  30
  -3  -6   2 159.264 146.068  30
   3   6  -2 120.178 143.641  10
  -3  -6   2 75.0427 153.167  20
  -3  -6   1 534.035 148.077  20
   3   6  -1 493.839 169.669  10
  -3  -6   1 586.241 158.949  30
   3   6   0 551.623 144.483  34
  -3  -6   0 556.266 141.488  20
   3   6   0 499.681 180.417  10
  -3  -6   0 336.181 137.868  30
  -3  -6   0 373.896 153.648  21
   3   6   1 1522.23 171.516  34
  -3  -6  -1 1180.01 187.320  21
   3   6   1 1158.60 196.028  10
  -3  -6  -1 1350.12 157.401  30
   3   6   2 139.779 147.157  34
   3   6   2 53.9405 149.960  10
  -3  -6  -2 183.899 113.359  30
  -3  -6  -2 132.459 137.035  21
  -3  -6  -3 619.794 166.308  21
   3   6   3 600.322 166.053  10
  -3  -6  -3 522.959 128.737  28
  -3  -6  -3 639.254 167.112   8
  -3  -6  -3 606.149 129.764  25
   3   6   3 540.524 151.991  34
   3   6   4 665.263 157.513  34
   3   6   4 435.448 154.050  10
  -3  -6  -4 557.381 134.212  28
  -3  -6  -4 647.138 181.782   8
  -3  -6  -4 660.327 177.812  21
  -3  -6  -4 596.556 136.850  25
  -3  -6  -4 522.880 207.857  16
   3   6   5 685.467 148.613  34
  -3  -6  -5 428.223 169.870  21
  -3  -6  -5 613.321 217.019  16
  -3  -6  -5 711.681 136.281  28
  -3  -6  -5 839.757 200.750   8
  -3  -6  -5 487.121 148.631  25
  -3  -6  -6-19.1905 203.917  16
  -3  -6  -6-17.4831 133.837  28
   3   6   6 3.82182 138.270  34
  -3  -6  -6 10.9635 128.663  24
  -3  -6  -6-6.45845 134.560  25
  -3  -6  -6 59.6079 193.120   8
   3   6   7 264.065 173.327  58
  -3  -6  -7-114.904 229.387  16
  -3  -6  -7 30.0120 130.683  28
   3   6   7-42.7237 147.058  34
  -3  -6  -7-18.0473 138.306  24
   3   6   7-98.2490 216.780  50
   3   6   8 50.7617 177.226  58
   3   6   8-45.9078 149.598  34
  -3  -6  -8 53.1568 218.051  56
   3   6   8 0.30997 214.930  50
  -3  -6  -8 108.259 212.773  16
  -3  -6  -8-42.5407 128.859  28
   3   6   8 136.588 158.426  41
  -3  -6  -8-29.3639 145.838  24
   3   6   9 718.863 193.033  58
  -3  -6  -9 970.464 231.243  56
   3   6   9 780.304 209.917  50
  -3  -6  -9 747.757 178.539  24
   3   6  10 826.803 174.670  58
  -3  -6 -10 663.070 220.506  56
   3   6  10 779.182 224.347  50
   3   6  11-9.65541 189.478  50
  -3  -6 -11 71.3689 189.015  56
  -3  -6 -12 37.3647 153.841  56
   3   6  12 59.8936 168.047  50
  -3  -6 -12 53.9971 127.542  62
   3   6  13 206.943 119.195  50
  -3  -6 -13 126.396 121.068  56
   3   7 -10 50.9979 100.193  47
  -3  -7  10-56.4887 126.151  45
   3   7  -9 16.1700 119.229  55
   3   7  -9 212.211 119.524  47
  -3  -7   9 35.8695 155.247  45
  -3  -7   8 108.872 143.267  36
   3   7  -8 179.495 135.487  47
  -3  -7   8 145.229 184.335  45
   3   7  -8 179.243 148.632  63
  -3  -7   7 1507.97 197.882  36
  -3  -7   7 1419.55 214.231  45
   3   7  -7 1647.11 203.482  43
   3   7  -7 1151.40 191.071  63
  -3  -7   6 579.088 168.656  36
   3   7  -6 321.674 162.740  63
  -3  -7   6 315.062 165.894  33
  -3  -7   6 350.273 152.800  30
   3   7  -6 261.068 171.119  43
  -3  -7   5 555.203 188.483  36
   3   7  -5 309.202 164.766  63
  -3  -7   5 399.963 154.449  33
  -3  -7   5 429.526 170.030  30
   3   7  -5 359.359 169.589  43
   3   7  -4 1485.60 211.833  43
  -3  -7   4 1229.52 201.366  30
   3   7  -4 1395.58 188.186  63
  -3  -7   3 729.183 204.102  19
  -3  -7   3 460.735 182.823  30
   3   7  -3 744.352 184.627  43
   3   7  -3 657.809 189.453  11
  -3  -7   2-1.00669 182.874  20
  -3  -7   2 17.3182 163.236  19
  -3  -7   2 58.3837 153.823  30
   3   7  -2 148.519 135.057  34
  -3  -7   1 93.6026 153.779  30
   3   7  -1 149.911 143.170  34
  -3  -7   1 188.145 165.562  20
  -3  -7   0 712.391 177.335  20
   3   7   0 763.331 177.408  10
   3   7   0 941.634 158.982  34
  -3  -7   0 867.572 171.487  30
  -3  -7  -1 2885.85 267.675  20
   3   7   1 2850.53 242.922  10
  -3  -7  -1 2948.63 217.183  30
  -3  -7  -1 2991.61 288.340  21
   3   7   1 3108.37 210.474  34
   3   7   2 182.178 147.045  34
  -3  -7  -2 169.021 166.909  21
  -3  -7  -2 265.737 142.646  30
   3   7   2 262.774 146.684  10
   3   7   3 952.277 183.232  34
  -3  -7  -3 584.770 197.628  21
  -3  -7  -3 841.034 159.114  28
  -3  -7  -3 911.049 214.720   8
  -3  -7  -3 904.238 167.295  25
   3   7   4 230.303 161.321  34
   3   7   4 164.091 175.473  11
  -3  -7  -4 222.332 174.968  21
  -3  -7  -4 240.600 135.309  28
  -3  -7  -4 249.049 185.020   8
  -3  -7  -4 201.181 145.210  25
   3   7   5 70.3646 152.756  34
  -3  -7  -5-22.1231 189.664  21
   3   7   5-39.9321 224.734  50
  -3  -7  -5 57.9295 123.070  28
  -3  -7  -5 74.1728 134.213  25
  -3  -7  -5-44.1874 188.872   8
  -3  -7  -6 113.655 184.209  21
   3   7   6 152.866 149.666  34
   3   7   6 112.689 215.575  50
  -3  -7  -6 33.0525 127.705  28
  -3  -7  -6 180.750 198.986   8
  -3  -7  -6 110.443 145.705  25
  -3  -7  -6 86.3113 132.053  24
  -3  -7  -7 158.271 132.451  28
   3   7   7 27.5857 154.143  34
  -3  -7  -7 130.863 192.768  21
   3   7   7-9.44275 193.473  50
   3   7   7 86.6858 163.312  41
  -3  -7  -7 72.1638 136.292  24
   3   7   8 497.422 153.813  34
   3   7   8 451.548 207.043  50
  -3  -7  -8 457.139 145.731  28
   3   7   8 440.887 165.105  41
  -3  -7  -8 348.846 164.769  24
  -3  -7  -9 496.838 212.605  56
   3   7   9 523.373 210.692  50
   3   7   9 581.249 162.734  41
  -3  -7 -10-29.1862 185.519  56
   3   7  10 47.8414 186.595  50
  -3  -7 -11 43.1038 154.091  56
   3   7  11-2.11067 173.026  50
  -3  -7 -12 102.114 133.509  56
   3   7  12 200.434 140.873  50
  -3  -7 -12 150.302 118.348  62
   3   8  -9 1251.14 117.125  55
  -3  -8   9 1481.77 157.223  45
   3   8  -8 69.7054 120.199  55
  -3  -8   8 116.503 153.729  45
  -3  -8   7 102.461 141.801  36
  -3  -8   7 77.8083 185.727  45
   3   8  -7-58.6660 145.720  43
  -3  -8   6-24.9418 162.363  36
   3   8  -6 46.0479 158.720  43
   3   8  -6 63.8566 147.413  63
  -3  -8   5 85.9464 179.695  36
   3   8  -5 90.9274 149.634  63
   3   8  -5 22.9005 171.521  43
  -3  -8   4 481.743 177.886  36
   3   8  -4 360.655 152.766  63
  -3  -8   4 497.241 182.075  30
   3   8  -4 610.197 190.858  43
   3   8  -3-23.4166 198.865  11
  -3  -8   3 3.15975 168.217  30
   3   8  -3-27.0048 179.055  43
   3   8  -2 86.4380 187.262  11
  -3  -8   2 89.6726 182.303  19
  -3  -8   2 94.5330 173.619  30
   3   8  -2-15.1180 166.747  43
  -3  -8   1 752.043 209.508  20
   3   8  -1 800.403 219.252  11
  -3  -8   1 767.968 192.020  30
   3   8  -1 880.637 189.045  43
   3   8  -1 1034.72 165.724  34
   3   8   0 1792.37 220.045  35
   3   8   0 2042.79 206.413  34
   3   8   0 1935.06 233.678  11
  -3  -8   0 2216.98 272.101  20
   3   8   0 2294.87 211.239  43
  -3  -8   0 1909.60 223.894  30
   3   8   1 19.3617 173.453  35
   3   8   1 250.432 177.069  11
   3   8   1 173.709 157.399  34
  -3  -8  -1 132.050 212.393  21
  -3  -8  -1 186.130 191.116  20
  -3  -8  -1 178.544 163.113  30
   3   8   1 191.165 170.965  43
   3   8   2 6568.80 283.600  35
  -3  -8  -2 6084.89 415.544  21
   3   8   2 6266.40 346.911  11
   3   8   2 6513.66 270.447  41
  -3  -8  -2 7477.26 430.897   8
  -3  -8  -2 6436.78 304.291  28
   3   8   2 6760.49 289.113  34
  -3  -8  -2 6518.66 407.445  20
   3   8   3 4646.53 252.840  35
   3   8   3 4510.23 253.597  34
  -3  -8  -3 4025.51 349.726  21
   3   8   3 4746.88 299.386  11
  -3  -8  -3 4579.47 369.476   8
  -3  -8  -3 4515.90 287.770  25
  -3  -8  -3 4164.39 257.571  28
   3   8   4 3286.08 227.389  35
   3   8   4 2946.68 223.223  34
  -3  -8  -4 2795.32 328.037  21
   3   8   4 3173.26 264.470  11
  -3  -8  -4 3058.78 226.493  28
  -3  -8  -4 3211.55 325.380   8
  -3  -8  -4 2760.30 245.085  25
   3   8   4 2844.21 216.955  41
   3   8   5 1639.52 197.602  35
  -3  -8  -5 1452.77 268.519  21
   3   8   5 1495.71 223.588  50
  -3  -8  -5 1491.84 175.793  28
   3   8   5 1522.42 192.284  34
  -3  -8  -5 1671.61 263.743   8
  -3  -8  -5 1513.41 196.896  25
   3   8   5 1513.88 187.174  41
   3   8   6 11.9749 154.761  34
   3   8   6 4.14078 203.794  50
  -3  -8  -6 14.3095 126.481  28
  -3  -8  -6 17.9941 148.746  25
   3   8   6 15.2423 161.929  41
  -3  -8  -6 20.0561 141.702  24
   3   8   7 210.641 208.309  50
   3   8   7 321.214 169.988  41
   3   8   8 271.401 192.337  50
   3   8   8 369.518 168.814  41
   3   8   9 181.535 186.565  50
   3   8   9 239.446 153.703  41
   3   8  10-17.0288 163.295  50
   3   8  10-11.4965 123.892  41
  -3  -8 -11 77.1890 141.926  62
   3   8  11 157.989 139.341  50
   3   9  -8 220.043 97.2929  55
  -3  -9   8 333.569 133.856  45
   3   9  -7 1135.59 143.156  55
  -3  -9   7 1562.32 187.820  45
   3   9  -7 1312.77 153.503  43
  -3  -9   6 261.216 142.854  36
  -3  -9   6 124.198 186.858  45
   3   9  -6 253.722 153.741  43
  -3  -9   5 442.748 175.300  36
   3   9  -5 325.617 177.152  43
  -3  -9   4-1.28791 178.573  36
   3   9  -4 73.2275 173.765  43
   3   9  -3 515.553 155.667  53
   3   9  -3 484.644 180.264  43
   3   9  -2 14.5334 155.296  53
  -3  -9   2 61.1823 178.303  30
   3   9  -2 37.5065 174.178  43
  -3  -9   1-94.5456 168.803  30
   3   9  -1 35.7365 155.875  43
  -3  -9   0 1026.01 193.396  30
   3   9   0 961.567 175.068  43
   3   9   1 1856.97 195.745  34
  -3  -9  -1 1398.31 194.427  28
   3   9   2 5013.61 262.966  34
  -3  -9  -2 5190.70 288.284  28
  -3  -9  -2 5124.17 303.505  25
   3   9   2 5262.23 252.543  41
   3   9   3 572.687 171.677  34
  -3  -9  -3 542.431 152.827  28
  -3  -9  -3 522.928 175.630  25
   3   9   3 530.348 164.219  41
   3   9   4 67.5645 158.343  53
  -3  -9  -4 134.463 135.409  28
   3   9   4 68.1755 159.602  34
  -3  -9  -4-35.5080 164.144  25
   3   9   4 36.5508 157.464  41
   3   9   5 285.908 154.881  53
   3   9   5 437.564 166.353  41
   3   9   6 464.306 174.125  41
   3   9   7 92.1649 161.245  41
   3   9   8 309.725 153.859  41
  -3  -9  -9-8.10103 154.424  62
   3   9   9 153.199 130.088  41
  -3  -9 -10 264.492 141.518  62
   3   9  10 535.649 109.561  41
   3  10  -7 15.6443 81.1857  55
  -3 -10   7-48.8138 116.069  45
   3  10  -6-17.2047 104.723  55
  -3 -10   6-63.9360 158.035  45
  -3 -10   5 485.859 143.467  36
   3  10  -5 592.142 148.190  43
  -3 -10   4-33.8440 154.541  36
   3  10  -4-12.3632 146.457  43
  -3 -10   3 118.151 171.241  36
   3  10  -3 17.3806 147.690  43
   3  10  -2 223.627 148.073  53
   3  10  -2 255.620 154.241  43
   3  10  -1 16.5536 156.316  53
   3  10  -1 60.7535 146.180  43
   3  10   0 169.995 172.394  53
   3  10   0 136.919 155.974  43
   3  10   1 2943.69 220.985  53
   3  10   2 3308.43 220.953  53
   3  10   3 989.524 169.276  53
   3  10   3 991.713 173.899  41
   3  10   4 23.7476 147.633  53
   3  10   4-31.9939 151.639  41
   3  10   5-61.4745 144.115  53
   3  10   5-1.31704 147.837  41
   3  10   6 141.816 144.678  41
  -3 -10  -7-13.9223 159.766  62
   3  10   7 135.267 140.738  41
  -3 -10  -8 185.552 138.720  62
   3  10   8 262.777 132.692  41
  -3 -10  -9 89.9083 113.537  62
   3  10   9 72.8138 102.787  41
  -3 -11   5 561.943 130.205  45
  -3 -11   4 327.133 114.204  36
   3  11  -4 168.995 101.129  55
  -3 -11   4 269.030 158.590  45
  -3 -11   3 165.660 131.658  36
   3  11  -3 162.508 128.494  43
  -3 -11   2 250.737 156.349  36
   3  11  -2 204.351 122.292  53
   3  11  -2 267.264 133.834  43
   3  11  -1 176.214 135.529  53
   3  11  -1 205.238 125.824  43
   3  11   0-57.4262 142.273  53
   3  11   0 45.6011 117.153  43
   3  11   1 191.187 133.919  53
   3  11   2 434.104 141.345  53
  -3 -11  -3 44.9419 139.228  54
   3  11   3 38.5767 127.233  53
   3  11   3 76.8347 122.958  41
   3  11   4 96.6467 123.088  53
   3  11   4 70.0766 121.166  41
   3  11   5 277.712 122.173  53
   3  11   5 330.481 127.559  41
   3  11   6 497.557 129.748  41
   3  11   7 83.6336 104.926  41
  -3 -12   0 1312.48 152.203  36
   3  12   0 1190.63 119.824  53
   3  12   1 103.893 98.9728  53
   3  12   2 105.947 100.723  53
   3  12   3 412.045 102.615  53
  -4  11   4 45.7861 90.8635  53
  -4  11   3 640.978 113.756  53
  -4  11   2 2164.59 146.258  53
  -4  11   1 165.517 110.361  53
  -4  11   0-15.9644 110.271  53
  -4  11  -1 90.2819 108.146  53
  -4  10   7-15.7476 92.3770  42
  -4  10   6-18.3603 104.596  42
  -4  10   5 455.880 121.956  53
  -4  10   4 278.298 133.137  53
  -4  10   3 460.101 143.211  53
  -4  10   2 34.9477 140.084  53
  -4  10   1 33.2857 142.065  53
  -4  10   1 41.7738 124.071  40
  -4  10   0 133.101 140.767  53
  -4  10   0 70.2217 119.462  40
  -4  10  -1 198.444 142.002  53
  -4  10  -1 241.221 115.569  40
  -4  10  -2 281.259 129.465  53
  -4  10  -2 124.089 130.334  44
  -4  10  -2 424.046 119.392  40
  -4  10  -3 34.3196 110.240  44
  -4  10  -3-4.81663 103.073  40
  -4  10  -4 1169.67 147.519  44
  -4  10  -4 1361.27 120.425  40
  -4  10  -5 104.549 98.0677  44
  -4   9   9 4839.21 161.167  42
  -4   9   8 2729.94 157.931  42
  -4   9   7 670.173 133.788  42
  -4   9   6-7.90130 127.617  42
  -4   9   5 377.028 142.953  53
  -4   9   5 232.481 147.082  61
  -4   9   5 324.688 145.976  42
  -4   9   4 750.707 161.171  53
  -4   9   4 562.394 170.840  61
  -4   9   4 799.323 168.660  42
  -4   9   3 1378.16 195.273  61
  -4   9   3 1474.79 192.149  42
  -4   9   3 1320.04 171.804  40
  -4   9   3 1453.75 185.786  53
  -4   9   2 2257.79 216.175  61
  -4   9   2 2360.74 208.025  53
  -4   9   2 2276.40 190.008  40
  -4   9   1 2522.12 218.333  53
  -4   9   1 2512.14 192.110  40
  -4   9   0 969.895 177.988  53
  -4   9   0 687.388 174.917  44
  -4   9   0 949.575 160.132  40
  -4   9  -1 359.479 170.170  53
  -4   9  -1 254.942 143.627  44
  -4   9  -1 302.720 134.455  40
  -4   9  -2-71.6255 138.745  44
  -4   9  -2 103.205 122.989  40
  -4   9  -2 66.6263 150.198  53
  -4   9  -3 440.763 144.136  53
  -4   9  -3 396.502 145.485  44
  -4   9  -3 439.667 128.263  40
  -4   9  -4 2000.12 184.347  44
  -4   9  -4 1666.49 157.427  40
  -4   9  -5 772.899 148.437  44
  -4   9  -5 807.730 121.711  40
   4  -9   6 1057.52 146.707  52
  -4   9  -6 741.705 141.200  44
  -4   9  -7 47.1253 85.3979  44
  -4   8  10 2457.69 148.808  42
  -4   8   9 2393.73 161.101  42
  -4   8   8 1571.96 172.713  42
  -4   8   7 1088.89 170.893  42
  -4   8   6 2633.36 202.341  42
  -4   8   5 85.5965 152.574  53
  -4   8   5 125.236 157.730  61
  -4   8   5 183.884 156.723  42
  -4   8   5 90.3792 168.413  41
  -4   8   4-94.9299 176.847  61
  -4   8   4-33.7006 152.283  42
  -4   8   4-8.67975 153.869  53
  -4   8   4 63.2315 168.159  41
  -4   8   4 22.4201 136.761  40
  -4   8   3 165.415 163.669  53
  -4   8   3 67.7220 165.925  61
  -4   8   3 32.9070 156.840  42
  -4   8   3 73.3567 172.493  41
  -4   8   3 22.5898 133.672  40
  -4   8   2 107.286 175.084  61
  -4   8   2 213.408 146.307  53
  -4   8   2 44.6470 157.309  42
  -4   8   2-46.7462 137.100  40
  -4   8   1 760.176 186.034  61
  -4   8   1 908.718 191.756  53
  -4   8   1 611.049 178.847  44
  -4   8   1 801.667 185.094  42
  -4   8   1 672.654 153.656  40
  -4   8   0 420.330 189.167  61
  -4   8   0 347.574 174.406  53
  -4   8   0 321.447 155.075  44
  -4   8   0 253.944 135.007  40
  -4   8  -1 2552.91 207.482  53
  -4   8  -1 2230.71 204.587  44
  -4   8  -1 2432.92 193.440  40
   4  -8   2 1562.96 361.326  33
  -4   8  -2 1963.08 204.247  53
  -4   8  -2 1901.16 201.446  44
  -4   8  -2 1955.26 181.307  40
  -4   8  -3 2956.73 213.460  53
  -4   8  -3 2672.46 215.584  44
  -4   8  -3 2771.71 202.690  40
  -4   8  -4 6211.18 247.561  59
  -4   8  -4 6698.65 275.549  44
  -4   8  -4 5864.22 248.832  40
  -4   8  -5 1532.14 184.182  59
  -4   8  -5 1439.08 190.196  44
  -4   8  -5 1592.71 159.862  40
  -4   8  -6 673.912 154.367  59
  -4   8  -6 674.103 154.728  44
  -4   8  -6 743.615 128.431  40
   4  -8   7 59.2977 132.946  52
  -4   8  -7 30.5025 112.930  44
  -4   8  -7 81.4071 133.949  59
   4  -8   8-33.3140 114.093  52
  -4   8  -8-6.36008 120.001  59
  -4   7  11 385.585 115.137  42
  -4   7  10 2432.95 160.905  42
  -4   7   9 5920.01 245.396  42
  -4   7   8 121.181 144.888  42
  -4   7   7 651.356 175.956  42
  -4   7   6 482.373 165.200  34
  -4   7   6 466.628 180.061  41
  -4   7   6 400.318 158.472  42
  -4   7   6 324.587 168.623  61
   4  -7  -5 211.363 316.724  13
  -4   7   5 311.375 174.187  61
  -4   7   5 375.565 145.271  34
  -4   7   5 417.901 170.419  42
  -4   7   5 546.898 179.474  41
  -4   7   4-19.7460 170.331  14
  -4   7   4 35.6819 170.432  53
  -4   7   4 81.4057 164.727  42
  -4   7   4 67.9224 178.345  41
  -4   7   4-10.0576 132.038  40
  -4   7   4 106.020 177.297  61
  -4   7   3 2951.66 230.325  61
  -4   7   3 2733.09 213.985  53
  -4   7   3 2712.16 229.182  42
  -4   7   3 3106.16 243.554  41
  -4   7   3 2706.89 271.249  14
  -4   7   3 2736.20 205.268  40
  -4   7   2 1023.26 194.158  53
  -4   7   2 873.212 187.140  42
  -4   7   2 1086.61 201.960  41
  -4   7   2 927.970 162.643  40
  -4   7   2 960.415 206.349  61
  -4   7   2 1095.92 212.703  14
  -4   7   1 995.178 197.054  61
  -4   7   1 989.382 199.061  53
  -4   7   1 666.080 179.475  44
  -4   7   1 920.331 185.744  42
  -4   7   1 961.534 159.539  40
  -4   7   1 914.438 197.066  14
  -4   7   0 60.6610 180.415  53
  -4   7   0 68.7184 163.757  44
  -4   7   0 117.756 174.375  42
  -4   7   0 86.1414 135.681  40
  -4   7   0 64.4274 151.902  39
  -4   7   0 37.6906 177.152  61
  -4   7   0 245.293 165.744  14
  -4   7  -1 2298.26 235.533  61
   4  -7   1 2308.98 351.068  12
  -4   7  -1 2370.81 214.655  53
  -4   7  -1 2647.87 221.835  44
  -4   7  -1 2093.11 253.535  14
  -4   7  -1 2439.65 198.545  40
  -4   7  -2 1654.16 198.172  59
  -4   7  -2 1556.32 205.117  53
  -4   7  -2 1321.52 179.847  44
  -4   7  -2 1383.22 172.437  40
   4  -7   2 1578.95 363.670  12
  -4   7  -2 1167.38 219.515  14
   4  -7   3 12586.8 777.099  12
   4  -7   3 12858.6 607.043  33
  -4   7  -3 13778.3 350.427  59
  -4   7  -3 13532.2 465.851  18
  -4   7  -3 14796.4 359.053  53
  -4   7  -3 14581.8 379.221  44
  -4   7  -3 13675.7 363.489  40
   4  -7   4 5573.77 512.410  33
  -4   7  -4 5255.75 251.796  59
  -4   7  -4 5186.24 329.673  18
   4  -7   4 5180.58 477.207  31
  -4   7  -4 5328.61 260.675  44
  -4   7  -4 5238.99 251.704  40
  -4   7  -5 5407.14 250.160  59
   4  -7   5 5251.15 506.082  33
   4  -7   5 5108.07 493.360  31
  -4   7  -5 5445.48 276.978  44
  -4   7  -5 6033.62 263.743  40
  -4   7  -6 550.652 171.140  59
  -4   7  -6 226.035 156.420  44
  -4   7  -6 501.509 142.171  40
  -4   7  -7 69.6064 155.105  59
  -4   7  -7 36.8970 130.592  44
  -4   7  -7-56.7176 122.731  40
  -4   7  -8-25.2105 146.741  59
   4  -7   8-55.7105 158.980  52
  -4   7  -9 17.2362 124.485  59
   4  -7   9 67.5768 128.724  52
   4  -7   9 11.0967 124.456  46
  -4   7 -10 1318.19 120.165  59
  -4   6  12 40.4355 93.5485  42
   4  -6 -12 60.8786 112.018  38
  -4   6  11 126.591 112.130  49
  -4   6  11 203.693 117.867  42
  -4   6  10 455.945 148.717  42
  -4   6  10 508.190 135.786  49
  -4   6   9 1284.01 160.278  49
  -4   6   9 1165.73 166.353  42
  -4   6   8 182.989 171.241  34
  -4   6   8 404.348 148.315  49
   4  -6  -8 242.141 191.693  27
  -4   6   8 358.493 163.918  42
  -4   6   7 162.732 152.897  42
  -4   6   7 163.336 153.067  34
   4  -6  -7 104.706 170.803  27
  -4   6   7 23.1612 175.525  41
   4  -6  -6-184.066 260.001  13
  -4   6   6 251.449 166.977  61
  -4   6   6 2.12569 162.302  34
  -4   6   6 24.7494 165.475  42
  -4   6   6 1.94805 178.308  41
   4  -6  -6 86.9973 180.798   7
  -4   6   5 101.271 151.677  14
   4  -6  -5 142.417 227.505  13
  -4   6   5 304.577 180.971  61
  -4   6   5 155.120 160.128  34
  -4   6   5 260.742 156.200  42
  -4   6   5 171.744 186.761  41
  -4   6   4 428.886 165.776  34
  -4   6   4 424.194 170.515  14
  -4   6   3 7113.52 358.819  14
  -4   6   2 3820.53 280.309  14
  -4   6   1-31.6973 153.884  14
  -4   6   0 290.974 165.567  14
   4  -6   1 252.032 231.144  12
  -4   6  -1 75.7949 158.611  14
   4  -6   2 19294.6 682.023  12
  -4   6  -2 19612.6 554.350  14
  -4   6  -3 20745.9 541.144  18
   4  -6   3 21606.1 624.894  31
  -4   6  -3 22256.3 584.140  14
   4  -6   3 20397.0 791.157  12
  -4   6  -4 25800.7 462.457  59
  -4   6  -4 26665.0 470.829  55
  -4   6  -4 27316.2 622.580  18
   4  -6   4 26760.8 765.807  31
   4  -6   4 25334.3 787.095  33
  -4   6  -4 27481.8 496.634  40
   4  -6   4 24150.6 959.749  12
  -4   6  -5 7739.09 285.581  59
   4  -6   5 8248.53 541.813  33
  -4   6  -5 8211.29 374.931  18
   4  -6   5 7511.97 520.880  31
  -4   6  -5 8451.39 299.287  40
  -4   6  -6 1181.98 183.311  59
   4  -6   6 957.174 358.482  33
   4  -6   6 1136.14 326.506  31
  -4   6  -6 1044.92 165.482  40
  -4   6  -7-82.9598 168.582  59
  -4   6  -7 98.9243 132.499  40
  -4   6  -8 1058.55 181.672  59
   4  -6   8 849.493 191.723  52
  -4   6  -9 2611.08 202.302  59
   4  -6   9 3015.44 206.375  52
  -4   6 -10 382.549 133.374  59
   4  -6  10 435.375 156.604  58
   4  -6  10 506.834 134.737  52
   4  -6  10 425.656 140.403  46
  -4   6 -11 85.3496 93.5939  59
  -4   5  12 279.015 111.233  42
  -4   5  12 131.106 111.295  49
   4  -5 -12 262.145 149.635  38
  -4   5  11 10613.9 289.455  49
  -4   5  11 11618.3 290.762  42
  -4   5  10 1110.23 168.572  49
  -4   5  10 1156.55 168.059  42
  -4   5   9 2114.80 195.288  49
  -4   5   9 1951.07 190.494  42
  -4   5   8 68.2300 167.235  34
  -4   5   8 50.4094 148.830  49
   4  -5  -8 30.6101 163.840  27
  -4   5   8 138.301 163.887  42
   4  -5  -7 1033.14 269.832  13
  -4   5   7 1198.22 189.072  34
  -4   5   7 1236.61 184.483  49
   4  -5  -7 1157.95 210.270  27
  -4   5   7 1229.62 184.999  42
   4  -5  -7 1138.06 261.002   7
   4  -5  -6 256.148 204.551  13
  -4   5   6 309.451 173.841  34
  -4   5   6 79.0818 161.950  42
   4  -5  -6 223.981 193.175   7
   4  -5  -5 35.4804 195.428  13
  -4   5   5-46.5902 155.515  34
   4  -5  -5 35.7828 162.239   7
  -4   5   5 78.9813 148.891  14
   4  -5  -4 1418.68 241.940  13
  -4   5   4 1677.39 185.319  34
  -4   5   4 1612.78 195.683  14
  -4   5   3 9328.63 372.857  14
  -4   5   3 10749.2 299.293  34
  -4   5   2 1567.48 203.232  14
  -4   5   1 1263.23 190.254  14
  -4   5   0 168.820 146.602  14
  -4   5  -1 6513.57 309.609  18
  -4   5  -1 6495.93 325.640  14
   4  -5   1 7050.53 340.043   6
  -4   5  -2 77.2649 167.608  18
   4  -5   2-12.5762 231.338  12
   4  -5   2 127.222 194.995   6
  -4   5  -2 122.518 141.272  14
   4  -5   3 1121.59 289.251  12
   4  -5   3 1156.94 256.957   6
  -4   5  -3 1048.48 190.695  18
   4  -5   3 1185.40 218.487  31
  -4   5  -3 1232.51 193.968  14
  -4   5  -4 31250.7 624.091  18
   4  -5   4 30259.6 716.705  31
   4  -5   4 31670.1 927.004  12
  -4   5  -5 11214.7 316.750  59
   4  -5   5 10673.9 533.532  33
  -4   5  -5 11793.9 417.544  18
   4  -5   5 11231.4 531.779  31
  -4   5  -5 11149.5 342.229  40
   4  -5   6 1979.55 366.389  33
  -4   5  -6 2013.24 248.139  18
  -4   5  -6 2061.95 209.956  59
   4  -5   6 2127.34 355.998  31
  -4   5  -6 2484.80 207.336  40
  -4   5  -6 2131.52 199.897  38
   4  -5   7 702.229 301.048  33
  -4   5  -7 812.966 174.884  59
  -4   5  -7 877.972 190.148  18
   4  -5   7 545.754 294.229  31
  -4   5  -7 711.659 159.315  40
  -4   5  -7 630.846 162.039  38
  -4   5  -8 245.000 161.796  59
   4  -5   8 241.967 174.674  52
  -4   5  -8 148.822 132.234  40
  -4   5  -8 74.8180 152.328  38
  -4   5  -9 1547.41 185.444  59
   4  -5   9 1619.33 195.015  52
  -4   5  -9 1506.10 176.609  38
   4  -5  10 1425.54 183.823  46
  -4   5 -10 1376.11 164.869  59
   4  -5  10 1558.63 173.600  52
  -4   5 -11 122.343 122.001  59
   4  -5  11 224.169 135.009  58
   4  -5  11 61.8761 125.553  46
  -4   4  13 88.6788 94.4311  49
   4  -4 -13 235.363 122.165  38
  -4   4  12 81.2315 118.802  49
  -4   4  12 107.144 115.864  42
  -4   4  11 1184.34 162.941  49
  -4   4  11 965.736 154.275  45
  -4   4  11 1160.15 166.008  42
  -4   4  10 3393.47 227.383  49
  -4   4  10 3584.96 218.711  42
  -4   4   9 2851.60 220.236  49
   4  -4  -9 2963.72 271.086  27
  -4   4   9 3275.98 212.627  42
   4  -4  -8 1113.55 252.611  13
  -4   4   8 1352.21 197.217  34
  -4   4   8 1053.30 187.695  49
   4  -4  -8 1159.89 206.082  27
  -4   4   8 1036.86 184.733  42
   4  -4  -7 219.395 213.423  13
  -4   4   7 300.762 168.043  34
  -4   4   7 164.894 151.258  51
   4  -4  -7 142.254 167.842  27
  -4   4   7 67.6058 162.470  42
   4  -4  -7 244.530 173.556   7
  -4   4   6-18.8834 163.475  34
   4  -4  -6 316.798 196.662  13
   4  -4  -6 98.7365 152.917  27
   4  -4  -6 131.040 165.755   7
   4  -4  -5 85.3718 173.156  13
  -4   4   5 57.5894 160.431  34
   4  -4  -5 63.8267 156.416   7
   4  -4  -4 19940.1 577.648  13
  -4   4   4 21961.9 412.644  34
  -4   4   4 21192.6 487.648  14
   4  -4  -4 20987.2 566.894   7
   4  -4  -3 8741.92 375.269  13
  -4   4   3 9691.21 278.124  34
  -4   4   3 9654.50 344.361  14
   4  -4  -2 109.683 130.549  13
  -4   4   2 216.981 118.170  34
  -4   4   2 84.0442 132.417  14
   4  -4  -1 595.807 138.996   9
  -4   4   1 535.279 158.555  14
  -4   4   0 458.933 151.602  14
  -4   4  -1 1804.48 189.078  18
  -4   4  -1 1798.89 202.448  14
   4  -4   1 1720.36 200.696   6
   4  -4   2 7959.37 346.758   6
  -4   4  -2 7637.67 300.874  18
   4  -4   2 8725.61 267.939  32
  -4   4  -2 7520.95 336.012  14
   4  -4   3 3657.22 297.431   6
   4  -4   3 3762.58 225.052  32
  -4   4  -3 3514.57 235.515  18
   4  -4   3 3168.12 306.620  12
  -4   4  -3 3132.32 243.229  14
   4  -4   4 418.402 177.870  32
  -4   4  -4 304.746 151.308  18
   4  -4   4 284.931 189.884  31
   4  -4   4 558.354 281.723  12
  -4   4  -4 298.036 146.592  14
  -4   4  -5 7271.96 327.196  18
   4  -4   5 6127.63 505.120  12
   4  -4   5 7466.28 375.493  32
   4  -4   5 6020.10 384.553  31
   4  -4   6 2601.84 347.396  33
  -4   4  -6 2663.52 252.375  18
   4  -4   6 2695.53 344.247  31
  -4   4  -7 93.1380 170.449  59
  -4   4  -7 25.8361 167.228  18
   4  -4   7-84.2891 288.636  31
  -4   4  -7 14.6263 163.413  38
   4  -4   7 164.525 264.246  33
  -4   4  -8 338.675 164.524  59
   4  -4   8 162.068 247.569  33
   4  -4   8 252.751 167.351  52
  -4   4  -8 227.513 162.340  38
  -4   4  -9 148.510 158.542  59
   4  -4   9 91.9142 165.992  52
  -4   4  -9 195.408 160.278  38
  -4   4 -10 57.5146 151.954  59
   4  -4  10 63.2387 154.609  52
   4  -4  10-26.8430 160.795  46
  -4   4 -10-51.8263 152.587  38
  -4   4 -11-41.1142 128.229  59
   4  -4  11-85.3345 146.565  58
   4  -4  11-77.8952 141.848  46
  -4   4 -11 64.8480 126.802  38
  -4   4 -12 464.218 109.908  59
   4  -4  12 409.509 122.507  46
  -4   3  13 13.6723 106.246  49
   4  -3 -13 43.3489 133.931  38
  -4   3  12 1676.01 165.611  49
   4  -3 -12 1827.93 156.089  48
  -4   3  12 1227.05 155.580  45
  -4   3  12 1786.98 156.953  42
   4  -3 -11 815.423 200.733  60
  -4   3  11 811.635 162.804  49
  -4   3  11 696.404 153.268  45
  -4   3  11 787.845 158.459  42
   4  -3 -10 374.163 241.464  60
  -4   3  10 527.329 156.723  49
  -4   3  10 381.653 160.346  45
   4  -3 -10 489.210 169.822  27
  -4   3  10 441.477 162.436  42
   4  -3  -9 364.975 232.418  13
  -4   3   9 98.7712 158.466  49
  -4   3   9 372.180 155.547  45
  -4   3   9 279.592 176.219   5
   4  -3  -9 411.995 171.339  27
   4  -3  -8 285.636 221.151  13
  -4   3   8 421.131 178.560  34
  -4   3   8 163.694 155.647  51
  -4   3   8 513.852 163.958  49
   4  -3  -8 563.964 184.350  27
  -4   3   8 471.960 171.832   5
   4  -3  -7-33.0807 212.428  13
  -4   3   7 74.8804 173.334  34
   4  -3  -7 45.7438 162.839  27
  -4   3   7-47.6924 145.614   5
   4  -3  -6 827.015 212.243  13
  -4   3   6 706.232 180.848  34
   4  -3  -6 602.533 165.364  27
  -4   3   6 638.463 154.997   5
   4  -3  -6 817.986 197.598   7
   4  -3  -5 11528.9 468.997  13
  -4   3   5 11758.1 339.035  34
  -4   3   5 11232.3 352.381   5
   4  -3  -5 11478.1 358.527  27
   4  -3  -5 11546.0 450.938   7
   4  -3  -4 44.0191 147.835  13
  -4   3   4 48.6327 149.523  34
   4  -3  -4 73.7158 114.727  27
  -4   3   4 13.6197 104.546   5
   4  -3  -4 14.8089 124.407   7
  -4   3   4 46.7266 119.834  14
   4  -3  -3 23033.3 553.518  13
  -4   3   3 23285.2 383.743  34
  -4   3   3 22950.1 424.222   5
  -4   3   3 23259.4 468.455  14
   4  -3  -3 22484.5 517.205   7
   4  -3  -2 9934.14 352.938  13
  -4   3   2 9797.85 250.873  34
  -4   3   2 9682.81 273.680   5
   4  -3  -2 9443.85 260.483  27
  -4   3   2 9685.55 320.756  14
   4  -3  -1 1944.65 169.323  13
  -4   3   1 2105.17 150.609  34
  -4   3   1 1991.82 149.843   5
   4  -3  -1 2055.92 190.302   9
  -4   3   1 1807.71 188.653  14
   4  -3   0 438.341 130.733   9
  -4   3   0 402.072 137.070  14
  -4   3  -1 10087.5 287.256  18
  -4   3  -1 9477.80 335.297  14
   4  -3   1 9468.22 240.808  23
   4  -3   2 21317.9 375.059  32
  -4   3  -2 20541.6 403.245  18
  -4   3  -2 19924.7 472.878  14
   4  -3   2 20358.8 481.648   6
  -4   3  -3 6616.00 262.037  18
   4  -3   3 6764.34 333.125   6
   4  -3   3 6605.15 251.348  32
  -4   3  -3 6535.02 299.001  14
   4  -3   3 6509.07 344.177  12
   4  -3   4 20552.7 589.715   6
   4  -3   4 20337.9 605.396  12
  -4   3  -4 20408.1 438.992  18
   4  -3   4 21150.3 452.180  32
   4  -3   4 19796.2 468.652  31
  -4   3  -4 21540.9 511.463  14
   4  -3   5 48.8531 296.330  12
   4  -3   5 180.765 205.151  32
  -4   3  -5 2.79490 143.601  18
   4  -3   5 71.7747 199.697  31
  -4   3  -5 33.5242 138.365  14
   4  -3   6 105.929 228.178  33
   4  -3   6 156.172 241.915  32
  -4   3  -6 174.038 160.378  18
   4  -3   6 122.864 235.163  31
  -4   3  -7 806.587 192.514  59
   4  -3   7 488.676 282.900  33
   4  -3   7 773.123 294.279  31
   4  -3   7 698.470 262.514  32
  -4   3  -7 687.713 200.029  18
  -4   3  -7 724.085 176.587  38
  -4   3  -8 705.335 173.260  59
   4  -3   8 885.825 228.251  32
   4  -3   8 496.384 185.045  52
  -4   3  -8 675.542 212.353  18
  -4   3  -8 514.392 187.766  38
  -4   3  -9 4132.60 231.898  59
   4  -3   9 4045.97 258.732  52
  -4   3  -9 3916.24 251.235  38
   4  -3   9 4241.07 269.335  46
  -4   3 -10 371.215 170.676  59
   4  -3  10 420.983 200.478  58
   4  -3  10 588.235 167.233  52
   4  -3  10 456.414 174.829  46
  -4   3 -10 491.042 162.735  38
  -4   3 -11 229.617 140.113  59
   4  -3  11 284.554 164.181  58
   4  -3  11 173.291 155.804  46
  -4   3 -11 306.772 148.256  38
  -4   3 -12 135.148 108.327  59
   4  -3  12 152.790 129.907  58
   4  -3  12 70.2845 131.599  46
  -4   3 -12 95.2369 119.760  38
   4  -2 -13 1147.94 128.777  48
  -4   2  13 826.558 124.669  45
  -4   2  13 897.249 128.448  49
   4  -2 -12 11.7316 133.282  60
  -4   2  12 45.4234 129.283  49
   4  -2 -12 27.7307 134.627  48
  -4   2  12 149.775 126.625  45
   4  -2 -11 2090.35 241.698  60
  -4   2  11 1695.36 189.334  49
  -4   2  11 1638.92 192.467  45
  -4   2  10 571.423 170.367  49
   4  -2 -10 754.164 252.950  60
  -4   2  10 472.939 169.565  45
   4  -2 -10 363.768 167.489  27
  -4   2   9 357.581 150.997  51
   4  -2  -9 228.035 206.706  13
  -4   2   9 270.630 167.740  49
  -4   2   9 316.904 165.306  45
   4  -2  -9 422.117 168.810  27
  -4   2   9 374.939 159.760   5
   4  -2  -9 121.396 232.424   9
   4  -2  -8 5580.69 417.971  13
  -4   2   8 5196.06 313.684   5
  -4   2   8 4797.52 266.489  51
   4  -2  -8 5388.04 308.669  27
  -4   2   8 4831.39 285.973  36
   4  -2  -7 1530.54 251.939  13
  -4   2   7 1355.22 189.566   5
   4  -2  -7 1432.24 196.589  27
   4  -2  -6 1862.45 255.177  13
  -4   2   6 1650.06 203.235  34
  -4   2   6 1733.81 191.497   5
   4  -2  -6 1569.51 191.880  27
   4  -2  -5 58548.6 959.702  13
  -4   2   5 61266.9 677.708  34
  -4   2   5 58615.9 769.013   5
   4  -2  -5 58575.4 733.315  27
   4  -2  -4 227.963 150.249  13
  -4   2   4 3.24484 151.128  34
  -4   2   4 63.4704 111.760   5
   4  -2  -4 166.888 118.775  27
   4  -2  -4 43.0792 121.330   7
   4  -2  -3 828.715 166.196  13
  -4   2   3 608.470 143.122  34
   4  -2  -3 544.646 123.800  27
  -4   2   3 559.976 118.920   5
  -4   2   3 512.905 127.171  14
   4  -2  -3 634.960 130.454   7
   4  -2  -2 4156.49 238.924  13
  -4   2   2 3936.79 178.687  34
  -4   2   2 4126.22 196.684   5
   4  -2  -2 3921.40 236.417   9
   4  -2  -2 4012.90 179.789  27
  -4   2   2 4005.63 211.333  14
   4  -2  -1 11109.9 325.211  13
  -4   2   1 10896.0 282.835   5
   4  -2  -1 10659.6 327.365   9
   4  -2  -1 11023.3 242.559  27
  -4   2   1 10583.1 319.718  14
  -4   2   0 7010.67 237.781   5
   4  -2   0 7222.13 263.162   9
   4  -2   0 7743.45 209.516  29
  -4   2   0 7275.58 283.874  14
   4  -2   0 7020.40 214.514  23
   4  -2   1 14771.4 336.548   9
   4  -2   1 14822.7 251.689  29
  -4   2  -1 14322.6 380.046  14
   4  -2   1 14678.8 278.103  23
   4  -2   2 158.662 105.112  23
   4  -2   2 203.285 159.806   6
   4  -2   2 141.222 115.354  32
  -4   2  -2 162.575 120.336  18
  -4   2  -2 161.251 124.372  14
   4  -2   3 63554.2 842.464   6
   4  -2   3 63092.5 656.583  32
  -4   2  -3 65758.5 645.839  18
   4  -2   3 65075.1 842.243  12
  -4   2  -3 63064.9 794.197  14
  -4   2  -3 67298.8 570.878  26
   4  -2   4 4298.76 323.337   6
   4  -2   4 4667.50 324.159  12
   4  -2   4 4665.63 249.350  32
  -4   2  -4 4939.64 226.017  18
  -4   2  -4 4273.49 245.486  14
  -4   2  -4 4747.53 191.361  26
   4  -2   5 732.955 294.886  12
   4  -2   5 796.087 211.506  32
  -4   2  -5 708.119 154.964  18
   4  -2   5 652.912 194.963  31
  -4   2  -5 735.241 118.373  26
  -4   2  -5 723.444 152.994  14
   4  -2   6 2258.66 270.954  33
   4  -2   6 2175.83 291.786  32
  -4   2  -6 2328.40 211.324  18
   4  -2   6 2435.05 296.630  31
  -4   2  -6 2595.54 185.659  26
  -4   2  -7 4113.24 275.740  18
   4  -2   7 4132.15 347.038  32
   4  -2   7 3655.68 374.599  31
  -4   2  -7 3916.26 232.422  26
   4  -2   8 772.717 254.780  32
  -4   2  -8 858.457 184.289  59
   4  -2   8 631.673 185.764  52
  -4   2  -8 658.715 190.042  38
  -4   2  -9 148.440 177.149  59
   4  -2   9 498.297 196.720  32
   4  -2   9 465.429 171.599  52
   4  -2   9 438.729 192.010  46
  -4   2  -9 376.991 181.799  38
  -4   2 -10 12538.8 325.966  59
   4  -2  10 12455.7 385.965  58
   4  -2  10 12066.3 361.202  52
   4  -2  10 12408.9 385.416  46
  -4   2 -10 11586.1 356.598  38
   4  -2  11 244.037 182.525  58
   4  -2  11 67.6205 169.874  46
  -4   2 -11 122.410 155.716  38
   4  -2  12 407.860 153.309  46
   4  -2  12 629.958 150.092  58
  -4   2 -12 342.598 139.682  38
   4  -2  13 509.992 141.961  50
  -4   2 -13 546.022 113.823  38
  -4   1  13 551.971 113.270  49
   4  -1 -13 721.419 127.567  48
  -4   1  13 541.019 118.890  45
   4  -1 -13 741.291 143.555  38
   4  -1 -12-29.8096 159.843  60
  -4   1  12-29.8818 119.778  49
   4  -1 -12 79.5761 140.543  48
  -4   1  12 41.6896 133.531  45
   4  -1 -12-40.3458 187.111  38
   4  -1 -11 2105.87 252.864  60
  -4   1  11 1602.57 200.891  45
  -4   1  11 2106.55 193.188  49
  -4   1  10 165.724 137.194  51
  -4   1  10 164.050 160.423  49
  -4   1  10 151.197 160.788  45
   4  -1 -10 301.964 244.243  60
   4  -1 -10 160.465 153.214  27
  -4   1   9 4395.51 314.615   5
  -4   1   9 4933.43 256.716  45
  -4   1   9 4123.78 255.832  51
   4  -1  -9 4947.18 295.154  27
  -4   1   9 4127.91 275.004  36
   4  -1  -8 996.270 227.664   9
   4  -1  -8 1117.49 188.841  27
  -4   1   8 920.941 198.217   5
   4  -1  -7 1249.20 222.688  13
   4  -1  -7 1152.24 233.484   9
   4  -1  -7 1161.03 183.229  27
  -4   1   7 1263.40 196.634   5
   4  -1  -6 11162.7 455.399  13
  -4   1   6 11430.4 401.286   5
   4  -1  -6 10706.3 415.203   9
   4  -1  -6 10789.4 348.568  27
  -4   1   5 81312.6 914.757   5
   4  -1  -5 81450.4 840.306  27
   4  -1  -4 30.7748 142.300  13
   4  -1  -4 83.9745 154.510   9
   4  -1  -4 56.0413 113.403  27
  -4   1   4 43.5517 115.419   5
   4  -1  -3 8804.94 340.220  13
  -4   1   3 8545.79 279.934   5
   4  -1  -3 8581.31 329.528   9
   4  -1  -3 8865.86 259.607  27
  -4   1   3 9084.28 264.386  14
   4  -1  -2 5043.05 253.324  13
   4  -1  -2 5282.57 252.341   9
   4  -1  -2 5682.86 198.506  27
  -4   1   2 5156.26 218.613  14
  -4   1   2 5119.48 215.796   5
   4  -1  -1 39.4384 100.601  29
   4  -1  -1 18.1047 123.488   9
   4  -1  -1 69.7204 80.6452  27
  -4   1   1 93.1629 115.012  14
  -4   1   1 75.5241 102.954   5
  -4   1   0 7257.67 365.200   2
  -4   1   0 7261.73 236.865   5
   4  -1   0 7513.94 203.708  29
   4  -1   0 6951.14 262.194   9
  -4   1   0 7201.65 266.490  14
   4  -1   0 7338.42 213.832  23
   4  -1   1 12974.3 240.563  29
   4  -1   1 12561.0 255.928  23
   4  -1   2 97987.3 719.157  32
  -4   1  -2 97180.8 934.941  14
  -4   1  -2 99010.1 608.144  26
   4  -1   2 99235.9 670.812  23
   4  -1   2 97302.4 909.373   6
   4  -1   3 7698.82 329.024   6
   4  -1   3 7556.11 248.533  32
  -4   1  -3 7551.34 296.729  14
  -4   1  -3 8025.59 209.422  26
   4  -1   3 7864.87 227.756  23
   4  -1   4 7285.15 376.505   6
   4  -1   4 7980.00 296.460  32
  -4   1  -4 7564.96 308.786  14
  -4   1  -4 7507.67 228.822  26
   4  -1   4 7853.16 357.697  12
   4  -1   4 8408.11 248.440  23
   4  -1   5 379.365 251.237  12
   4  -1   5 451.288 204.616  32
   4  -1   5 190.169 161.193  31
  -4   1  -5 400.198 110.260  26
  -4   1  -5 349.459 136.509  14
   4  -1   6 4210.80 333.587  32
   4  -1   6 3723.53 317.493  31
  -4   1  -6 4579.34 268.765  14
  -4   1  -6 3807.04 208.767  26
   4  -1   7-5.07816 253.595  32
   4  -1   7-109.944 252.798  31
  -4   1  -7-1.90129 125.410  26
   4  -1   8-11.3109 224.589  32
   4  -1   8-16.5451 177.160  46
  -4   1  -8 88.6917 128.855  26
  -4   1  -8 110.447 179.523  38
  -4   1  -9 3461.52 238.607  56
   4  -1   9 3634.32 270.521  58
   4  -1   9 3404.49 294.844  32
   4  -1   9 3514.50 249.000  52
   4  -1   9 3651.29 251.325  46
  -4   1  -9 3444.39 232.142  26
  -4   1  -9 3568.43 244.141  38
   4  -1  10 5718.27 302.911  32
   4  -1  10 5724.28 298.037  58
   4  -1  10 5684.30 285.622  46
  -4   1 -10 5494.35 278.349  38
   4  -1  11 1346.02 203.995  58
   4  -1  11 1361.08 199.356  46
  -4   1 -11 1237.07 190.598  38
   4  -1  12 112.118 149.499  58
   4  -1  12 168.357 142.500  46
  -4   1 -12 131.177 139.152  38
   4  -1  13 124.361 152.838  50
  -4   1 -13-31.4917 127.693  38
   4   0 -13 275.372 121.705  48
  -4   0  13 245.807 111.844  45
   4   0 -13 187.567 124.626  38
   4   0 -12 2050.14 199.057  60
  -4   0  12 1696.54 155.399  49
   4   0 -12 1761.85 183.454  48
  -4   0  12 1499.27 183.597  45
   4   0 -12 2095.52 194.338  38
   4   0 -11 1643.32 239.906  60
  -4   0  11 1754.78 179.044  49
   4   0 -11 1930.82 184.695  47
  -4   0  11 1698.45 199.578  45
  -4   0  10 31.6751 152.045  36
   4   0 -10-18.6818 230.533  60
  -4   0  10-89.4761 160.188  49
   4   0 -10-38.7709 163.645  47
  -4   0  10-35.0695 166.940  45
  -4   0   9 363.837 164.403  36
  -4   0   9 471.248 172.662  51
   4   0  -9 577.084 179.091  47
  -4   0   9 386.205 172.623  45
   4   0  -9 372.797 159.051  27
  -4   0   9 530.051 186.538   5
   4   0  -8-69.3172 147.825  27
  -4   0   8-10.5970 170.213   5
   4   0  -7-30.1728 137.545  29
   4   0  -7 112.016 178.656   9
   4   0  -7-4.63295 140.991  27
  -4   0   7 52.0927 153.212   5
   4   0  -6 776.501 153.333  27
  -4   0   6 757.459 176.835   5
   4   0  -6 761.763 178.351   9
   4   0  -5 8733.34 349.500   9
   4   0  -5 9154.26 298.873  27
  -4   0   4 200401. 1358.96   5
   4   0  -4 201177. 1435.06   9
   4   0  -4 199977. 1200.35  27
   4   0  -3 284.305 114.567  29
   4   0  -3 278.711 140.929   9
   4   0  -3 207.465 110.390  27
  -4   0   3 198.854 121.874   5
  -4   0   2 8930.98 281.499   5
   4   0  -2 8335.00 295.942   9
   4   0  -2 8913.69 240.360  29
   4   0  -2 9900.21 244.074  27
  -4   0   2 9690.37 270.098  14
   4   0  -2 8968.57 233.604  23
  -4   0   1 2190.66 161.051   5
   4   0  -1 2170.59 142.361  29
   4   0  -1 2330.76 182.589   9
   4   0  -1 2591.00 130.715  27
  -4   0   1 2307.29 170.457  14
  -4   0   1 2249.66 176.672  17
   4   0  -1 2134.93 144.719  23
  -4   0   0 5462.30 225.869  17
  -4   0   0 5220.26 211.720   5
   4   0   0 5556.41 179.253  29
  -4   0   0 5552.27 238.013  14
   4   0   0 5538.63 191.701  23
  -4   0  -1 24389.3 407.201  17
  -4   0  -1 23712.4 457.134  14
   4   0   1 23181.5 335.736  23
   4   0   1 24469.5 424.920   6
   4   0   2 1628.09 178.361   6
   4   0   2 1582.67 140.757  32
  -4   0  -2 1354.87 125.643  17
  -4   0  -2 1734.15 113.187  28
  -4   0  -2 1329.55 167.402  14
   4   0   2 1537.99 143.623  23
   4   0   3 42785.9 658.085   6
   4   0   3 42107.6 518.932  32
  -4   0  -3 41439.7 639.952  14
   4   0   3 42937.2 490.348  23
   4   0   4 11477.7 390.199  12
   4   0   4 11193.6 332.646  32
  -4   0  -4 11154.1 373.195  14
   4   0   4 11595.4 296.720  23
   4   0   5 368.177 144.577  23
   4   0   5 426.512 248.887  12
   4   0   5 234.171 207.954  32
   4   0   5 198.700 163.671  31
  -4   0  -5 415.356 158.107  14
   4   0   6 3041.22 314.667  32
   4   0   6 3593.52 305.243  31
  -4   0  -6 3810.53 264.054  14
  -4   0  -6 3668.93 215.223  26
   4   0   7 382.991 254.855  32
   4   0   7 237.456 244.198  31
  -4   0  -7 527.623 138.869  26
   4   0   8 134.335 219.876  32
  -4   0  -8 95.7390 129.962  26
   4   0   9 7561.62 327.312  58
  -4   0  -9 7635.77 320.045  56
   4   0   9 7752.86 377.430  32
   4   0   9 8245.39 322.866  46
  -4   0  -9 7418.05 311.660  26
  -4   0  -9 7590.49 308.417  38
   4   0  10 10582.2 368.216  58
  -4   0 -10 10384.8 349.708  56
   4   0  10 10631.4 387.922  32
   4   0  10 10681.9 362.504  46
  -4   0 -10 10893.6 368.087  26
  -4   0 -10 10690.0 347.320  38
   4   0  11 99.1738 155.678  46
   4   0  11 272.238 191.397  58
  -4   0 -11 116.326 175.599  38
  -4   0 -11 175.012 155.887  56
   4   0  12 819.636 164.247  46
   4   0  12 904.634 173.033  58
  -4   0 -12 829.725 168.795  38
   4   0  13 514.767 164.802  50
  -4   0 -13 572.893 132.495  38
   4   1 -13 1317.43 140.532  48
  -4  -1  13 1270.38 138.905  45
   4   1 -12 1043.29 164.539  48
   4   1 -12 965.145 148.245  47
  -4  -1  12 1047.87 162.153  45
   4   1 -12 1220.58 153.185  38
   4   1 -11 1042.38 203.795  60
  -4  -1  11 866.781 152.529  49
   4   1 -11 905.901 184.971  48
   4   1 -11 1045.39 173.543  47
  -4  -1  11 863.346 177.446  45
   4   1 -11 1093.56 196.930  38
  -4  -1  11 889.991 177.026  36
  -4  -1  10 250.531 161.153  36
   4   1 -10 413.248 218.545  60
   4   1 -10 481.328 161.299  47
  -4  -1  10 264.620 169.734  45
  -4  -1   9 359.890 160.187  36
   4   1  -9 411.285 245.269  60
   4   1  -9 361.551 192.178  47
  -4  -1   9 353.626 167.490  45
   4   1  -9 388.564 199.118  15
  -4  -1   9 249.513 172.261   5
  -4  -1   8 374.353 171.037  36
   4   1  -8 352.993 192.925  47
   4   1  -8 515.368 209.033  15
  -4  -1   8 673.481 193.850   5
   4   1  -7-4.35993 132.672  27
  -4  -1   7-41.8939 165.678   5
   4   1  -6 972.213 145.235  29
   4   1  -6 1201.02 185.866   9
   4   1  -6 1170.31 161.056  27
  -4  -1   6 1101.78 187.819   5
  -4  -1   5 28324.4 577.941   5
   4   1  -5 27846.5 556.161   9
   4   1  -5 26661.9 432.920  29
   4   1  -5 27653.1 483.088  27
   4   1  -5 29053.0 415.551  23
  -4  -1   4 4429.96 242.944   5
  -4  -1   4 4293.83 169.636  30
   4   1  -4 4334.50 247.115   9
   4   1  -4 4607.62 197.885  29
   4   1  -4 4439.25 208.751  27
   4   1  -4 4719.10 195.556  23
  -4  -1   3 4988.49 239.894   5
  -4  -1   3 4973.46 262.158  17
  -4  -1   3 4731.81 174.630  30
   4   1  -3 4561.24 246.003   9
   4   1  -3 5007.30 200.012  29
   4   1  -3 4921.50 202.584  27
   4   1  -3 5315.91 194.520  23
  -4  -1   2 7316.60 268.083   5
  -4  -1   2 7307.15 288.125  17
  -4  -1   2 6798.59 201.068  30
   4   1  -2 7048.53 273.694   9
   4   1  -2 6776.09 210.003  29
   4   1  -2 7375.03 245.539  15
  -4  -1   2 7425.78 237.743  14
   4   1  -2 7125.95 212.753  23
  -4  -1   1 3916.59 194.884   5
  -4  -1   1 4030.32 219.999  17
   4   1  -1 3651.02 164.721  29
   4   1  -1 4231.34 174.589  15
  -4  -1   1 4090.10 207.142  14
   4   1  -1 3845.61 167.985  23
  -4  -1   0 4800.97 223.296  17
  -4  -1   0 4339.97 202.020   5
   4   1   0 4660.73 173.458  29
  -4  -1   0 4901.64 228.786  14
   4   1   0 4775.89 182.158  23
   4   1   1-2.89485 112.868  23
   4   1   1 64.4371 124.251   6
   4   1   1-36.2581 95.8455  32
  -4  -1  -1 16.9118 62.5923  28
   4   1   2 654.455 127.454  23
   4   1   2 573.820 130.429  32
  -4  -1  -2 739.654 90.3139  28
   4   1   2 639.944 152.863   6
   4   1   3 718.016 136.503  23
   4   1   3 823.458 154.834  12
   4   1   3 775.744 178.746   6
   4   1   3 799.140 153.255  32
  -4  -1  -3 821.742 109.637  28
   4   1   4 141.130 132.268  23
   4   1   4 192.037 169.484  32
   4   1   4 197.431 128.465  31
  -4  -1  -4 240.057 104.905  28
   4   1   4 273.109 167.177  12
   4   1   5 2119.04 254.014  32
   4   1   5 2539.21 217.570  31
  -4  -1  -5 2594.38 238.375  14
   4   1   5 2496.90 190.204  23
   4   1   6 1833.08 283.012  32
  -4  -1  -6 1969.14 231.570  14
   4   1   6 1827.29 175.508  23
   4   1   7 118.569 242.024  32
  -4  -1  -7 31.8224 134.565  26
   4   1   8 21553.7 578.134  32
  -4  -1  -8 21822.7 494.415  26
   4   1   9 34194.6 588.031  58
  -4  -1  -9 34320.8 580.759  56
   4   1   9 32143.0 649.554  32
   4   1   9 33959.6 576.767  46
  -4  -1  -9 33305.8 614.540  26
  -4  -1  -9 34671.4 565.133  38
   4   1  10 8071.20 326.433  58
  -4  -1 -10 7971.67 315.374  56
   4   1  10 7488.48 339.571  32
   4   1  10 7692.08 308.631  46
  -4  -1 -10 7346.24 316.510  26
  -4  -1 -10 7634.74 315.561  38
   4   1  11 329.822 172.164  58
  -4  -1 -11 88.9868 172.411  56
   4   1  11 196.181 163.388  46
  -4  -1 -11 66.4321 170.844  38
   4   1  12 210.089 151.886  58
  -4  -1 -12 161.138 154.877  56
   4   1  12 261.722 181.750  50
  -4  -1 -12 109.524 147.398  38
   4   1  13 177.245 154.650  50
  -4  -1 -13 132.695 109.360  56
  -4  -1 -13 244.683 124.659  38
   4   2 -13 377.503 102.486  48
   4   2 -13 256.474 91.8201  47
  -4  -2  13 255.783 103.656  45
   4   2 -12 192.226 133.363  48
   4   2 -12 70.3269 130.663  47
  -4  -2  12 112.460 139.481  45
  -4  -2  11 724.619 167.795  36
   4   2 -11 869.335 198.524  60
   4   2 -11 911.050 176.556  48
   4   2 -11 1026.76 175.013  47
  -4  -2  11 953.610 177.069  45
  -4  -2  10 282.692 160.965  36
   4   2 -10 283.444 196.443  60
   4   2 -10 351.189 175.808  47
  -4  -2  10 312.493 167.718  45
  -4  -2   9 167.279 155.481  36
   4   2  -9 176.435 213.211  60
   4   2  -9 90.2315 179.792  47
  -4  -2   9 198.901 169.547  45
   4   2  -9 227.239 185.546  15
  -4  -2   9 139.118 186.221   5
  -4  -2   8 9.55301 160.982  36
   4   2  -8 50.7131 258.550  60
   4   2  -8-14.9105 212.978  47
  -4  -2   8 29.0494 176.853  45
   4   2  -8 9.84412 194.829  15
  -4  -2   8-221.065 201.045   5
   4   2  -8 58.9622 220.442  37
  -4  -2   7 1761.68 224.000   5
   4   2  -7 2118.65 255.078  15
  -4  -2   6 6253.60 328.702   5
   4   2  -6 5998.12 338.392  15
   4   2  -5 49169.9 782.045  15
  -4  -2   5 50848.4 777.505   5
  -4  -2   5 50258.5 557.161  30
  -4  -2   4 61725.8 803.795   5
  -4  -2   4 60868.4 601.603  30
   4   2  -4 60741.1 610.240  29
   4   2  -4 59004.6 802.347  15
  -4  -2   3 9696.05 319.644   5
  -4  -2   3 9229.17 349.167  17
  -4  -2   3 9246.86 251.244  30
   4   2  -3 8931.28 244.333  29
   4   2  -3 9096.81 312.108  15
   4   2  -3 9409.51 237.925  23
   4   2  -2 720.736 123.450  23
  -4  -2   2 830.898 114.834  30
  -4  -2   2 666.908 147.571  17
   4   2  -2 846.388 127.008  29
   4   2  -2 674.378 137.388  15
  -4  -2   2 572.963 134.201   5
  -4  -2   1 8937.87 276.963   5
  -4  -2   1 8607.54 309.289  17
  -4  -2   1 8369.27 231.227  30
   4   2  -1 9016.61 260.528  15
   4   2  -1 8539.94 229.612  23
  -4  -2   0 5876.51 196.042  30
  -4  -2   0 5858.25 158.723  28
   4   2   0 5995.30 203.947  15
  -4  -2   0 5526.07 218.889   5
   4   2   0 5736.94 199.918  23
   4   2   1 12941.4 294.155   6
   4   2   1 12194.3 250.583  32
  -4  -2  -1 12595.7 265.573  30
  -4  -2  -1 12440.9 230.858  28
   4   2   2 4180.50 233.210   6
   4   2   2 3466.51 189.025  32
  -4  -2  -2 3769.99 154.543  28
   4   2   2 3958.10 200.975  23
   4   2   3 3326.18 208.561  32
  -4  -2  -3 3360.85 159.657  28
   4   2   3 3100.83 200.591  23
   4   2   4 838.930 161.255  23
   4   2   4 627.919 198.816  32
  -4  -2  -4 811.854 115.224  28
   4   2   5 127.218 149.265  23
   4   2   5 46.5455 205.270  32
  -4  -2  -5 53.9517 103.397  28
   4   2   6 257.140 157.081  23
   4   2   6 113.693 223.166  32
  -4  -2  -6 24.6102 116.327  28
   4   2   7 9729.70 407.809  32
   4   2   8 36386.5 691.272  32
   4   2   9 9060.04 348.887  58
  -4  -2  -9 9736.40 358.596  56
   4   2   9 8783.86 367.325  32
   4   2   9 9623.02 345.936  46
  -4  -2  -9 9519.84 352.106  26
  -4  -2  -9 9945.30 346.591  38
   4   2  10 1427.70 209.479  58
  -4  -2 -10 1420.40 208.202  56
   4   2  10 1194.89 205.737  32
   4   2  10 1346.83 219.709  50
   4   2  10 1333.67 199.702  46
  -4  -2 -10 1332.88 186.136  26
  -4  -2 -10 1456.91 207.995  38
  -4  -2 -11-14.9150 180.815  56
   4   2  11-87.8266 171.338  58
   4   2  11-52.3012 199.169  50
  -4  -2 -11-13.3256 180.188  38
  -4  -2 -12 959.755 181.780  56
   4   2  12 1027.78 170.514  58
   4   2  12 1074.71 203.089  50
  -4  -2 -12 1148.66 173.501  38
  -4  -2 -13 490.552 140.754  56
   4   2  13 530.246 165.047  50
  -4  -2 -13 656.720 131.241  38
   4   3 -12 358.010 119.721  48
   4   3 -12 487.427 133.683  47
  -4  -3  12 447.683 130.368  45
   4   3 -11 1541.18 173.454  48
   4   3 -11 1751.09 181.335  47
  -4  -3  11 1450.67 181.938  45
  -4  -3  11 1310.97 181.204  36
  -4  -3  10 36.3318 143.216  36
   4   3 -10 99.7043 148.224  63
   4   3 -10-10.7754 162.881  48
   4   3 -10-20.8219 160.350  47
  -4  -3  10-57.2121 163.046  45
   4   3 -10 131.513 173.383  60
  -4  -3   9 329.632 164.329  36
   4   3  -9 374.800 191.203  60
  -4  -3   9 400.634 174.279  45
   4   3  -9 281.384 174.073  47
  -4  -3   8 772.044 189.855  36
   4   3  -8 719.602 233.282  60
   4   3  -8 643.887 199.546  47
  -4  -3   8 647.994 188.041  45
   4   3  -8 587.447 214.259  15
  -4  -3   8 622.544 195.078   5
   4   3  -7 1260.43 238.590  15
  -4  -3   7 1478.24 224.238   5
  -4  -3   6 4184.68 288.694   5
   4   3  -6 3593.85 282.912  15
  -4  -3   5 5113.55 285.791   5
  -4  -3   5 4737.40 216.445  30
   4   3  -5 4767.45 300.430  15
   4   3  -4 695.674 248.035  10
  -4  -3   4 689.311 167.538  17
  -4  -3   4 668.256 123.415  30
   4   3  -4 893.159 180.830  15
  -4  -3   4 776.355 152.258   5
   4   3  -3 107.431 140.930  15
  -4  -3   3 33.0094 138.074  17
  -4  -3   3 37.0415 104.359  30
  -4  -3   3 50.8461 117.261   5
  -4  -3   2 1957.20 170.904   5
  -4  -3   2 1709.14 187.282  17
  -4  -3   2 1691.16 147.005  30
   4   3  -2 1802.38 175.347  15
   4   3  -2 1848.29 144.294  23
   4   3  -1 101.626 113.194  23
  -4  -3   1 100.943 100.184  30
   4   3  -1 71.9035 115.115  15
  -4  -3   1 125.762 108.169   5
  -4  -3   0 1379.16 134.407  30
  -4  -3   0 1861.24 156.196   5
   4   3   0 1533.90 146.926  15
   4   3   0 1525.15 156.535  23
  -4  -3  -1 1150.09 123.867  30
  -4  -3  -1 1395.54 112.894  28
   4   3   1 1295.71 152.929  23
  -4  -3  -2 29875.0 407.144  30
  -4  -3  -2 28832.9 396.044  28
  -4  -3  -2 29161.0 388.420  25
   4   3   2 29300.5 466.213  23
  -4  -3  -2 29824.3 476.338  21
  -4  -3  -3 16642.0 325.366  28
  -4  -3  -3 16538.9 406.929   8
  -4  -3  -3 16709.1 330.696  25
   4   3   3 16469.3 377.294  23
   4   3   4 614.912 170.315  23
   4   3   4 479.374 194.211  32
  -4  -3  -4 583.814 114.197  28
   4   3   4 700.341 130.460  34
   4   3   5 6817.80 216.963  34
   4   3   5 6674.84 330.058  32
  -4  -3  -5 5610.38 236.149  28
   4   3   5 5519.85 258.141  23
   4   3   6 656.729 159.744  23
   4   3   6 808.040 216.126  32
  -4  -3  -6 592.547 136.844  28
  -4  -3  -7 283.937 133.990  28
   4   3   7 308.642 198.711  32
   4   3   8 20451.3 461.734  58
  -4  -3  -8 20258.7 491.767  56
   4   3   8 20271.1 501.244  32
   4   3   8 21338.3 450.087  50
   4   3   9 3686.03 257.332  58
  -4  -3  -9 3595.82 281.667  56
   4   3   9 3306.55 263.607  32
   4   3   9 3934.93 265.935  50
  -4  -3  -9 3550.28 252.471  26
   4   3  10 452.803 186.808  58
  -4  -3 -10 596.841 193.884  56
   4   3  10 709.960 177.450  32
   4   3  10 652.108 213.732  50
  -4  -3 -10 634.224 156.321  26
   4   3  11 281.649 178.461  58
  -4  -3 -11 482.340 195.054  56
   4   3  11 370.179 207.881  50
   4   3  12 593.763 161.970  58
  -4  -3 -12 659.374 176.152  56
   4   3  12 588.684 191.795  50
  -4  -3 -13 349.873 136.841  56
   4   3  13 357.771 158.085  50
   4   4 -12 116.232 110.574  47
  -4  -4  12 92.5136 111.068  45
  -4  -4  11 404.740 132.165  36
   4   4 -11 430.694 131.483  48
  -4  -4  11 548.750 148.499  45
   4   4 -11 717.245 149.778  47
   4   4 -11 633.801 131.246  63
  -4  -4  10 659.907 172.656  36
   4   4 -10 743.290 159.404  63
   4   4 -10 838.375 150.529  48
   4   4 -10 689.259 177.837  47
  -4  -4  10 721.839 167.418  45
  -4  -4   9 501.985 169.868  36
   4   4  -9 487.077 167.373  63
   4   4  -9 576.928 162.731  48
   4   4  -9 402.705 171.627  47
  -4  -4   9 457.160 174.529  45
   4   4  -9 456.762 176.686  60
  -4  -4   8-5.62445 173.254  36
   4   4  -8 94.8470 187.798  60
   4   4  -8 82.9672 168.058  47
  -4  -4   8 128.157 180.484  45
  -4  -4   7 3385.70 267.728  36
   4   4  -7 3150.89 273.585  60
   4   4  -7 3011.76 242.896  47
  -4  -4   7 3040.58 248.320  45
   4   4  -7 2665.75 284.453  15
  -4  -4   6 17232.4 405.433  30
   4   4  -6 16524.5 534.786  15
  -4  -4   5 1154.60 155.433  30
   4   4  -5 1164.36 218.186  15
   4   4  -4 63.0870 195.242  10
  -4  -4   4 214.811 149.294  17
  -4  -4   4 101.513 119.342  30
   4   4  -4 46.1096 153.165  15
  -4  -4   3 3896.83 273.660  17
  -4  -4   3 3791.72 208.017  30
   4   4  -3 3975.03 259.439  15
   4   4  -3 4225.40 342.403  10
   4   4  -2 10214.1 486.818  10
  -4  -4   2 9560.91 372.662  17
  -4  -4   2 10141.8 298.982  30
   4   4  -2 10034.5 354.340  15
  -4  -4   1 1727.94 167.145  20
   4   4  -1 1837.80 293.568  10
  -4  -4   1 1650.59 154.366  30
   4   4  -1 1664.94 175.792  15
   4   4  -1 1712.91 158.215  23
  -4  -4   0 2498.26 171.736  20
  -4  -4   0 2298.80 159.836  30
   4   4   0 2171.79 176.122  23
  -4  -4  -1 14576.2 319.783  30
  -4  -4  -1 15021.5 357.680   8
  -4  -4  -1 14949.4 288.746  25
   4   4   1 14521.5 349.141  23
  -4  -4  -2 31408.1 560.176  21
   4   4   2 32520.8 784.477  10
  -4  -4  -2 33362.2 458.198  30
  -4  -4  -2 32100.7 457.232  28
  -4  -4  -2 32042.4 544.140   8
  -4  -4  -2 32176.6 441.078  25
   4   4   2 30892.4 510.928  23
   4   4   3 9802.88 266.413  34
  -4  -4  -3 9207.72 318.475  21
   4   4   3 10090.5 462.462  10
  -4  -4  -3 10405.3 264.666  30
  -4  -4  -3 9058.41 266.480  28
  -4  -4  -3 8628.78 323.401   8
  -4  -4  -3 8975.64 261.803  25
   4   4   3 8913.90 310.860  23
   4   4   4 64.4501 154.651  23
   4   4   4 128.900 135.070  34
   4   4   4 34.9001 178.936  10
  -4  -4  -4 89.1345 105.367  28
  -4  -4  -4 16.0701 106.719  25
  -4  -4  -4 24.0355 134.648   8
   4   4   5 4694.66 208.914  34
   4   4   5 4915.86 272.648  32
  -4  -4  -5 4605.00 229.824  28
   4   4   5 4690.51 252.268  23
   4   4   6 1736.68 209.518  32
  -4  -4  -6 1917.53 191.330  28
   4   4   6 1903.89 164.782  34
   4   4   7 1049.02 202.478  32
  -4  -4  -7 1164.18 182.902  28
   4   4   8 6674.68 307.196  58
  -4  -4  -8 7059.88 339.135  56
   4   4   8 6677.63 310.396  32
   4   4   8 6522.16 302.476  50
   4   4   9 43779.4 649.464  58
  -4  -4  -9 42036.7 699.609  56
   4   4   9 42636.8 608.204  50
  -4  -4 -10 804.502 182.338  62
   4   4  10 644.135 195.034  58
  -4  -4 -10 723.976 223.233  56
   4   4  10 752.353 216.200  50
   4   4  11 2317.64 211.414  58
  -4  -4 -11 2100.25 225.682  56
   4   4  11 2378.78 232.951  50
   4   4  12-49.8068 143.782  58
  -4  -4 -12 12.1303 158.700  56
   4   4  12 44.9789 178.030  50
  -4  -4 -13 1053.88 152.900  56
   4   4  13 978.105 151.880  50
  -4  -5  11 355.221 108.401  36
   4   5 -11 330.608 124.272  47
  -4  -5  11 342.407 126.080  45
  -4  -5  10 61.8636 126.054  36
   4   5 -10 109.450 142.512  47
  -4  -5  10 45.2326 140.512  45
   4   5 -10 74.2453 139.291  63
  -4  -5   9-16.6404 144.778  36
   4   5  -9-22.5130 157.018  63
   4   5  -9 14.0129 162.251  47
  -4  -5   9-12.4905 166.541  45
  -4  -5   8 149.783 158.676  36
   4   5  -8 68.5497 156.746  47
   4   5  -8 78.6157 158.640  63
  -4  -5   8 45.8254 178.328  45
  -4  -5   7 496.908 174.474  36
   4   5  -7 335.620 166.575  47
  -4  -5   7 275.714 188.551  45
   4   5  -7 105.971 197.035  15
  -4  -5   6 6580.84 336.102  36
  -4  -5   6 6558.10 325.414  57
  -4  -5   6 5994.99 278.394  30
   4   5  -6 6154.91 292.477  47
  -4  -5   6 6353.90 312.848  45
   4   5  -6 5990.63 374.525  15
   4   5  -6 6746.14 297.396  43
  -4  -5   5 3849.09 238.023  30
   4   5  -5 3864.73 304.111  15
  -4  -5   4 1767.79 220.687  17
  -4  -5   4 1404.44 179.007  30
   4   5  -4 1580.02 239.477  15
   4   5  -3 2052.47 250.228  10
  -4  -5   3 1784.22 215.766  17
  -4  -5   3 1596.91 181.753  30
   4   5  -3 1584.37 220.441  15
   4   5  -2 381.767 208.074  10
  -4  -5   2 351.245 167.524  17
  -4  -5   2 395.716 141.940  30
   4   5  -2 330.334 163.327  15
  -4  -5   1 405.304 142.033  20
   4   5  -1 334.747 214.020  10
  -4  -5   1 427.018 137.752  30
  -4  -5   0 2722.64 206.938  20
  -4  -5   0 2417.73 183.063  30
   4   5   0 2814.57 288.933  10
   4   5   0 2225.01 185.035  23
   4   5   1 10082.7 442.571  10
  -4  -5  -1 11133.2 364.697  20
  -4  -5  -1 10342.7 302.723  30
  -4  -5  -1 10982.9 358.076   8
  -4  -5  -1 10704.6 393.212  21
   4   5   1 10199.1 312.639  23
   4   5   2 13928.5 499.054  10
  -4  -5  -2 15305.2 348.678  30
  -4  -5  -2 14875.0 352.986  28
  -4  -5  -2 14851.6 424.303   8
  -4  -5  -2 14027.7 437.129  21
  -4  -5  -2 14662.0 340.759  25
   4   5   2 15307.8 375.565  23
   4   5   3 911.485 175.548  23
   4   5   3 924.204 152.657  34
   4   5   3 1044.60 217.274  10
  -4  -5  -3 863.062 131.972  30
  -4  -5  -3 882.916 133.782  28
  -4  -5  -3 754.731 161.975  21
  -4  -5  -3 932.583 173.892   8
  -4  -5  -3 943.330 137.532  25
   4   5   4 1.97048 151.834  23
  -4  -5  -4 103.963 132.691  21
  -4  -5  -4 51.7539 108.045  28
   4   5   4 131.363 165.981  10
  -4  -5  -4-62.4705 163.250   8
  -4  -5  -4 7.53547 117.633  25
   4   5   4 78.9204 137.959  34
   4   5   5 406.573 157.505  34
  -4  -5  -5 324.519 129.769  28
  -4  -5  -5 269.463 127.906  25
  -4  -5  -5 351.520 172.462   8
   4   5   6 4232.96 228.423  34
  -4  -5  -6 3667.79 237.856  28
   4   5   7 712.446 194.110  58
  -4  -5  -7 857.122 217.925  56
   4   5   7 677.550 231.173  50
  -4  -5  -7 691.718 160.939  28
   4   5   8 877.314 199.132  58
  -4  -5  -8 1048.45 226.224  56
   4   5   8 979.255 213.648  50
  -4  -5  -8 838.390 173.763  28
   4   5   9 1616.92 221.643  58
  -4  -5  -9 1497.40 241.408  56
   4   5   9 1557.11 241.396  50
   4   5  10 325.802 182.170  58
  -4  -5 -10 555.097 209.618  56
   4   5  10 630.825 207.967  50
   4   5  11 388.232 157.953  58
  -4  -5 -11 358.802 154.842  62
  -4  -5 -11 572.071 181.748  56
   4   5  11 453.515 183.624  50
  -4  -5 -12 2236.61 203.639  56
   4   5  12 2346.75 185.358  50
  -4  -5 -13 910.524 132.167  56
   4   5  13 960.156 131.278  50
   4   6 -11 331.011 90.7143  47
  -4  -6  11 270.684 101.895  45
  -4  -6  10 33.7374 105.071  36
   4   6 -10-54.5749 121.050  63
   4   6 -10-49.9112 117.174  47
  -4  -6  10 84.8519 128.046  45
  -4  -6   9 214.040 131.526  36
   4   6  -9 84.8748 139.910  47
  -4  -6   9 42.9670 156.718  45
   4   6  -9 151.077 145.375  63
  -4  -6   8 190.758 161.812  36
   4   6  -8 138.765 154.292  47
  -4  -6   8 46.8056 166.352  45
   4   6  -8 127.217 160.001  63
  -4  -6   7-97.0114 155.081  36
   4   6  -7 53.1290 158.540  63
   4   6  -7 26.9555 152.160  47
  -4  -6   7 18.0378 179.469  45
   4   6  -7 128.250 145.989  43
  -4  -6   6 118.682 178.221  36
  -4  -6   6 93.3237 143.510  30
   4   6  -6 66.2068 158.662  47
  -4  -6   6 103.588 183.580  45
   4   6  -6 14.0288 187.398  15
   4   6  -6 354.243 163.514  43
  -4  -6   6 194.098 151.551  57
   4   6  -6 75.7272 161.677  63
  -4  -6   5 3590.64 271.234  36
  -4  -6   5 3603.19 254.765  57
  -4  -6   5 3555.06 250.777  30
   4   6  -5 3078.56 290.771  15
   4   6  -5 3710.32 260.452  43
  -4  -6   4 363.252 173.888  36
  -4  -6   4 96.2611 164.791  57
  -4  -6   4 277.272 153.082  30
   4   6  -4 167.219 174.898  15
   4   6  -4 251.197 193.114  43
   4   6  -3 1357.43 221.884  10
  -4  -6   3 1371.15 212.055  17
  -4  -6   3 1201.64 200.201  30
   4   6  -2 4363.68 317.800  10
  -4  -6   2 3854.92 296.008  17
  -4  -6   2 3749.95 257.780  30
  -4  -6   1 1861.36 219.794  20
   4   6  -1 2046.16 248.392  10
  -4  -6   1 2097.53 206.932  30
  -4  -6   0 2827.89 242.354  20
   4   6   0 2612.38 268.621  10
  -4  -6   0 2555.89 212.480  30
  -4  -6  -1 1641.10 201.586  20
   4   6   1 1515.80 236.229  10
  -4  -6  -1 1412.73 165.808  30
  -4  -6  -1 1667.21 206.421   8
   4   6   1 1685.73 192.625  34
   4   6   2 9950.81 309.655  34
   4   6   2 10073.4 426.274  10
  -4  -6  -2 10064.9 319.594  30
  -4  -6  -2 8904.42 402.308  21
  -4  -6  -2 9440.43 316.663  28
  -4  -6  -2 9273.61 392.773   8
  -4  -6  -2 10019.5 318.481  25
   4   6   2 10689.6 327.062  23
  -4  -6  -3 860.992 189.414  21
   4   6   3 1042.04 210.724  10
  -4  -6  -3 868.440 150.588  28
  -4  -6  -3 666.985 172.588   8
  -4  -6  -3 767.970 146.469  25
   4   6   3 1027.72 179.111  34
   4   6   4 116.705 162.014  34
  -4  -6  -4 111.845 154.169  21
   4   6   4 225.599 175.920  10
  -4  -6  -4 151.796 128.591  28
  -4  -6  -4 133.998 164.698   8
  -4  -6  -4 167.473 134.084  25
   4   6   5-84.3477 152.315  34
  -4  -6  -5 5.39785 130.495  28
  -4  -6  -5 162.985 182.977   8
  -4  -6  -5 47.4445 137.440  25
   4   6   6 4595.84 264.457  58
   4   6   6 4623.24 249.103  34
   4   6   6 4602.72 264.877  50
  -4  -6  -6 4143.13 253.284  28
   4   6   7 1940.02 210.816  58
   4   6   7 1800.20 196.350  34
   4   6   7 1949.93 228.593  50
  -4  -6  -7 1694.39 197.781  28
   4   6   8 463.494 189.397  58
  -4  -6  -8 579.684 225.409  56
   4   6   8 403.964 215.169  50
  -4  -6  -8 394.836 151.161  28
   4   6   9 2518.00 228.655  58
  -4  -6  -9 2683.51 257.895  56
   4   6   9 2594.53 233.782  50
   4   6   9 2743.37 207.339  41
  -4  -6 -10 346.747 184.554  62
   4   6  10 290.935 170.094  58
  -4  -6 -10 307.916 186.571  56
   4   6  10 244.848 201.842  50
  -4  -6 -11 90.9949 145.229  62
  -4  -6 -11 166.545 171.073  56
   4   6  11 107.505 167.012  50
  -4  -6 -12 1162.71 161.070  56
   4   6  12 1229.50 158.071  50
  -4  -7  10 321.501 109.408  45
  -4  -7   9 60.0340 112.104  36
   4   7  -9-63.1905 129.176  63
   4   7  -9 39.8806 104.957  47
  -4  -7   9 108.720 133.007  45
  -4  -7   8 47.0822 144.839  36
   4   7  -8 223.778 153.006  63
   4   7  -8 111.613 127.842  47
  -4  -7   8 266.131 157.175  45
  -4  -7   7 10.1622 145.891  36
   4   7  -7 54.5150 159.461  63
  -4  -7   7 74.4351 168.125  45
   4   7  -7 100.975 155.945  43
  -4  -7   6 87.2932 170.398  36
   4   7  -6 19.6304 155.911  63
  -4  -7   6 56.4892 184.680  45
   4   7  -6 70.3768 166.239  43
  -4  -7   5 804.897 194.083  36
   4   7  -5 961.582 172.913  63
  -4  -7   5 830.464 174.677  57
  -4  -7   5 761.284 175.367  30
   4   7  -5 794.254 197.039  43
  -4  -7   4 119.531 169.378  36
   4   7  -4 121.832 152.979  63
  -4  -7   4 377.206 161.043  57
  -4  -7   4 127.962 166.799  30
   4   7  -4 168.419 181.168  43
   4   7  -3 245.739 156.886  63
  -4  -7   3 28.1323 152.505  57
  -4  -7   3 88.0770 160.306  30
   4   7  -3 116.436 171.265  43
   4   7  -2 1079.57 188.226  35
  -4  -7   2 1137.86 207.516  54
   4   7  -2 704.818 194.995  10
  -4  -7   2 866.883 213.612  17
  -4  -7   2 774.257 189.596  30
   4   7  -2 924.590 197.570  43
   4   7  -2 1042.52 175.682  34
   4   7  -1 65.8405 151.027  34
  -4  -7   1 81.9318 167.596  20
   4   7  -1 0.20209 171.557  10
  -4  -7   1-70.5733 164.429  30
   4   7  -1-15.9359 181.810  43
  -4  -7   0 4505.29 330.735  20
   4   7   0 3963.15 301.430  10
  -4  -7   0 4667.71 277.801  30
   4   7   0 4618.13 253.699  34
   4   7   1 1252.93 191.499  34
  -4  -7  -1 1053.42 199.390  20
   4   7   1 1125.49 208.255  10
  -4  -7  -1 1037.60 176.965  30
  -4  -7  -1 1338.20 228.315   8
   4   7   2 5186.47 268.940  34
  -4  -7  -2 4488.25 349.108  21
  -4  -7  -2 4967.42 345.472  20
   4   7   2 5170.01 328.131  10
  -4  -7  -2 5396.50 274.224  30
  -4  -7  -2 4963.31 267.480  28
  -4  -7  -2 4839.26 338.051   8
  -4  -7  -2 5249.51 273.992  25
   4   7   3 34.6263 173.612  35
   4   7   3 101.863 163.071  34
  -4  -7  -3 22.5293 179.768  21
   4   7   3-12.1188 157.203  10
  -4  -7  -3-62.3171 135.175  28
  -4  -7  -3 17.4222 196.552   8
  -4  -7  -3 10.0068 139.888  25
   4   7   4 805.996 190.239  34
   4   7   4 742.815 178.773  35
  -4  -7  -4 668.708 213.416  21
   4   7   4 1010.53 217.554  50
   4   7   4 647.967 195.152  10
  -4  -7  -4 710.964 163.080  28
  -4  -7  -4 518.650 228.801   8
  -4  -7  -4 697.376 167.690  25
   4   7   5 358.329 169.175  35
  -4  -7  -5 97.8632 179.038  21
   4   7   5 455.915 161.890  34
   4   7   5 237.265 214.376  50
  -4  -7  -5 364.594 141.884  28
  -4  -7  -5 271.309 212.372   8
  -4  -7  -5 373.890 151.536  25
   4   7   6 327.832 162.840  34
   4   7   6 242.743 173.853  58
   4   7   6 354.234 208.236  50
  -4  -7  -6 267.336 134.065  28
   4   7   7 56.7094 168.496  58
   4   7   7-38.7441 151.989  34
   4   7   7 8.51213 190.233  50
  -4  -7  -7 35.6842 136.040  28
   4   7   8 3268.83 247.280  50
   4   7   8 3557.53 232.041  41
   4   7   9-28.8615 200.524  50
   4   7   9 20.3389 151.495  41
  -4  -7 -10 182.632 171.331  62
  -4  -7 -10 102.357 167.801  56
   4   7  10-2.85297 170.625  50
  -4  -7 -11 327.959 145.017  56
  -4  -7 -11 177.977 145.736  62
   4   7  11 324.319 147.998  50
   4   7  12 119.517 109.554  50
  -4  -8   9 2026.79 140.073  45
  -4  -8   8 318.201 121.344  36
   4   8  -8 285.066 112.371  55
  -4  -8   8 249.645 136.864  45
  -4  -8   7 1040.55 170.562  36
   4   8  -7 995.577 159.676  63
  -4  -8   7 1121.10 175.372  45
   4   8  -7 1088.64 164.322  43
  -4  -8   6 1746.36 203.420  36
   4   8  -6 1213.11 175.544  63
  -4  -8   6 1358.90 210.912  45
   4   8  -6 1304.78 191.558  43
  -4  -8   5 73.3535 163.332  36
   4   8  -5-84.1906 173.801  43
   4   8  -5 3.10003 149.792  63
  -4  -8   4 939.190 198.946  36
   4   8  -4 1051.27 174.941  63
  -4  -8   4 1394.46 189.455  57
  -4  -8   4 968.591 195.780  30
   4   8  -4 1230.43 198.644  43
  -4  -8   3 95.1754 157.230  57
  -4  -8   3 2.80817 161.212  30
   4   8  -3-51.8109 169.959  43
   4   8  -2 5320.31 351.286  11
  -4  -8   2 4877.68 307.510  30
   4   8  -2 5398.99 289.815  43
  -4  -8   2 5560.56 305.159  57
   4   8  -1 18880.0 438.452  35
   4   8  -1 19080.0 425.231  34
   4   8  -1 18418.1 554.543  11
  -4  -8   1 18655.9 512.653  54
  -4  -8   1 17817.9 504.611  30
   4   8  -1 19197.1 446.436  43
   4   8   0 13890.3 390.841  35
  -4  -8   0 13822.0 571.130  20
  -4  -8   0 14034.7 447.962  30
   4   8   0 15650.9 402.662  43
   4   8   0 15773.1 391.730  34
  -4  -8  -1 109.829 190.482  20
   4   8   1 21.1271 170.829  35
  -4  -8  -1 6.65521 157.639  30
  -4  -8  -1 17.0203 138.164  28
   4   8   1 21.9650 155.375  43
  -4  -8  -1 51.6183 145.737  25
   4   8   1-2.65386 156.119  34
   4   8   2 3411.94 238.484  35
  -4  -8  -2 3130.78 325.592  20
   4   8   2 3501.85 239.899  34
  -4  -8  -2 3229.76 236.807  28
  -4  -8  -2 3178.84 335.618   8
  -4  -8  -2 3083.43 243.559  25
   4   8   3 5057.60 262.927  35
  -4  -8  -3 4966.45 395.301  21
   4   8   3 5227.90 273.024  34
   4   8   3 5619.34 329.011  11
  -4  -8  -3 5229.08 283.402  28
  -4  -8  -3 4233.66 385.012   8
  -4  -8  -3 5264.01 297.308  25
   4   8   4 410.827 156.960  35
  -4  -8  -4 355.217 190.477  62
   4   8   4 301.489 167.037  34
  -4  -8  -4 310.345 141.862  28
  -4  -8  -4 205.961 155.517  25
  -4  -8  -4 340.137 213.038  21
   4   8   5 1401.90 191.087  35
  -4  -8  -5 1541.78 241.804  62
   4   8   5 1710.36 204.524  34
  -4  -8  -5 1348.74 186.711  28
  -4  -8  -5 1466.40 213.042  25
   4   8   6 3877.21 244.265  41
   4   8   7 3717.94 251.603  50
   4   8   7 3974.56 236.286  41
  -4  -8  -8 252.250 183.275  62
   4   8   8 398.897 185.420  50
   4   8   8 470.448 168.080  41
  -4  -8  -9 9.70261 158.779  62
   4   8   9 55.2871 175.251  50
   4   8   9-51.6200 141.604  41
  -4  -8 -10 108.870 148.866  62
   4   8  10 15.8233 96.7012  41
  -4  -8 -11 278.503 123.777  62
  -4  -9   7 1737.19 150.469  36
  -4  -9   7 1727.61 170.413  45
   4   9  -7 1712.46 146.402  43
  -4  -9   6 215.888 148.486  36
  -4  -9   6 274.828 170.236  45
   4   9  -6 169.714 129.994  43
  -4  -9   5 232.720 158.565  36
   4   9  -5 226.450 160.531  43
  -4  -9   4 103.280 175.406  36
   4   9  -4 112.472 167.261  43
  -4  -9   3 55.2176 188.948  36
   4   9  -3 283.941 144.393  53
   4   9  -3 105.798 170.210  43
  -4  -9   2 56.2095 147.505  57
   4   9  -2 60.4038 161.640  43
  -4  -9   1 493.181 175.878  57
   4   9  -1 749.473 183.725  43
  -4  -9   0 33.0374 180.218  54
  -4  -9   0 22.4629 146.504  28
   4   9   0 40.7559 142.968  43
   4   9   1 12998.5 367.426  34
   4   9   1 13759.8 366.720  43
   4   9   2 6238.94 282.536  35
  -4  -9  -2 6592.04 316.606  28
   4   9   2 6551.85 291.319  34
  -4  -9  -2 5689.02 325.076  25
   4   9   2 6480.66 268.261  41
   4   9   3 17.1462 150.984  35
   4   9   3 21.0806 157.213  41
   4   9   4 127.228 154.805  35
   4   9   4 191.877 159.010  41
   4   9   5 1706.13 180.094  35
  -4  -9  -5 1616.39 233.667  62
   4   9   5 1463.80 183.042  53
   4   9   5 1428.77 196.651  41
  -4  -9  -6 249.039 190.728  62
   4   9   6 151.997 161.852  41
  -4  -9  -7 13.4371 183.264  62
   4   9   7 143.435 164.140  41
  -4  -9  -8 27.7804 158.462  62
   4   9   8 2.78043 139.385  41
  -4  -9  -9-15.7224 135.765  62
   4   9   9-23.4897 121.514  41
  -4  -9 -10 967.976 140.602  62
   4  10  -6 129.579 86.6923  55
  -4 -10   6 351.425 126.687  45
   4  10  -6 108.774 103.350  43
  -4 -10   5 35.5528 120.683  36
  -4 -10   5 72.9506 156.877  45
   4  10  -5-1.91213 123.142  43
  -4 -10   4-95.7013 156.420  36
   4  10  -4 46.0662 143.051  43
  -4 -10   3 285.140 177.929  36
   4  10  -3 299.401 152.026  43
  -4 -10   2 30.1857 194.190  36
   4  10  -2 69.9458 150.382  53
   4  10  -2 83.7173 148.192  43
   4  10  -1 1367.59 185.115  53
   4  10  -1 1425.80 175.477  43
  -4 -10   0 1341.57 174.726  57
   4  10   0 1365.27 185.252  53
   4  10   0 1388.71 171.636  43
  -4 -10  -1 2515.76 247.311  54
   4  10   1 2102.09 201.589  53
  -4 -10  -2 389.603 200.034  54
   4  10   2 587.821 162.876  53
   4  10   3 184.630 148.394  53
   4  10   3 19.2160 149.424  41
   4  10   4 1039.41 164.501  53
   4  10   4 1117.97 171.907  41
   4  10   5-29.4398 130.420  53
   4  10   5-51.1685 145.380  41
   4  10   6 486.255 148.215  41
  -4 -10  -7 719.661 160.696  62
   4  10   7 1023.96 149.121  41
  -4 -10  -8-8.97737 123.063  62
   4  10   8-36.9170 116.730  41
  -4 -11   3 77.0968 125.766  36
   4  11  -3 61.6960 110.485  43
  -4 -11   2 2088.61 192.683  36
   4  11  -2 1708.67 133.287  53
   4  11  -2 1923.68 155.009  43
  -4 -11   1 37.3936 151.051  36
   4  11  -1 28.4446 120.584  53
   4  11  -1 65.1418 113.977  43
   4  11   0 376.621 137.587  53
   4  11   1 1267.05 158.190  53
  -4 -11  -2 1617.82 186.356  54
   4  11   2 1704.61 164.874  53
  -4 -11  -2 1450.81 165.467  57
  -4 -11  -3 93.6855 147.432  54
   4  11   3 21.7504 123.135  53
  -4 -11  -4 55.0552 150.738  54
   4  11   4 28.7329 117.525  53
   4  11   4-33.0571 112.697  41
   4  11   5-60.8732 87.8874  53
   4  11   5 109.231 115.963  41
  -4 -11  -5 265.550 155.594  54
  -4 -11  -6 62.0792 135.268  54
   4  11   6 77.5194 105.876  41
  -5  10   4 113.578 106.450  53
  -5  10   3 446.025 128.592  53
  -5  10   2 75.2260 123.679  53
  -5  10   1 157.394 129.104  53
  -5  10   1 12.4854 107.691  40
  -5  10   0 18.6944 124.887  53
  -5  10   0 43.3396 102.112  40
  -5  10  -1 35.0857 119.478  53
  -5  10  -1-6.39805 101.634  40
  -5  10  -2 226.425 99.3325  40
  -5  10  -3 104.301 89.0504  40
  -5   9   8 11.3158 90.2094  42
  -5   9   7-9.36079 107.228  42
  -5   9   6 90.5998 122.878  42
  -5   9   5 551.145 145.537  61
  -5   9   5 589.479 133.018  53
  -5   9   5 540.001 146.105  42
  -5   9   4 1248.12 175.206  61
  -5   9   4 1351.17 167.780  42
  -5   9   4 1337.72 163.032  53
  -5   9   3 279.910 160.519  61
  -5   9   3 347.373 143.818  53
  -5   9   3 292.725 123.638  40
  -5   9   2 45.2390 164.842  61
  -5   9   2 38.7961 152.001  53
  -5   9   2 119.726 122.529  40
  -5   9   1 32.5425 152.035  53
  -5   9   1 94.5154 123.427  40
  -5   9   0 626.676 174.914  53
  -5   9   0 440.688 134.809  40
  -5   9  -1 126.820 143.335  53
  -5   9  -1 199.460 117.671  40
  -5   9  -2 231.724 121.781  40
  -5   9  -2 209.666 142.213  53
  -5   9  -3 407.115 131.583  53
  -5   9  -3 372.078 134.495  44
  -5   9  -3 271.737 118.269  40
  -5   9  -4 244.318 128.677  44
  -5   9  -4 144.966 102.741  40
  -5   9  -5 129.598 113.106  44
  -5   9  -5 376.011 98.8356  40
  -5   8   9 408.555 106.536  42
  -5   8   8 61.4265 119.533  42
  -5   8   7 172.008 136.370  42
  -5   8   6 104.148 141.093  61
  -5   8   6 109.846 154.107  42
  -5   8   5 380.053 165.848  61
  -5   8   5 297.645 157.615  42
  -5   8   5 340.932 148.929  53
  -5   8   4 114.856 170.402  61
  -5   8   4 127.075 153.068  53
  -5   8   4 154.322 155.178  42
  -5   8   4 135.109 128.345  40
  -5   8   3 123.888 170.608  61
  -5   8   3 112.151 147.778  53
  -5   8   3 51.2319 154.100  42
  -5   8   3 173.481 127.505  40
  -5   8   2 20.7855 174.905  61
  -5   8   2 45.9327 160.130  53
  -5   8   2 25.9663 162.106  42
  -5   8   2-26.9075 131.136  40
  -5   8   1 120.259 185.172  61
  -5   8   1-4.34309 127.277  40
  -5   8   1-35.3763 166.080  53
  -5   8   0 255.587 177.899  61
  -5   8   0 215.518 169.457  53
  -5   8   0 248.228 135.526  40
  -5   8  -1-7.62928 164.587  53
  -5   8  -1 126.432 141.756  44
  -5   8  -1-39.9008 132.290  40
  -5   8  -2 2549.69 204.825  53
  -5   8  -2 2104.27 207.825  44
  -5   8  -2 2143.62 184.014  40
  -5   8  -3 1501.67 171.376  53
  -5   8  -3 1100.49 186.896  44
  -5   8  -3 1069.79 152.975  40
  -5   8  -4 1463.22 176.660  44
  -5   8  -4 1135.06 149.128  40
  -5   8  -5 166.445 125.642  44
  -5   8  -5 145.434 114.259  40
  -5   8  -6 52.6914 113.428  44
  -5   8  -6-38.2208 101.106  40
  -5   8  -7 2.89772 60.1512  40
  -5   7  10 160.642 108.198  42
  -5   7   9-1.07849 122.451  42
  -5   7   8-1.29184 141.784  42
  -5   7   7 317.694 156.344  42
  -5   7   7 418.833 155.131  61
  -5   7   6-19.1812 155.434  61
  -5   7   6-68.2809 155.292  42
  -5   7   5 26.4162 167.128  61
  -5   7   5 84.0483 159.067  53
  -5   7   5 23.2534 158.934  42
  -5   7   4 415.092 184.448  61
  -5   7   4 557.864 170.742  53
  -5   7   4 396.669 168.945  42
  -5   7   3 111.069 175.713  61
  -5   7   3-24.0514 166.994  53
  -5   7   3 100.916 159.814  42
  -5   7   3 76.4443 124.094  40
  -5   7   2 76.8097 162.548  53
  -5   7   2-51.0672 171.301  42
  -5   7   2-4.13166 129.075  40
  -5   7   2 132.293 174.104  61
  -5   7   2 130.858 175.068  14
  -5   7   1 41.0355 185.214  61
  -5   7   1-74.1197 171.235  53
  -5   7   1-43.7240 170.802  42
  -5   7   1 43.6242 126.217  40
  -5   7   1 39.0934 139.045  39
  -5   7   1-74.6459 176.081  14
   5  -7   0 564.062 257.415  12
  -5   7   0 30.2534 183.628  61
  -5   7   0 189.122 185.980  53
  -5   7   0 150.915 139.827  44
  -5   7   0 269.543 127.640  40
  -5   7   0 193.115 148.281  39
  -5   7   0 213.260 181.213  14
   5  -7   1 369.047 327.475  12
  -5   7  -1 766.197 196.571  61
  -5   7  -1 856.284 198.743  53
  -5   7  -1 925.115 172.801  44
  -5   7  -1 821.793 152.829  40
  -5   7  -1 782.032 162.637  39
  -5   7  -1 805.917 199.967  14
  -5   7  -2 248.989 158.350  53
   5  -7   2-29.9309 237.410  31
  -5   7  -2 278.284 152.996  44
  -5   7  -2 132.846 136.239  40
   5  -7   3 3183.37 386.446  33
  -5   7  -3 4042.46 238.511  53
   5  -7   3 3033.75 379.400  31
  -5   7  -3 3719.81 244.973  44
  -5   7  -3 3379.67 219.643  40
  -5   7  -4 101.232 167.236  59
  -5   7  -4 255.944 146.338  44
  -5   7  -4 165.564 140.561  40
  -5   7  -5-59.4914 159.978  59
  -5   7  -5 126.530 138.432  44
  -5   7  -5 37.7083 126.974  40
  -5   7  -6 116.611 147.187  59
  -5   7  -6 7.18536 122.210  44
  -5   7  -6 113.145 124.753  40
  -5   7  -7-23.1745 152.313  59
  -5   7  -7-1.75420 109.934  40
  -5   7  -8-13.6161 128.918  59
   5  -7   9 38.5692 127.517  58
  -5   6  11 370.937 102.995  42
  -5   6  10 142.909 110.611  49
  -5   6  10 46.6437 117.316  42
  -5   6   9 921.007 136.526  49
  -5   6   9 610.053 147.012  42
  -5   6   8 187.869 161.332  42
  -5   6   7 42.8991 158.280  61
  -5   6   7-3.68799 157.497  42
  -5   6   6 468.174 169.482  34
  -5   6   6 486.974 170.823  61
   5  -6  -6 165.916 187.291  27
  -5   6   6 395.950 162.132  42
  -5   6   5-59.4830 175.533  61
  -5   6   5 38.5734 153.359  34
   5  -6  -5 80.9715 290.321   9
  -5   6   5-28.9826 156.331  42
  -5   6   4 5.95303 178.200  61
  -5   6   4 59.1459 171.764  53
   5  -6  -4 162.565 231.451   9
  -5   6   4-101.104 165.445  42
  -5   6   4-71.8452 173.550  14
  -5   6   3 35.1982 180.012  61
  -5   6   3-40.3041 190.888  53
  -5   6   3 155.510 162.589  42
  -5   6   3 102.656 151.695  39
  -5   6   3 139.635 146.176  14
  -5   6   2 237.835 197.809  53
  -5   6   2 98.5839 168.176  42
  -5   6   2 116.491 137.815  40
  -5   6   2 122.171 156.510  39
  -5   6   2 104.944 181.701  61
  -5   6   2 185.543 179.466  14
  -5   6   1 212.666 196.818  61
  -5   6   1 451.347 194.473  53
  -5   6   1 186.924 162.458  42
  -5   6   1 143.649 136.508  40
  -5   6   1 200.893 148.804  39
  -5   6   1 49.8521 178.623  14
   5  -6  -1 202.500 210.016   6
   5  -6   0 608.487 213.526   6
  -5   6   0 183.897 181.015  53
  -5   6   0 175.926 160.902  44
  -5   6   0 184.782 172.372  42
  -5   6   0 140.870 182.584  61
  -5   6   0 395.541 148.278  40
  -5   6   0 260.306 157.376  39
  -5   6   0 425.591 171.295  14
   5  -6   1 847.325 241.065   6
   5  -6   1 725.426 272.986  12
  -5   6  -1 842.035 203.102  61
  -5   6  -1 930.149 203.591  53
  -5   6  -1 1034.43 178.177  44
  -5   6  -1 825.691 162.307  40
  -5   6  -1 807.996 165.493  39
  -5   6  -1 578.530 203.141  14
  -5   6  -2 8275.90 306.984  61
   5  -6   2 8126.09 516.619  12
  -5   6  -2 9006.55 321.872  53
  -5   6  -2 8477.93 305.768  44
  -5   6  -2 8284.27 404.759  14
  -5   6  -2 9072.78 310.155  40
  -5   6  -2 8535.57 305.023  39
   5  -6   3 359.375 350.960  12
  -5   6  -3 360.182 166.245  59
  -5   6  -3 357.507 164.654  18
  -5   6  -3 477.334 177.769  53
   5  -6   3 313.522 232.741  31
  -5   6  -3 253.751 151.212  44
  -5   6  -3 337.718 139.535  40
  -5   6  -3 345.022 177.773  14
   5  -6   4 180.113 392.417  12
  -5   6  -4 138.261 159.461  59
   5  -6   4 144.186 250.507  31
  -5   6  -4 80.8532 143.800  44
  -5   6  -4 125.331 137.774  40
  -5   6  -5 74.0997 163.700  59
   5  -6   5-40.3363 283.900  33
   5  -6   5-142.925 283.278  31
  -5   6  -5-9.60779 139.422  44
  -5   6  -5-51.3508 137.108  40
  -5   6  -6-47.8861 168.510  59
  -5   6  -6-10.5782 138.184  40
  -5   6  -7-63.9096 171.827  59
  -5   6  -7 57.0627 122.615  40
  -5   6  -8 404.421 158.575  59
  -5   6  -8 477.289 125.157  40
  -5   6  -9 301.953 134.446  59
   5  -6   9 185.153 126.397  46
  -5   6 -10 83.7647 105.348  59
   5  -6  10 139.618 116.734  58
  -5   5  12 119.143 86.1961  49
   5  -5 -12 120.737 126.367  38
  -5   5  11 173.926 110.318  49
  -5   5  11 173.715 114.947  42
  -5   5  10 71.8498 127.817  49
  -5   5  10 90.2478 126.593  42
  -5   5   9-56.9969 136.860  49
  -5   5   9-12.2488 136.129  42
  -5   5   8 254.704 146.284  49
  -5   5   8 351.821 161.212  61
  -5   5   8 217.483 158.991  42
   5  -5  -7 257.708 164.749  27
  -5   5   7 362.359 164.217  42
   5  -5  -6 47.4077 214.084  13
  -5   5   6 193.857 164.526  34
   5  -5  -6-20.6596 159.848  27
  -5   5   6-91.9494 158.267  42
   5  -5  -5 178.383 202.460  13
  -5   5   5 79.9948 164.156  34
   5  -5  -5-0.84685 160.524  27
  -5   5   5-66.9391 162.901  42
   5  -5  -4 233.252 193.381  13
  -5   5   4 485.468 164.224  34
   5  -5  -4 436.247 221.686   9
  -5   5   4 248.463 167.339  14
  -5   5   3 1103.42 162.321  34
   5  -5  -3 489.576 197.868   9
  -5   5   3 559.111 189.154  14
   5  -5  -2 386.931 173.656   9
  -5   5   2 358.333 178.064  14
  -5   5   1-20.0645 152.026  14
   5  -5  -1-85.1391 138.340  23
   5  -5   0 838.835 221.110   6
  -5   5   0 712.428 186.845  14
   5  -5   1 1813.63 252.944   6
   5  -5   1 1736.50 189.871  32
  -5   5  -1 2012.17 232.890  14
   5  -5   2 2312.59 293.654   6
   5  -5   2 2002.86 306.732  12
   5  -5   2 2542.61 216.029  32
  -5   5  -2 2175.56 236.346  14
   5  -5   3 2077.40 344.999  12
   5  -5   3 2285.81 327.819   6
  -5   5  -3 2064.66 243.262  14
   5  -5   4 1455.93 374.567  12
  -5   5  -4 1414.31 194.544  59
   5  -5   4 1261.15 268.015  31
  -5   5  -4 1453.00 179.491  40
  -5   5  -4 1410.51 211.074  14
   5  -5   5 170.114 248.930  33
  -5   5  -5 212.107 165.668  59
   5  -5   5 249.985 266.395  31
  -5   5  -5 95.6160 135.603  40
  -5   5  -6-0.40691 162.547  59
   5  -5   6 11.7215 280.210  33
   5  -5   6 109.211 288.456  31
  -5   5  -6 52.0767 142.470  40
  -5   5  -7 58.2085 160.224  59
  -5   5  -7-34.3756 139.637  40
  -5   5  -8 88.4285 158.541  59
   5  -5   8 15.7950 150.506  46
  -5   5  -8-48.9490 133.863  40
  -5   5  -9 113.004 146.556  59
   5  -5   9 96.7705 130.227  52
   5  -5   9 34.7246 137.960  46
  -5   5  -9 46.2403 114.776  40
  -5   5 -10 7.21179 122.356  59
   5  -5  10 0.85208 156.152  58
   5  -5  10-37.5726 118.302  46
  -5   5 -11 523.773 101.585  59
   5  -5  11 554.682 116.562  58
  -5   4  12 504.458 113.842  49
  -5   4  11 219.037 127.674  49
  -5   4  11 225.979 121.889  42
  -5   4  10 5.94961 138.949  49
  -5   4  10 20.7423 135.987  42
  -5   4   9-86.4935 152.426  49
  -5   4   9 90.2866 149.262  42
  -5   4   8 0.00000 147.227  49
   5  -4  -8 59.3504 166.148  27
  -5   4   8 31.6573 137.262  42
   5  -4  -7 68.5385 220.443  13
  -5   4   7 137.873 145.558  51
  -5   4   7 287.757 162.047  49
   5  -4  -7 263.987 210.911   9
   5  -4  -7 258.345 161.110  27
  -5   4   7 330.221 165.166  42
   5  -4  -6 95.9449 185.934  13
  -5   4   6 134.256 177.836  34
  -5   4   6 57.7468 138.687  51
   5  -4  -6 7.80663 165.717  27
  -5   4   6 22.9032 158.919  42
   5  -4  -5 829.513 214.296  13
  -5   4   5 981.690 197.490  34
   5  -4  -5 708.713 173.623  27
   5  -4  -4 165.252 172.481  13
  -5   4   4 206.286 162.375  34
   5  -4  -4 120.972 186.830   9
   5  -4  -4 176.318 125.517  27
  -5   4   4 249.788 153.529  14
   5  -4  -3 556.852 173.801  13
  -5   4   3 529.158 158.487  34
   5  -4  -3 527.071 175.067   9
  -5   4   3 453.034 163.232  14
   5  -4  -2 283.017 175.215   9
  -5   4   2 244.020 163.225  14
   5  -4  -1 179.370 160.304   9
  -5   4   1 448.594 169.725  14
   5  -4  -1 316.640 134.376  23
   5  -4   0 515.291 138.228  23
  -5   4   0 434.783 156.822  14
   5  -4   1-37.0212 182.772   6
  -5   4  -1 27.2839 140.751  14
   5  -4   2 144.085 193.262   6
   5  -4   2 157.456 147.184  32
  -5   4  -2 87.2208 154.065  14
   5  -4   3 643.138 174.297  32
   5  -4   3 583.450 223.541   6
   5  -4   3 564.101 248.777  12
  -5   4  -3 550.458 175.971  14
   5  -4   4 108.917 200.118  32
   5  -4   4 40.4275 281.809  12
   5  -4   4 223.828 192.260  31
  -5   4  -4-8.15967 171.088  14
   5  -4   5-24.9882 355.603  12
  -5   4  -5 66.9975 168.955  59
   5  -4   5 2.82532 222.183  32
   5  -4   5 132.928 236.330  31
  -5   4  -5-81.5338 160.686  14
  -5   4  -6-83.6706 175.173  59
   5  -4   6-35.3193 256.243  33
   5  -4   6 130.920 264.434  31
  -5   4  -6 29.5343 150.610  38
  -5   4  -7 151.498 165.965  59
   5  -4   7 25.0459 270.001  33
   5  -4   7 44.8411 271.975  31
  -5   4  -7 28.8295 152.910  38
  -5   4  -8 419.257 172.747  59
   5  -4   8 319.682 170.096  46
  -5   4  -8 423.180 149.803  40
  -5   4  -8 347.414 161.743  38
  -5   4  -9-6.81632 158.456  59
   5  -4   9 131.214 149.754  52
   5  -4   9 19.6540 150.296  46
  -5   4  -9 105.198 137.527  40
  -5   4  -9 77.1802 153.482  38
   5  -4  10-45.3755 180.992  58
  -5   4 -10 11.5899 144.129  59
   5  -4  10-73.2181 145.335  46
  -5   4 -11-26.4345 113.392  59
   5  -4  11 39.6924 140.940  58
   5  -4  11-124.889 118.192  46
  -5   3  12 597.002 127.764  49
   5  -3 -12 710.874 118.923  48
   5  -3 -11-120.709 174.753  60
  -5   3  11 96.8370 132.192  49
  -5   3  10 9.05984 149.657  49
  -5   3   9-68.4946 156.395  49
   5  -3  -9-95.9989 170.621  27
  -5   3   9-50.2574 150.543  42
   5  -3  -8 23.9910 183.706  13
  -5   3   8 109.397 137.376  51
   5  -3  -8-34.6010 230.358   9
   5  -3  -8 42.7942 155.860  27
  -5   3   8-24.1674 171.415  42
  -5   3   8 77.7609 164.584   5
   5  -3  -7 199.541 211.654  13
  -5   3   7 64.6229 164.107  51
   5  -3  -7 298.948 207.754   9
   5  -3  -7 153.877 163.915  27
  -5   3   7 173.060 165.071  42
  -5   3   7 97.7395 162.702   5
   5  -3  -6 233.755 198.578  13
   5  -3  -6 173.774 183.116   9
   5  -3  -6 146.575 158.163  27
  -5   3   6 133.046 149.882   5
   5  -3  -5 373.358 193.453  13
   5  -3  -5 331.558 182.954   9
   5  -3  -5 361.590 153.588  27
  -5   3   5 398.534 144.213   5
   5  -3  -4 101.247 155.712  13
   5  -3  -4-34.6051 172.383   9
   5  -3  -4-36.9297 125.941  27
  -5   3   4-9.60551 118.381   5
   5  -3  -3 797.308 179.153  13
   5  -3  -3 545.932 182.280   9
   5  -3  -3 670.720 132.952  27
  -5   3   3 638.080 163.611  14
  -5   3   3 814.454 145.255   5
  -5   3   2 708.256 140.672   5
   5  -3  -2 834.712 163.238  13
   5  -3  -2 673.403 173.314   9
  -5   3   2 725.236 158.787  14
  -5   3   1 81.7724 107.623   5
   5  -3  -1 31.1704 115.872  29
   5  -3  -1 38.1644 142.506   9
  -5   3   1 38.5334 140.085  14
   5  -3  -1 73.4599 133.051  23
   5  -3   0 102.419 132.593  23
   5  -3   0 123.936 128.357   9
  -5   3   0 71.9155 141.335  14
   5  -3   1 1431.47 218.958   6
  -5   3  -1 1146.98 191.346  14
   5  -3   1 1239.78 155.524  23
   5  -3   2 279.274 197.277   6
   5  -3   2 270.712 143.619  32
  -5   3  -2 228.053 152.390  14
   5  -3   3 405.821 219.920   6
   5  -3   3 158.955 214.726  12
   5  -3   3 275.440 162.211  32
  -5   3  -3 261.729 157.497  14
   5  -3   4 48.0505 252.658  12
   5  -3   4-28.5089 241.371   6
   5  -3   4 35.5630 172.379  32
  -5   3  -4-14.2282 148.927  14
   5  -3   5-55.9450 311.091  12
   5  -3   5-39.7315 223.738  32
   5  -3   5-5.28952 211.579  31
  -5   3  -5-27.0043 152.812  14
  -5   3  -6-47.0020 171.497  59
   5  -3   6-86.7048 234.078  33
   5  -3   6 123.500 245.648  32
   5  -3   6-29.4849 252.249  31
  -5   3  -6-11.4723 163.479  38
  -5   3  -7 57.0804 170.457  59
   5  -3   7-121.037 266.287  33
   5  -3   7 145.697 246.058  32
   5  -3   7-89.6661 286.464  31
   5  -3   7-82.8802 170.630  46
  -5   3  -7 38.5170 167.816  38
  -5   3  -8 351.030 168.655  59
   5  -3   8 332.934 226.573  32
   5  -3   8 482.485 172.962  46
  -5   3  -8 337.650 175.234  38
  -5   3  -9 107.785 152.057  59
   5  -3   9-64.2792 155.132  52
   5  -3   9 35.4193 155.582  46
  -5   3  -9-55.6420 170.906  38
  -5   3 -10 177.279 142.369  59
   5  -3  10 75.0838 178.122  58
   5  -3  10-24.0718 152.599  46
  -5   3 -10 112.749 129.364  40
  -5   3 -10 79.2974 146.308  38
  -5   3 -11 38.6381 122.350  59
   5  -3  11-23.7353 151.445  58
   5  -3  11-14.9369 135.346  46
  -5   3 -11 17.6070 131.465  38
   5  -3  12-84.1402 113.021  58
   5  -3  12-23.4913 99.3112  46
  -5   2  13-26.5132 85.2013  49
   5  -2 -13 40.5598 105.929  38
   5  -2 -12 393.373 141.235  60
  -5   2  12 232.040 118.750  49
   5  -2 -12 254.405 130.205  48
   5  -2 -11 350.119 200.379  60
  -5   2  11 263.990 150.054  49
  -5   2  10 797.378 172.844  49
  -5   2   9-57.4044 148.488  51
   5  -2  -9 78.5151 158.339  29
   5  -2  -9-57.8614 168.797  27
  -5   2   8-3.10301 158.567  51
   5  -2  -8 199.695 201.609   9
   5  -2  -8-4.00561 165.745  27
  -5   2   8 63.4980 160.111   5
  -5   2   7 453.457 163.661  51
   5  -2  -7 380.390 220.614   9
   5  -2  -7 622.779 176.578  27
  -5   2   7 455.492 177.495   5
   5  -2  -7 627.824 217.585  13
  -5   2   7 692.689 163.808  36
   5  -2  -6 8.30630 180.196  13
   5  -2  -6 13.9806 178.665   9
   5  -2  -6 48.9932 150.926  27
  -5   2   6 25.9111 147.746   5
   5  -2  -5 39.7491 176.925  13
   5  -2  -5 127.751 171.058   9
   5  -2  -5 153.233 140.912  27
  -5   2   5 118.992 135.958   5
   5  -2  -4-77.9391 159.765  13
   5  -2  -4 43.9676 165.431   9
   5  -2  -4 12.5287 123.020  27
  -5   2   4 34.9008 118.863   5
   5  -2  -3 221.915 150.461  13
   5  -2  -3 207.073 158.222   9
   5  -2  -3 197.627 119.655  27
  -5   2   3 221.900 122.439  14
  -5   2   3 310.236 120.872   5
   5  -2  -2 47.6219 116.176  29
   5  -2  -2 96.5970 150.520   9
   5  -2  -2 8.47214 106.699  27
   5  -2  -2 80.1924 134.915  13
  -5   2   2 83.0579 132.380  14
  -5   2   2 23.3772 113.194   5
  -5   2   1 3.17115 108.363   5
   5  -2  -1 59.2183 113.191  29
   5  -2  -1-1.19775 143.374   9
  -5   2   1-13.3298 127.879  14
   5  -2  -1 30.2953 119.754  23
   5  -2   0 156.388 128.819  23
   5  -2   0 187.990 110.989  29
   5  -2   0 249.303 137.778   9
  -5   2   0 134.457 146.327  14
  -5   2  -1 955.484 177.884  14
   5  -2   1 1007.39 146.830  23
   5  -2   1 1099.70 193.543   6
   5  -2   2 745.485 140.332  23
   5  -2   2 681.279 202.573   6
   5  -2   2 731.940 147.873  32
  -5   2  -2 592.717 162.205  14
   5  -2   3 170.633 186.425  12
   5  -2   3 308.271 158.838  32
   5  -2   3 329.275 193.871   6
  -5   2  -3 302.982 155.939  14
   5  -2   4 25.6435 234.957   6
   5  -2   4-21.5793 170.953  32
   5  -2   4-1.86676 227.417  12
  -5   2  -4-11.9636 143.571  14
   5  -2   5-30.8970 227.204  32
   5  -2   5-10.1766 195.037  31
  -5   2  -5 68.8952 97.9247  26
   5  -2   5-11.0556 284.434  12
  -5   2  -5 1.31495 158.195  14
   5  -2   6 35.4201 256.823  32
   5  -2   6 70.3009 234.497  31
  -5   2  -6 23.5400 120.027  26
  -5   2  -7-40.8266 192.103  59
  -5   2  -7-81.3986 173.249  56
   5  -2   7-18.0826 275.408  32
   5  -2   7-72.4894 278.456  31
   5  -2   7 205.976 178.527  46
  -5   2  -7-4.74850 118.391  26
  -5   2  -7 77.8250 173.194  38
  -5   2  -8 80.2936 160.187  59
   5  -2   8-87.1722 254.439  32
   5  -2   8-40.7123 158.459  46
  -5   2  -8-64.8132 164.483  38
   5  -2   9-106.796 206.589  32
   5  -2   9 19.8439 197.187  58
   5  -2   9 5.87400 156.153  46
  -5   2  -9 170.179 162.350  38
   5  -2  10 217.019 198.495  58
   5  -2  10 309.826 166.149  46
  -5   2 -10 216.682 159.916  38
   5  -2  11 196.088 162.649  58
   5  -2  11 67.1073 141.477  46
  -5   2 -11 37.1310 136.636  38
   5  -2  12-35.2107 129.497  58
   5  -2  12 130.136 113.189  46
  -5   2 -12 27.3595 114.723  38
  -5   1  13 232.716 86.4842  49
   5  -1 -13 373.908 101.852  48
   5  -1 -12 51.1495 143.193  60
  -5   1  12 116.085 118.506  49
   5  -1 -12 72.7119 133.728  48
   5  -1 -12 104.944 148.998  38
   5  -1 -11 29.1193 186.487  60
  -5   1  11-80.9141 142.620  49
  -5   1  10 83.5973 137.691  51
  -5   1  10 71.4763 153.354  49
   5  -1 -10 103.422 244.473  60
  -5   1   9-76.4777 156.667  51
   5  -1  -9 40.2107 152.100  29
   5  -1  -9 51.9081 142.343  27
  -5   1   9-13.1936 144.198  36
  -5   1   8 49.3152 151.291  36
  -5   1   8-43.5585 153.851  51
   5  -1  -8 53.3842 159.173  29
   5  -1  -8-100.413 221.496   9
   5  -1  -8 20.9231 156.508  27
  -5   1   8 178.023 165.122   5
   5  -1  -7 224.266 154.576  29
   5  -1  -7 150.931 182.762   9
   5  -1  -7 285.973 157.089  27
  -5   1   7 219.199 161.932   5
   5  -1  -6-6.64248 159.369  29
   5  -1  -6-42.9234 176.003   9
   5  -1  -6 59.1007 142.758  27
  -5   1   6 3.66525 145.664   5
  -5   1   5 1410.27 192.381   5
   5  -1  -5 1410.40 177.738  29
   5  -1  -5 1204.74 213.910   9
   5  -1  -5 1507.63 183.783  27
  -5   1   4 1385.53 176.703   5
   5  -1  -4 1587.58 180.944  29
   5  -1  -4 1334.83 216.345   9
   5  -1  -4 1593.05 168.424  27
  -5   1   3 1820.71 182.150   5
   5  -1  -3 1713.80 218.107   9
   5  -1  -3 1977.65 182.907  29
   5  -1  -3 2284.59 171.244  27
  -5   1   3 2370.14 183.232  14
   5  -1  -2 426.110 126.091  29
   5  -1  -2 218.550 154.875   9
   5  -1  -2 378.413 110.227  27
  -5   1   2 333.817 127.753  14
  -5   1   2 342.294 131.352   5
   5  -1  -2 368.128 136.984  23
  -5   1   1 80.8932 113.774   5
   5  -1  -1-21.3975 121.457  23
   5  -1  -1 44.8080 115.044  29
   5  -1  -1-27.9660 138.104   9
   5  -1  -1 37.2220 88.8719  27
  -5   1   1 86.0643 130.884  14
   5  -1   0 338.256 135.572  23
  -5   1   0 177.988 119.901   5
   5  -1   0 201.959 106.255  29
  -5   1   0 259.458 134.349  14
   5  -1   1 22.6122 121.153  23
   5  -1   1 6.54973 93.3575  29
  -5   1  -1 39.1579 135.923  14
   5  -1   1 25.2469 155.264   6
   5  -1   2 95.4028 123.643  23
   5  -1   2 174.603 167.327   6
   5  -1   2 89.8903 131.415  32
  -5   1  -2 220.060 147.135  14
   5  -1   3-33.0730 127.802  23
   5  -1   3-5.53251 147.402  32
   5  -1   3-117.594 185.490   6
  -5   1  -3 19.0343 143.511  14
   5  -1   4-50.5752 141.446  23
   5  -1   4 26.6318 222.319   6
   5  -1   4-59.0317 206.625  12
   5  -1   4-6.12123 176.706  32
  -5   1  -4 2.66777 100.065  26
  -5   1  -4-16.9250 144.851  14
   5  -1   5-1.74044 277.843  12
   5  -1   5 101.987 199.103  32
   5  -1   5 45.6912 179.216  31
  -5   1  -5 15.7090 100.839  26
  -5   1  -5 40.4600 151.288  14
   5  -1   6-12.5318 252.198  32
   5  -1   6-34.7609 232.569  31
  -5   1  -6 20.3727 113.044  26
  -5   1  -6-38.3818 162.857  14
   5  -1   7 58.9741 281.260  32
   5  -1   7 53.0826 271.265  31
  -5   1  -7 95.3821 123.152  26
  -5   1  -7 56.9533 172.370  38
   5  -1   8-58.2727 199.078  58
   5  -1   8 254.437 232.121  32
   5  -1   8-85.4100 170.557  46
  -5   1  -8-86.5826 178.851  56
  -5   1  -8 1.43913 122.457  26
  -5   1  -8 110.415 172.502  38
   5  -1   9-20.8340 207.316  58
  -5   1  -9 86.5426 163.980  56
   5  -1   9-61.1800 218.924  32
   5  -1   9 141.870 169.306  46
  -5   1  -9 65.5518 133.939  26
  -5   1  -9 135.893 171.880  38
   5  -1  10 91.4880 188.238  58
  -5   1 -10 35.0022 158.738  56
   5  -1  10-19.6769 171.711  46
  -5   1 -10 145.786 163.436  38
   5  -1  11 71.8167 171.741  58
   5  -1  11 329.661 153.037  46
  -5   1 -11 152.781 150.873  38
   5  -1  12 136.449 135.130  58
   5  -1  12 100.145 153.669  50
  -5   1 -12 164.694 129.399  38
   5   0 -13-0.32317 99.5065  48
   5   0 -12 175.726 135.197  60
  -5   0  12 20.3859 110.013  49
   5   0 -12 29.7822 131.422  48
   5   0 -12-29.2823 129.269  38
   5   0 -11 117.245 182.414  60
  -5   0  11 94.8634 134.102  49
   5   0 -11 186.519 137.332  47
  -5   0  10-84.2975 149.307  36
   5   0 -10 150.760 231.780  60
  -5   0  10 16.3530 123.763  51
   5   0 -10-43.4385 157.436  47
  -5   0   9 13.9359 152.249  36
  -5   0   9 79.6107 152.782  51
   5   0  -9 75.8266 180.454  47
  -5   0   8 60.3671 157.402  36
  -5   0   8 44.8932 161.394  51
   5   0  -8 109.787 152.672  29
   5   0  -8 59.0586 148.964  27
  -5   0   8 2.72266 184.125   5
   5   0  -8-191.402 267.369  37
   5   0  -7 714.491 169.740  29
   5   0  -7 1058.43 234.314   9
   5   0  -7 801.170 175.355  27
  -5   0   7 706.350 193.513   5
  -5   0   6 1796.29 223.010   5
   5   0  -6 1656.53 187.583  29
   5   0  -6 1675.15 236.336   9
   5   0  -6 2017.05 200.278  27
   5   0  -6 1694.45 189.970  23
   5   0  -5 483.512 146.051  29
   5   0  -5 451.231 175.265   9
   5   0  -5 395.768 144.646  27
  -5   0   5 504.453 165.001   5
   5   0  -5 443.091 154.835  23
  -5   0   4 1296.42 180.374   5
   5   0  -4 1239.41 156.943  29
   5   0  -4 1248.17 203.810   9
   5   0  -4 1177.75 160.434  27
   5   0  -4 1450.53 168.168  23
   5   0  -3 805.376 139.342  29
   5   0  -3 735.126 175.852   9
   5   0  -3 873.446 135.470  27
  -5   0   3 778.557 157.649   5
   5   0  -3 720.153 155.299  23
  -5   0   2 1998.60 192.526   5
   5   0  -2 1996.11 212.303   9
   5   0  -2 2098.55 163.912  29
  -5   0   2 2284.69 184.280  14
   5   0  -2 2165.78 170.524  23
  -5   0   1 1320.66 165.205   5
   5   0  -1 1282.17 144.580  29
  -5   0   1 1626.90 169.035  14
   5   0  -1 1253.66 155.732  23
   5   0   0 628.164 141.287  23
  -5   0   0 496.437 128.786   5
  -5   0   0 700.497 134.050  17
   5   0   0 568.540 120.653  29
  -5   0   0 520.658 137.093  14
   5   0   1 91.5682 127.258  23
   5   0   1 75.3958 151.923   6
  -5   0  -1 66.8646 92.0321  17
  -5   0  -1 49.7215 139.297  14
   5   0   2-50.2931 129.388  23
   5   0   2 50.4409 158.168   6
   5   0   2-42.3499 127.354  32
  -5   0  -2 94.7028 129.289  14
   5   0   3 64.1315 127.636  23
   5   0   3-18.8466 192.110   6
   5   0   3 13.4540 139.946  32
  -5   0  -3-1.13264 152.942  14
   5   0   4-52.8821 141.364  23
   5   0   4 0.51049 168.452  32
  -5   0  -4 56.2700 153.976  14
   5   0   4-31.2507 189.768  12
   5   0   5 62.4646 157.302  23
   5   0   5 201.178 252.168  12
   5   0   5 72.6453 212.555  32
   5   0   5-62.6550 183.165  31
  -5   0  -5-5.27966 114.590  26
  -5   0  -5-15.1502 152.929  14
   5   0   6 58.5423 261.971  32
   5   0   6-50.6595 228.612  31
  -5   0  -6 56.7895 126.170  26
  -5   0  -6-3.26089 166.761  14
   5   0   7 184.933 281.229  32
   5   0   7 77.9143 251.316  31
  -5   0  -7 96.4584 126.367  26
  -5   0  -8-39.4141 190.653  56
   5   0   8 122.534 198.764  58
   5   0   8 55.1265 230.106  32
   5   0   8 14.0960 167.491  46
  -5   0  -8 52.7822 131.541  26
  -5   0  -8-49.7746 176.015  38
   5   0   9-96.0098 200.712  58
  -5   0  -9-36.5672 180.795  56
   5   0   9 21.2413 208.829  32
   5   0   9-32.3365 160.807  46
  -5   0  -9-61.2315 132.171  26
  -5   0  -9-60.1770 167.321  38
  -5   0 -10 156.422 163.882  56
   5   0  10 130.747 161.831  46
   5   0  10 120.839 195.653  58
  -5   0 -10 152.741 168.920  38
   5   0  11-53.1991 171.903  58
  -5   0 -11 87.9141 146.892  56
   5   0  11-9.84038 157.215  46
  -5   0 -11-24.6355 154.855  38
   5   0  12-38.1967 148.924  58
  -5   0 -12 92.4882 113.504  56
   5   0  12 37.5654 152.369  50
  -5   0 -12-83.3973 134.790  38
   5   0  13 139.406 115.754  50
  -5   0 -13 215.756 104.180  38
   5   1 -13-23.3842 89.7262  48
  -5  -1  12 133.801 96.3757  49
   5   1 -12 136.730 130.671  48
   5   1 -12 159.572 111.275  47
   5   1 -11 154.686 170.420  60
  -5  -1  11-124.060 127.711  49
   5   1 -11 62.9405 143.832  47
  -5  -1  11 49.2520 131.796  45
  -5  -1  10 8.52412 153.224  36
   5   1 -10 237.360 213.830  60
   5   1 -10 76.8257 160.564  47
  -5  -1   9-24.6167 157.080  36
   5   1  -9 99.6429 238.254  60
  -5  -1   9-57.9111 149.063  51
   5   1  -9 24.4310 185.645  47
   5   1  -9-39.7282 205.685  37
  -5  -1   8 150.940 155.719  36
  -5  -1   8 32.9593 161.058  51
   5   1  -8 95.1488 185.077  15
  -5  -1   8-75.7662 172.816   5
   5   1  -8 67.9857 252.665  37
  -5  -1   7 297.645 159.830  36
   5   1  -7 216.159 147.430  29
   5   1  -7 234.426 196.648  15
  -5  -1   7 139.420 176.087   5
   5   1  -6-46.4578 148.355  29
   5   1  -6 157.068 177.718  15
   5   1  -6 43.4859 163.849   9
  -5  -1   6 28.3586 154.627   5
  -5  -1   5 3869.56 274.388   5
   5   1  -5 3784.14 282.121   9
   5   1  -5 3636.25 215.140  29
   5   1  -5 3870.68 278.791  15
   5   1  -5 3599.38 211.670  23
  -5  -1   4 6253.07 309.493   5
   5   1  -4 6002.90 316.765   9
   5   1  -4 5979.50 250.131  29
   5   1  -4 6304.55 299.991  15
   5   1  -4 6531.78 245.057  23
  -5  -1   3 4200.57 254.218   5
   5   1  -3 3746.23 205.878  29
   5   1  -3 4294.15 239.226  15
   5   1  -3 4065.53 202.209  23
   5   1  -2 416.386 139.496  23
  -5  -1   2 491.921 148.529  17
   5   1  -2 414.843 130.555  29
  -5  -1   2 373.330 126.622  14
  -5  -1   2 361.582 137.945   5
   5   1  -1 11.6891 119.866  23
  -5  -1   1 21.5725 122.144  17
   5   1  -1 25.3844 108.047  29
  -5  -1   1 8.22598 126.545  14
  -5  -1   1-19.8208 121.679   5
   5   1   0 1005.69 149.095  23
  -5  -1   0 1001.40 147.467   5
  -5  -1   0 1022.89 152.995  17
  -5  -1   0 1274.28 173.118  14
   5   1   1 103.492 131.163  23
   5   1   1 210.120 146.494   6
   5   1   1 164.966 120.890  32
  -5  -1  -1 177.531 111.129  17
  -5  -1  -1 184.473 147.246  14
   5   1   2-46.0179 135.692  23
   5   1   2-19.1250 120.183  32
   5   1   2-90.9012 159.021   6
  -5  -1  -2-6.23654 114.784  17
  -5  -1  -2 3.45098 85.1026  28
  -5  -1  -2-7.90186 148.302  14
   5   1   3 14.3954 150.568  23
   5   1   3-6.48257 181.633   6
   5   1   3 40.4118 143.401  32
  -5  -1  -3 1.71773 97.3042  28
  -5  -1  -3 71.7603 162.001  14
   5   1   4 94.1178 157.561  23
   5   1   4-108.199 175.783  32
  -5  -1  -4 51.8435 102.545  28
  -5  -1  -4-8.49569 169.022  14
   5   1   5 17.1745 167.206  23
   5   1   5-172.780 239.448  32
  -5  -1  -5 69.2667 171.307  14
   5   1   6 121.605 158.000  23
   5   1   6-19.5332 257.842  32
  -5  -1  -6 21.5840 178.482  14
   5   1   7 65.6651 274.761  32
  -5  -1  -7 49.5736 132.271  26
  -5  -1  -7-64.9673 185.537  14
   5   1   8 319.225 187.660  58
  -5  -1  -8 324.453 196.017  56
   5   1   8 293.679 238.466  32
   5   1   8 360.994 173.789  46
  -5  -1  -8 152.885 145.368  26
  -5  -1  -8 292.501 202.862  38
   5   1   9 169.617 200.648  58
   5   1   9 130.060 187.164  32
   5   1   9-36.8485 159.987  46
  -5  -1  -9 108.460 126.028  26
  -5  -1  -9-1.63688 187.145  38
  -5  -1  -9-5.68356 170.020  56
  -5  -1 -10 60.9240 174.752  56
   5   1  10-10.3538 179.066  58
   5   1  10-50.1410 165.790  46
  -5  -1 -10 60.2025 174.075  38
   5   1  11-33.3824 175.543  58
  -5  -1 -11-27.9902 157.881  56
   5   1  11-142.584 189.234  50
  -5  -1 -11-10.3259 170.951  38
  -5  -1 -12 129.590 127.229  56
   5   1  12-15.2729 142.410  58
   5   1  12 29.3427 155.910  50
  -5  -1 -12 179.931 130.470  38
  -5  -1 -13-53.0512 102.495  38
   5   2 -12 147.194 120.755  48
   5   2 -12 206.398 115.240  47
  -5  -2  11 24.9213 134.748  36
   5   2 -11 88.0378 152.426  60
   5   2 -11-8.37966 139.014  48
   5   2 -11 31.4639 139.649  47
  -5  -2  11 46.4148 131.426  45
  -5  -2  10-40.3996 147.371  36
   5   2 -10-43.9341 167.333  47
  -5  -2  10 57.0233 152.904  45
   5   2 -10 121.552 183.153  60
  -5  -2   9-3.03812 159.226  36
   5   2  -9-63.2123 214.544  60
   5   2  -9 48.2721 171.957  47
  -5  -2   8 266.599 159.848  36
   5   2  -8 480.539 259.045  60
  -5  -2   8 380.164 161.263  51
   5   2  -8 323.394 191.543  47
   5   2  -8 397.229 192.599  15
  -5  -2   8 330.203 191.369   5
   5   2  -8 155.661 240.373  37
  -5  -2   7 231.050 173.426  36
  -5  -2   7 327.617 164.889  51
   5   2  -7 215.826 197.903  15
  -5  -2   7 126.849 167.782   5
   5   2  -7 441.249 284.509  37
   5   2  -6 284.440 138.042  29
   5   2  -6 236.909 186.164  15
  -5  -2   6 166.614 169.419   5
   5   2  -5 684.965 144.715  29
   5   2  -5 587.122 188.333  15
  -5  -2   5 910.066 181.259   5
   5   2  -4 44.4846 126.931  23
  -5  -2   4 57.5896 97.0152  30
   5   2  -4 0.82234 131.790  29
   5   2  -4 65.8134 147.872  15
  -5  -2   4-63.2286 145.714   5
   5   2  -3 1082.80 156.285  23
  -5  -2   3 1117.43 182.649  17
  -5  -2   3 843.307 129.923  30
   5   2  -3 822.265 145.815  29
   5   2  -3 1176.39 173.412  15
  -5  -2   3 1128.13 176.399   5
  -5  -2   2 1474.59 180.565   5
  -5  -2   2 1335.25 192.593  17
  -5  -2   2 1307.57 142.686  30
   5   2  -2 1477.39 171.783  15
   5   2  -2 1455.08 162.476  23
  -5  -2   1 495.774 136.970   5
   5   2  -1 512.358 141.832  23
  -5  -2   1 539.015 146.458  17
  -5  -2   1 322.849 142.224  14
   5   2   0 36.4434 140.709  23
  -5  -2   0-23.8910 117.858   5
   5   2   0 5.47653 105.548  32
  -5  -2   0 4.74048 131.548  17
  -5  -2   0 6.68390 138.260  14
   5   2   1 253.325 132.923  23
   5   2   1 150.851 120.656  32
  -5  -2  -1 275.987 125.745  17
  -5  -2  -1 171.858 82.5190  28
   5   2   2 252.578 151.314  23
   5   2   2 324.983 179.208   6
   5   2   2 250.360 140.542  32
  -5  -2  -2 418.213 98.1401  28
   5   2   3 487.439 167.577  23
   5   2   3 208.643 167.824  32
  -5  -2  -3 329.108 103.153  28
   5   2   4 202.584 168.343  23
   5   2   4 209.547 201.404  32
  -5  -2  -4 224.674 112.985  28
   5   2   5 279.623 171.941  23
   5   2   5 296.658 245.202  32
  -5  -2  -5 339.113 124.159  28
   5   2   6 16.8844 156.960  23
   5   2   6 5.61648 240.481  32
  -5  -2  -6-17.7250 200.251  14
   5   2   7 59.3602 249.533  32
   5   2   7 80.0013 161.394  23
  -5  -2  -7-39.4937 207.412  14
   5   2   8 605.439 200.546  58
  -5  -2  -8 751.683 207.757  56
   5   2   8 417.871 226.890  32
   5   2   8 755.490 183.947  46
  -5  -2  -8 619.919 162.724  26
   5   2   9-41.2460 170.635  58
  -5  -2  -9-33.8423 173.523  56
   5   2   9 21.8215 189.897  32
   5   2   9-93.7308 189.472  50
  -5  -2  -9 80.1346 131.048  26
  -5  -2  -9-90.1091 174.110  38
   5   2  10 0.56743 174.244  58
  -5  -2 -10 21.7125 178.617  56
   5   2  10-26.6636 199.503  50
  -5  -2 -10-27.7808 177.383  38
   5   2  11 121.174 156.236  58
  -5  -2 -11 8.52257 160.932  56
   5   2  11 32.1045 184.653  50
  -5  -2 -11 26.4240 152.334  38
   5   2  12-9.46925 145.682  58
  -5  -2 -12-27.1560 145.782  56
   5   2  12 52.8401 165.233  50
  -5  -2 -12-8.94843 132.282  38
  -5  -2 -13-12.5793 102.146  56
   5   2  13 29.8199 118.801  50
   5   3 -12 199.186 94.8731  48
   5   3 -12 172.294 105.710  47
  -5  -3  11 104.013 130.782  36
   5   3 -11 95.8441 114.820  63
   5   3 -11 157.467 128.130  48
   5   3 -11 212.705 132.670  47
  -5  -3  11 245.723 128.396  45
  -5  -3  10 355.519 158.748  36
   5   3 -10 359.969 147.431  63
   5   3 -10 225.420 169.002  60
   5   3 -10 399.641 153.413  48
   5   3 -10 317.894 157.558  47
  -5  -3  10 380.881 147.000  45
  -5  -3   9 544.767 172.253  36
   5   3  -9 582.605 200.552  60
   5   3  -9 681.831 173.639  47
  -5  -3   9 622.238 173.251  45
  -5  -3   8 144.864 165.982  36
   5   3  -8 13.9471 208.329  60
   5   3  -8-160.320 195.464  47
   5   3  -8-55.6930 192.922  37
  -5  -3   7 179.587 173.021  36
   5   3  -7 297.400 244.092  60
  -5  -3   7 354.279 165.415  51
   5   3  -7 386.477 190.482  15
  -5  -3   7 233.001 176.147   5
   5   3  -7 450.723 233.345  37
  -5  -3   6-34.5394 170.921  36
   5   3  -6-16.4789 196.962  15
  -5  -3   6 20.1005 151.680   5
  -5  -3   5-9.11616 114.093  30
   5   3  -5-6.46858 178.966  15
  -5  -3   5-150.603 164.034   5
  -5  -3   4 203.972 158.288  17
  -5  -3   4 141.701 112.709  30
   5   3  -4 166.292 159.924  15
  -5  -3   4 210.992 146.635   5
  -5  -3   3 207.816 147.924  17
  -5  -3   3 260.739 122.428  30
   5   3  -3 183.957 153.449  15
  -5  -3   3 449.289 150.740   5
   5   3  -2 150.299 138.886  23
  -5  -3   2 55.4754 149.549  17
  -5  -3   2 101.192 118.670  30
   5   3  -2 141.258 133.770  15
  -5  -3   2 93.2562 137.460   5
   5   3  -1 50.4189 140.398  23
  -5  -3   1 125.817 124.614   5
  -5  -3   1 29.1544 148.905  17
  -5  -3   1 74.9600 108.809  30
   5   3  -1 165.154 122.591  15
   5   3   0 576.565 159.621  23
  -5  -3   0 529.027 117.467  30
  -5  -3   0 600.136 94.6797  28
   5   3   1-2.43776 143.873  23
  -5  -3  -1 5.81120 83.2647  28
   5   3   2-21.5607 165.070  23
  -5  -3  -2-19.6395 84.3334  28
   5   3   3 105.902 157.819  23
   5   3   3 80.7441 182.142  32
  -5  -3  -3-27.4742 96.7015  28
   5   3   4 574.180 181.908  23
   5   3   4 723.972 143.107  34
   5   3   4 507.572 238.281  32
  -5  -3  -4 698.480 131.161  28
   5   3   5 325.054 188.052  23
   5   3   5 171.771 232.469  32
  -5  -3  -5 221.409 121.755  28
   5   3   6 374.363 175.589  23
   5   3   6 297.955 228.504  32
  -5  -3  -6 323.321 136.141  28
   5   3   7 2173.84 246.084  58
  -5  -3  -7 1873.01 249.850  56
   5   3   7 2108.79 268.350  32
  -5  -3  -7 1950.22 282.691  14
  -5  -3  -7 2213.73 232.041  62
  -5  -3  -8 31.8978 153.154  62
   5   3   8 12.6933 198.878  58
  -5  -3  -8-107.244 180.974  56
   5   3   8 26.5923 195.142  32
  -5  -3  -9-44.3125 197.144  56
  -5  -3  -9-6.93580 150.017  62
   5   3   9 106.570 182.446  58
   5   3   9 89.4462 166.552  32
   5   3   9-31.9444 189.404  50
  -5  -3  -9-51.4470 146.979  26
   5   3  10-27.4839 184.876  58
  -5  -3 -10-53.1306 171.295  56
   5   3  10-112.083 194.065  50
   5   3  11-4.64923 161.601  58
  -5  -3 -11 50.0890 182.265  56
   5   3  11 51.3108 175.254  50
  -5  -3 -12 45.9244 137.256  56
   5   3  12-92.1396 135.121  58
   5   3  12 116.527 158.640  50
  -5  -3 -13 109.747 100.118  56
  -5  -4  11 20.8352 110.447  36
   5   4 -11 100.956 100.468  63
   5   4 -11 111.412 115.481  47
  -5  -4  11 43.3217 106.347  45
  -5  -4  10-50.4581 136.129  36
   5   4 -10-52.7763 142.553  63
   5   4 -10-76.6739 126.577  48
   5   4 -10-49.8726 144.654  47
  -5  -4  10-106.945 132.402  45
  -5  -4   9 94.8104 163.213  36
   5   4  -9 271.859 161.138  63
   5   4  -9 149.581 159.876  60
   5   4  -9 269.734 161.287  47
  -5  -4   9 136.574 158.573  45
  -5  -4   8 2243.62 231.513  36
   5   4  -8 2527.40 237.531  60
   5   4  -8 2251.09 220.564  47
  -5  -4   8 1802.94 207.005  45
  -5  -4   7 5597.16 312.317  36
   5   4  -7 5968.14 313.867  60
   5   4  -7 5397.58 281.446  47
   5   4  -7 5446.29 366.355  15
  -5  -4   6 1053.01 194.946  36
  -5  -4   6 667.324 183.308  57
  -5  -4   6 904.953 178.106  51
   5   4  -6 738.727 212.179  15
   5   4  -6 731.251 263.518  37
  -5  -4   5 13.8851 136.138  30
   5   4  -5 130.646 176.957  15
   5   4  -4 187.566 229.364  10
  -5  -4   4 163.985 168.522  17
  -5  -4   4 341.285 138.998  30
   5   4  -4 233.857 172.310  15
   5   4  -3 1709.20 322.988  10
  -5  -4   3 1341.79 212.309  17
  -5  -4   3 1318.59 166.044  30
   5   4  -3 1572.63 207.491  15
  -5  -4   2-30.5652 117.361   5
   5   4  -2-66.4738 284.136  10
  -5  -4   2 13.0090 154.673  17
  -5  -4   2 26.9716 127.292  30
   5   4  -2-31.9661 145.012  15
   5   4  -1-53.8420 156.041  23
  -5  -4   1 5.83379 124.532   5
  -5  -4   1 9.49074 151.794  17
  -5  -4   1 101.793 128.767  30
   5   4  -1-29.4032 131.903  15
   5   4   0 84.0897 157.679  23
  -5  -4   0 228.954 120.184  30
  -5  -4   0 97.2422 94.7626  28
  -5  -4  -1 3337.58 193.506  30
  -5  -4  -1 3078.13 176.413  28
   5   4   1 3461.52 234.005  23
   5   4   2 346.134 183.208  23
  -5  -4  -2 229.581 104.665  28
   5   4   3 148.339 169.094  23
   5   4   3 226.582 285.833  10
  -5  -4  -3 221.527 112.562  28
   5   4   4 50.0648 174.361  23
   5   4   4 23.7970 144.932  34
   5   4   4-5.12607 239.090  10
  -5  -4  -4 40.3826 117.993  28
   5   4   5 31.7066 170.858  23
   5   4   5 128.560 136.817  34
  -5  -4  -5 32.9232 125.010  28
  -5  -4  -6 161.489 145.947  28
   5   4   6 87.7234 173.276  23
  -5  -4  -7 176.208 208.407  56
  -5  -4  -7 307.470 189.088  62
   5   4   7 96.0990 187.299  58
   5   4   7 229.245 177.370  32
  -5  -4  -7 245.869 143.616  28
  -5  -4  -8 299.203 182.744  62
   5   4   8 295.391 198.849  58
  -5  -4  -8 326.888 210.851  56
   5   4   8 315.843 175.876  32
  -5  -4  -8 57.8572 216.338  14
  -5  -4  -9 40.5024 159.610  62
   5   4   9-14.9011 184.407  58
  -5  -4  -9-106.872 193.008  56
   5   4   9-61.2198 166.900  32
   5   4   9 24.6549 191.229  50
  -5  -4  -9-15.5794 147.548  26
  -5  -4 -10 68.6233 151.492  62
   5   4  10-51.4976 176.489  58
  -5  -4 -10-9.93576 194.604  56
   5   4  10 86.6797 191.280  50
  -5  -4 -11-7.47683 164.933  56
   5   4  11 12.1814 159.440  58
   5   4  11 9.88178 172.012  50
   5   4  12 47.3358 119.241  58
  -5  -4 -12-91.6565 139.593  56
   5   4  12 88.7446 144.663  50
  -5  -5  11 31.7027 84.9229  36
   5   5 -11 10.0076 98.0718  47
  -5  -5  10 433.008 133.760  36
   5   5 -10 421.396 128.603  63
   5   5 -10 490.460 138.401  47
  -5  -5  10 514.573 132.575  45
  -5  -5   9 235.731 142.666  36
   5   5  -9 251.326 151.275  47
  -5  -5   9 306.185 147.697  45
   5   5  -9 250.485 151.429  63
  -5  -5   8 58.3194 159.550  36
   5   5  -8-20.7946 160.552  63
   5   5  -8 2.16411 152.424  47
  -5  -5   8-65.0362 154.359  45
  -5  -5   7 617.924 177.347  36
   5   5  -7 581.096 183.563  47
  -5  -5   7 772.029 189.518  45
  -5  -5   6 352.356 175.462  36
  -5  -5   6 407.521 161.010  57
  -5  -5   6 240.149 151.787  30
   5   5  -6 207.492 178.073  47
   5   5  -6 260.492 185.089  15
   5   5  -6 538.738 172.884  43
  -5  -5   5 1090.63 203.320  36
  -5  -5   5 994.380 180.234  57
  -5  -5   5 794.425 170.198  30
   5   5  -5 1181.79 211.263  47
   5   5  -5 1049.42 216.440  15
   5   5  -5 1266.55 216.647  43
   5   5  -5 1186.38 225.711  37
  -5  -5   4 392.087 175.446  57
  -5  -5   4 718.119 192.838  36
  -5  -5   4 600.395 191.768  17
  -5  -5   4 617.009 164.405  30
   5   5  -4 653.804 207.464  15
   5   5  -4 860.140 239.883  43
   5   5  -4 811.024 240.645  37
   5   5  -3 32.3945 217.445  10
  -5  -5   3-43.4260 171.784  17
  -5  -5   3 43.4286 145.252  30
   5   5  -3 8.40196 169.308  15
   5   5  -2 27.7711 235.654  10
  -5  -5   2 38.7656 165.901  17
  -5  -5   2 34.3919 133.426  30
   5   5  -1 261.651 249.148  10
  -5  -5   1 107.500 163.029  17
  -5  -5   1 104.177 137.667  30
   5   5   0 1714.36 318.682  10
  -5  -5   0 1967.26 181.829  30
   5   5   0 2028.48 213.842  23
   5   5   1 196.351 175.098  23
   5   5   1 331.981 260.869  10
  -5  -5  -1 404.140 133.468  30
  -5  -5  -1 287.353 114.210  28
   5   5   2 128.873 164.748  23
   5   5   2 102.416 247.035  10
  -5  -5  -2 128.121 115.557  30
  -5  -5  -2 131.973 110.593  28
   5   5   3 93.7119 175.750  23
   5   5   3 75.9875 156.725  34
   5   5   3 122.218 228.100  10
  -5  -5  -3 169.525 115.848  28
  -5  -5  -3 153.734 118.688  25
   5   5   4 33.8408 162.374  23
   5   5   4-42.8268 161.180  34
   5   5   4 72.1400 185.997  10
  -5  -5  -4 48.7221 130.009  28
   5   5   5 64.4065 152.429  34
  -5  -5  -5 154.784 131.369  28
   5   5   5 84.5992 175.378  23
   5   5   6 63.5484 192.595  35
  -5  -5  -6-34.4133 195.182  62
   5   5   6 30.9845 150.041  34
   5   5   6 54.6774 194.374  58
  -5  -5  -6-1.24134 143.178  28
  -5  -5  -7 36.0336 187.329  62
   5   5   7 57.8259 182.558  58
  -5  -5  -7 100.717 202.734  56
  -5  -5  -7 25.7079 141.821  28
  -5  -5  -8 1183.58 220.255  62
   5   5   8 1547.31 218.828  58
  -5  -5  -8 1718.77 230.219  56
   5   5   8 1419.49 215.914  50
  -5  -5  -9 46.7626 178.151  62
   5   5   9 66.1697 185.296  58
  -5  -5  -9 7.25690 196.746  56
   5   5   9 33.0460 194.470  50
   5   5  10 76.3040 174.681  58
  -5  -5 -10 126.323 154.438  62
  -5  -5 -10 32.7222 189.896  56
   5   5  10 195.053 179.319  50
  -5  -5 -11 100.410 130.496  62
   5   5  11 193.244 143.364  58
  -5  -5 -11 115.796 160.908  56
   5   5  11 199.884 162.831  50
  -5  -5 -12 22.7736 137.795  56
   5   5  12-10.7661 131.969  50
  -5  -6  10 47.7906 97.3955  36
   5   6 -10 35.4752 107.588  63
   5   6 -10 53.7994 96.3092  47
  -5  -6  10-45.0428 80.8526  45
  -5  -6   9-11.4142 120.360  36
   5   6  -9 14.8913 121.325  47
  -5  -6   9 23.5739 131.757  45
   5   6  -9 25.1316 126.065  63
  -5  -6   8 243.890 146.119  36
   5   6  -8 190.725 155.611  63
   5   6  -8 366.020 143.048  47
  -5  -6   8 131.322 151.515  45
  -5  -6   7 621.444 181.339  36
   5   6  -7 761.348 161.329  47
  -5  -6   7 499.050 174.381  45
   5   6  -7 572.271 179.963  63
   5   6  -7 813.444 170.003  43
  -5  -6   6 419.356 172.893  36
  -5  -6   6 247.417 157.663  57
  -5  -6   6 191.157 156.811  30
   5   6  -6 279.465 159.226  47
  -5  -6   6 274.140 179.143  45
   5   6  -6 233.846 160.991  43
  -5  -6   5 526.753 186.900  36
  -5  -6   5 341.813 160.085  57
  -5  -6   5 198.870 152.005  30
   5   6  -5 377.670 177.725  43
  -5  -6   4 531.858 189.501  36
  -5  -6   4 407.057 161.546  57
  -5  -6   4 381.997 178.336  17
  -5  -6   4 440.240 162.020  30
   5   6  -4 677.832 193.049  43
  -5  -6   3 232.082 184.391  36
  -5  -6   3 243.221 160.914  57
  -5  -6   3 317.982 173.696  54
   5   6  -3 232.124 213.627  10
  -5  -6   3 275.837 157.392  17
  -5  -6   3 188.299 167.607  30
   5   6  -3 278.583 223.410  43
  -5  -6   2 187.218 157.211  57
  -5  -6   2 126.428 180.448  54
   5   6  -2 144.709 197.106  10
  -5  -6   2 98.2002 177.880  17
  -5  -6   2 125.342 168.198  30
   5   6  -2 181.721 219.188  43
   5   6  -1 1194.65 255.921  10
  -5  -6   1 1167.18 224.501  17
  -5  -6   1 1339.99 197.303  30
   5   6   0 1262.08 245.452  10
  -5  -6   0 1090.59 181.471  30
   5   6   1 163.933 209.494  10
  -5  -6  -1 126.456 137.562  30
  -5  -6  -1 55.4806 126.987  28
   5   6   1-30.8886 166.575  34
   5   6   2 390.176 156.440  23
   5   6   2 230.378 166.777  34
   5   6   2 284.536 211.433  10
  -5  -6  -2 245.784 145.911  30
  -5  -6  -2 154.191 126.465  28
   5   6   3 522.057 171.453  23
   5   6   3 528.982 174.536  34
   5   6   3 358.747 204.010  10
  -5  -6  -3 526.047 145.619  28
  -5  -6  -3 500.486 149.374  25
   5   6   4 331.724 181.552  35
  -5  -6  -4 180.104 187.180  62
   5   6   4 194.627 161.334  34
   5   6   4 196.319 183.869  58
   5   6   4 80.1217 205.422  10
  -5  -6  -4 264.857 136.204  28
  -5  -6  -4 293.449 144.100  25
   5   6   5 372.514 176.777  35
  -5  -6  -5 458.297 206.370  62
   5   6   5 552.272 176.944  34
   5   6   5 455.111 178.466  58
  -5  -6  -5 334.818 143.476  28
   5   6   6 252.191 177.095  35
  -5  -6  -6 186.399 195.779  62
   5   6   6 483.545 160.860  34
   5   6   6 518.379 178.994  58
  -5  -6  -6 238.791 150.880  28
  -5  -6  -7-91.9074 190.634  62
   5   6   7-83.5880 184.226  58
  -5  -6  -7 3.46488 134.584  28
  -5  -6  -8 30.8638 183.241  62
   5   6   8 79.0927 191.439  58
  -5  -6  -8-44.9040 198.096  56
   5   6   8-19.4307 191.967  50
  -5  -6  -9 163.863 166.468  62
   5   6   9 114.937 172.445  58
  -5  -6  -9 275.335 181.329  56
   5   6   9 139.696 178.125  50
   5   6   9 11.3420 155.976  41
  -5  -6 -10 58.3853 158.180  62
   5   6  10 78.6683 162.118  58
  -5  -6 -10 156.384 177.196  56
   5   6  10 72.0396 177.535  50
  -5  -6 -11 91.2569 125.004  62
  -5  -6 -11-87.5492 151.959  56
   5   6  11-9.94834 142.737  50
  -5  -7   9-7.69203 108.896  36
   5   7  -9 60.1982 107.169  63
  -5  -7   9 84.9223 94.8228  45
  -5  -7   8 150.358 133.662  36
  -5  -7   8 245.271 138.035  45
   5   7  -8 158.689 135.653  63
  -5  -7   7 180.497 143.044  36
   5   7  -7 71.4353 141.645  63
  -5  -7   7 133.058 153.068  45
   5   7  -7-49.3143 136.160  43
  -5  -7   6 26.4731 161.164  36
   5   7  -6 45.6490 152.378  63
  -5  -7   6 4.97736 178.771  45
   5   7  -6 107.716 151.147  43
  -5  -7   5 214.034 168.595  36
   5   7  -5 230.930 159.305  63
  -5  -7   5 192.078 154.058  57
  -5  -7   5 121.795 182.231  45
   5   7  -5 237.970 160.058  43
  -5  -7   4 121.188 171.397  36
  -5  -7   4 85.9039 150.337  57
   5   7  -4 79.1657 154.493  63
  -5  -7   4 103.167 152.693  30
   5   7  -4 73.8565 174.525  43
  -5  -7   3 1633.97 217.958  36
  -5  -7   3 1458.00 194.584  57
  -5  -7   3 1655.82 205.928  54
  -5  -7   3 1346.34 206.351  30
   5   7  -3 1542.44 221.060  43
   5   7  -2 1979.98 210.236  35
  -5  -7   2 1800.76 211.704  57
  -5  -7   2 2171.08 227.879  30
   5   7  -2 1690.62 247.697  10
  -5  -7   2 1544.13 235.736  17
  -5  -7   2 1707.35 220.743  54
   5   7  -2 2119.48 243.963  43
   5   7  -1 818.961 180.374  35
   5   7  -1 623.509 185.016  34
  -5  -7   1 534.004 180.787  54
   5   7  -1 685.242 211.489  10
  -5  -7   1 401.266 191.064  17
  -5  -7   1 774.598 183.483  30
   5   7  -1 722.993 204.260  43
   5   7   0 39.0222 160.354  35
  -5  -7   0 79.9767 172.643  54
   5   7   0-86.8735 191.344  10
  -5  -7   0-40.4412 154.568  30
  -5  -7   0-93.1112 136.261  28
   5   7   0 70.6969 189.177  43
   5   7   0 62.4252 152.751  34
   5   7   1 219.735 183.377  35
   5   7   1 145.955 167.202  34
   5   7   1 313.607 186.105  10
  -5  -7  -1 222.456 158.578  30
  -5  -7  -1 188.172 142.109  28
   5   7   1 256.343 197.133  43
   5   7   2 626.487 181.617  35
   5   7   2 657.260 183.726  34
   5   7   2 795.907 202.953  10
  -5  -7  -2 689.981 167.215  30
  -5  -7  -2 734.580 164.781  28
   5   7   3 1117.61 201.927  35
  -5  -7  -3 1077.10 216.414  62
   5   7   3 1012.01 186.347  34
   5   7   3 922.433 211.755  10
  -5  -7  -3 1021.64 171.180  28
   5   7   4 302.336 169.049  35
  -5  -7  -4 309.879 200.317  62
   5   7   4 514.507 169.660  34
   5   7   4 403.895 162.223  10
  -5  -7  -4 623.390 158.075  28
  -5  -7  -4 420.395 153.205  25
   5   7   5 130.346 162.314  35
  -5  -7  -5 85.4631 192.904  62
   5   7   5 69.5384 156.183  34
  -5  -7  -5 100.686 136.390  28
   5   7   6 719.962 173.653  35
  -5  -7  -6 710.132 214.009  62
   5   7   6 935.695 172.680  34
  -5  -7  -6 613.387 163.334  28
  -5  -7  -7 804.380 210.885  62
  -5  -7  -8 141.405 180.116  62
   5   7   8 117.476 176.593  50
   5   7   8 176.318 164.403  41
  -5  -7  -9 39.9462 174.779  62
   5   7   9 126.876 166.510  50
   5   7   9-2.27491 142.773  41
  -5  -7 -10 100.515 142.112  62
   5   7  10 183.649 150.585  50
  -5  -7 -11-21.0129 118.757  62
  -5  -8   8 44.7252 104.984  36
   5   8  -8-18.7600 82.1626  55
  -5  -8   8-70.4074 84.5986  45
  -5  -8   7 265.816 138.787  36
   5   8  -7 206.515 126.780  63
  -5  -8   7 188.683 136.427  45
   5   8  -7 167.901 120.965  43
  -5  -8   6 282.537 152.154  36
   5   8  -6 131.021 138.715  63
  -5  -8   6 127.919 150.849  45
   5   8  -6 140.745 152.020  43
  -5  -8   5 488.294 183.755  36
  -5  -8   5 653.839 163.618  57
  -5  -8   5 475.486 177.981  45
   5   8  -5 270.016 159.219  43
   5   8  -5 398.954 140.830  63
  -5  -8   4 71.5468 177.061  36
   5   8  -4 30.3005 134.519  63
  -5  -8   4 28.0642 151.818  57
   5   8  -4 122.303 175.660  43
  -5  -8   3 32.6764 173.079  36
  -5  -8   3 42.8661 149.473  57
   5   8  -3 25.4882 175.640  43
  -5  -8   2 362.217 173.858  57
  -5  -8   2 390.613 176.546  54
  -5  -8   2 382.201 187.235  30
   5   8  -2 229.172 171.506  43
   5   8  -2 610.021 175.734  34
   5   8  -1 4810.45 264.859  35
  -5  -8   1 4906.62 298.297  57
  -5  -8   1 5061.25 314.915  54
  -5  -8   1 4912.00 304.839  30
  -5  -8   1 4568.73 278.503  28
   5   8  -1 4939.72 271.841  43
   5   8  -1 4994.72 273.893  34
   5   8   0 932.796 183.017  35
   5   8   0 1033.46 184.021  34
  -5  -8   0 730.091 209.251  54
  -5  -8   0 907.292 187.444  30
  -5  -8   0 770.861 170.821  28
   5   8   0 682.561 176.818  43
   5   8   1 960.752 178.734  35
   5   8   1 926.397 192.022  34
  -5  -8  -1 1047.45 211.529  54
  -5  -8  -1 895.498 192.537  30
  -5  -8  -1 1026.32 175.795  28
   5   8   1 1215.44 180.333  43
   5   8   2 209.653 171.603  35
   5   8   2 265.803 165.764  34
  -5  -8  -2 269.137 140.929  28
   5   8   3 216.874 173.755  35
   5   8   3 96.4993 160.945  34
  -5  -8  -3 126.536 140.035  28
   5   8   4 94.1527 150.265  35
  -5  -8  -4 198.917 182.760  62
   5   8   4 132.274 162.290  34
  -5  -8  -4 120.655 135.330  28
   5   8   5 73.0204 156.871  35
  -5  -8  -5 7.72853 192.630  62
   5   8   6 539.797 158.538  35
  -5  -8  -6 340.334 205.359  62
  -5  -8  -7 187.519 192.919  62
   5   8   7 289.103 158.248  41
  -5  -8  -8 27.4760 168.633  62
   5   8   8-0.15888 147.011  41
  -5  -8  -9-23.0072 147.826  62
   5   8   9 47.0896 125.831  41
  -5  -8 -10 40.7342 126.188  62
  -5  -9   7 165.736 95.6134  36
   5   9  -7 10.2154 81.3299  55
  -5  -9   6 243.442 129.707  36
  -5  -9   6 158.873 114.326  45
   5   9  -6 319.252 124.335  43
  -5  -9   5-40.2667 150.780  36
  -5  -9   5-43.2357 151.650  45
   5   9  -5 15.6580 140.749  43
  -5  -9   4 86.1668 168.938  36
  -5  -9   4-37.4299 145.455  57
  -5  -9   4 188.360 171.316  45
   5   9  -4-20.3233 147.094  43
  -5  -9   3 169.997 184.323  36
  -5  -9   3 172.316 159.570  57
   5   9  -3 166.385 139.502  53
   5   9  -3 179.360 170.550  43
  -5  -9   2 1088.05 219.801  36
  -5  -9   2 1035.52 188.824  57
   5   9  -2 1124.11 174.592  43
  -5  -9   1 1322.24 203.391  57
  -5  -9   1 1360.33 211.399  54
   5   9  -1 1572.50 195.282  43
  -5  -9   0 3779.04 293.710  54
   5   9   0 3933.77 237.754  43
   5   9   1 2311.12 224.888  35
  -5  -9  -1 2664.14 277.884  54
   5   9   1 2828.77 210.327  43
   5   9   2 1140.23 196.580  35
  -5  -9  -2 1295.06 243.254  54
   5   9   2 1125.87 166.847  41
   5   9   3 894.444 184.288  35
   5   9   3 779.433 171.608  41
   5   9   4 14.3737 162.884  35
   5   9   4 48.2347 154.912  41
   5   9   5 74.2207 149.996  35
  -5  -9  -5 61.5815 176.405  62
   5   9   5 46.3649 152.374  41
   5   9   6 289.189 141.640  35
  -5  -9  -6 244.238 180.316  62
   5   9   6 171.590 161.256  41
  -5  -9  -7 51.4203 155.766  62
   5   9   7 49.1691 140.088  41
  -5  -9  -8 4.25111 137.844  54
  -5  -9  -8 37.0319 142.655  62
   5   9   8-10.3433 126.136  41
  -5  -9  -9 261.254 115.371  62
   5   9   9 207.558 104.252  41
  -5 -10   5 87.5808 113.140  36
   5  10  -5 100.918 105.274  43
  -5 -10   4 77.1628 141.451  36
  -5 -10   4-45.2567 97.3534  45
   5  10  -4 100.690 113.450  43
  -5 -10   3 3.87382 160.303  36
   5  10  -3-54.8695 139.395  43
  -5 -10   2 146.900 179.586  36
  -5 -10   2 26.8698 124.969  57
   5  10  -2 35.0320 127.567  53
   5  10  -2 12.2312 130.303  43
  -5 -10   1 214.860 186.879  36
  -5 -10   1 101.925 137.478  57
   5  10  -1 224.094 141.424  53
   5  10  -1 181.263 144.859  43
  -5 -10   0 1846.75 197.856  57
  -5 -10   0 1602.53 208.150  54
   5  10   0 1313.61 170.029  53
   5  10   0 1762.49 174.612  43
  -5 -10  -1 196.661 152.278  57
  -5 -10  -1 194.126 176.841  54
   5  10   1 320.407 147.254  53
  -5 -10  -2-13.6465 178.162  54
   5  10   2 78.2677 137.976  53
  -5 -10  -3 680.451 201.309  54
   5  10   3 632.827 157.036  53
   5  10   3 603.212 146.130  41
  -5 -10  -4 75.2581 183.737  54
   5  10   4-7.77031 138.566  53
   5  10   4 81.2326 129.756  41
  -5 -10  -5-36.5869 180.462  54
   5  10   5 15.5298 122.551  53
   5  10   5 58.2623 135.385  41
  -5 -10  -6 70.2929 152.176  54
   5  10   6 106.876 127.647  41
  -5 -10  -7 62.9789 132.395  54
   5  10   7 75.9837 116.612  41
  -5 -11   2 1269.49 160.946  36
   5  11  -2 1482.15 116.133  43
  -5 -11   1 1528.73 181.798  36
   5  11  -1 1425.76 126.413  53
   5  11  -1 1516.45 125.887  43
  -5 -11   0 1861.29 206.056  36
   5  11   0 1410.01 134.872  53
  -5 -11  -1 445.054 173.510  36
  -5 -11  -1 493.965 122.601  57
  -5 -11  -1 439.205 135.245  54
   5  11   1 328.612 123.075  53
  -5 -11  -2 377.586 121.061  57
  -5 -11  -2 418.819 143.186  54
   5  11   2 421.335 123.251  53
  -5 -11  -3 84.9839 119.670  57
  -5 -11  -3-10.5255 139.522  54
   5  11   3-39.3403 113.155  53
  -5 -11  -4-24.2230 111.872  57
  -5 -11  -4 104.231 134.692  54
   5  11   4 20.6285 100.390  53
  -5 -11  -5 234.520 127.574  54
  -6  10  -1 39.6031 77.6663  40
  -6  10  -2 608.682 85.6635  40
  -6   9   5 215.448 117.492  61
  -6   9   4 49.3508 124.972  61
  -6   9   3 21.3456 138.949  61
  -6   9   2 546.993 143.303  53
  -6   9   2 594.024 112.493  40
  -6   9   1 1497.72 168.245  53
  -6   9   1 1546.70 145.367  40
  -6   9   0 441.283 142.255  53
  -6   9   0 350.557 113.049  40
  -6   9  -1 166.176 105.408  40
  -6   9  -2 962.525 120.748  40
  -6   9  -3 1776.80 133.241  40
  -6   9  -4 535.522 96.1755  40
  -6   8   8 25.4680 96.1508  42
  -6   8   7 462.991 115.214  61
  -6   8   7 514.433 123.883  42
  -6   8   6 117.422 126.073  61
  -6   8   6 131.608 124.231  42
  -6   8   5 2570.55 188.843  61
  -6   8   5 2743.85 195.136  42
  -6   8   4-26.6929 155.128  61
  -6   8   4 112.446 153.645  42
  -6   8   3 381.183 165.587  61
  -6   8   3 203.985 152.524  53
  -6   8   3 227.534 117.717  40
  -6   8   2 265.101 173.466  61
  -6   8   2 276.595 158.487  53
  -6   8   2 288.567 125.150  40
  -6   8   1 318.773 178.508  61
  -6   8   1 398.232 171.997  53
  -6   8   1 421.372 126.500  40
  -6   8   0 700.931 184.842  61
  -6   8   0 686.542 167.921  53
  -6   8   0 566.562 137.343  40
  -6   8  -1 6172.45 257.347  53
  -6   8  -1 5947.29 238.508  40
  -6   8  -2 406.839 131.736  40
  -6   8  -3 726.930 134.610  40
  -6   8  -4 845.719 128.437  40
  -6   8  -5 316.127 106.931  40
  -6   8  -6-30.0239 87.6869  40
  -6   7   9 83.2456 107.002  42
  -6   7   8 227.737 129.505  42
  -6   7   7 87.8700 138.813  61
  -6   7   7 47.9662 126.296  42
  -6   7   6-58.7476 152.021  61
  -6   7   6 37.6960 147.047  42
  -6   7   5 557.614 176.239  61
  -6   7   5 617.127 166.718  42
  -6   7   4 180.981 172.944  61
  -6   7   4 16.4148 146.903  53
  -6   7   4 41.5760 155.327  42
  -6   7   3 433.041 184.083  61
  -6   7   3 558.253 173.148  53
  -6   7   3 514.442 163.478  42
  -6   7   2 64.4579 181.247  61
  -6   7   2 150.215 169.815  53
  -6   7   2 159.303 160.405  42
  -6   7   2 144.573 113.697  40
  -6   7   1 908.658 193.446  53
  -6   7   1 956.713 153.257  40
  -6   7   1 1025.85 164.175  39
  -6   7   1 967.095 198.040  61
  -6   7   0 633.195 188.809  61
  -6   7   0 753.636 185.427  53
  -6   7   0 506.575 133.460  40
  -6   7   0 650.764 149.731  39
  -6   7  -1 8238.76 310.342  53
  -6   7  -1 7401.64 272.628  40
  -6   7  -1 7504.50 289.624  61
  -6   7  -1 8492.80 291.994  39
  -6   7  -2 11191.0 330.870  53
  -6   7  -2 10649.2 316.659  40
  -6   7  -2 11438.7 320.637  39
  -6   7  -3 150.124 155.036  44
  -6   7  -3 122.990 126.768  40
  -6   7  -4 93.3204 131.173  44
  -6   7  -4 4.33332 121.643  40
  -6   7  -5 665.476 133.984  40
  -6   7  -6 348.995 116.503  40
  -6   7  -7 1693.33 129.353  40
   6  -7   8 850.272 136.660  58
  -6   6  10 99.2273 99.0932  42
  -6   6   9 120.749 117.107  42
  -6   6   8 334.057 143.640  61
  -6   6   8 347.559 141.478  42
  -6   6   7 777.953 166.990  61
  -6   6   7 712.692 162.971  42
  -6   6   6 617.492 176.775  61
  -6   6   6 588.275 173.215  42
  -6   6   5 2734.77 222.534  61
  -6   6   5 2624.17 218.347  42
  -6   6   4 557.987 182.951  61
  -6   6   4 386.420 169.783  53
  -6   6   4 527.754 160.107  42
   6  -6  -4 293.707 220.728  23
  -6   6   3 995.281 194.623  61
  -6   6   3 914.270 188.439  53
  -6   6   3 637.009 178.523  42
  -6   6   3 709.838 159.645  39
   6  -6  -3 370.076 211.243  23
  -6   6   2 3.09244 186.016  61
  -6   6   2-49.1370 187.570  53
  -6   6   2 26.3580 167.410  42
  -6   6   2 89.6473 121.726  40
  -6   6   2-4.60681 142.116  39
  -6   6   2 57.3331 169.972  14
  -6   6   1 2623.88 224.743  61
  -6   6   1 2776.59 249.430  53
  -6   6   1 2853.69 285.591  14
  -6   6   1 3032.34 195.169  40
  -6   6   1 2806.51 211.665  39
   6  -6  -1 3088.55 314.252   6
   6  -6   0-26.5235 216.339   6
  -6   6   0 111.683 179.352  61
  -6   6   0 55.5010 188.890  53
  -6   6   0-50.8595 133.044  40
  -6   6   0-12.0071 141.237  39
  -6   6   0 150.860 172.519  14
   6  -6   1 14185.2 583.523   6
   6  -6   1 14285.6 616.025  12
  -6   6  -1 14261.3 363.110  61
  -6   6  -1 13777.0 384.060  53
  -6   6  -1 15104.3 523.416  14
  -6   6  -1 13777.1 364.372  40
  -6   6  -1 13786.6 374.619  39
  -6   6  -2 14557.6 360.321  61
   6  -6   2 13682.6 505.272  31
  -6   6  -2 14971.2 380.839  53
  -6   6  -2 15210.3 386.046  44
  -6   6  -2 13480.8 364.212  40
  -6   6  -2 14777.2 371.809  39
  -6   6  -3 12684.5 365.311  44
  -6   6  -3 12193.9 347.291  40
  -6   6  -4 1058.63 162.672  40
  -6   6  -5 8.23304 131.701  40
  -6   6  -6 217.940 130.750  40
  -6   6  -7-44.6590 115.781  40
  -6   6  -8 1358.75 128.622  40
   6  -6   9 4552.86 196.206  58
  -6   5  11 47.9613 81.7172  49
  -6   5  10 68.6733 101.363  49
  -6   5  10 8.12229 108.306  42
  -6   5   9-41.2075 119.039  49
  -6   5   9-19.5615 138.311  61
  -6   5   9 27.6460 134.634  42
  -6   5   8 50.2699 151.448  61
  -6   5   8 110.741 134.649  49
  -6   5   8 272.448 141.795  42
  -6   5   7 1840.00 201.469  61
  -6   5   7 1671.41 188.713  42
  -6   5   6 1748.92 193.923  42
  -6   5   5 1116.03 191.875  61
  -6   5   5 959.120 178.732  42
  -6   5   4 233.105 188.141  61
   6  -5  -4 186.859 173.797  29
   6  -5  -4 436.851 220.100   9
  -6   5   4 535.415 160.452  42
  -6   5   4 446.044 148.762  39
  -6   5   4 552.957 188.000  14
  -6   5   3-49.1263 187.900  61
  -6   5   3 35.7477 181.336  53
   6  -5  -3 43.1453 148.983  29
   6  -5  -3 168.732 180.411   9
  -6   5   3 41.0110 155.236  42
  -6   5   3 36.1828 146.071  39
   6  -5  -3 55.6330 182.428  23
  -6   5   3 4.10807 168.363  14
  -6   5   2 327.773 196.807  61
  -6   5   2 318.070 207.199  53
  -6   5   2 75.2315 162.573  42
  -6   5   2 276.093 156.569  39
  -6   5   2 230.867 183.925  14
   6  -5  -2 331.067 165.429  23
  -6   5   1 2437.98 228.863  61
  -6   5   1 2888.65 246.894  53
  -6   5   1 2676.45 212.439  42
  -6   5   1 2543.50 260.797  14
  -6   5   1 2427.30 190.408  40
  -6   5   1 2564.17 210.135  39
  -6   5   0 10714.8 327.815  61
  -6   5   0 11322.3 360.428  53
  -6   5   0 10909.6 446.559  14
  -6   5   0 10841.9 322.313  40
  -6   5   0 10894.5 341.103  39
   6  -5   0 10827.9 487.982   6
  -6   5  -1 38612.8 537.985  61
   6  -5   1 39179.7 650.067  32
  -6   5  -1 37513.6 579.439  53
  -6   5  -1 38744.9 796.878  14
  -6   5  -1 39061.8 570.066  40
  -6   5  -1 38393.4 581.072  39
   6  -5   2 4027.41 359.014   6
   6  -5   2 4349.95 278.632  32
  -6   5  -2 4510.13 260.987  53
  -6   5  -2 3497.53 239.306  44
  -6   5  -2 4347.62 311.649  14
  -6   5  -2 3956.54 231.108  40
  -6   5  -2 4190.24 240.285  39
   6  -5   2 4309.95 371.983  12
   6  -5   3 3800.68 382.692   6
   6  -5   3 3233.74 394.249  12
   6  -5   3 3649.06 282.794  32
   6  -5   3 3265.53 292.431  31
  -6   5  -3 3671.74 303.275  14
  -6   5  -3 3360.87 220.076  40
  -6   5  -3 3768.88 227.422  39
  -6   5  -4 759.913 176.184  59
   6  -5   4 788.895 247.636  31
  -6   5  -4 899.756 163.121  40
  -6   5  -5 502.780 170.301  59
   6  -5   5 388.191 268.534  33
   6  -5   5 292.884 258.422  31
  -6   5  -5 293.737 139.500  40
  -6   5  -6 91.5824 166.470  59
  -6   5  -6-75.4748 139.490  40
  -6   5  -7 845.959 185.913  59
  -6   5  -7 903.671 155.612  40
  -6   5  -8 171.736 150.012  59
  -6   5  -8 130.767 122.385  40
   6  -5   9 234.303 165.999  58
  -6   5  -9 194.391 101.858  40
   6  -5  10 371.157 126.659  58
  -6   4  11 643.495 115.646  49
   6  -4 -10 67.5425 201.099  60
  -6   4  10 22.9784 117.404  49
  -6   4   9 88.5388 132.901  49
  -6   4   9 68.7139 131.120  42
  -6   4   8 74.7183 142.299  49
  -6   4   8 8.90453 156.187  42
  -6   4   7 152.660 144.892  51
  -6   4   7 324.866 145.435  49
   6  -4  -7 239.033 167.632  29
   6  -4  -7 274.062 163.152  27
  -6   4   7 235.833 159.989  42
  -6   4   6 1014.19 176.891  51
   6  -4  -6 572.192 176.863  29
   6  -4  -6 604.490 231.172   9
   6  -4  -6 1116.28 185.733  27
  -6   4   6 1098.74 184.968  42
   6  -4  -5 5157.05 380.077  13
  -6   4   5 5910.19 285.269  51
   6  -4  -5 5474.18 385.564   9
   6  -4  -5 5027.90 288.741  29
   6  -4  -5 5199.31 285.169  27
  -6   4   5 5818.67 257.275  42
  -6   4   5 5947.46 261.521  39
   6  -4  -4 44.2454 183.332  13
  -6   4   4 395.568 151.735  62
  -6   4   4 192.204 143.191  51
   6  -4  -4 142.284 161.240  29
   6  -4  -4 159.009 189.685   9
  -6   4   4 316.763 162.988  42
  -6   4   4 303.499 154.366  39
   6  -4  -3 68.5570 137.821  29
   6  -4  -3 22.3161 184.658   9
  -6   4   3-54.3910 169.183  14
   6  -4  -3 38.2047 167.455  23
   6  -4  -2 1048.16 172.243  29
   6  -4  -2 1306.18 227.890   9
  -6   4   2 1110.66 208.560  14
   6  -4  -2 1049.66 190.458  23
   6  -4  -1 106.636 147.707  23
   6  -4  -1 206.836 170.099   9
  -6   4   1 111.977 157.594  14
   6  -4   0 407.506 158.357  23
   6  -4   0 414.946 213.974   6
  -6   4   0 396.764 170.792  14
   6  -4   1 112.443 216.988   6
   6  -4   1-31.2681 162.002  32
  -6   4  -1-47.9006 160.964  14
   6  -4   2 8756.38 456.444   6
   6  -4   2 8318.59 459.099  12
   6  -4   2 9111.16 346.332  32
  -6   4  -2 8400.82 403.079  14
   6  -4   3 2247.73 344.802  12
   6  -4   3 2213.38 318.198   6
  -6   4  -3 2412.81 220.887  59
  -6   4  -3 2805.19 221.733  56
   6  -4   3 2403.85 248.710  32
  -6   4  -3 2517.29 263.534  14
  -6   4  -3 2263.79 197.576  40
   6  -4   4-176.208 308.448  12
  -6   4  -4 38.4418 163.788  59
   6  -4   4 58.6575 219.809  32
   6  -4   4 169.632 200.406  31
  -6   4  -4 73.0683 139.502  40
  -6   4  -4 137.646 166.312  14
   6  -4   5 155.657 362.106  12
  -6   4  -5 120.798 168.420  59
   6  -4   5 82.0701 240.174  32
   6  -4   5 317.329 237.863  31
  -6   4  -5 283.592 185.202  14
  -6   4  -6 327.857 175.267  59
   6  -4   6 274.400 268.960  33
   6  -4   6 36.3734 238.040  32
   6  -4   6 347.439 259.320  31
  -6   4  -6 179.968 146.030  40
  -6   4  -7 3818.07 241.829  59
  -6   4  -7 3675.74 232.216  40
  -6   4  -8 1172.29 187.718  59
  -6   4  -8 979.935 162.863  40
  -6   4  -9 473.882 150.540  59
   6  -4   9 571.135 184.941  58
   6  -4   9 445.005 143.874  46
  -6   4  -9 524.322 128.729  40
   6  -4  10 457.620 152.472  58
   6  -4  10 445.069 114.739  46
  -6   4 -10 524.558 103.477  40
   6  -4  11 23.7739 102.655  58
  -6   3  12 627.969 98.7010  49
   6  -3 -12 755.173 130.639  38
   6  -3 -11 913.401 172.755  60
  -6   3  11 854.172 133.963  49
  -6   3  10 1046.84 166.225  49
  -6   3   9 80.5830 144.031  49
  -6   3   8 368.207 152.964  51
   6  -3  -8 398.412 170.602  29
  -6   3   7 1794.80 208.867  51
   6  -3  -7 1783.65 217.903  29
   6  -3  -7 1801.30 214.506  27
  -6   3   6 7923.57 322.779  51
  -6   3   6 7861.64 382.862   5
   6  -3  -6 7179.81 415.219   9
   6  -3  -6 7168.03 327.140  29
   6  -3  -6 7900.29 338.864  27
  -6   3   5 27.1897 149.080  51
   6  -3  -5-7.26014 163.573  29
   6  -3  -5 33.4340 187.957   9
   6  -3  -5 110.871 129.380  27
  -6   3   5-21.4766 148.932  62
  -6   3   5 102.659 144.902   5
  -6   3   4 1571.83 202.680   5
   6  -3  -4 1758.14 203.203  29
   6  -3  -4 1428.98 247.106   9
   6  -3  -4 1684.79 188.456  27
  -6   3   3 730.020 161.160   5
   6  -3  -3 901.165 168.198  29
   6  -3  -3 854.758 203.487   9
  -6   3   3 1000.04 181.316  14
   6  -3  -3 783.303 182.626  23
  -6   3   2 1403.96 180.460   5
   6  -3  -2 1367.75 175.151  29
   6  -3  -2 1236.97 223.648   9
  -6   3   2 1402.41 202.807  14
   6  -3  -2 1421.84 185.871  23
   6  -3  -1 2043.71 237.938   9
   6  -3  -1 2363.28 188.274  29
  -6   3   1 2152.14 234.299  14
   6  -3  -1 2349.02 214.674  23
  -6   3   0 6091.37 337.765  14
   6  -3   0 5702.29 268.840  23
   6  -3   1 470.482 153.888  23
   6  -3   1 262.188 218.253   6
   6  -3   1 553.569 167.894  32
  -6   3  -1 340.730 169.369  14
   6  -3   2 4567.20 342.393   6
   6  -3   2 4121.94 257.898  32
  -6   3  -2 4303.67 294.525  14
   6  -3   3 108.614 182.728  32
   6  -3   3 104.311 234.087  12
  -6   3  -3 65.3813 169.655  14
   6  -3   3-44.4527 226.108   6
   6  -3   4 520.706 286.504  12
   6  -3   4 398.781 223.960  32
   6  -3   4 313.364 190.821  31
  -6   3  -4 456.618 176.769  14
   6  -3   5 826.364 353.024  12
  -6   3  -5 938.062 202.137  59
   6  -3   5 813.592 253.683  32
   6  -3   5 807.008 250.857  31
  -6   3  -5 732.378 187.023  56
  -6   3  -5 1015.35 195.919  14
  -6   3  -6 134.818 164.560  59
   6  -3   6 159.241 241.854  33
   6  -3   6-64.9312 243.606  32
   6  -3   6 72.8546 257.688  31
  -6   3  -7 553.374 179.480  59
   6  -3   7 549.296 249.523  32
   6  -3   7 517.273 287.334  31
  -6   3  -8 2308.02 212.554  59
   6  -3   8 2376.48 244.644  58
   6  -3   8 2338.86 194.728  46
  -6   3  -9 1818.82 185.370  59
   6  -3   9 1912.11 226.248  58
   6  -3   9 1552.41 174.618  46
   6  -3  10 364.108 167.641  58
   6  -3  10 241.441 125.480  46
  -6   3 -10 235.482 115.668  40
   6  -3  11 128.034 138.731  58
   6  -2 -12 10.3592 108.636  60
  -6   2  12-32.3295 97.1454  49
   6  -2 -12-60.2577 102.878  48
   6  -2 -12-123.229 120.333  38
   6  -2 -11 291.509 168.556  60
  -6   2  11 225.056 126.022  49
   6  -2 -10 247.637 231.250  60
  -6   2  10 175.523 141.163  49
  -6   2   9 1118.68 178.467  51
  -6   2   8 5647.05 288.400  51
   6  -2  -8 5847.91 310.433  29
   6  -2  -8 6103.22 329.013  27
   6  -2  -8 6219.73 314.507  23
  -6   2   7 13394.1 492.250   5
  -6   2   7 13222.8 403.396  51
   6  -2  -7 13680.8 545.589   9
   6  -2  -7 13094.3 415.527  29
   6  -2  -7 13874.2 438.397  27
   6  -2  -7 13200.8 404.471  23
  -6   2   6-34.5907 172.398  51
   6  -2  -6 56.7854 159.834  29
   6  -2  -6-90.1144 203.080   9
   6  -2  -6-15.9751 146.753  27
  -6   2   6 116.388 146.687  62
  -6   2   6 135.832 162.720   5
  -6   2   5 3665.20 267.330   5
   6  -2  -5 3497.53 322.333   9
   6  -2  -5 3223.93 243.825  29
   6  -2  -5 3665.68 246.724  27
   6  -2  -5 3269.73 243.117  23
  -6   2   4 1829.53 202.447   5
   6  -2  -4 1373.20 186.779  29
   6  -2  -4 1412.88 252.137   9
   6  -2  -4 1560.99 185.510  27
   6  -2  -4 1465.98 203.183  23
   6  -2  -3 850.807 162.142  29
   6  -2  -3 803.862 209.109   9
   6  -2  -3 791.029 145.369  27
  -6   2   3 783.008 172.632  14
  -6   2   3 728.081 163.158   5
   6  -2  -3 714.027 184.037  23
   6  -2  -2 108.453 151.920  23
  -6   2   2 129.985 132.561   5
   6  -2  -2 228.196 140.277  29
   6  -2  -2 178.204 167.329   9
  -6   2   2 117.985 159.981  14
  -6   2   1 11818.2 388.029   5
   6  -2  -1 12035.5 440.432   9
   6  -2  -1 12646.5 342.820  29
  -6   2   1 12475.8 432.373  14
   6  -2  -1 11466.2 343.319  23
   6  -2   0 45662.1 587.567  29
  -6   2   0 43963.5 779.282  14
   6  -2   0 44365.5 612.068  23
   6  -2   1 55.3118 144.937  23
   6  -2   1 94.4630 192.037   6
  -6   2  -1 113.524 156.600  14
   6  -2   2 8163.91 405.102   6
   6  -2   2 8728.32 322.247  32
  -6   2  -2 8213.69 371.966  14
   6  -2   2 8385.26 295.177  23
   6  -2   3 2295.92 304.861   6
   6  -2   3 2420.68 298.037  12
   6  -2   3 2550.81 236.872  32
  -6   2  -3 2574.12 254.316  14
   6  -2   4 3242.80 368.900   6
   6  -2   4 3646.03 292.450  32
   6  -2   4 3110.65 357.447  12
  -6   2  -4 3543.68 284.639  14
   6  -2   5 120.188 289.638  12
  -6   2  -5 171.675 169.912  56
   6  -2   5 27.8437 235.096  32
   6  -2   5 38.7306 200.212  31
  -6   2  -5-56.8132 168.532  14
  -6   2  -5 26.2211 156.937  38
  -6   2  -6 3262.68 249.054  59
  -6   2  -6 3210.89 234.199  56
   6  -2   6 3133.24 348.161  32
   6  -2   6 2672.84 346.269  31
  -6   2  -6 3887.95 301.255  14
  -6   2  -6 3220.12 225.710  38
  -6   2  -7 4777.53 264.663  56
   6  -2   7 5064.88 405.779  32
   6  -2   7 4433.12 413.584  31
  -6   2  -7 5050.64 258.562  38
  -6   2  -8 215.343 157.200  56
   6  -2   8 182.595 200.692  58
   6  -2   8-28.8255 149.802  46
  -6   2  -8 66.2260 158.784  38
   6  -2   9 463.984 199.889  58
   6  -2   9 545.481 169.197  46
  -6   2  -9 565.439 165.727  38
   6  -2  10 222.278 181.190  58
   6  -2  10 99.3197 142.509  46
  -6   2 -10 291.209 137.584  38
   6  -2  11 43.7192 152.057  58
  -6   2 -11 48.2880 101.070  40
   6  -1 -12 210.461 121.716  60
  -6   1  12 76.5473 100.868  49
   6  -1 -12 167.871 113.228  48
   6  -1 -12 106.191 111.204  38
   6  -1 -11 20.5929 160.608  60
  -6   1  11 91.2882 124.340  49
   6  -1 -10 202.712 227.553  60
  -6   1  10 212.867 128.208  51
  -6   1  10 205.820 146.289  49
  -6   1   9 452.472 163.648  51
   6  -1  -9 540.206 180.761  47
  -6   1   8 952.158 180.585  36
  -6   1   8 1102.79 183.495  51
   6  -1  -8 973.291 195.426  29
  -6   1   7 17836.2 562.643   5
  -6   1   7 18115.8 467.582  51
   6  -1  -7 18692.3 619.558   9
   6  -1  -7 17827.4 467.437  29
   6  -1  -7 19002.3 502.655  27
   6  -1  -7 18287.1 455.364  23
  -6   1   7 17849.7 460.754  36
  -6   1   6 5294.46 335.376   5
  -6   1   6 5608.86 302.697  51
  -6   1   6 5460.59 286.670  62
   6  -1  -6 5302.06 372.823   9
   6  -1  -6 5557.22 293.934  29
   6  -1  -6 5773.06 296.870  27
   6  -1  -6 5393.91 286.069  23
  -6   1   6 5596.93 278.965  36
   6  -1  -5 657.975 179.546  29
   6  -1  -5 462.700 219.463   9
   6  -1  -5 790.183 169.250  27
  -6   1   5 561.957 174.346   5
   6  -1  -5 753.021 177.984  23
   6  -1  -4 99.4360 154.364  29
   6  -1  -4 83.9018 196.494   9
   6  -1  -4-30.5525 130.373  27
  -6   1   4 16.6103 142.854   5
   6  -1  -4 25.5790 154.504  23
  -6   1   3 3390.41 246.058   5
   6  -1  -3 2930.92 286.727   9
   6  -1  -3 3155.85 223.464  29
   6  -1  -3 3603.73 218.815  27
   6  -1  -3 3202.91 229.973  23
  -6   1   2 1098.28 176.573   5
   6  -1  -2 1023.89 181.390  23
   6  -1  -2 1140.57 162.723  29
   6  -1  -2 932.433 213.860   9
  -6   1   2 1286.56 178.750  14
  -6   1   1 1911.57 199.597   5
   6  -1  -1 2141.07 184.561  29
  -6   1   1 2201.24 222.604  14
   6  -1  -1 1988.20 198.267  23
   6  -1   0 2735.70 185.854  29
  -6   1   0 2642.27 229.865  14
   6  -1   0 2672.85 203.885  23
   6  -1   1 32161.2 532.117  32
  -6   1  -1 31651.2 655.606  14
   6  -1   1 32313.5 515.597  23
   6  -1   1 31783.5 665.454   6
   6  -1   2 20.0893 143.314  23
   6  -1   2 71.9784 201.354   6
  -6   1  -2-38.0064 149.797  14
   6  -1   2 112.864 150.701  32
   6  -1   3 80.1757 153.445  23
   6  -1   3 125.275 198.186  12
   6  -1   3 54.2979 175.057  32
   6  -1   3 42.9006 204.382   6
  -6   1  -3 17.4280 157.332  14
   6  -1   4 744.840 173.439  23
   6  -1   4 454.029 257.092  12
   6  -1   4 715.416 216.725  32
  -6   1  -4 980.015 202.367  14
   6  -1   5 1048.12 337.122  12
   6  -1   5 1512.04 288.759  32
   6  -1   5 1452.18 241.479  31
  -6   1  -5 1410.61 227.243  14
   6  -1   6 473.541 220.908  58
  -6   1  -6 411.961 168.238  56
   6  -1   6 434.385 264.826  32
   6  -1   6 419.969 274.102  31
  -6   1  -6 625.661 205.409  14
  -6   1  -6 519.411 173.827  38
   6  -1   7 2284.51 246.583  58
  -6   1  -7 2056.13 213.669  56
   6  -1   7 2109.72 329.714  32
   6  -1   7 2073.04 352.964  31
   6  -1   7 2577.04 223.717  46
  -6   1  -7 2212.49 203.840  26
  -6   1  -7 2029.78 210.452  38
   6  -1   8 9896.75 365.475  58
  -6   1  -8 9773.53 344.230  56
   6  -1   8 9553.69 460.509  32
   6  -1   8 10645.5 343.608  46
  -6   1  -8 10232.2 350.002  26
  -6   1  -8 9714.16 326.750  38
   6  -1   9 390.671 197.669  58
  -6   1  -9 219.365 169.800  56
   6  -1   9 501.591 160.853  46
  -6   1  -9 318.300 167.821  38
   6  -1  10 399.044 181.157  58
  -6   1 -10 371.279 147.984  56
   6  -1  10 259.430 146.137  46
  -6   1 -10 275.723 158.501  38
   6  -1  11 719.832 169.467  58
  -6   1 -11 961.806 145.596  38
   6  -1  12 230.137 120.750  58
   6   0 -12 35.4527 114.254  60
  -6   0  12 92.6638 90.7956  49
   6   0 -12 194.760 107.685  48
   6   0 -11 528.891 169.668  60
  -6   0  11 571.772 133.307  49
   6   0 -11 635.232 132.093  47
   6   0 -10 64.8165 219.746  60
  -6   0  10-12.0635 133.806  51
  -6   0  10 165.083 148.455  49
   6   0 -10 336.664 152.391  47
  -6   0   9 124.341 149.704  36
  -6   0   9 346.770 156.541  51
   6   0  -9 528.537 178.392  47
  -6   0   8 1844.95 215.641  51
   6   0  -8 1744.28 215.445  29
   6   0  -8 2106.44 301.222  37
  -6   0   8 1794.77 208.915  36
  -6   0   7 34591.7 777.678   5
  -6   0   7 33526.5 615.885  51
   6   0  -7 33250.7 780.050   9
   6   0  -7 33775.3 610.273  29
   6   0  -7 34759.1 784.060  15
   6   0  -7 34652.1 833.202  37
  -6   0   7 33996.1 621.683  36
   6   0  -6 507.141 183.420  23
  -6   0   6 427.027 159.588  36
  -6   0   6 490.096 187.599  51
   6   0  -6 516.823 165.887  29
   6   0  -6 570.104 187.474  15
   6   0  -6 307.285 207.602   9
  -6   0   6 509.444 164.610  62
  -6   0   6 435.767 182.470   5
   6   0  -5 898.385 190.361  23
   6   0  -5 1033.17 185.949  29
   6   0  -5 1081.68 224.271   9
  -6   0   5 1038.75 200.432   5
   6   0  -4 44.5929 156.888  23
   6   0  -4-23.3632 159.152  29
   6   0  -4 72.0752 184.684   9
  -6   0   4-20.6744 149.243   5
   6   0  -3 37.2177 150.052  23
   6   0  -3 21.5880 150.232  29
  -6   0   3-60.2877 140.948   5
   6   0  -2 1093.93 180.623  23
  -6   0   2 1270.08 179.946   5
   6   0  -2 1230.87 166.503  29
  -6   0   2 1279.00 177.275  14
   6   0  -1 32.4529 148.327  23
  -6   0   1 9.76869 133.234   5
   6   0  -1 14.2600 125.143  29
  -6   0   1 27.4730 139.471  14
  -6   0   0 16564.4 467.209  14
   6   0   0 15720.6 374.646  23
   6   0   0 16472.5 463.626   6
   6   0   1 815.168 155.612  23
   6   0   1 556.755 186.007   6
   6   0   1 855.152 157.847  32
  -6   0  -1 794.004 175.698  14
   6   0   2 2350.30 255.121   6
   6   0   2 2397.29 210.659  32
  -6   0  -2 2523.23 232.051  14
   6   0   2 2286.34 209.977  23
   6   0   3 942.328 180.420  23
   6   0   3 793.482 251.155   6
   6   0   3 729.291 195.376  32
   6   0   3 596.222 211.682  12
  -6   0  -3 887.399 200.361  14
   6   0   4 201.764 172.044  23
   6   0   4 116.186 205.349  32
  -6   0  -4 144.832 160.752  14
   6   0   5 1230.19 212.563  23
   6   0   5 1026.23 277.673  32
   6   0   5 851.389 229.396  31
  -6   0  -5 1210.82 154.495  26
  -6   0  -5 1129.03 227.235  14
   6   0   6 1541.57 239.119  58
  -6   0  -6 1084.95 191.379  56
   6   0   6 1315.19 314.938  32
  -6   0  -6 1137.66 162.155  26
  -6   0  -6 1563.19 229.094  14
  -6   0  -6 1265.38 199.655  38
   6   0   7 5048.20 298.442  58
  -6   0  -7 5104.70 278.136  56
   6   0   7 5648.93 416.248  32
   6   0   7 5723.06 282.875  46
  -6   0  -7 5518.00 347.599  14
  -6   0  -7 5187.64 263.502  26
  -6   0  -7 5365.33 265.931  38
   6   0   8 9134.98 354.415  58
  -6   0  -8 9419.11 343.298  56
   6   0   8 8934.40 459.368  32
   6   0   8 9727.26 335.634  46
  -6   0  -8 9511.30 338.499  26
  -6   0  -8 9527.66 325.001  38
   6   0   9 255.619 204.359  58
  -6   0  -9 408.938 167.550  56
   6   0   9 380.011 165.759  46
  -6   0  -9 357.708 169.481  38
   6   0  10 44.2328 179.171  58
  -6   0 -10-93.9055 154.658  56
  -6   0 -10-28.1481 158.430  38
   6   0  11-72.4026 156.636  58
  -6   0 -11 6.97814 134.389  56
  -6   0 -11 59.6456 132.530  38
   6   0  12-55.3007 124.822  58
  -6   0 -12-39.8953 73.7972  56
   6   1 -12 130.943 101.258  48
   6   1 -11 138.935 141.662  60
  -6  -1  11 48.8277 113.969  49
   6   1 -11 142.296 121.091  47
  -6  -1  10 30.5471 137.342  36
   6   1 -10-0.61643 194.210  60
  -6  -1  10 50.3152 113.922  51
   6   1 -10-9.75790 148.971  47
  -6  -1   9-1.83776 142.651  36
   6   1  -9-50.2826 237.118  60
  -6  -1   9-22.3137 144.789  51
   6   1  -9 57.8003 169.190  47
   6   1  -9 185.270 193.685  37
  -6  -1   8 1978.42 218.714  51
   6   1  -8 1893.07 297.617  37
  -6  -1   8 1854.17 219.749  36
  -6  -1   7 2518.43 272.748   5
  -6  -1   7 2765.15 224.777  51
   6   1  -7 2689.48 224.393  29
   6   1  -7 2946.88 280.361  15
   6   1  -7 2725.79 358.338  37
  -6  -1   7 2796.93 236.428  36
  -6  -1   6 22526.0 504.115  36
  -6  -1   6 20971.2 605.749   5
  -6  -1   6 22286.4 501.343  51
   6   1  -6 21530.7 474.617  29
   6   1  -6 23296.0 621.790  15
   6   1  -6 23107.2 713.722  37
   6   1  -5 183.843 166.205  23
   6   1  -5 142.324 158.616  29
   6   1  -5 284.332 166.522  15
  -6  -1   5 193.818 165.766   5
   6   1  -4 1218.36 175.096  29
  -6  -1   4 1113.02 197.135   5
   6   1  -4 1332.60 173.547  23
  -6  -1   3 1556.15 203.509   5
   6   1  -3 1322.51 180.262  29
   6   1  -3 1446.56 186.095  23
   6   1  -2 1142.89 174.840  29
   6   1  -2 1627.00 190.462  23
  -6  -1   2 1023.19 191.299   5
   6   1  -1 284.008 150.842  23
  -6  -1   1 194.445 147.041   5
  -6  -1   1 411.329 152.722  17
  -6  -1   1 190.638 146.766  14
   6   1   0 5688.12 244.297  32
  -6  -1   0 5835.21 303.451  17
  -6  -1   0 5845.24 304.005  14
   6   1   0 6070.55 268.642  23
   6   1   0 6203.04 307.585   6
   6   1   1 2075.69 231.103   6
   6   1   1 1948.47 188.948  32
  -6  -1  -1 2202.00 202.798  17
  -6  -1  -1 2059.00 215.460  14
   6   1   1 2150.19 197.532  23
   6   1   2 1394.15 240.566   6
   6   1   2 1503.23 198.045  32
  -6  -1  -2 1827.47 226.230  14
   6   1   2 1703.22 193.546  23
   6   1   3 572.835 191.728  23
   6   1   3 489.358 223.394   6
   6   1   3 498.033 194.336  32
  -6  -1  -3 479.076 185.671  14
   6   1   4 90.9384 177.152  23
   6   1   4 106.944 217.387  32
  -6  -1  -4 163.421 182.926  14
   6   1   5 9640.96 450.474  32
  -6  -1  -5 9799.59 450.157  14
   6   1   5 10416.5 383.046  23
   6   1   6 18291.2 443.915  58
  -6  -1  -6 18241.9 437.882  56
   6   1   6 17892.4 609.083  32
  -6  -1  -6 19465.8 610.582  14
  -6  -1  -6 19064.5 450.484  26
   6   1   6 18764.0 473.353  23
   6   1   7 1566.99 239.691  35
   6   1   7 1873.20 220.869  58
  -6  -1  -7 1832.99 213.154  56
   6   1   7 1705.42 308.670  32
   6   1   7 1731.58 205.551  46
  -6  -1  -7 1571.29 190.968  26
  -6  -1  -7 1753.77 241.596  14
  -6  -1  -7 1676.08 210.458  38
   6   1   8 7074.53 323.758  35
   6   1   8 7672.58 334.062  58
  -6  -1  -8 8196.45 332.957  56
   6   1   8 7737.76 421.465  32
  -6  -1  -8 7624.42 315.254  26
  -6  -1  -8 7989.46 320.931  38
   6   1   9 3497.07 261.475  58
  -6  -1  -9 3604.27 240.520  56
  -6  -1  -9 3944.61 250.641  38
   6   1  10 82.3158 181.145  58
  -6  -1 -10 154.684 167.910  56
  -6  -1 -10 152.376 154.480  38
   6   1  11 72.9082 160.123  58
  -6  -1 -11 180.068 140.374  56
  -6  -1 -11 22.1673 130.909  38
   6   1  12 189.080 132.943  58
  -6  -1 -12 211.470 111.401  56
   6   2 -11 59.1649 124.907  60
  -6  -2  11 70.8297 98.4030  49
   6   2 -11 19.1003 113.810  48
   6   2 -11 138.436 118.929  47
  -6  -2  10 168.586 143.724  36
   6   2 -10 228.112 166.287  60
   6   2 -10 349.889 157.018  47
  -6  -2   9 713.177 179.650  36
   6   2  -9 843.600 219.851  60
  -6  -2   9 827.661 162.113  51
   6   2  -9 824.527 185.137  47
  -6  -2   8 300.990 160.493  36
   6   2  -8 345.615 244.230  60
  -6  -2   8 253.714 159.858  51
   6   2  -8 227.099 194.529  47
   6   2  -8 162.198 216.966  37
  -6  -2   7 1755.50 213.293  36
  -6  -2   7 1847.80 205.860  51
   6   2  -7 1570.24 246.193  15
  -6  -2   7 1633.52 248.124   5
   6   2  -7 1459.21 318.293  37
  -6  -2   6-19.3576 166.297  36
  -6  -2   6-71.8149 159.448  51
   6   2  -6 32.7878 191.830  15
  -6  -2   6 0.22547 179.020   5
   6   2  -6-86.5623 322.404  37
   6   2  -5 497.907 190.409  15
  -6  -2   5 432.842 182.780   5
  -6  -2   4 1678.89 223.330   5
   6   2  -4 1711.43 214.059  15
   6   2  -4 1731.13 199.353  23
   6   2  -3 721.249 166.393  23
  -6  -2   3 695.792 173.068   5
  -6  -2   2 2650.10 250.237  17
  -6  -2   2 2727.39 243.968   5
   6   2  -2 2651.81 209.569  23
   6   2  -1 50.8401 152.428  23
  -6  -2   1-67.2898 147.637   5
  -6  -2   1 57.2187 148.589  17
  -6  -2   1 50.0132 147.204  14
   6   2   0-11.7419 165.382  23
  -6  -2   0 39.2962 132.511  17
  -6  -2   0 91.4531 150.157  14
   6   2   1 4358.63 239.359  32
  -6  -2  -1 4360.20 274.018  17
  -6  -2  -1 4477.12 295.943  14
   6   2   1 4618.01 261.538  23
   6   2   2 5049.39 269.827  32
  -6  -2  -2 4876.27 291.910  17
  -6  -2  -2 5329.23 328.732  14
   6   2   2 4858.08 282.422  23
   6   2   3 67.6554 190.344  23
   6   2   3 178.353 199.161  32
  -6  -2  -3 103.003 112.121  28
  -6  -2  -3 295.576 187.353  14
   6   2   4 1400.07 222.640  23
   6   2   4 1352.37 266.198  32
  -6  -2  -4 1533.37 165.955  28
  -6  -2  -4 1752.25 261.132  14
   6   2   5 3194.33 333.915  32
  -6  -2  -5 3656.75 333.969  14
   6   2   5 3225.22 272.040  23
   6   2   6 53151.9 728.439  35
  -6  -2  -6 54505.6 738.087  62
   6   2   6 53217.1 691.231  58
  -6  -2  -6 52038.0 689.952  56
   6   2   6 53435.2 952.850  32
  -6  -2  -6 55058.0 1001.96  14
   6   2   6 52666.2 761.616  23
   6   2   7 17775.3 449.424  35
  -6  -2  -7 17644.7 451.147  62
   6   2   7 17138.1 437.752  58
  -6  -2  -7 17535.9 446.375  56
   6   2   7 18496.4 583.791  32
  -6  -2  -7 17965.1 598.156  14
  -6  -2  -7 16753.7 445.475  26
   6   2   7 18687.9 467.724  23
   6   2   8 6371.74 309.456  35
   6   2   8 6351.53 306.509  58
  -6  -2  -8 5986.20 302.751  56
   6   2   8 6199.69 370.889  32
  -6  -2  -8 6278.75 300.565  26
   6   2   9 381.605 194.761  58
  -6  -2  -9 346.802 185.826  56
   6   2  10 2.66118 185.333  58
  -6  -2 -10 25.6403 164.708  56
   6   2  11 101.603 162.436  58
  -6  -2 -11 343.110 149.893  56
   6   2  12 460.868 135.428  58
  -6  -2 -12 480.515 128.085  56
   6   3 -11 87.2731 88.9521  63
   6   3 -11-25.3810 103.310  48
   6   3 -11-10.3333 109.643  47
  -6  -3  10 83.1771 133.729  36
   6   3 -10-36.0911 136.756  60
   6   3 -10-35.3859 126.666  48
   6   3 -10 126.099 135.729  47
   6   3 -10 62.4988 116.050  63
  -6  -3   9 792.890 179.169  36
   6   3  -9 1013.46 188.197  60
   6   3  -9 942.636 181.783  47
   6   3  -8 6201.38 327.956  60
  -6  -3   8 6114.16 281.045  51
   6   3  -8 5510.18 286.342  47
   6   3  -8 5289.33 333.504  37
  -6  -3   8 5456.78 298.716  36
  -6  -3   7 8971.39 362.076  36
   6   3  -7 9468.58 414.339  60
  -6  -3   7 9236.43 347.250  51
   6   3  -7 9040.85 433.826  37
  -6  -3   6 4292.43 278.894  36
  -6  -3   6 4137.59 266.110  51
  -6  -3   6 3484.25 317.249   5
   6   3  -6 4170.45 317.137  15
   6   3  -6 3854.74 351.175  37
  -6  -3   5 4230.69 272.920  36
  -6  -3   5 4019.98 273.530  57
  -6  -3   5 4031.32 304.352   5
   6   3  -5 3821.76 298.894  15
   6   3  -5 3959.09 319.918  43
   6   3  -5 3627.18 387.273  37
  -6  -3   4 2833.49 270.923   5
   6   3  -4 3251.42 275.922  15
  -6  -3   3 380.743 180.171  17
   6   3  -3 326.047 159.742  15
  -6  -3   3 390.799 167.282   5
  -6  -3   2 2713.29 268.815  17
  -6  -3   2 2977.91 251.762   5
   6   3  -2 2932.97 226.956  23
  -6  -3   1 11737.3 461.591  17
   6   3  -1 13066.8 378.786  23
  -6  -3   0 5253.85 326.785  17
  -6  -3   0 5688.41 319.065  14
   6   3   0 5510.99 279.908  23
  -6  -3  -1 3793.62 277.773  17
  -6  -3  -1 3769.77 296.190  14
   6   3   1 3848.54 269.978  23
   6   3   2 297.465 182.949  23
  -6  -3  -2 83.5992 150.916  17
  -6  -3  -2 132.156 100.034  28
   6   3   3 67.5499 185.832  23
  -6  -3  -3 11.7640 107.661  28
   6   3   4 53.3782 192.744  23
   6   3   4-47.6517 247.054  32
  -6  -3  -4 9.15146 121.357  28
  -6  -3  -4 33.3867 212.500  14
   6   3   5 4409.23 367.795  32
  -6  -3  -5 4035.35 240.135  28
  -6  -3  -5 3796.93 335.741  14
   6   3   5 3706.99 274.502  23
   6   3   6 30491.3 592.156  35
  -6  -3  -6 28877.5 578.421  62
   6   3   6 30444.0 545.553  58
  -6  -3  -6 31594.7 562.247  56
  -6  -3  -6 28757.5 760.671  14
   6   3   6 30039.5 592.728  23
   6   3   7 20679.2 478.159  35
  -6  -3  -7 19466.3 480.749  62
   6   3   7 19365.0 460.434  58
  -6  -3  -7 19104.8 475.439  56
   6   3   7 20195.5 570.081  32
  -6  -3  -7 19569.8 635.202  14
   6   3   8 3840.03 278.131  35
  -6  -3  -8 3659.68 259.968  62
   6   3   8 4000.89 267.267  58
  -6  -3  -8 4179.80 288.052  56
   6   3   8 4286.95 310.363  32
  -6  -3  -8 3930.51 258.021  26
  -6  -3  -9 58.2916 138.217  62
   6   3   9 0.00000 186.600  58
  -6  -3  -9 92.3481 175.312  56
   6   3  10 1181.74 203.608  58
  -6  -3 -10 1518.11 209.406  56
   6   3  11 1556.79 181.957  58
  -6  -3 -11 1837.96 184.233  56
   6   3  12-57.2321 113.872  58
  -6  -3 -12-10.3412 121.248  56
   6   4 -11 102.890 92.7079  47
  -6  -4  10 230.128 125.987  36
   6   4 -10 221.379 115.989  63
   6   4 -10 346.392 128.869  47
  -6  -4   9 787.761 165.615  36
   6   4  -9 877.084 164.808  63
   6   4  -9 992.882 162.954  60
   6   4  -9 920.748 164.399  47
  -6  -4   8 1878.70 209.200  36
   6   4  -8 2302.10 211.662  60
   6   4  -8 2323.58 211.822  47
  -6  -4   7 2605.67 235.222  36
  -6  -4   7 2593.45 213.437  51
   6   4  -7 2572.34 228.433  47
  -6  -4   6 81.3766 150.709  36
  -6  -4   6-101.670 155.741  51
   6   4  -6-4.70873 206.449  37
  -6  -4   5 430.233 170.280  36
  -6  -4   5 318.618 160.920  57
   6   4  -5 482.799 179.954  15
   6   4  -5 376.282 214.311  43
   6   4  -5 337.373 287.316  37
  -6  -4   4 427.107 189.024  36
  -6  -4   4 337.414 163.623  57
  -6  -4   4 317.372 139.363  30
   6   4  -4 325.059 183.998  15
   6   4  -4 249.557 245.119  43
   6   4  -4 364.641 311.885  37
   6   4  -3-65.5346 312.266  10
  -6  -4   3-3.26670 179.729  17
  -6  -4   3 22.4888 131.115  30
   6   4  -3-39.1570 181.420  15
  -6  -4   2 1498.56 240.231  17
  -6  -4   2 1605.55 188.121  30
  -6  -4   2 1926.90 218.332   5
  -6  -4   1 4841.68 333.015  17
   6   4  -1 6107.93 306.050  23
  -6  -4   0 5580.94 354.690  17
   6   4   0 6168.68 308.500  23
  -6  -4  -1 3643.61 304.602  17
  -6  -4  -1 4352.24 208.002  28
   6   4   1 3895.54 285.401  23
   6   4   2 535.768 199.228  23
  -6  -4  -2 424.918 124.470  28
   6   4   3 778.012 218.657  23
   6   4   3 1092.10 178.671  34
   6   4   3 1280.10 336.644  10
  -6  -4  -3 973.511 140.960  28
   6   4   4 991.736 226.870  23
   6   4   4 1222.83 177.129  34
   6   4   4 869.809 317.266  10
  -6  -4  -4 744.420 152.864  28
   6   4   5 34.6914 184.419  23
   6   4   5 168.838 226.087  35
  -6  -4  -5-18.7498 180.698  62
   6   4   5 63.0931 192.976  58
  -6  -4  -5 259.135 183.789  56
  -6  -4  -5 92.2031 133.129  28
   6   4   6 18586.6 468.033  35
  -6  -4  -6 16459.4 473.897  62
   6   4   6 17846.1 431.785  58
  -6  -4  -6 18797.4 468.618  56
  -6  -4  -6 18200.2 473.381  28
  -6  -4  -6 16694.2 609.653  14
   6   4   6 18677.5 482.394  23
   6   4   7-24.8878 199.944  35
  -6  -4  -7 150.731 172.450  62
   6   4   7-12.0976 176.710  58
  -6  -4  -7-58.5185 193.508  56
   6   4   8 209.863 174.395  35
  -6  -4  -8 151.319 173.013  62
   6   4   8 37.1355 187.566  58
  -6  -4  -8 162.864 196.929  56
  -6  -4  -9 1039.61 196.636  62
   6   4   9 1263.66 209.126  58
  -6  -4  -9 1316.02 211.473  56
  -6  -4 -10 970.454 161.907  62
   6   4  10 1206.37 195.516  58
  -6  -4 -10 1313.49 198.270  56
   6   4  11 212.591 146.532  58
  -6  -4 -11 381.546 144.853  56
   6   4  12 56.1689 96.1173  58
  -6  -4 -12 42.9745 109.576  56
  -6  -5  10 183.563 109.305  36
   6   5 -10 212.568 106.244  63
   6   5 -10 319.825 108.899  47
  -6  -5   9 39.0127 124.191  36
   6   5  -9 73.1270 127.690  63
   6   5  -9 13.0475 124.073  47
  -6  -5   8 3430.34 237.517  36
   6   5  -8 3342.99 210.147  47
   6   5  -8 3426.95 222.762  63
  -6  -5   7 29.0931 156.436  36
   6   5  -7 45.5366 161.950  47
  -6  -5   6 1196.42 201.233  36
  -6  -5   6 1003.82 175.325  51
   6   5  -6 840.890 199.790  47
   6   5  -6 1107.76 196.017  43
  -6  -5   5 226.581 170.709  36
  -6  -5   5 145.455 142.901  57
  -6  -5   5 67.7309 122.509  30
   6   5  -5 141.509 179.910  47
   6   5  -5-49.7284 192.484  43
   6   5  -5 118.187 207.130  37
  -6  -5   4 205.032 177.727  36
  -6  -5   4 253.949 148.717  57
  -6  -5   4 148.410 139.037  30
   6   5  -4 113.554 168.481  15
   6   5  -4 45.5892 224.751  43
   6   5  -4 157.430 211.490  37
  -6  -5   3 27.3650 173.438  36
  -6  -5   3 44.7564 150.620  57
  -6  -5   3 77.7134 171.465  54
   6   5  -3-67.3444 231.228  10
  -6  -5   3 39.9971 184.271  17
  -6  -5   3-60.4966 147.946  30
   6   5  -3-140.004 235.861  43
   6   5  -3 35.0352 249.286  37
  -6  -5   2 81.4850 179.856  36
  -6  -5   2 48.9637 158.209  57
  -6  -5   2 224.787 157.124  54
   6   5  -2-18.5122 264.822  10
  -6  -5   2 359.565 179.517  17
  -6  -5   2 64.0984 142.096  30
   6   5  -2 254.613 244.043  43
  -6  -5   1 518.369 189.244  54
   6   5  -1 264.996 282.546  10
  -6  -5   1 535.543 202.628  17
  -6  -5   1 373.381 154.641  30
   6   5  -1 531.196 283.005  43
   6   5   0 4101.66 418.510  10
  -6  -5   0 3482.01 319.063  17
  -6  -5   0 3746.82 238.580  30
   6   5   0 4762.20 306.084  23
   6   5   1 368.673 193.125  23
   6   5   1 281.148 302.588  10
  -6  -5  -1 483.522 137.188  28
   6   5   2 443.306 197.472  23
   6   5   2 532.320 294.795  10
  -6  -5  -2 480.565 136.452  28
   6   5   3 75.9596 192.079  23
   6   5   3-80.1119 194.160  35
  -6  -5  -3-57.6441 171.629  62
   6   5   3 75.8740 157.457  34
  -6  -5  -3-67.8408 179.363  54
   6   5   3 94.7978 247.892  10
  -6  -5  -3-11.1277 123.934  28
   6   5   4 3052.63 263.103  35
  -6  -5  -4 2799.56 256.607  62
   6   5   4 3250.70 230.260  34
   6   5   4 2940.44 238.811  58
   6   5   4 3180.62 340.108  10
  -6  -5  -4 2570.17 207.671  28
   6   5   4 2543.25 251.046  23
   6   5   5 1084.76 211.122  23
   6   5   5 1111.17 227.526  35
  -6  -5  -5 916.993 225.074  62
   6   5   5 1362.92 177.955  34
   6   5   5 1048.65 189.781  58
  -6  -5  -5 1042.19 174.196  28
   6   5   6 196.841 199.428  35
  -6  -5  -6 94.6383 193.301  62
   6   5   6 52.8689 169.191  58
  -6  -5  -6 207.522 146.802  28
   6   5   7 10326.7 349.215  35
  -6  -5  -7 9427.73 396.616  62
   6   5   7 10249.0 347.213  58
  -6  -5  -7 10955.5 371.195  56
  -6  -5  -7 10796.5 383.516  28
  -6  -5  -8 522.494 193.202  62
   6   5   8 546.273 185.907  58
  -6  -5  -8 406.850 193.228  56
  -6  -5  -9 79.1766 163.955  62
   6   5   9 338.605 169.959  58
  -6  -5  -9 293.287 180.373  56
  -6  -5 -10 222.625 147.692  62
   6   5  10 263.004 157.518  58
  -6  -5 -10 420.612 160.313  56
   6   5  11-3.71464 123.849  58
  -6  -5 -11 5.54534 137.611  56
  -6  -5 -11 28.5201 76.9220  62
  -6  -6   9 323.253 113.022  36
   6   6  -9 318.186 118.371  63
   6   6  -9 273.772 103.929  47
  -6  -6   8 1358.23 163.314  36
   6   6  -8 1561.50 154.808  47
   6   6  -8 1467.07 166.108  63
  -6  -6   7 1348.56 188.046  36
   6   6  -7 1406.04 181.501  63
   6   6  -7 1685.03 170.256  47
  -6  -6   6 702.257 176.415  36
   6   6  -6 725.227 162.281  47
   6   6  -6 665.340 171.248  43
  -6  -6   5-71.1890 170.993  36
  -6  -6   5 63.3307 148.574  57
   6   6  -5 122.746 162.760  43
  -6  -6   4 1398.36 206.713  36
  -6  -6   4 1176.53 190.818  57
  -6  -6   4 1044.98 184.961  30
   6   6  -4 1153.26 213.154  43
  -6  -6   3 89.8030 176.917  36
  -6  -6   3 19.0037 147.725  57
  -6  -6   3 52.7355 159.983  17
  -6  -6   3-58.7827 151.250  30
   6   6  -3-4.03973 210.955  43
  -6  -6   2 1393.68 209.836  36
  -6  -6   2 1177.83 188.949  57
  -6  -6   2 1301.42 199.358  54
   6   6  -2 1165.46 245.890  10
  -6  -6   2 1057.67 224.839  17
  -6  -6   2 1358.96 200.068  30
   6   6  -2 1330.97 244.630  43
   6   6  -1 5648.96 272.383  35
  -6  -6   1 6245.96 332.540  54
   6   6  -1 5406.55 391.686  10
  -6  -6   1 4833.41 370.588  17
  -6  -6   1 5242.97 296.972  30
   6   6  -1 6083.70 348.154  43
   6   6   0 494.778 185.880  35
  -6  -6   0 316.644 171.896  54
   6   6   0 430.848 221.187  10
  -6  -6   0 218.063 182.742  17
  -6  -6   0 282.575 150.686  30
  -6  -6   0 464.311 135.301  28
   6   6   0 559.250 247.439  43
   6   6   1 1409.94 197.896  35
   6   6   1 1537.28 209.281  34
  -6  -6  -1 1217.31 208.533  62
  -6  -6  -1 1264.69 208.710  54
   6   6   1 1321.05 284.266  10
  -6  -6  -1 1403.45 173.013  28
   6   6   1 1513.02 272.016  43
   6   6   2-15.5967 186.256  35
   6   6   2 67.5075 162.886  23
  -6  -6  -2-2.50766 173.737  62
   6   6   2 60.2087 162.677  34
  -6  -6  -2-72.1716 173.946  54
   6   6   2 36.9005 221.652  10
  -6  -6  -2 16.0101 132.096  28
   6   6   2-4.24712 245.716  43
   6   6   3 482.413 196.896  35
   6   6   3 361.984 185.098  23
  -6  -6  -3 357.113 186.948  62
   6   6   3 459.328 169.786  34
  -6  -6  -3 344.301 187.972  54
   6   6   3 498.781 208.669  10
  -6  -6  -3 422.543 142.924  28
   6   6   4-12.7831 174.305  35
  -6  -6  -4-54.5033 180.006  62
   6   6   4 228.647 157.310  34
   6   6   4-67.6828 171.846  58
   6   6   4-14.7844 192.994  10
  -6  -6  -4 111.109 128.591  28
   6   6   5-30.5173 173.495  35
  -6  -6  -5 43.1614 175.618  62
   6   6   5 140.964 144.212  34
   6   6   5-81.5125 177.037  58
  -6  -6  -5-58.8332 139.454  28
   6   6   6 1389.61 206.394  35
  -6  -6  -6 1088.83 219.967  62
   6   6   6 1222.85 203.611  58
  -6  -6  -6 1335.15 190.330  28
   6   6   7 781.593 178.609  35
  -6  -6  -7 502.354 202.315  62
   6   6   7 778.189 191.623  58
  -6  -6  -8-107.145 185.377  62
   6   6   8-23.3144 170.880  58
  -6  -6  -9 177.014 157.614  62
   6   6   9 357.572 163.981  58
  -6  -6  -9 219.805 161.989  56
   6   6   9 322.383 138.408  41
  -6  -6 -10 1309.42 171.801  62
  -6  -6 -10 1866.52 175.152  56
  -6  -7   8 159.014 116.317  36
   6   7  -8 144.363 111.231  63
  -6  -7   7-11.1877 132.316  36
   6   7  -7-21.6769 129.629  63
   6   7  -7-26.1749 126.057  43
  -6  -7   6 71.8364 151.143  36
   6   7  -6 182.102 135.909  63
   6   7  -6 5.52035 148.052  43
  -6  -7   5 546.772 175.702  36
   6   7  -5 324.620 152.483  63
  -6  -7   5 419.692 157.234  57
   6   7  -5 552.780 173.170  43
  -6  -7   4 5985.19 322.015  36
   6   7  -4 6659.27 272.345  63
  -6  -7   4 5869.49 300.692  57
   6   7  -4 6295.28 298.316  43
  -6  -7   3 7394.85 351.507  36
  -6  -7   3 7443.20 334.087  57
   6   7  -3 7721.92 327.888  43
  -6  -7   2 6859.90 349.503  36
   6   7  -2 6817.17 283.352  35
   6   7  -2 7257.53 310.400  34
  -6  -7   2 6946.59 330.455  57
  -6  -7   2 6448.83 334.093  54
  -6  -7   2 6536.12 335.637  30
   6   7  -2 6701.58 326.508  43
   6   7  -1 1318.33 190.491  35
   6   7  -1 1274.84 198.274  34
  -6  -7   1 1306.61 202.921  57
  -6  -7   1 1196.66 208.537  54
  -6  -7   1 1346.38 198.792  30
  -6  -7   1 1053.33 176.560  28
   6   7  -1 1311.65 221.256  43
   6   7   0 1553.66 196.359  35
   6   7   0 1810.24 214.718  34
  -6  -7   0 1433.37 216.368  54
  -6  -7   0 1212.43 194.761  30
  -6  -7   0 1373.41 186.038  28
   6   7   0 1794.43 243.257  43
   6   7   1 3653.80 246.511  35
   6   7   1 3717.26 251.837  34
  -6  -7  -1 3191.84 282.414  54
  -6  -7  -1 3519.04 244.530  28
   6   7   1 4094.24 279.239  43
   6   7   2 406.606 172.376  35
  -6  -7  -2 409.918 174.631  62
   6   7   2 495.631 173.646  34
  -6  -7  -2 486.181 196.646  54
  -6  -7  -2 410.503 143.178  28
   6   7   2 529.387 208.063  43
   6   7   3 773.294 199.541  35
  -6  -7  -3 448.178 192.531  62
   6   7   3 660.382 173.897  34
  -6  -7  -3 542.554 207.528  54
  -6  -7  -3 487.530 154.294  28
   6   7   4 5691.67 286.002  35
   6   7   4 6184.17 280.205  34
  -6  -7  -4 6064.73 331.842  62
  -6  -7  -4 5798.73 301.363  28
   6   7   5 3623.11 241.576  35
  -6  -7  -5 3275.47 288.728  62
   6   7   6 147.803 165.032  35
  -6  -7  -6 214.915 187.664  62
   6   7   7 152.649 155.106  35
  -6  -7  -7 201.050 187.475  62
  -6  -7  -7 170.131 164.757  54
  -6  -7  -8 1730.54 226.217  62
   6   7   8 2041.95 177.659  41
  -6  -7  -9 1227.97 179.707  62
   6   7   9 1727.84 148.726  41
  -6  -7 -10-30.4383 123.621  62
  -6  -8   7 484.311 119.242  36
   6   8  -7 443.635 99.4706  43
  -6  -8   6-32.9485 132.386  36
   6   8  -6 77.3669 110.498  63
   6   8  -6 17.9410 119.316  43
  -6  -8   5 52.1876 154.431  36
   6   8  -5-65.7238 120.525  63
   6   8  -5 58.2109 139.729  43
  -6  -8   4 2253.69 240.673  36
  -6  -8   4 2333.16 212.430  57
   6   8  -4 2100.80 199.124  43
  -6  -8   3 1388.71 210.407  36
  -6  -8   3 1393.12 199.398  57
   6   8  -3 1262.94 186.899  43
  -6  -8   2 700.776 195.474  36
  -6  -8   2 672.297 182.048  57
  -6  -8   2 528.635 179.933  54
   6   8  -2 740.638 180.522  43
  -6  -8   1 786.434 208.415  36
   6   8  -1 839.941 188.173  35
  -6  -8   1 904.574 184.657  57
  -6  -8   1 956.371 199.018  54
   6   8  -1 979.056 185.120  43
   6   8   0 1839.40 204.279  35
  -6  -8   0 2054.21 230.154  57
  -6  -8   0 1796.90 241.466  54
   6   8   0 1909.42 202.769  43
   6   8   1 262.267 162.879  35
  -6  -8  -1 168.655 203.486  54
   6   8   1 372.753 166.869  43
   6   8   2 28.3638 171.285  35
  -6  -8  -2-32.2038 194.909  54
   6   8   3 183.900 159.409  35
  -6  -8  -3 142.424 198.110  54
   6   8   4 1334.52 185.869  35
  -6  -8  -4 1410.42 215.616  62
  -6  -8  -4 1278.87 231.479  54
   6   8   5 1363.04 183.818  35
  -6  -8  -5 1219.39 220.986  62
  -6  -8  -5 1372.18 229.942  54
   6   8   6 597.616 149.578  35
  -6  -8  -6 388.275 185.686  62
  -6  -8  -6 577.453 191.322  54
   6   8   7 399.233 126.524  35
  -6  -8  -7 277.045 163.849  62
  -6  -8  -7 127.013 150.886  54
   6   8   7 214.319 144.452  41
  -6  -8  -8 175.408 153.325  62
  -6  -8  -8-58.0842 94.1212  54
   6   8   8 330.604 129.186  41
  -6  -8  -9-1.23041 122.581  62
   6   8   9 51.9454 103.982  41
  -6  -9   6 169.086 104.498  36
  -6  -9   5 24.2888 130.769  36
   6   9  -5 104.537 118.921  43
  -6  -9   4 490.461 160.759  36
   6   9  -4 331.374 139.779  43
  -6  -9   3 3201.48 243.648  36
  -6  -9   3 3540.28 232.329  57
   6   9  -3 3211.63 210.725  43
  -6  -9   2 7216.57 331.875  36
  -6  -9   2 7265.90 312.249  57
   6   9  -2 7159.73 271.717  43
  -6  -9   1 24.3262 179.823  36
  -6  -9   1 78.8069 153.204  57
  -6  -9   1 63.4025 164.399  54
   6   9  -1 112.522 144.074  43
  -6  -9   0 2379.55 246.914  36
  -6  -9   0 2534.67 235.282  57
  -6  -9   0 2609.23 250.304  54
   6   9   0 2227.18 193.746  43
   6   9   1 1108.93 181.946  35
  -6  -9  -1 1460.65 216.372  57
  -6  -9  -1 1390.85 229.508  54
   6   9   1 1598.23 174.344  43
   6   9   2 218.869 167.455  35
  -6  -9  -2 300.170 189.141  54
   6   9   2 179.028 138.815  41
   6   9   3 107.782 161.427  35
  -6  -9  -3 71.7168 189.134  54
   6   9   3 128.660 145.696  41
   6   9   4 1672.83 182.019  35
  -6  -9  -4 1937.42 252.465  54
   6   9   4 1888.01 174.288  41
   6   9   5 779.627 147.385  35
  -6  -9  -5 531.524 169.339  62
  -6  -9  -5 771.286 197.810  54
   6   9   5 610.011 155.871  41
  -6  -9  -6 252.547 147.483  62
  -6  -9  -6 165.427 164.458  54
   6   9   6 167.238 140.721  41
  -6  -9  -7-1.36725 133.369  62
  -6  -9  -7 74.1349 136.649  54
   6   9   7 178.468 131.000  41
  -6  -9  -8 192.722 116.803  62
   6   9   8 220.117 103.523  41
  -6 -10   4 168.410 108.493  36
   6  10  -4 170.379 92.0955  43
  -6 -10   3 679.782 151.433  36
   6  10  -3 702.822 122.293  43
  -6 -10   2 696.533 165.361  36
  -6 -10   2 498.947 134.708  57
   6  10  -2 606.440 118.304  53
   6  10  -2 677.280 133.747  43
  -6 -10   1 2518.36 220.175  36
  -6 -10   1 2323.12 189.806  57
   6  10  -1 2243.22 155.463  53
   6  10  -1 2471.33 161.496  43
  -6 -10   0 3286.28 245.956  36
  -6 -10   0 3019.16 206.040  57
  -6 -10   0 3076.66 219.813  54
   6  10   0 2414.79 171.761  53
   6  10   0 3220.04 172.616  43
  -6 -10  -1-54.2229 173.404  36
  -6 -10  -1 4.13338 142.087  57
  -6 -10  -1-46.7801 160.191  54
   6  10   1 109.475 125.926  53
  -6 -10  -2 173.690 163.341  36
  -6 -10  -2 89.2665 149.363  57
  -6 -10  -2 263.108 166.064  54
   6  10   2 71.9420 135.412  53
  -6 -10  -3 165.024 150.839  57
  -6 -10  -3 207.617 161.847  54
   6  10   3 256.824 121.372  53
   6  10   3 148.341 116.110  41
  -6 -10  -4 204.930 165.183  54
   6  10   4 162.315 112.606  53
   6  10   4 129.866 117.955  41
  -6 -10  -5 137.882 142.228  54
   6  10   5-18.1646 70.9512  53
   6  10   5 216.983 113.934  41
  -6 -10  -6 24.1617 119.861  54
   6  10   6 71.1223 98.4783  41
  -7   9   1 47.9972 78.6087  40
  -7   9   0 31.1359 77.3038  40
  -7   9  -1-33.0029 74.8576  40
  -7   9  -2 154.279 76.1206  40
  -7   8   6 428.783 115.209  61
  -7   8   5-10.4575 113.475  61
  -7   8   4 87.0254 122.023  61
  -7   8   3 82.2590 135.598  61
  -7   8   2 23.5919 150.601  61
  -7   8   2 118.840 93.6834  40
  -7   8   1 115.780 143.694  61
  -7   8   1 166.920 98.7009  40
  -7   8   0 997.246 124.778  40
  -7   8  -1-20.2914 94.2712  40
  -7   8  -2-12.0225 93.6312  40
  -7   8  -3-30.9073 91.1966  40
  -7   8  -4 437.135 96.6569  40
  -7   8  -5 26.3830 74.5177  40
  -7   7   7 99.3069 113.669  61
  -7   7   7 62.3806 109.842  42
  -7   7   6 13.4510 129.636  61
  -7   7   6-9.61182 125.790  42
  -7   7   5-50.2941 141.202  61
  -7   7   5-27.3146 144.833  42
  -7   7   4 90.8026 157.096  61
  -7   7   3-37.9620 157.177  61
  -7   7   2-25.5480 168.779  61
  -7   7   1 27.7634 165.245  61
  -7   7   1 77.9203 103.426  40
  -7   7   0 5157.67 250.354  61
  -7   7   0 5193.38 219.606  40
  -7   7   0 5448.67 234.933  39
  -7   7  -1 600.069 167.077  61
  -7   7  -1 549.755 126.810  40
  -7   7  -1 547.133 137.919  39
  -7   7  -2 213.010 114.475  40
  -7   7  -2 136.145 121.758  39
  -7   7  -3 113.168 110.458  40
  -7   7  -4 36.9562 103.861  40
  -7   7  -5 12.0275 102.139  40
   7  -7   6 186.430 148.211  58
  -7   7  -6 202.299 97.1310  40
  -7   6   8 102.094 116.850  61
  -7   6   8-24.4138 110.564  42
  -7   6   7 46.5666 132.560  61
  -7   6   7-31.4655 130.275  42
  -7   6   6 230.943 149.862  61
  -7   6   6 141.318 143.452  42
  -7   6   5 124.774 154.501  61
  -7   6   5 8.03437 149.531  42
  -7   6   4 14.2536 165.379  61
  -7   6   4 6.18744 150.198  42
  -7   6   3-96.1402 178.580  61
  -7   6   3 29.7047 149.525  42
  -7   6   3 60.1516 138.473  39
  -7   6   2 249.294 171.979  61
  -7   6   2 33.3594 142.852  39
  -7   6   1 102.281 173.502  61
  -7   6   1 63.5771 114.114  40
  -7   6   1 72.9105 139.076  39
  -7   6   0 213.639 172.436  61
  -7   6   0 258.853 122.383  40
  -7   6   0 180.090 135.460  39
  -7   6  -1 831.147 182.284  61
  -7   6  -1 856.917 139.756  40
  -7   6  -1 688.675 149.746  39
  -7   6  -2 1348.10 183.271  61
  -7   6  -2 965.624 151.473  40
  -7   6  -2 1164.65 158.453  39
  -7   6  -3 51.6765 122.885  40
  -7   6  -3-37.3113 133.499  39
  -7   6  -4-8.82550 120.203  40
  -7   6  -5-20.1085 120.217  40
  -7   6  -6 33.6769 110.904  40
   7  -6   7-74.6263 140.637  58
  -7   6  -7-11.6834 103.522  40
   7  -6   8 105.531 117.231  58
  -7   6  -8 180.391 74.8720  40
  -7   5   9-11.0712 115.793  61
  -7   5   8 391.367 138.113  61
  -7   5   7 170.143 146.589  61
  -7   5   7 143.612 133.336  42
  -7   5   6-30.3545 158.554  61
  -7   5   6 36.8386 146.359  42
  -7   5   5 240.790 170.311  61
  -7   5   5 123.728 148.977  42
   7  -5  -4 138.687 201.191  23
  -7   5   4 48.1307 176.162  61
  -7   5   4 60.8602 163.171  42
  -7   5   4 155.657 138.117  39
   7  -5  -3 221.014 171.986  23
  -7   5   3 132.087 185.437  61
  -7   5   3 325.681 163.995  42
  -7   5   3 316.960 151.130  39
   7  -5  -2 16.1790 166.201  23
  -7   5   2 199.696 171.591  61
  -7   5   2 152.596 138.013  39
  -7   5   1 402.576 184.045  61
  -7   5   1 379.375 150.887  39
  -7   5   0 3396.10 237.236  61
   7  -5   0 4110.28 280.115  32
  -7   5   0 3567.29 213.970  40
  -7   5   0 3384.21 230.801  39
  -7   5  -1-28.3459 173.528  61
   7  -5   1-47.0647 194.551  32
  -7   5  -1-38.9227 129.121  40
  -7   5  -1-61.3595 146.098  39
   7  -5   2 228.760 184.402  32
  -7   5  -2 76.2174 121.105  40
  -7   5  -2 131.040 133.813  39
   7  -5   3-78.2841 211.587  31
  -7   5  -3 28.3212 122.647  40
  -7   5  -3-31.2756 135.821  39
  -7   5  -4 53.9216 123.903  40
  -7   5  -4 147.900 132.649  39
  -7   5  -5 9.63986 130.431  40
  -7   5  -6 146.541 130.212  40
   7  -5   7-99.3040 163.678  58
  -7   5  -7 11.1791 119.075  40
   7  -5   8 3.54688 141.498  58
  -7   5  -8 63.9820 98.0161  40
   7  -5   9 116.362 115.011  58
  -7   4  10 92.6190 103.798  61
   7  -4 -10 177.239 155.226  60
  -7   4  10 130.049 93.6393  49
  -7   4   9 419.853 138.171  61
  -7   4   9 376.524 120.523  49
  -7   4   8 58.0288 114.308  49
  -7   4   6 5.16752 136.823  51
   7  -4  -5 479.848 206.656  23
  -7   4   5 599.614 154.180  51
   7  -4  -5 628.340 180.062  29
   7  -4  -4 660.688 203.195  23
  -7   4   4 882.991 162.746  51
   7  -4  -4 886.333 176.891  29
  -7   4   4 757.038 162.498  39
   7  -4  -3-26.7061 153.594  23
  -7   4   3-41.6827 144.530  62
   7  -4  -3 78.6941 146.465  29
   7  -4  -3-158.099 196.395   9
  -7   4   3-64.4002 171.563  42
  -7   4   3 0.80842 130.630  39
  -7   4   3-127.725 185.062  14
   7  -4  -2 166.073 169.144  23
  -7   4   2 145.288 180.807  61
  -7   4   2 135.659 167.232  42
  -7   4   2 158.405 145.601  39
  -7   4   2 86.6700 146.354  62
  -7   4   2-2.76678 167.016  14
   7  -4  -1 1577.49 279.335   6
  -7   4   1 2196.51 219.980  61
  -7   4   1 2138.51 198.973  62
  -7   4   1 1879.11 246.299  14
  -7   4   1 1860.25 194.107  39
   7  -4  -1 1562.22 208.130  23
   7  -4   0 1298.30 293.781   6
  -7   4   0 1756.79 212.389  61
   7  -4   0 1563.56 211.849  32
  -7   4   0 1725.45 186.548  39
  -7   4   0 1542.39 238.110  14
   7  -4   1 212.388 238.641   6
   7  -4   1 125.645 169.307  32
  -7   4  -1 107.056 128.112  40
  -7   4  -1 167.337 151.026  39
  -7   4  -1 120.882 168.752  14
   7  -4   2 28.1812 246.743   6
   7  -4   2-60.3251 264.058  12
   7  -4   2 103.962 188.218  32
  -7   4  -2 105.620 122.696  40
  -7   4  -2 72.7232 140.404  39
  -7   4  -2 111.536 174.283  14
  -7   4  -3-46.9492 155.600  56
   7  -4   3 57.2796 203.881  32
  -7   4  -3-8.04332 121.955  40
  -7   4  -3-2.57239 146.141  39
  -7   4  -4 21.9586 163.074  56
   7  -4   4 56.3460 225.514  32
   7  -4   4 54.1338 206.075  31
  -7   4  -4-6.11055 129.037  40
  -7   4  -4-18.6827 146.027  39
  -7   4  -5-32.2417 137.301  40
  -7   4  -5 66.7063 134.991  39
  -7   4  -6 211.558 149.729  40
   7  -4   7 3.54638 167.533  58
  -7   4  -7 73.3470 133.100  40
   7  -4   8 121.844 160.700  58
  -7   4  -8 76.0754 121.471  40
   7  -4   9 242.943 141.767  58
  -7   4  -9 140.616 100.375  40
   7  -4  10-34.0699 100.210  58
  -7   3  11 63.8285 83.0899  49
   7  -3 -10 85.5944 178.082  60
  -7   3  10 20.0667 105.402  49
  -7   3   9 114.117 128.654  49
  -7   3   8 107.085 137.920  51
  -7   3   8 214.822 141.816  49
  -7   3   7 132.477 145.301  51
   7  -3  -6 212.936 166.094  23
  -7   3   6 286.509 154.313  51
   7  -3  -6 313.099 154.896  29
   7  -3  -6-94.5768 141.142  27
   7  -3  -5 116.739 155.036  23
  -7   3   5 37.5218 146.103  62
  -7   3   5 191.925 156.429  51
   7  -3  -5 137.740 149.950  29
   7  -3  -4 467.398 185.849  23
  -7   3   4 212.825 163.924   5
  -7   3   4 474.949 159.824  62
  -7   3   4 553.423 164.798  51
   7  -3  -4 424.599 151.263  29
   7  -3  -4 553.251 195.586   9
  -7   3   4 504.496 149.426  39
   7  -3  -3 1039.01 192.741  23
  -7   3   3 1664.73 202.417  62
   7  -3  -3 1018.48 176.746  29
   7  -3  -3 1325.25 245.134   9
  -7   3   3 1488.70 178.534  39
   7  -3  -2 885.994 201.345  23
  -7   3   2 865.259 182.959  62
   7  -3  -2 761.098 164.531  29
  -7   3   2 1023.59 177.680  39
  -7   3   2 841.537 201.949  14
   7  -3  -1 250.161 170.079  23
  -7   3   1 389.023 153.373  62
   7  -3  -1 322.235 148.909  29
  -7   3   1 330.020 159.439  39
  -7   3   1 331.947 173.504  14
   7  -3   0 154.950 158.373  23
   7  -3   0-50.6140 238.668   6
  -7   3   0 156.349 153.049  62
  -7   3   0 13.7845 163.135  14
  -7   3   0 39.6098 150.727  39
   7  -3   1 17.6108 163.594  23
   7  -3   1-68.0335 239.389   6
  -7   3  -1 106.324 157.588  56
   7  -3   1 88.5860 168.723  32
  -7   3  -1-6.84087 179.562  14
   7  -3   2 12.2892 253.607   6
  -7   3  -2 61.2127 158.928  56
   7  -3   2 42.1518 196.545  32
  -7   3  -2 7.39852 133.624  40
  -7   3  -2 15.6212 167.641  14
   7  -3   3 19.6004 277.346  12
   7  -3   3 94.4792 257.397   6
  -7   3  -3 10.6355 154.274  56
   7  -3   3 95.5589 193.135  32
  -7   3  -3-134.099 163.834  14
   7  -3   4-84.8076 298.839  12
  -7   3  -4 28.4992 149.654  56
   7  -3   4 17.4215 219.650  32
   7  -3   4 157.778 192.059  31
  -7   3  -4-77.4070 176.569  14
  -7   3  -5-13.9080 161.248  56
   7  -3   5-72.3628 253.982  32
   7  -3   5-97.1602 233.177  31
   7  -3   6 63.8754 193.954  58
  -7   3  -6 115.554 152.306  56
   7  -3   7-22.7984 198.038  58
  -7   3  -7 125.229 149.089  56
   7  -3   8-39.3992 182.840  58
  -7   3  -8-21.0798 138.696  40
   7  -3   9-47.1170 167.886  58
  -7   3  -9-29.8268 118.058  40
   7  -3  10 32.9976 126.225  58
  -7   3 -10 17.1563 88.7187  40
   7  -2 -11 36.8332 126.525  60
  -7   2  11-95.7357 97.2381  49
   7  -2 -10 1.28593 191.977  60
  -7   2  10 79.0760 121.491  49
  -7   2   9 119.782 124.582  51
  -7   2   9 137.346 137.050  49
  -7   2   8 145.737 147.344  51
  -7   2   7 34.8225 156.559  51
   7  -2  -6 241.739 162.732  23
  -7   2   6 214.654 160.300  51
  -7   2   6 127.369 144.731  62
   7  -2  -6 170.871 157.463  29
   7  -2  -5 160.981 169.119  23
  -7   2   5 141.050 145.467  62
  -7   2   5 171.125 151.847  51
   7  -2  -5 123.217 152.345  29
   7  -2  -5 144.468 199.480   9
  -7   2   5 103.876 176.157   5
   7  -2  -4 529.714 184.996  23
  -7   2   4 528.137 177.416   5
  -7   2   4 500.127 163.228  51
   7  -2  -4 611.415 165.615  29
   7  -2  -4 347.013 204.243   9
  -7   2   4 497.743 162.268  62
   7  -2  -3-20.9487 173.962  23
  -7   2   3 23.4663 144.163   5
  -7   2   3 68.6446 162.417  62
  -7   2   3-14.4684 166.682  51
   7  -2  -3 139.632 148.758  29
  -7   2   3 94.3174 143.873  39
   7  -2  -2 163.764 168.902  23
   7  -2  -2 15.2405 140.905  29
  -7   2   2 54.6597 162.782  14
   7  -2  -1 784.655 184.202  23
   7  -2  -1 691.882 159.187  29
  -7   2   1 795.848 179.729  14
   7  -2   0 505.051 166.799  23
   7  -2   0 523.261 240.643   6
  -7   2   0 513.440 183.990  14
   7  -2   1 344.977 174.345  23
   7  -2   1 333.708 239.458   6
   7  -2   1 336.508 188.287  32
  -7   2  -1 185.885 162.189  14
   7  -2   2 155.411 180.973  23
  -7   2  -2 336.243 179.971  56
   7  -2   2 315.795 201.882  32
   7  -2   2 217.939 230.964   6
  -7   2  -2 310.487 171.645  14
   7  -2   3 47.5262 239.676  12
   7  -2   3 36.9786 270.357   6
  -7   2  -3-13.1724 160.921  56
   7  -2   3-62.9529 213.199  32
  -7   2  -3-136.045 166.811  14
   7  -2   4-47.3318 320.166  12
  -7   2  -4 4.74313 165.749  56
   7  -2   4 5.18157 235.742  32
   7  -2   4 41.8806 178.960  31
  -7   2  -4 44.1887 183.096  14
   7  -2   5 40.9389 321.466  12
   7  -2   5-76.3842 188.316  58
  -7   2  -5-56.9477 156.045  56
   7  -2   5-164.906 250.368  32
   7  -2   5 6.60537 218.245  31
  -7   2  -5-62.3199 161.903  14
   7  -2   6 186.772 185.610  58
  -7   2  -6 18.0293 152.903  56
   7  -2   6 103.205 272.669  32
   7  -2   6 197.272 254.616  31
   7  -2   7-120.936 199.457  58
  -7   2  -7 67.4148 159.879  56
   7  -2   8 193.656 176.803  58
  -7   2  -8 87.2820 152.057  56
   7  -2   9-50.6748 158.540  35
   7  -2   9-27.0621 167.299  58
  -7   2  -9 100.245 134.888  56
   7  -2  10 57.6165 141.478  58
  -7   2 -10 9.73791 106.823  40
   7  -2  11 52.1683 101.185  58
   7  -1 -11 92.0068 125.508  60
  -7   1  11 10.1006 101.514  49
   7  -1 -11-16.8490 74.8324  38
   7  -1 -10 17.9746 181.777  60
  -7   1  10 43.0727 126.529  49
  -7   1   9 135.792 137.151  51
   7  -1  -9-18.1448 153.571  47
  -7   1   8-14.6294 150.595  51
   7  -1  -8 11.5619 245.785  37
   7  -1  -7 8.36669 169.235  23
  -7   1   7-51.7892 156.634  51
   7  -1  -7-84.2004 163.262  29
   7  -1  -7 20.1665 266.854  37
   7  -1  -6 79.7175 165.506  23
  -7   1   6-21.0496 140.324  62
  -7   1   6 9.38439 153.349  51
   7  -1  -6-24.3016 148.695  29
   7  -1  -5 52.1602 171.255  23
  -7   1   5 1.42386 152.859  51
   7  -1  -5 83.4429 162.321  29
  -7   1   5-9.91485 152.930  62
  -7   1   5-16.2746 155.667   5
   7  -1  -4-88.2308 179.924  23
  -7   1   4-7.28522 162.420  62
  -7   1   4 6.77802 155.498  51
   7  -1  -4-33.4927 168.890  29
  -7   1   4 9.19429 156.131   5
   7  -1  -3 192.525 187.976  23
  -7   1   3 255.198 157.771   5
  -7   1   3 111.126 155.238  62
   7  -1  -3 216.342 159.241  29
   7  -1  -2 309.202 173.964  23
  -7   1   2 190.531 143.163   5
   7  -1  -2 160.413 149.122  29
  -7   1   2 188.732 167.487  14
   7  -1  -1 314.807 178.644  23
   7  -1  -1 420.634 149.877  29
  -7   1   1 472.296 172.660  14
   7  -1   0-14.9291 174.242  23
   7  -1   0-131.899 210.268   6
  -7   1   0-46.4615 151.139  14
   7  -1   1 16.4811 172.848  23
   7  -1   1 20.6142 217.777   6
   7  -1   1-27.4993 165.171  32
  -7   1  -1 3.47800 163.943  14
   7  -1   2-122.156 167.930  23
   7  -1   2-54.5025 233.795   6
   7  -1   2 159.771 190.615  32
  -7   1  -2-19.1508 169.234  14
   7  -1   3-85.0334 174.035  23
   7  -1   3-28.0830 258.743   6
   7  -1   3-67.6909 226.721  12
  -7   1  -3 22.2867 168.902  56
   7  -1   3-17.9124 194.402  32
  -7   1  -3 188.612 166.723  14
   7  -1   4-87.4200 187.252  23
   7  -1   4-86.4571 274.667  12
  -7   1  -4-22.5306 174.503  56
   7  -1   4 33.5962 222.562  32
   7  -1   4-33.4428 175.959  31
  -7   1  -4-37.9117 179.827  14
   7  -1   5-10.4228 193.496  58
  -7   1  -5-18.9597 169.020  56
   7  -1   5-23.5257 252.263  32
   7  -1   5-68.2635 218.013  31
  -7   1  -5 73.3332 165.100  14
   7  -1   6 117.121 185.067  58
  -7   1  -6 122.362 175.425  56
   7  -1   6 121.054 281.747  32
   7  -1   6 287.915 261.425  31
   7  -1   7 227.248 200.478  58
  -7   1  -7 266.898 165.267  56
   7  -1   7 48.4130 272.311  32
   7  -1   8 47.3905 196.647  58
  -7   1  -8 16.8510 157.170  56
   7  -1   9 65.9398 172.198  35
   7  -1   9 26.3847 184.169  58
  -7   1  -9-6.21430 152.718  56
   7  -1  10 81.8843 155.210  58
  -7   1 -10 91.5188 123.581  56
   7  -1  11-9.57546 122.527  58
  -7   1 -11 94.7094 85.4272  40
   7   0 -11-25.7808 119.695  60
  -7   0  11 76.0108 97.5814  49
   7   0 -10 9.81625 170.244  60
  -7   0  10 69.7694 103.509  51
  -7   0  10 32.8724 126.325  49
   7   0 -10 40.9162 119.217  47
   7   0  -9 0.29214 214.451  60
  -7   0   9-7.35619 135.995  51
   7   0  -9 188.019 154.396  47
   7   0  -9 195.469 161.164  37
  -7   0   8 95.8170 130.824  36
  -7   0   8 122.813 152.795  51
   7   0  -8 87.2276 249.669  37
  -7   0   7 905.933 181.217  36
  -7   0   7 1103.93 189.315  51
   7   0  -7 1220.02 191.959  29
   7   0  -7 917.021 296.651  37
  -7   0   6 1102.37 182.449  36
   7   0  -6 1032.81 194.966  23
  -7   0   6 1268.52 181.610  62
  -7   0   6 1176.08 188.095  51
   7   0  -6 1173.34 181.563  29
   7   0  -5 1436.75 212.777  23
  -7   0   5 1531.18 192.653  51
   7   0  -5 1357.61 199.083  29
  -7   0   5 1601.66 192.832  62
  -7   0   5 1561.07 236.679   5
   7   0  -4 241.832 172.998  23
  -7   0   4 331.139 163.699  62
  -7   0   4 357.555 165.780  51
   7   0  -4 182.117 161.813  29
  -7   0   4 204.597 176.349   5
   7   0  -3 75.4290 177.724  23
  -7   0   3 58.8970 156.575   5
   7   0  -3-22.0073 163.984  29
   7   0  -2 142.868 182.877  23
  -7   0   2 339.401 162.460   5
   7   0  -1 235.916 181.991  23
  -7   0   1 299.333 163.707  14
   7   0  -1 199.439 191.869   6
   7   0   0 36.2502 160.490  23
   7   0   0 88.1498 184.335   6
   7   0   0 29.0889 158.973  32
  -7   0   0 82.2952 151.152  14
   7   0   1 1.57342 161.959  23
   7   0   1 33.3842 216.160   6
   7   0   1-20.3425 160.155  32
  -7   0  -1 55.9862 158.836  14
   7   0   2-40.6918 183.656  23
   7   0   2 111.687 227.847   6
   7   0   2 27.5518 186.375  32
  -7   0  -2 63.7468 166.749  14
   7   0   3 5.23530 190.959  23
   7   0   3 105.148 233.789   6
   7   0   3 84.4625 196.182  32
  -7   0  -3 63.2239 171.088  14
   7   0   4 138.792 201.030  23
  -7   0  -4 20.6749 170.052  56
   7   0   4 38.6300 241.491  32
  -7   0  -4 101.579 176.880  14
  -7   0  -4 159.548 158.399  62
   7   0   5 102.818 193.358  23
   7   0   5 138.893 204.839  58
  -7   0  -5 198.837 164.857  56
   7   0   5 149.017 270.629  32
  -7   0  -5 111.398 195.092  14
  -7   0  -6-80.5719 167.732  56
   7   0   6-25.6777 200.429  58
   7   0   6-22.5561 263.756  32
  -7   0  -6 58.4315 170.087  14
   7   0   7-82.5339 199.406  35
   7   0   7-32.3744 195.905  58
  -7   0  -7-65.3454 174.178  56
   7   0   7 111.591 245.811  32
   7   0   8 134.729 177.284  58
  -7   0  -8 65.0477 166.085  56
   7   0   8 4.37290 191.949  35
   7   0   9 4.94874 188.017  58
   7   0   9-60.1314 167.839  35
  -7   0  -9-20.1222 157.035  56
   7   0  10-27.1017 156.382  58
  -7   0 -10-54.7458 136.023  56
   7   0  11 9.50056 135.157  58
  -7   0 -11-12.8802 106.250  56
   7   1 -11 29.8652 109.452  60
  -7  -1  11-4.87910 92.3272  49
   7   1 -11 92.2610 103.234  48
   7   1 -11 21.2568 92.6694  47
   7   1 -10 55.9641 147.681  60
  -7  -1  10 15.3880 101.545  51
  -7  -1  10-81.9592 124.520  49
   7   1 -10 48.0698 120.332  47
  -7  -1   9 408.150 149.035  36
   7   1  -9 477.375 204.393  60
  -7  -1   9 421.797 144.305  51
   7   1  -9 484.027 159.046  47
   7   1  -9 576.750 185.058  37
  -7  -1   8 493.775 146.848  36
  -7  -1   8 483.294 164.201  51
   7   1  -8 197.638 230.534  37
  -7  -1   7-18.1514 148.490  36
  -7  -1   7 40.0092 160.249  51
   7   1  -7 85.9350 260.843  37
  -7  -1   6 228.714 149.585  36
  -7  -1   6 78.0623 166.522  51
   7   1  -6 232.671 298.059  37
   7   1  -5 833.125 193.372  23
  -7  -1   5 786.374 172.847  62
  -7  -1   5 933.957 183.519  51
  -7  -1   5 862.793 200.239   5
  -7  -1   4 1976.19 211.865  62
  -7  -1   4 2068.38 214.469  51
  -7  -1   4 2022.91 251.441   5
   7   1  -4 2405.86 302.277  43
   7   1  -4 2019.46 224.720  23
  -7  -1   3 803.016 197.172   5
   7   1  -3 931.654 203.006  23
   7   1  -2 794.933 188.358  23
  -7  -1   2 583.182 181.577   5
   7   1  -1 32.8476 174.645  23
   7   1  -1 127.296 152.196  32
  -7  -1   1 72.9956 155.238  14
   7   1   0-12.6144 186.370  23
   7   1   0 79.4970 162.823  32
  -7  -1   0 80.7393 163.843  14
   7   1   1 68.1533 184.366  23
   7   1   1 93.5893 166.262  32
  -7  -1  -1 7.74975 167.872  14
   7   1   2 55.1011 201.809  23
   7   1   2-117.414 252.212   6
   7   1   2-110.662 188.110  32
  -7  -1  -2 104.301 172.266  14
   7   1   3 100.274 203.096  23
   7   1   3 77.5114 217.341  32
  -7  -1  -3 65.4436 177.253  14
   7   1   4 46.2618 188.147  23
   7   1   4 117.869 197.664  35
  -7  -1  -4-28.6898 160.887  62
  -7  -1  -4-49.2342 185.909  56
   7   1   4-8.55964 235.006  32
  -7  -1  -4 37.0881 203.641  14
   7   1   5-143.201 193.004  23
   7   1   5-99.9056 196.664  35
  -7  -1  -5 20.4531 157.329  62
   7   1   5-8.47058 203.593  58
  -7  -1  -5 38.7387 166.355  56
   7   1   5 2.60762 266.284  32
  -7  -1  -5-109.269 184.870  14
   7   1   6 222.695 179.358  23
   7   1   6 246.566 208.249  35
   7   1   6 271.943 188.249  58
  -7  -1  -6 272.734 184.209  56
   7   1   6 380.252 265.804  32
  -7  -1  -6 188.757 189.897  14
   7   1   7 155.792 201.170  35
   7   1   7 141.649 185.296  58
  -7  -1  -7 217.759 179.556  56
   7   1   7 287.865 262.968  32
   7   1   8-46.7244 191.373  35
   7   1   8-8.37736 188.566  58
  -7  -1  -8-4.75697 168.266  56
   7   1   9-84.2518 177.620  35
   7   1   9-43.6710 184.988  58
  -7  -1  -9 96.3158 157.321  56
   7   1  10-28.7185 156.130  58
  -7  -1 -10 97.5856 136.970  56
   7   1  11-62.1886 139.477  58
  -7  -1 -11 139.483 111.652  56
   7   2 -11-19.7448 85.4976  47
   7   2 -10 241.046 112.794  63
   7   2 -10 155.697 129.819  60
  -7  -2  10 219.761 110.397  49
   7   2 -10 149.375 127.010  47
  -7  -2   9 75.7378 127.600  36
   7   2  -9-6.89268 159.420  60
  -7  -2   9 118.655 121.228  51
   7   2  -9-62.6207 152.410  47
  -7  -2   8-33.7072 151.767  36
   7   2  -8-216.227 213.885  60
  -7  -2   8-11.6311 148.390  51
   7   2  -8 66.0344 172.451  47
   7   2  -8 121.381 193.609  37
  -7  -2   7 1437.18 204.715  51
   7   2  -7 1285.17 279.371  37
  -7  -2   7 1712.45 203.009  36
  -7  -2   6 2477.07 230.633  51
   7   2  -6 2681.60 349.100  37
  -7  -2   6 2914.06 231.808  36
  -7  -2   5 979.399 175.895  36
  -7  -2   5 1084.14 187.486  51
  -7  -2   5 993.044 205.327   5
   7   2  -5 1062.61 352.718  37
  -7  -2   4-102.470 184.446   5
   7   2  -4 33.0978 175.387  23
  -7  -2   4 27.2270 156.434  62
  -7  -2   4-13.4939 160.103  57
  -7  -2   4 52.8924 158.500  51
   7   2  -4 27.1473 278.265  43
   7   2  -3-20.8538 181.763  23
  -7  -2   3-10.6559 168.145   5
  -7  -2   3-14.8961 165.524  62
  -7  -2   3 42.2786 151.756  57
   7   2  -3 36.9367 284.319  43
   7   2  -2 821.406 206.436  23
  -7  -2   2 1014.41 209.370   5
   7   2  -1 141.812 170.826  23
  -7  -2   1 149.563 173.152  17
   7   2   0 67.4356 191.159  23
  -7  -2   0-34.8069 161.286  17
  -7  -2   0-93.2574 169.600  14
   7   2   1 28.4683 194.282  23
  -7  -2  -1 29.5891 156.193  17
  -7  -2  -1 33.8704 176.791  14
   7   2   2 102.551 199.427  23
   7   2   2 61.6223 196.504  32
  -7  -2  -2 19.2609 181.766  14
   7   2   3-4.12567 205.973  23
  -7  -2  -3-19.8562 166.091  62
   7   2   3 2.77320 231.941  32
  -7  -2  -3 31.1136 204.184  14
   7   2   4 45.8980 209.025  23
   7   2   4 72.2853 215.917  35
  -7  -2  -4 115.905 153.562  62
  -7  -2  -4-52.8417 169.230  56
   7   2   4 36.6948 249.208  32
  -7  -2  -4-38.4558 208.735  14
   7   2   5 1437.46 231.598  23
  -7  -2  -5 1425.34 204.134  62
   7   2   5 1519.98 235.642  35
   7   2   5 1684.17 220.776  58
  -7  -2  -5 1547.16 215.743  56
   7   2   5 1810.58 314.823  32
  -7  -2  -5 1552.85 260.672  14
   7   2   6 424.139 167.716  23
  -7  -2  -6 409.553 165.707  62
   7   2   6 456.493 193.216  58
  -7  -2  -6 261.466 183.489  56
   7   2   6 444.331 251.032  32
   7   2   6 434.046 219.156  35
   7   2   7 129.685 167.075  23
   7   2   7 149.050 194.610  35
  -7  -2  -7-70.2760 151.562  62
   7   2   7 26.5415 196.433  58
  -7  -2  -7 130.956 175.704  56
   7   2   7 73.0967 249.214  32
  -7  -2  -7 97.8757 141.659  26
   7   2   8 31.1631 191.123  35
   7   2   8 26.2051 186.466  58
  -7  -2  -8 33.4679 187.315  56
   7   2   9-100.466 177.280  35
   7   2   9 153.193 165.100  58
  -7  -2  -9 73.2638 163.692  56
   7   2  10 8.87989 148.341  58
  -7  -2 -10-5.79576 154.800  56
   7   2  11 119.136 135.092  58
  -7  -2 -11 27.1872 123.730  56
   7   3 -10 244.840 103.431  48
   7   3 -10 358.976 114.918  47
   7   3 -10 153.903 103.441  63
  -7  -3  10 186.346 112.158  36
  -7  -3   9 300.797 141.766  36
   7   3  -9 491.008 146.095  60
   7   3  -9 559.215 147.230  47
  -7  -3   8 8.05946 139.343  36
   7   3  -8 101.423 168.162  60
  -7  -3   8 126.613 135.412  51
   7   3  -8 69.0171 155.191  47
  -7  -3   7 52.2767 149.928  36
   7   3  -7-101.552 208.687  60
  -7  -3   7 119.601 157.445  51
   7   3  -7 60.6673 217.373  37
  -7  -3   6 165.427 150.953  36
  -7  -3   6 19.3298 157.810  51
   7   3  -6 203.357 242.900  37
  -7  -3   5-11.3745 161.305  36
  -7  -3   5 39.9548 166.583  51
   7   3  -5 139.637 215.169  43
   7   3  -5-143.698 279.642  37
  -7  -3   4 1190.75 178.512  36
  -7  -3   4 1020.57 223.855   5
  -7  -3   4 1383.45 195.476  57
   7   3  -4 1149.99 267.516  43
   7   3  -4 858.995 349.721  37
  -7  -3   3 37.6697 180.065   5
  -7  -3   3 105.455 155.136  62
  -7  -3   3 24.5723 159.180  57
   7   3  -3-7.28576 282.844  43
   7   3  -3-40.1079 300.666  37
   7   3  -2 97.5564 193.205  23
  -7  -3   2-55.9020 160.072  62
  -7  -3   2-109.585 157.746  57
  -7  -3   2 49.1578 182.645  17
   7   3  -2 163.574 282.644  43
   7   3  -1 406.495 208.219  23
  -7  -3   1 502.060 194.019  17
   7   3  -1 403.495 292.995  43
   7   3   0 295.882 206.677  23
  -7  -3   0 284.192 176.857  17
  -7  -3   0 341.817 191.404  14
   7   3   1 585.585 211.361  23
  -7  -3  -1 577.395 183.440  17
  -7  -3  -1 596.212 188.072  14
   7   3   2 593.165 212.092  23
   7   3   2 646.919 232.767  35
  -7  -3  -2 587.357 181.259  62
  -7  -3  -2 783.718 194.755  17
   7   3   2 536.064 297.631  43
  -7  -3  -2 672.574 226.809  14
   7   3   3 337.810 235.688  35
   7   3   3 389.466 215.216  23
  -7  -3  -3 338.965 173.685  62
  -7  -3  -3 405.744 186.022  56
   7   3   3 368.376 275.453  43
  -7  -3  -3 416.248 228.981  14
   7   3   4 396.110 201.898  23
  -7  -3  -4 187.904 171.498  62
  -7  -3  -4 258.522 185.788  56
  -7  -3  -4 76.6293 204.798  14
   7   3   4 255.698 209.188  35
   7   3   5 40.4803 178.461  23
  -7  -3  -5 58.4193 175.344  62
   7   3   5 67.0657 177.558  58
  -7  -3  -5 116.964 177.208  56
  -7  -3  -5-7.49201 204.323  14
   7   3   5 61.7164 219.709  35
   7   3   6 251.614 170.287  23
   7   3   6 36.5513 209.949  35
  -7  -3  -6 318.974 178.561  62
   7   3   6 65.3217 190.249  58
  -7  -3  -6 41.3284 181.224  56
   7   3   7 47.6218 197.523  35
  -7  -3  -7-78.8993 168.593  62
   7   3   7 69.0607 184.651  58
  -7  -3  -7 242.546 189.963  56
   7   3   8-151.632 186.917  35
  -7  -3  -8-8.87532 152.902  62
   7   3   8-58.3836 183.846  58
  -7  -3  -8-69.8939 190.941  56
   7   3   9-85.9640 178.327  58
  -7  -3  -9 28.5975 169.416  56
   7   3  10-44.0001 148.121  58
  -7  -3 -10 65.4795 155.510  56
   7   3  11 89.5042 121.819  58
  -7  -3 -11-68.6139 124.599  56
  -7  -4  10 48.0378 92.5343  36
   7   4 -10 79.2155 86.8052  63
   7   4 -10 144.501 90.7560  47
  -7  -4   9 140.604 122.649  36
   7   4  -9 216.175 120.835  47
   7   4  -9 164.634 121.104  63
  -7  -4   8 3.34505 141.859  36
  -7  -4   8 49.3832 113.881  51
   7   4  -8 7.75748 144.191  47
  -7  -4   7-3.06037 147.152  36
  -7  -4   7-9.05138 137.297  51
   7   4  -7 43.1428 164.756  47
  -7  -4   6 89.1435 146.389  36
  -7  -4   6 93.0716 149.265  51
   7   4  -6 95.8261 205.812  37
  -7  -4   5-42.9594 149.934  36
  -7  -4   5 51.5261 147.130  57
  -7  -4   5 84.8122 156.616  51
   7   4  -5 66.4674 190.516  43
   7   4  -5 119.414 239.562  37
  -7  -4   4 66.6905 153.522  36
  -7  -4   4 83.5898 143.201  57
   7   4  -4 37.2697 210.145  43
   7   4  -4-194.525 279.210  37
  -7  -4   3 2.40402 157.054  36
  -7  -4   3 45.6647 155.370  57
   7   4  -3-32.2316 282.728  10
   7   4  -3 72.8186 236.571  43
   7   4  -3-2.40003 298.130  37
  -7  -4   2 435.972 165.812  57
   7   4  -2 358.042 330.954  10
  -7  -4   2 452.247 192.300  17
   7   4  -2 540.389 288.311  43
   7   4  -2 434.629 325.143  37
   7   4  -1 69.7682 193.011  23
  -7  -4   1 25.8766 151.019  62
  -7  -4   1 159.072 153.660  57
  -7  -4   1-56.6653 167.338  54
  -7  -4   1 1.83287 180.150  17
   7   4  -1-0.18818 287.277  43
   7   4   0 14.7509 202.603  23
   7   4   0-71.5031 175.687  35
  -7  -4   0 149.429 161.116  62
  -7  -4   0-86.1204 148.215  57
  -7  -4   0 87.8584 152.798  54
  -7  -4   0 173.036 171.732  17
   7   4   0 57.6213 291.340  43
   7   4   1 85.9662 194.378  23
   7   4   1 7.71062 196.715  35
  -7  -4  -1 124.709 153.021  62
  -7  -4  -1-9.92343 176.895  54
  -7  -4  -1 104.825 176.994  17
   7   4   1-100.271 282.434  43
  -7  -4  -1 73.2993 218.164  14
   7   4   2 546.522 225.588  23
   7   4   2 537.766 234.169  35
  -7  -4  -2 855.604 178.591  62
  -7  -4  -2 698.043 193.772  54
  -7  -4  -2 351.224 187.858  17
   7   4   2 820.687 309.424  43
  -7  -4  -2 434.599 238.597  14
   7   4   3 1337.62 227.738  23
   7   4   3 1009.46 237.914  35
  -7  -4  -3 1013.61 191.979  62
   7   4   3 1060.29 185.912  34
  -7  -4  -3 1031.60 203.231  54
   7   4   3 977.726 349.294  10
  -7  -4  -3 909.877 221.548  17
   7   4   3 1093.02 324.990  43
  -7  -4  -3 1110.93 257.587  14
   7   4   4 1800.43 241.016  35
   7   4   4 1769.11 248.680  23
  -7  -4  -4 1461.79 207.244  62
   7   4   4 1734.26 351.469  10
  -7  -4  -4 1905.86 303.421  14
   7   4   5 2420.62 269.865  35
  -7  -4  -5 2456.26 244.220  62
   7   4   5 2462.12 229.356  58
  -7  -4  -5 2632.62 234.162  56
  -7  -4  -5 1919.49 210.764  28
   7   4   5 2242.00 246.616  23
   7   4   6 15.9897 170.922  23
   7   4   6 57.3613 206.578  35
  -7  -4  -6 46.9646 171.947  62
   7   4   6 128.242 182.215  58
  -7  -4  -6 157.836 187.896  56
   7   4   7-10.3703 189.566  35
  -7  -4  -7-38.1080 167.150  62
   7   4   7 76.6953 177.141  58
  -7  -4  -7-42.4205 183.664  56
   7   4   8 94.7125 168.299  35
  -7  -4  -8 179.292 150.207  62
   7   4   8 100.294 174.430  58
  -7  -4  -8 182.066 168.698  56
  -7  -4  -9-25.3997 136.016  62
   7   4   9 44.5821 156.159  58
  -7  -4  -9-49.1576 171.530  56
   7   4  10-39.3624 145.127  58
  -7  -4 -10 125.777 140.394  56
   7   4  11-8.88027 105.429  58
  -7  -4 -11 35.6952 113.450  56
   7   5  -9 1621.56 139.646  63
   7   5  -9 1872.38 132.537  47
  -7  -5   9 1755.98 145.048  36
  -7  -5   8 31.5940 123.238  36
   7   5  -8-27.6624 126.701  63
   7   5  -8 26.6723 126.413  47
  -7  -5   7 5.28791 141.600  36
  -7  -5   7 62.7375 117.229  51
   7   5  -7-30.8287 145.223  47
  -7  -5   6 99.2716 158.615  36
  -7  -5   6 186.527 140.553  51
   7   5  -6 302.124 163.525  47
   7   5  -6 69.2014 155.157  43
  -7  -5   5 542.232 180.319  36
  -7  -5   5 399.664 164.582  57
  -7  -5   5 552.799 153.481  51
   7   5  -5 665.681 172.654  47
   7   5  -5 543.334 197.549  43
   7   5  -5 415.509 207.746  37
  -7  -5   4 67.2951 165.792  36
  -7  -5   4 19.4842 151.273  57
   7   5  -4 32.9602 196.317  43
   7   5  -4-14.6325 204.330  37
  -7  -5   3-87.5194 172.019  36
  -7  -5   3 98.9078 153.464  57
   7   5  -3-35.8486 228.872  43
   7   5  -3 157.173 231.283  37
  -7  -5   2 344.509 169.120  36
  -7  -5   2 293.051 157.980  57
  -7  -5   2 465.914 194.621  17
   7   5  -2 358.294 246.507  43
   7   5  -1 1070.76 182.095  35
  -7  -5   1 1154.01 185.351  57
  -7  -5   1 946.215 193.633  54
   7   5  -1 920.183 321.772  10
  -7  -5   1 725.893 214.773  17
   7   5  -1 1039.35 279.339  43
   7   5   0 242.420 204.428  23
   7   5   0 238.486 175.095  35
  -7  -5   0 274.052 154.147  62
  -7  -5   0 166.809 144.699  57
  -7  -5   0 241.769 172.965  54
   7   5   0 288.384 280.898  10
  -7  -5   0 251.327 183.981  17
   7   5   0 217.442 262.401  43
   7   5   1 208.806 201.503  23
   7   5   1 185.199 192.062  35
  -7  -5  -1 409.839 174.129  62
  -7  -5  -1 354.405 166.569  54
   7   5   1 247.031 300.964  10
  -7  -5  -1 253.728 168.912  17
   7   5   1 157.298 257.808  43
  -7  -5  -1 284.471 227.531  14
   7   5   2 61.8751 177.151  23
   7   5   2 38.0431 191.325  35
   7   5   2-59.4264 161.504  34
  -7  -5  -2 19.8353 162.275  62
  -7  -5  -2 53.3458 174.051  54
   7   5   2 71.5954 290.451  10
  -7  -5  -2-82.9625 183.751  17
   7   5   2-56.1946 273.137  43
  -7  -5  -2 10.5625 202.282  14
   7   5   3 133.665 188.209  23
   7   5   3 151.951 173.554  35
  -7  -5  -3-23.4340 168.289  62
   7   5   3-91.5000 159.826  34
  -7  -5  -3 270.353 171.556  54
  -7  -5  -3 90.0359 179.830  17
   7   5   3 72.2428 257.745  43
  -7  -5  -3 169.255 251.624  14
   7   5   4-29.3757 183.949  23
   7   5   4 98.6159 182.786  35
  -7  -5  -4-63.8640 177.848  62
  -7  -5  -4 14.1456 166.544  54
  -7  -5  -4-39.0397 128.446  28
   7   5   5-50.4076 201.030  35
   7   5   5 110.997 166.708  23
  -7  -5  -5 6.41853 173.197  62
   7   5   5 30.2238 173.824  58
  -7  -5  -5 1.20522 134.778  28
   7   5   6-6.64870 192.511  35
  -7  -5  -6 73.5334 187.513  62
   7   5   6-100.663 182.256  58
   7   5   7 69.1587 162.895  35
  -7  -5  -7 16.1157 175.575  62
   7   5   7-49.8733 179.064  58
  -7  -5  -7 87.8737 174.009  56
   7   5   8 62.5051 142.742  35
  -7  -5  -8 20.2839 153.685  62
   7   5   8 89.0156 167.202  58
  -7  -5  -8 94.9562 150.636  56
  -7  -5  -9-21.9411 131.436  62
   7   5   9 24.1720 150.487  58
  -7  -5  -9-2.19018 155.601  56
  -7  -5 -10-7.79275 110.725  62
   7   5  10 17.7732 127.402  58
  -7  -5 -10-28.0624 133.710  56
  -7  -6   8-3.82210 108.657  36
   7   6  -8-26.8178 110.416  63
   7   6  -8 35.1530 82.8540  47
  -7  -6   7 292.197 134.517  36
   7   6  -7 478.527 135.325  63
   7   6  -7 407.124 115.526  47
  -7  -6   6 364.773 153.060  36
   7   6  -6 500.928 151.003  63
  -7  -6   6 397.545 137.167  51
   7   6  -6 539.453 146.242  43
  -7  -6   5 692.217 166.852  36
  -7  -6   5 508.567 156.182  51
   7   6  -5 593.272 163.267  43
  -7  -6   4 320.089 172.405  36
  -7  -6   4 270.198 154.272  57
   7   6  -4 293.572 188.223  43
  -7  -6   3 261.389 173.444  36
  -7  -6   3 74.1117 154.865  57
   7   6  -3 162.299 197.992  43
  -7  -6   2 515.894 178.656  36
  -7  -6   2 455.307 166.643  57
   7   6  -2 432.904 231.016  43
  -7  -6   1 176.918 165.229  36
   7   6  -1 126.598 151.803  35
  -7  -6   1 183.422 155.906  57
  -7  -6   1 125.072 168.586  54
   7   6  -1-31.2193 210.040  43
   7   6   0 71.9971 167.921  35
  -7  -6   0 51.8641 155.536  57
  -7  -6   0-26.2190 167.208  54
   7   6   0 64.0452 210.732  43
   7   6   1 28.7463 180.472  35
   7   6   1-34.6618 162.273  34
  -7  -6  -1 16.0092 171.818  54
  -7  -6  -1-9.23311 157.416  62
   7   6   1-86.2465 213.010  43
   7   6   2 66.1794 164.003  35
   7   6   2 159.510 182.115  23
  -7  -6  -2-0.59790 173.909  62
   7   6   2 181.146 165.715  34
  -7  -6  -2-22.1495 181.561  54
   7   6   2-11.8776 205.228  43
   7   6   3 641.085 195.020  35
   7   6   3 613.388 204.779  23
  -7  -6  -3 877.750 195.166  62
   7   6   3 924.622 179.740  34
  -7  -6  -3 793.048 201.105  54
  -7  -6  -3 632.148 170.850  28
   7   6   4-19.8478 181.554  35
  -7  -6  -4-47.3640 175.344  62
  -7  -6  -4 71.9159 180.447  54
   7   6   5 364.125 171.712  35
  -7  -6  -5 195.701 178.334  62
  -7  -6  -5 107.760 189.139  54
   7   6   6 498.121 177.259  35
  -7  -6  -6 291.066 195.599  62
   7   6   6 568.275 179.716  58
   7   6   7 628.798 160.698  35
  -7  -6  -7 591.654 183.571  62
   7   6   7 468.603 168.356  58
   7   6   8 2.03454 128.736  35
  -7  -6  -8 25.5007 154.075  62
   7   6   8 91.4764 152.592  58
  -7  -6  -9 165.994 135.134  62
   7   6   9 33.4261 79.1674  41
  -7  -6 -10-8.31549 98.0036  62
  -7  -7   7 251.467 113.352  36
   7   7  -7 219.391 102.417  63
  -7  -7   6-84.1081 127.385  36
   7   7  -6 88.5373 111.649  63
   7   7  -6 2.71722 117.171  43
  -7  -7   5 212.951 138.595  36
   7   7  -5 132.069 124.479  63
  -7  -7   5 178.368 126.428  51
   7   7  -5 166.595 140.525  43
  -7  -7   4 352.584 168.768  36
   7   7  -4 360.348 141.118  63
  -7  -7   4 278.397 152.179  57
   7   7  -4 491.343 172.616  43
  -7  -7   3 2432.56 240.980  36
  -7  -7   3 2421.08 219.618  57
   7   7  -3 2849.13 232.903  43
  -7  -7   2 257.957 168.887  36
  -7  -7   2 182.401 157.829  57
   7   7  -2 40.8894 177.852  43
  -7  -7   1 6.99040 168.625  36
   7   7  -1-38.4490 149.046  35
  -7  -7   1 52.2752 151.885  57
  -7  -7   1 84.9620 170.464  54
   7   7  -1 78.1217 192.004  43
  -7  -7   0 103.923 167.744  36
   7   7   0 138.615 162.547  35
  -7  -7   0 35.4793 163.567  57
  -7  -7   0 94.9670 178.167  54
   7   7   0 180.641 188.765  43
   7   7   1 460.945 166.573  35
  -7  -7  -1 462.927 191.954  54
   7   7   1 354.368 200.344  43
   7   7   2 112.336 178.918  35
  -7  -7  -2 78.1723 167.860  62
  -7  -7  -2 194.997 178.330  54
   7   7   2 146.792 178.854  43
   7   7   3-11.5760 167.702  35
  -7  -7  -3 27.3901 165.282  62
  -7  -7  -3-92.2072 190.250  54
   7   7   4 497.295 173.826  35
  -7  -7  -4 733.650 186.509  62
  -7  -7  -4 405.844 190.691  54
   7   7   5 75.3326 160.095  35
  -7  -7  -5-25.6296 183.073  62
  -7  -7  -5 112.511 167.953  54
   7   7   6 151.661 148.615  35
  -7  -7  -6 137.933 157.812  62
  -7  -7  -6 36.2085 153.412  54
   7   7   7 188.969 125.613  35
  -7  -7  -7 85.4384 166.344  62
  -7  -7  -8 137.002 137.040  62
   7   7   8 89.8335 120.022  41
  -7  -7  -9-124.250 117.651  62
  -7  -8   6 41.2132 101.909  36
  -7  -8   5 942.034 150.511  36
   7   8  -5 836.778 131.933  43
  -7  -8   4 2117.79 192.485  36
  -7  -8   4 2177.83 165.183  51
   7   8  -4 2209.00 180.008  43
  -7  -8   3 46.4738 153.065  36
  -7  -8   3 61.6682 145.007  57
   7   8  -3-18.1706 142.197  43
  -7  -8   2 139.388 160.670  36
  -7  -8   2 18.0217 149.042  57
   7   8  -2 133.327 145.777  43
  -7  -8   1 194.330 167.089  36
  -7  -8   1 165.324 164.677  57
   7   8  -1 225.306 148.984  43
  -7  -8   0 543.481 179.256  36
   7   8   0 637.301 157.294  35
  -7  -8   0 430.888 176.686  57
  -7  -8   0 592.463 193.458  54
   7   8   0 613.986 166.321  43
   7   8   1 1088.03 175.683  35
  -7  -8  -1 1287.11 203.989  57
  -7  -8  -1 1330.17 218.557  54
   7   8   1 1250.98 174.312  43
   7   8   2 432.973 162.560  35
  -7  -8  -2 557.098 200.662  54
   7   8   3-101.849 155.084  35
  -7  -8  -3-37.9972 159.465  62
  -7  -8  -3 185.819 182.662  54
   7   8   4 987.177 177.285  35
  -7  -8  -4 1107.59 199.756  62
  -7  -8  -4 1014.66 203.118  54
   7   8   5 308.671 137.932  35
  -7  -8  -5 340.730 166.480  62
  -7  -8  -5 407.307 162.109  54
   7   8   6 180.457 125.950  35
  -7  -8  -6 58.8230 146.526  62
  -7  -8  -6 263.291 139.372  54
   7   8   6 231.708 132.692  41
   7   8   7 40.7131 104.863  35
  -7  -8  -7 50.9997 138.244  62
   7   8   7 73.5076 123.547  41
  -7  -8  -8 73.3729 109.286  62
   7   8   8 35.4866 97.4334  41
  -7  -9   4 59.3254 109.568  36
   7   9  -4-4.57527 100.090  43
  -7  -9   3 2729.79 190.246  36
  -7  -9   3 2458.72 178.405  57
   7   9  -3 2504.65 165.249  43
  -7  -9   2 521.326 160.896  36
  -7  -9   2 472.244 150.172  57
   7   9  -2 557.515 137.914  43
  -7  -9   1 391.545 157.488  36
  -7  -9   1 434.910 156.025  57
   7   9  -1 471.976 138.970  43
  -7  -9   0 263.810 153.799  36
  -7  -9   0 362.999 158.641  57
   7   9   0 338.424 130.822  43
  -7  -9  -1 73.1977 143.645  36
  -7  -9  -1 12.7376 156.792  57
  -7  -9  -1-39.5957 168.754  54
   7   9   1 110.232 117.368  43
   7   9   2 63.3127 130.993  35
  -7  -9  -2 18.4028 158.456  57
  -7  -9  -2 46.3690 168.115  54
   7   9   3 34.3178 138.500  35
  -7  -9  -3 23.9767 143.405  57
  -7  -9  -3 78.5243 163.203  54
   7   9   3 75.4079 120.092  41
   7   9   4 240.329 131.858  35
  -7  -9  -4 183.895 156.965  54
   7   9   4 166.511 123.997  41
   7   9   5-13.7208 115.923  35
  -7  -9  -5-76.1832 143.850  54
   7   9   5-19.1890 72.9503  53
   7   9   5 19.4647 120.280  41
  -7  -9  -5-41.9988 125.780  62
  -7  -9  -6-10.1840 115.423  54
   7   9   6-10.8689 107.920  41
  -7 -10   0 41.2947 115.399  57
   7  10   0 192.022 97.9287  53
  -7 -10  -1 355.977 133.150  57
   7  10   1 392.751 112.019  53
  -7 -10  -2 32.8633 117.498  57
   7  10   2 27.6650 101.032  53
  -7 -10  -3-4.62307 113.429  57
  -7 -10  -3 21.8639 123.298  54
   7  10   3 31.2821 93.7826  53
  -8   8   4 172.458 94.2263  61
  -8   8   3 528.391 117.103  61
  -8   8   0 25.5385 66.9382  40
  -8   8  -1 1092.83 95.0557  40
  -8   8  -2 273.354 69.8534  40
  -8   7   6-5.78127 96.1582  61
  -8   7   5 47.7928 114.432  61
  -8   7   4 138.849 119.745  61
  -8   7   3-37.8072 129.166  61
  -8   7   2 103.604 139.117  61
  -8   7   1 8497.15 252.121  61
  -8   7   0 4745.20 171.086  40
  -8   7  -1 1541.20 126.415  40
  -8   7  -2 662.265 104.577  40
  -8   7  -3 457.763 96.2011  40
  -8   7  -4 332.355 89.7411  40
  -8   7  -5-13.7653 68.6259  40
  -8   6   7 242.435 113.086  61
  -8   6   6 128.129 115.675  61
  -8   6   5 67.3589 139.520  61
  -8   6   4 103.723 141.434  61
  -8   6   3 126.636 149.788  61
  -8   6   2 137.980 153.423  61
  -8   6   2 189.564 128.828  39
  -8   6   1 18011.9 361.240  61
  -8   6   1 16848.1 369.118  39
  -8   6   0 3738.30 210.272  61
  -8   6   0 3538.66 198.640  39
  -8   6  -1-5.29262 101.269  40
  -8   6  -1-17.9816 118.481  39
  -8   6  -2 587.191 118.016  40
  -8   6  -2 537.030 130.956  39
  -8   6  -3 98.0823 102.277  40
  -8   6  -3 39.2039 107.305  39
  -8   6  -4 2.88702 97.0846  40
  -8   6  -5 1308.12 126.519  40
  -8   6  -6 806.577 101.096  40
  -8   5   8 412.137 112.795  61
  -8   5   7 1257.87 145.214  61
  -8   5   6 120.892 134.234  61
  -8   5   5 139.346 151.143  61
  -8   5   4 481.737 163.378  61
  -8   5   3 355.281 170.067  61
  -8   5   3 242.021 129.422  39
  -8   5   2 891.274 185.009  61
  -8   5   2 641.013 151.171  39
  -8   5   1 2572.94 209.622  61
  -8   5   1 2390.23 192.738  39
  -8   5   0 4831.01 234.245  61
  -8   5   0 4655.52 239.924  39
  -8   5  -1 5620.31 224.901  40
  -8   5  -1 5546.78 247.772  39
  -8   5  -2 388.261 123.041  40
  -8   5  -2 282.379 133.481  39
  -8   5  -3 10.0835 113.475  40
  -8   5  -3-26.6290 119.004  39
  -8   5  -4-1.21008 110.240  40
  -8   5  -4-23.2616 118.148  39
  -8   5  -5 385.391 115.505  40
  -8   5  -6 19.5134 104.666  40
  -8   5  -7 608.056 105.260  40
  -8   4   9 625.626 111.332  61
   8  -4  -9 400.452 177.411  60
  -8   4   8 3090.64 171.244  61
  -8   4   7-27.1905 137.448  61
  -8   4   6 36.3687 160.757  61
  -8   4   5-30.9374 163.417  61
  -8   4   4 85.1468 164.780  61
  -8   4   4 71.0132 128.317  39
  -8   4   3 3445.50 230.485  62
  -8   4   3 3537.47 236.047  61
  -8   4   3 3233.81 217.198  39
  -8   4   2 6713.37 281.178  61
  -8   4   2 7307.25 290.789  62
  -8   4   2 6776.15 272.746  39
  -8   4   1 20702.5 413.618  61
   8  -4  -1 21396.5 528.221  32
  -8   4   1 19984.0 436.489  39
   8  -4   0 34.0863 187.715  32
  -8   4   0 120.878 136.342  39
  -8   4  -1 201.120 143.004  39
  -8   4  -2 44.2640 114.608  40
  -8   4  -2-72.1331 135.337  39
  -8   4  -3 80.8602 119.705  40
  -8   4  -3 22.7965 134.527  39
  -8   4  -4 251.973 132.041  40
  -8   4  -4 290.506 138.498  39
  -8   4  -5 192.213 121.585  40
  -8   4  -5 269.952 127.869  39
  -8   4  -6 202.766 120.242  40
   8  -4   7 575.373 146.614  58
  -8   4  -7 495.558 118.507  40
   8  -4   8 166.805 117.291  58
   8  -4   8 29.0995 131.907  35
  -8   4  -8 143.122 92.8518  40
  -8   3   9 406.664 125.148  61
  -8   3   9 437.753 99.4567  49
  -8   3   8 5.36011 108.326  49
  -8   3   7 1160.39 161.001  51
  -8   3   7 1403.83 148.194  49
  -8   3   6 70.1427 119.223  51
  -8   3   5-31.7803 134.939  51
  -8   3   4 1408.10 188.512  62
  -8   3   4 1699.28 175.345  51
  -8   3   4 1604.02 175.039  39
  -8   3   3 3117.88 234.254  62
   8  -3  -3 2600.08 229.505  29
  -8   3   3 2844.06 207.374  39
   8  -3  -3 2851.62 248.123  23
  -8   3   2 3637.16 242.277  62
  -8   3   2 3519.21 238.017  61
  -8   3   2 3466.57 221.374  39
   8  -3  -2 3184.79 253.787  23
   8  -3  -1 47.9812 155.968  23
  -8   3   1 45.7279 141.276  62
  -8   3   1-24.9278 167.054  61
   8  -3  -1 31.7244 159.177  32
  -8   3   1-65.0127 146.377  39
   8  -3   0 488.375 172.565  23
  -8   3   0 582.071 153.078  62
   8  -3   0 198.668 186.592  32
  -8   3   0 429.452 153.029  39
   8  -3   1 133.434 182.575  32
  -8   3  -1 371.296 148.041  39
   8  -3   2 810.443 220.274  32
  -8   3  -2 680.131 147.327  40
  -8   3  -2 790.975 165.651  39
  -8   3  -3 84.4179 153.312  56
   8  -3   3 255.641 216.942  32
  -8   3  -3 78.8959 131.677  40
  -8   3  -4 335.173 156.416  56
  -8   3  -4 527.441 141.426  40
  -8   3  -5 7170.03 269.339  40
  -8   3  -5 7138.10 272.281  39
  -8   3  -6 310.301 147.828  56
  -8   3  -6 222.538 135.681  40
  -8   3  -6 250.608 140.958  39
   8  -3   7 2154.24 183.668  58
  -8   3  -7 1973.23 177.101  56
  -8   3  -7 2215.77 174.018  40
   8  -3   8-27.1564 141.639  35
   8  -3   8 124.990 129.517  58
  -8   3  -8 5.52148 109.271  40
   8  -3   9 476.463 115.448  58
  -8   3  -9 505.473 94.6161  40
  -8   2  10 37.9886 94.8331  61
   8  -2 -10-17.6618 127.323  60
  -8   2  10-31.3742 86.0247  49
  -8   2   9 3188.03 165.284  49
  -8   2   8 327.130 127.106  51
  -8   2   8 459.171 131.280  49
  -8   2   7 56.3285 129.427  51
   8  -2  -7-61.8134 247.430  37
  -8   2   6 249.061 144.517  51
  -8   2   5 295.589 146.904  51
  -8   2   5 349.608 144.067  62
   8  -2  -4 288.763 170.605  23
  -8   2   4 248.207 150.573  62
  -8   2   4 283.598 140.741  51
   8  -2  -4 280.972 154.949  29
  -8   2   3 3713.65 247.065  62
   8  -2  -3 3312.64 235.798  29
  -8   2   3 3840.09 223.807  39
   8  -2  -3 3595.28 256.475  23
   8  -2  -2 1178.18 271.336   6
  -8   2   2 1835.62 195.763  62
  -8   2   2 1675.69 189.794  39
   8  -2  -2 1689.66 221.074  23
   8  -2  -1 1145.73 189.963  23
   8  -2  -1 588.724 258.508   6
  -8   2   1 1016.88 168.102  62
   8  -2  -1 938.112 192.742  32
  -8   2   1 951.424 167.275  39
  -8   2   1 734.338 202.778  14
   8  -2   0 173.488 175.520  23
   8  -2   0 306.029 216.786   6
  -8   2   0 327.343 147.537  62
   8  -2   0 291.365 164.799  32
  -8   2   0 109.305 180.478  14
  -8   2   0 224.892 146.900  39
   8  -2   1 25.8539 180.618  23
   8  -2   1 168.548 236.992   6
  -8   2  -1-75.4913 139.608  62
  -8   2  -1-35.6351 157.943  56
   8  -2   1 54.9700 182.806  32
  -8   2  -1 178.015 155.177  14
   8  -2   2 496.174 187.862  23
  -8   2  -2 199.281 164.357  56
   8  -2   2 328.800 189.836  32
  -8   2  -3 1618.11 205.906  56
   8  -2   3 1593.98 255.097  32
  -8   2  -4 438.218 157.713  56
   8  -2   4 211.591 254.569  32
   8  -2   4-27.1886 242.967  31
  -8   2  -5-86.3090 167.372  56
   8  -2   6 2062.63 209.001  58
  -8   2  -6 1870.28 208.798  56
   8  -2   7 1959.49 193.368  58
  -8   2  -7 1873.39 188.114  56
   8  -2   8 477.635 158.078  35
   8  -2   8 334.867 150.168  58
  -8   2  -8 299.424 132.043  56
  -8   2  -8 359.163 126.530  40
   8  -2   9 257.190 130.217  58
   8  -2   9 10.4862 140.062  35
  -8   2  -9 256.301 109.999  40
   8  -1 -10 2914.96 183.645  60
  -8   1  10 3119.95 145.742  49
   8  -1  -9 8302.26 336.039  60
  -8   1   9 8444.31 252.205  51
  -8   1   9 9355.35 252.636  49
   8  -1  -9 9617.43 251.506  47
  -8   1   8 31.6133 123.602  51
   8  -1  -8-59.5724 207.041  37
  -8   1   7 383.411 148.899  51
   8  -1  -7 353.305 266.664  37
  -8   1   6 24.6515 139.311  62
  -8   1   6 40.1216 144.418  51
   8  -1  -5 22.1591 180.179  23
  -8   1   5 94.8593 139.456  62
  -8   1   5-11.7864 151.285  51
   8  -1  -5-130.768 154.872  29
   8  -1  -4 76.0420 163.337  23
  -8   1   4 125.240 137.830  62
  -8   1   4-43.2704 146.918  51
   8  -1  -4-19.2452 140.543  29
   8  -1  -3 321.949 185.275  23
  -8   1   3 328.751 162.648  62
  -8   1   3 562.144 146.769  51
  -8   1   2 15902.8 429.664  62
  -8   1   2 16029.4 384.961  39
   8  -1  -2 15066.6 436.279  23
   8  -1  -2 14527.2 551.081   6
   8  -1  -1 67.8187 177.076  23
   8  -1  -1 0.00000 217.226   6
  -8   1   1 176.179 142.839  62
   8  -1  -1-0.98367 167.532  32
  -8   1   1 43.7781 166.487  14
   8  -1   0 2830.47 328.956   6
  -8   1   0 3524.76 234.428  62
   8  -1   0 2961.82 259.537  32
  -8   1   0 3225.23 286.882  14
   8  -1   0 3233.87 261.483  23
   8  -1   1 610.611 185.646  23
   8  -1   1 380.428 261.756   6
  -8   1  -1 481.750 149.459  62
  -8   1  -1 295.019 174.625  56
   8  -1   1 470.165 185.256  32
  -8   1  -1 428.913 197.741  14
   8  -1   2 615.285 204.094  23
  -8   1  -2 619.964 156.404  62
   8  -1   2 469.849 288.118   6
  -8   1  -2 711.807 181.372  56
   8  -1   2 606.422 221.695  32
  -8   1  -2 577.251 194.713  14
   8  -1   3 345.546 200.544  23
  -8   1  -3 362.916 152.577  62
  -8   1  -3 361.699 169.115  56
   8  -1   3 424.362 234.359  32
  -8   1  -4 2102.78 222.228  56
   8  -1   4 1830.51 293.989  32
  -8   1  -5 4693.31 266.597  56
   8  -1   6 306.539 170.252  58
  -8   1  -6 200.949 159.687  56
   8  -1   7 418.005 177.660  58
  -8   1  -7 249.442 169.868  56
   8  -1   7 271.626 202.418  35
   8  -1   8 97.7684 164.097  35
   8  -1   8 4.03081 163.037  58
  -8   1  -8 94.7115 147.220  56
   8  -1   9 293.002 150.986  35
   8  -1   9 297.700 148.779  58
  -8   1  -9 337.511 130.466  56
   8  -1  10 294.379 114.727  58
  -8   1 -10 364.920 90.3734  40
   8   0 -10 3466.95 178.809  60
  -8   0  10 3852.58 150.737  49
   8   0  -9 709.698 186.590  60
  -8   0   9 771.826 134.377  51
   8   0  -9 899.220 143.880  47
   8   0  -9 715.696 153.595  37
  -8   0   8 1941.10 184.608  51
   8   0  -8 1953.12 248.418  37
  -8   0   7 276.601 151.197  51
   8   0  -7 190.098 259.008  37
  -8   0   6 635.024 158.994  62
  -8   0   6 586.377 171.703  51
   8   0  -6 404.730 285.693  37
   8   0  -5 65.9684 167.735  23
  -8   0   5-63.1277 136.869  62
  -8   0   5-28.7891 158.386  51
   8   0  -4-13.3446 178.705  23
  -8   0   4 75.8108 160.232  62
  -8   0   4 39.9090 145.146  51
   8   0  -3 34.3175 185.189  23
  -8   0   3-25.8493 149.859  62
  -8   0   3-16.8395 137.741  51
   8   0  -3 19.3880 236.655  43
  -8   0   2 3000.44 229.372  62
   8   0  -2 2581.40 235.089  32
  -8   0   2 3064.61 223.027  51
   8   0  -2 2776.25 257.682  23
  -8   0   1 6436.22 292.944  62
   8   0  -1 6055.72 309.731  32
   8   0  -1 5648.99 314.826  23
   8   0   0 483.050 205.970  23
   8   0   0 408.321 271.846   6
  -8   0   0 600.266 157.635  62
  -8   0   0 511.263 181.771  56
   8   0   0 387.622 187.574  32
  -8   0   0 634.204 188.796  14
   8   0   1 270.987 194.323  23
   8   0   1 100.300 183.066  35
   8   0   1 51.3766 239.970   6
  -8   0  -1 144.473 144.119  62
  -8   0  -1 137.500 175.618  56
   8   0   1 114.578 186.075  32
  -8   0  -1 42.1794 174.312  14
   8   0   2 308.270 192.739  23
   8   0   2 254.178 204.098  35
  -8   0  -2 330.223 158.196  62
   8   0   2 217.589 270.038   6
  -8   0  -2 235.046 176.959  56
   8   0   2 216.778 213.787  32
  -8   0  -2 357.757 182.890  14
   8   0   3 644.017 216.169  23
   8   0   3 773.026 219.409  35
  -8   0  -3 843.646 162.652  62
  -8   0  -3 760.868 191.695  56
   8   0   3 695.183 253.963  32
  -8   0  -3 664.008 213.440  14
   8   0   4 1293.06 231.602  23
   8   0   4 973.980 227.230  35
  -8   0  -4 1134.83 173.818  62
  -8   0  -4 888.363 185.635  56
   8   0   4 1247.78 289.683  32
   8   0   5 3647.95 284.660  35
  -8   0  -5 3934.05 253.494  56
   8   0   5 3425.94 371.408  32
   8   0   6 2254.34 255.150  35
   8   0   6 2538.11 216.347  58
  -8   0  -6 2229.32 221.823  56
   8   0   7 520.672 196.416  35
   8   0   7 758.061 189.078  58
  -8   0  -7 671.650 177.835  56
   8   0   8 413.296 169.688  58
  -8   0  -8 316.804 154.068  56
   8   0   8-48.1546 180.935  35
   8   0   9 162.561 154.908  35
   8   0   9 285.593 147.555  58
  -8   0  -9 292.223 141.202  56
   8   0  10 86.4603 119.629  58
  -8   0 -10 181.769 107.733  56
   8   1 -10 275.686 105.464  60
  -8  -1  10 86.5923 89.5225  49
   8   1 -10 236.984 96.7729  47
   8   1  -9 5992.11 250.371  60
  -8  -1   9 6106.95 218.001  51
   8   1  -9 6276.40 222.056  47
   8   1  -8 65.0585 187.065  60
  -8  -1   8-22.4156 130.567  51
   8   1  -8-28.8941 153.089  47
   8   1  -8 53.3483 163.349  37
  -8  -1   7 326.862 137.192  36
  -8  -1   7 346.009 161.457  51
   8   1  -7 167.385 230.807  37
  -8  -1   6 141.280 128.246  62
  -8  -1   6-43.2780 157.888  51
   8   1  -6 73.6641 288.779  37
  -8  -1   5 481.301 151.468  62
  -8  -1   5 443.601 174.043  51
   8   1  -4 335.726 195.183  23
  -8  -1   4 688.953 156.530  62
  -8  -1   4 593.951 169.599  51
   8   1  -4 361.329 245.849  43
   8   1  -3 643.391 205.774  23
  -8  -1   3 716.896 169.318  62
  -8  -1   3 778.536 169.550  51
   8   1  -3 839.046 263.330  43
   8   1  -2 189.034 184.348  23
  -8  -1   2 211.381 154.754  62
  -8  -1   2 290.596 146.245  51
   8   1  -2 116.372 249.090  43
   8   1  -1 1413.49 212.277  23
  -8  -1   1 1399.78 169.608  51
  -8  -1   1 1358.15 181.351  62
   8   1   0 31.4038 192.726  23
  -8  -1   0-65.2122 148.650  62
  -8  -1   0-30.5510 166.514  56
   8   1   0-121.261 180.022  32
  -8  -1   0-74.2053 181.254  14
   8   1   1 494.163 205.337  23
  -8  -1  -1 381.565 164.478  62
  -8  -1  -1 499.013 179.419  56
   8   1   1 157.403 195.426  32
  -8  -1  -1 469.749 192.898  14
   8   1   1 311.933 220.699  35
   8   1   2 1861.84 230.928  35
  -8  -1  -2 2278.90 215.484  62
  -8  -1  -2 1892.67 218.585  56
   8   1   2 1692.18 275.604  32
  -8  -1  -2 2480.88 264.528  14
   8   1   2 2202.83 257.602  23
   8   1   3 11620.9 393.359  35
  -8  -1  -3 11765.8 377.844  62
  -8  -1  -3 11430.3 360.586  56
  -8  -1  -3 11838.8 488.861  14
   8   1   3 11137.4 426.881  23
   8   1   4 9086.80 368.733  35
  -8  -1  -4 9794.22 354.458  62
  -8  -1  -4 9311.62 339.059  56
   8   1   4 8797.75 456.433  32
   8   1   4 9238.39 397.126  23
   8   1   5 2245.07 247.905  35
  -8  -1  -5 2421.79 227.575  56
   8   1   5 2268.29 353.318  32
  -8  -1  -5 2611.37 218.772  62
   8   1   5 2321.07 261.878  23
   8   1   6 6179.01 333.321  35
  -8  -1  -6 6921.30 291.801  62
   8   1   6 7147.50 288.809  58
  -8  -1  -6 6441.21 296.460  56
   8   1   7 67.6544 205.082  35
   8   1   7 56.1058 171.759  58
  -8  -1  -7 64.3680 164.387  56
   8   1   8 67.0548 177.149  35
   8   1   8 18.0721 160.330  58
  -8  -1  -8 125.183 162.607  56
   8   1   9 37.2131 154.705  35
   8   1   9 458.176 152.139  58
  -8  -1  -9 343.300 152.062  56
   8   1  10 1610.57 151.315  58
  -8  -1 -10 1579.63 147.586  56
   8   2  -9 1886.85 159.008  60
  -8  -2   9 1756.50 139.880  51
   8   2  -9 1969.03 152.178  47
   8   2  -8 1718.31 202.221  60
  -8  -2   8 1773.18 174.846  51
   8   2  -8 1628.04 181.695  47
   8   2  -8 1407.38 204.953  37
  -8  -2   8 1689.51 162.580  36
  -8  -2   7 648.270 139.997  36
   8   2  -7 496.368 212.876  60
  -8  -2   7 636.407 156.664  51
   8   2  -7 439.659 214.149  37
  -8  -2   6 197.432 125.886  36
  -8  -2   6 39.5703 154.798  51
   8   2  -6 79.2802 258.818  37
  -8  -2   5 560.331 170.055  51
  -8  -2   5 615.241 150.898  62
   8   2  -5 583.097 308.751  37
  -8  -2   4 2028.14 202.911  62
  -8  -2   4 1855.65 209.383  51
   8   2  -4 1779.24 291.824  43
   8   2  -4 1594.82 351.698  37
   8   2  -3 404.443 183.253  23
  -8  -2   3 431.779 159.707  62
  -8  -2   3 350.047 158.673  51
   8   2  -3 518.834 277.750  43
  -8  -2   2 2396.19 215.952  62
   8   2  -2 2092.73 335.154  43
   8   2  -2 1879.11 244.387  23
   8   2  -1 48.7580 196.960  23
  -8  -2   1 212.921 162.599  62
   8   2  -1 230.913 264.141  43
   8   2   0 441.754 210.078  23
  -8  -2   0 397.491 160.046  62
   8   2   0 345.405 266.160  43
   8   2   1-41.5899 191.295  23
   8   2   1-30.8678 212.159  35
  -8  -2  -1-4.82495 153.709  62
  -8  -2  -1-43.1188 178.092  56
  -8  -2  -1-112.004 188.482  14
   8   2   2 281.287 218.093  23
   8   2   2 536.245 213.441  35
  -8  -2  -2 465.146 167.055  62
  -8  -2  -2 367.154 170.841  56
  -8  -2  -2 623.382 209.507  14
   8   2   3 3097.37 271.066  35
  -8  -2  -3 3077.24 242.405  62
  -8  -2  -3 3067.76 237.678  56
  -8  -2  -3 3255.15 308.152  14
   8   2   3 2956.40 279.723  23
   8   2   4 24382.9 535.140  35
  -8  -2  -4 25647.5 502.754  56
   8   2   4 24639.4 687.856  32
  -8  -2  -4 25101.2 533.787  62
   8   2   4 24358.5 582.932  23
   8   2   5 34.7083 187.210  23
   8   2   5 129.313 206.361  35
  -8  -2  -5 24.9863 162.950  62
  -8  -2  -5 46.9837 163.710  56
   8   2   5 177.899 272.562  32
   8   2   6 5354.03 311.923  35
  -8  -2  -6 5372.10 281.609  62
   8   2   6 6067.62 273.839  58
  -8  -2  -6 5499.88 282.393  56
   8   2   7 3822.13 273.881  35
  -8  -2  -7 3792.13 248.133  62
   8   2   7 4358.38 245.544  58
  -8  -2  -7 4299.31 260.344  56
   8   2   8 1722.58 215.341  35
   8   2   8 1890.81 204.273  58
  -8  -2  -8 1993.36 212.307  56
   8   2   9 400.917 147.010  35
   8   2   9 483.695 150.467  58
  -8  -2  -9 576.874 159.626  56
   8   2  10 77.5062 122.354  58
  -8  -2 -10 30.6358 123.582  56
   8   3  -9-11.2121 98.9946  63
  -8  -3   9-6.06750 77.5011  51
   8   3  -9 95.4303 108.086  47
  -8  -3   8 300.363 121.845  36
  -8  -3   8 300.600 120.526  51
   8   3  -8 265.080 134.018  47
  -8  -3   7 117.989 125.388  36
  -8  -3   7 38.5666 136.402  51
   8   3  -7-59.5261 156.179  47
   8   3  -7-43.8267 186.262  37
  -8  -3   6 275.897 138.489  36
  -8  -3   6 383.341 151.466  51
   8   3  -6 226.333 219.943  37
  -8  -3   5 377.039 167.475  51
   8   3  -5 633.299 203.568  43
   8   3  -5 288.960 265.046  37
  -8  -3   4 4179.50 255.899  51
   8   3  -4 3620.25 298.522  43
   8   3  -4 4085.04 391.655  37
  -8  -3   3 416.876 153.753  62
  -8  -3   3 460.366 154.386  57
   8   3  -3 464.526 275.824  43
   8   3  -3 179.721 307.252  37
   8   3  -2 78.2499 201.382  23
  -8  -3   2-55.7912 157.420  62
   8   3  -2 61.6616 261.990  43
   8   3  -2 93.0281 294.370  37
   8   3  -1 1624.69 243.307  23
   8   3  -1 2147.48 324.829  43
  -8  -3   1 1933.06 210.669  62
   8   3   0 1215.24 243.662  23
   8   3   0 1385.04 226.493  35
  -8  -3   0 1506.23 201.929  62
   8   3   0 1334.09 300.015  43
   8   3   1 45.9333 203.776  23
   8   3   1 126.976 201.080  35
  -8  -3  -1 139.683 162.112  62
  -8  -3  -1 255.075 181.085  17
   8   3   1 19.3619 277.927  43
  -8  -3  -1-78.8817 207.880  14
   8   3   2 284.493 213.616  23
   8   3   2 262.236 195.643  35
  -8  -3  -2 401.503 161.240  62
   8   3   2 266.249 293.585  43
   8   3   3 2217.74 261.529  35
  -8  -3  -3 2339.84 226.250  62
  -8  -3  -3 2559.29 221.173  56
   8   3   3 2513.85 346.408  43
   8   3   3 2266.85 259.163  23
   8   3   4 46870.2 711.065  35
  -8  -3  -4 47598.2 731.173  62
   8   3   4 47820.9 772.438  23
   8   3   5 3238.17 270.779  35
  -8  -3  -5 2915.11 246.103  62
  -8  -3  -5 3321.89 247.714  56
   8   3   6 2893.25 275.140  35
  -8  -3  -6 3204.88 254.559  62
   8   3   6 3264.98 221.285  58
  -8  -3  -6 3323.46 255.163  56
   8   3   7 796.252 195.486  35
  -8  -3  -7 630.121 161.931  62
   8   3   7 877.073 181.234  58
  -8  -3  -7 757.327 198.145  56
   8   3   8 87.5841 162.783  35
  -8  -3  -8 46.8386 119.016  62
   8   3   8 66.2208 151.742  58
  -8  -3  -8 252.304 166.822  56
   8   3   9 183.272 119.634  35
   8   3   9 91.7428 145.075  58
  -8  -3  -9 123.643 131.183  56
   8   3  10 301.190 118.260  58
  -8  -3 -10 392.021 128.509  56
   8   4  -9 251.405 90.5577  63
  -8  -4   8 1612.94 125.783  51
   8   4  -8 1318.82 139.658  47
  -8  -4   8 1417.85 140.960  36
  -8  -4   7 135.997 120.209  36
  -8  -4   7 29.3169 128.198  51
   8   4  -7-40.0815 136.650  47
  -8  -4   6 383.508 135.300  36
  -8  -4   6 310.760 144.489  51
   8   4  -6 377.776 159.485  47
   8   4  -6 444.430 191.207  37
  -8  -4   5 68.6354 136.973  36
  -8  -4   5 22.4466 149.267  51
   8   4  -5 117.595 175.506  43
   8   4  -5 50.5393 220.066  37
  -8  -4   4 0.00000 153.852  51
   8   4  -4 49.4595 207.976  43
   8   4  -4 102.182 232.407  37
  -8  -4   3 1450.98 193.768  57
   8   4  -3 1646.12 282.917  43
   8   4  -3 1561.24 287.110  37
  -8  -4   2 638.239 155.421  62
  -8  -4   2 510.015 161.963  57
   8   4  -2 439.322 268.129  43
   8   4  -2 377.863 267.798  37
   8   4  -1 307.071 200.888  23
  -8  -4   1 470.176 170.262  62
  -8  -4   1 455.949 160.645  57
   8   4  -1 495.398 283.225  43
   8   4   0 675.342 210.840  23
   8   4   0 747.167 179.357  35
  -8  -4   0 663.563 170.876  62
  -8  -4   0 584.647 165.595  57
   8   4   0 746.129 284.081  43
   8   4   1 91.9706 222.815  23
   8   4   1 318.168 195.303  35
  -8  -4  -1 228.388 167.695  62
   8   4   1 148.011 286.089  43
   8   4   2 29.4916 205.486  23
   8   4   2 48.5669 195.793  35
   8   4   2-64.5414 161.582  34
  -8  -4  -2-69.0260 156.679  62
  -8  -4  -2 42.8652 157.568  54
   8   4   2-63.0080 282.254  43
   8   4   3-23.2843 204.032  23
   8   4   3-11.4477 190.280  35
  -8  -4  -3 45.2746 159.295  62
   8   4   3-97.8780 257.631  43
   8   4   4 2318.81 240.550  35
  -8  -4  -4 1886.70 229.577  62
   8   4   5 3900.05 280.569  35
  -8  -4  -5 3622.76 268.662  62
  -8  -4  -5 3947.91 252.186  56
   8   4   6 498.772 202.102  35
  -8  -4  -6 457.402 182.342  62
   8   4   6 540.303 165.605  58
  -8  -4  -6 624.642 174.460  56
   8   4   7 29.4230 165.253  35
  -8  -4  -7-107.701 160.128  62
   8   4   7-55.7432 157.902  58
  -8  -4  -7-30.3410 160.561  56
   8   4   8 119.477 142.156  35
  -8  -4  -8 100.500 128.632  62
   8   4   8 239.007 146.176  58
  -8  -4  -8 132.741 157.305  56
  -8  -4  -9 63.2662 89.3333  62
   8   4   9 133.866 135.164  58
  -8  -4  -9-9.16688 134.356  56
   8   4  10 213.588 101.800  58
  -8  -5   8 178.634 88.7802  36
   8   5  -8 144.000 95.1642  63
  -8  -5   7 8.83280 111.139  36
   8   5  -7 38.3392 119.192  63
  -8  -5   7-30.8493 104.756  51
   8   5  -7-45.7163 111.830  47
  -8  -5   6 64.7743 128.391  36
  -8  -5   6 36.2311 129.494  51
   8   5  -6 58.5274 128.674  47
   8   5  -6 90.8172 118.801  43
  -8  -5   5 52.6285 132.619  36
  -8  -5   5 74.0204 140.127  51
   8   5  -5-17.1571 144.297  47
   8   5  -5 60.6350 149.859  43
  -8  -5   4 693.454 153.752  36
  -8  -5   4 427.080 151.790  57
  -8  -5   4 557.036 163.562  51
   8   5  -4 581.536 200.189  43
   8   5  -4 501.162 190.837  37
  -8  -5   3 4265.41 260.304  57
   8   5  -3 4376.08 302.440  43
   8   5  -3 4115.12 294.590  37
  -8  -5   2 792.698 167.960  57
   8   5  -2 694.017 232.309  43
  -8  -5   1 565.363 156.999  62
  -8  -5   1 447.838 168.008  57
   8   5  -1 450.675 229.448  43
   8   5   0 43.0834 154.429  35
  -8  -5   0 31.6478 149.026  62
  -8  -5   0 50.1858 144.815  57
   8   5   0 123.011 227.891  43
   8   5   1 757.352 173.925  35
  -8  -5  -1 1020.97 179.859  62
  -8  -5  -1 869.246 177.459  57
  -8  -5  -1 1022.70 199.422  54
   8   5   1 1001.30 273.304  43
   8   5   2 219.795 174.424  35
  -8  -5  -2-50.6701 158.548  62
  -8  -5  -2 16.7164 130.870  57
  -8  -5  -2 90.5611 159.933  54
   8   5   2 121.392 249.537  43
   8   5   3 560.918 197.811  35
  -8  -5  -3 799.510 187.332  62
  -8  -5  -3 734.703 181.589  54
   8   5   3 825.528 250.662  43
   8   5   4 4734.53 275.704  35
  -8  -5  -4 4893.49 289.655  62
   8   5   5-183.593 179.376  35
  -8  -5  -5 111.039 171.341  62
   8   5   6 115.169 178.670  35
  -8  -5  -6 92.1407 165.754  62
   8   5   6 48.8281 147.323  58
   8   5   7 666.748 154.296  35
  -8  -5  -7 443.692 164.185  62
   8   5   7 389.999 147.797  58
   8   5   8 1267.11 145.339  35
  -8  -5  -8 950.662 159.797  62
   8   5   8 1317.64 157.828  58
  -8  -5  -8 1403.37 159.075  56
  -8  -5  -9 104.177 104.146  62
  -8  -5  -9 103.611 109.913  56
  -8  -6   7 170.175 94.4633  36
   8   6  -7 225.746 97.3757  63
   8   6  -6 2139.56 152.595  63
  -8  -6   6 2689.55 156.499  51
   8   6  -6 2553.17 145.369  43
  -8  -6   6 2561.70 167.741  36
  -8  -6   5 1261.33 161.921  36
   8   6  -5 1316.62 151.609  63
  -8  -6   5 1305.13 155.627  51
   8   6  -5 1156.73 150.077  43
  -8  -6   4 197.855 137.604  36
  -8  -6   4 339.013 141.189  51
   8   6  -4 172.284 157.019  43
  -8  -6   3 285.366 139.809  36
  -8  -6   3 373.780 148.890  57
   8   6  -3 381.909 188.527  43
  -8  -6   2 2.89687 140.447  57
   8   6  -2 51.3297 186.897  43
  -8  -6   1 239.528 152.971  57
   8   6  -1 97.2303 211.957  43
   8   6   0 440.388 161.771  35
  -8  -6   0 440.331 166.522  57
   8   6   0 437.391 221.694  43
   8   6   1 485.249 159.894  35
  -8  -6  -1 583.694 161.907  62
  -8  -6  -1 496.639 163.551  57
  -8  -6  -1 332.685 177.867  54
   8   6   1 610.133 227.050  43
   8   6   2 1885.63 211.390  35
  -8  -6  -2 2052.39 215.404  62
  -8  -6  -2 1971.03 209.498  57
  -8  -6  -2 2039.16 234.458  54
   8   6   2 1827.98 254.477  43
   8   6   3 2209.67 214.891  35
  -8  -6  -3 2079.68 226.932  62
  -8  -6  -3 2037.85 234.574  54
   8   6   4 1717.51 195.774  35
  -8  -6  -4 1683.71 215.343  62
  -8  -6  -4 1389.85 210.833  54
   8   6   5 553.171 174.928  35
  -8  -6  -5 526.845 176.260  62
   8   6   6 3344.23 204.693  35
  -8  -6  -6 3176.57 238.852  62
   8   6   7 427.097 134.076  35
  -8  -6  -7 428.151 159.211  62
   8   6   8-7.48447 83.8066  35
  -8  -6  -8 90.3230 125.636  62
   8   6   8 14.3164 106.443  41
  -8  -7   5 478.444 119.252  36
  -8  -7   5 626.150 118.539  51
   8   7  -5 529.784 119.504  43
  -8  -7   4 788.889 134.208  36
  -8  -7   4 833.768 147.019  51
   8   7  -4 758.855 144.129  43
  -8  -7   3 1049.04 156.459  36
  -8  -7   3 1102.23 168.066  57
   8   7  -3 1174.43 156.386  43
  -8  -7   2 118.519 138.682  57
   8   7  -2-41.8625 156.983  43
   8   7  -1 316.999 138.047  35
  -8  -7   1 138.805 148.627  57
   8   7  -1 154.325 159.891  43
   8   7   0 309.236 137.715  35
  -8  -7   0 128.800 156.397  57
   8   7   0 189.302 171.402  43
   8   7   1 893.784 165.718  35
  -8  -7  -1 935.547 174.174  57
  -8  -7  -1 797.193 186.956  54
   8   7   1 906.867 185.205  43
   8   7   2 1747.46 182.567  35
  -8  -7  -2 1941.31 205.974  62
  -8  -7  -2 1577.15 200.578  57
  -8  -7  -2 1646.36 215.945  54
   8   7   2 1795.97 184.616  43
   8   7   3 468.808 153.050  35
  -8  -7  -3 581.627 165.964  62
  -8  -7  -3 394.628 150.563  57
  -8  -7  -3 400.639 166.282  54
   8   7   4 620.466 156.844  35
  -8  -7  -4 536.688 172.768  62
  -8  -7  -4 322.262 144.668  57
  -8  -7  -4 528.587 163.461  54
   8   7   5 77.7391 131.264  35
  -8  -7  -5 91.1579 144.604  62
  -8  -7  -5 31.4582 125.187  54
   8   7   6 26.8036 118.218  35
  -8  -7  -6 36.3121 145.440  62
   8   7   7 89.6799 102.735  35
  -8  -7  -7 267.694 134.161  62
   8   7   7 127.821 113.493  41
   8   8  -4 4825.58 171.672  43
  -8  -8   3 317.952 114.507  36
  -8  -8   3 400.322 125.786  51
   8   8  -3 454.655 125.752  43
  -8  -8   2 872.635 155.914  57
   8   8  -2 892.991 143.444  43
  -8  -8   1 1509.46 176.541  57
   8   8  -1 1589.68 152.989  43
  -8  -8   0 52.5275 131.372  57
   8   8   0 170.413 125.340  43
   8   8   1 57.3445 129.230  35
  -8  -8  -1 60.8173 139.482  57
   8   8   1 4.58545 122.771  43
   8   8   2 1467.65 151.781  35
  -8  -8  -2 1475.38 178.193  57
  -8  -8  -2 1505.00 201.138  54
   8   8   3 1158.49 154.945  35
  -8  -8  -3 1236.05 171.208  57
  -8  -8  -3 1064.91 178.791  54
   8   8   4-86.6174 126.206  35
  -8  -8  -4-32.0890 126.924  62
  -8  -8  -4 43.5145 120.446  57
  -8  -8  -4-65.3764 136.015  54
   8   8   5 128.990 113.604  35
  -8  -8  -5 201.273 131.538  62
  -8  -8  -5 180.082 114.415  57
  -8  -8  -5 92.1637 122.449  54
   8   8   5 139.996 123.344  41
   8   8   6 39.4718 99.5920  35
  -8  -8  -6 267.964 115.180  62
   8   8   6 180.226 104.110  41
  -8  -9   1 248.948 112.556  57
  -8  -9   0 408.715 130.742  57
  -8  -9  -1 102.827 122.052  57
  -8  -9  -2 161.952 123.792  57
  -8  -9  -3 669.697 134.374  57
  -9   6   5 1.89877 100.523  61
  -9   6   4 21.3969 112.428  61
  -9   6   3 338.466 126.210  61
  -9   6   2 3554.19 172.700  61
  -9   6   1 59.8756 113.716  61
  -9   6  -1 178.550 96.9283  39
  -9   6  -2 170.357 75.7787  40
  -9   6  -2 316.744 97.3675  39
   9  -6   3 68.1778 183.842  35
  -9   6  -3-6.10547 72.4066  40
  -9   5   6-51.3458 109.845  61
  -9   5   5-33.3755 123.702  61
  -9   5   4-6.50160 131.657  61
  -9   5   3 60.6070 131.363  61
  -9   5   2 51.5015 134.393  61
  -9   5   2 155.279 108.658  39
  -9   5   1 178.577 128.802  61
  -9   5   1 32.7283 116.805  39
  -9   5   0 788.169 127.342  39
  -9   5  -1-15.5802 111.865  39
  -9   5  -2 80.7221 111.490  39
  -9   5  -3 44.2334 90.0458  40
  -9   5  -3 88.5766 104.543  39
  -9   5  -4-0.50112 89.1045  40
  -9   5  -4 33.2242 90.4161  39
   9  -5   5 0.13847 146.096  35
  -9   5  -5 1.70105 77.1600  40
  -9   4   7 187.552 107.947  61
  -9   4   6 99.7012 120.885  61
  -9   4   5 336.183 138.219  61
  -9   4   4 38.6783 140.587  61
  -9   4   3 212.379 143.880  61
  -9   4   3 251.013 122.702  39
  -9   4   2 631.197 154.377  61
  -9   4   2 486.255 132.204  39
  -9   4   1 72.1981 122.875  39
  -9   4   0 41.6690 118.632  39
  -9   4  -1 97.0219 132.116  39
  -9   4  -2-17.8224 125.163  39
  -9   4  -3 2.95754 95.9496  40
  -9   4  -3 40.3047 114.859  39
  -9   4  -4 37.1539 93.4403  40
  -9   4  -4 115.072 115.593  39
  -9   4  -5 38.8229 93.9931  40
  -9   4  -5 15.9425 94.7685  39
   9  -4   6 91.5996 136.608  35
  -9   4  -6 144.593 90.9441  40
  -9   3   8 202.986 101.515  61
  -9   3   7 494.190 123.985  61
  -9   3   6 512.112 141.331  61
  -9   3   5 24.0883 144.283  61
  -9   3   4 138.854 149.933  61
  -9   3   3 1056.05 158.010  62
  -9   3   3 1064.33 170.002  61
  -9   3   3 1114.22 152.074  39
  -9   3   2 816.731 146.934  62
  -9   3   2 654.945 166.721  61
  -9   3   2 652.778 144.613  39
  -9   3   1 24.4787 122.286  62
  -9   3   1 7.83711 132.606  39
  -9   3   0 71.1822 130.789  62
  -9   3   0 9.80289 132.163  39
  -9   3  -1 61.3542 129.701  39
  -9   3  -2 69.5923 127.797  39
  -9   3  -3-35.0988 108.531  40
  -9   3  -3 12.2222 131.741  39
  -9   3  -4 221.853 113.803  40
  -9   3  -4 244.552 131.936  39
   9  -3   5 69.2431 156.762  35
  -9   3  -5 118.049 107.165  40
  -9   3  -5 47.8990 121.024  39
   9  -3   6-28.7318 149.646  35
  -9   3  -6 213.829 103.895  40
  -9   3  -6 32.1134 106.025  39
   9  -3   7-20.1780 132.602  35
  -9   3  -7-2.53901 90.3129  40
  -9   2   8 193.575 109.296  61
  -9   2   8 135.656 90.4145  49
  -9   2   7 90.6386 95.4551  51
  -9   2   7 16.7802 100.883  49
   9  -2  -7 134.960 185.621  37
  -9   2   6 143.723 113.955  51
   9  -2  -6 266.631 249.338  37
  -9   2   5 1351.57 157.593  51
  -9   2   4 1093.85 174.036  62
  -9   2   4 1120.10 152.510  51
   9  -2  -3 169.800 230.612  43
  -9   2   3 431.101 149.148  62
  -9   2   3 411.767 130.369  39
  -9   2   2 23.1059 139.618  62
  -9   2   2-56.2763 133.589  39
  -9   2   1 40.4320 134.077  62
  -9   2   1 141.238 142.503  39
  -9   2   0 67.3983 136.884  62
  -9   2   0 74.4841 136.036  39
  -9   2  -1 136.360 122.594  62
  -9   2  -1 38.8463 136.055  39
   9  -2   2 39.3448 176.397  35
  -9   2  -2-48.2785 138.709  39
   9  -2   3-106.251 182.743  35
   9  -2   4-2.71371 182.987  35
  -9   2  -4 139.453 152.490  56
  -9   2  -4 26.7886 116.244  40
   9  -2   5 56.2102 171.800  35
  -9   2  -5-6.67627 154.091  56
  -9   2  -5-37.2207 121.399  40
  -9   2  -5 26.6456 128.098  39
   9  -2   6 1.94215 154.227  35
  -9   2  -6-11.4915 137.275  56
  -9   2  -6-26.5739 116.141  40
  -9   2  -6-3.70769 115.381  39
   9  -2   7 9.71066 144.939  35
  -9   2  -7 123.236 124.903  56
  -9   2  -7-57.2705 101.648  40
  -9   2  -7 42.8248 100.515  39
   9  -2   8-41.5513 121.878  35
  -9   2  -8-4.96941 83.6272  40
   9  -1  -8 8.33377 179.608  60
  -9   1   8 33.3725 104.691  49
   9  -1  -8 96.5655 113.024  47
   9  -1  -8 84.1314 128.813  37
  -9   1   7 57.3882 109.756  51
   9  -1  -7 95.8804 204.060  37
  -9   1   6 216.334 125.486  51
   9  -1  -6 342.957 255.563  37
  -9   1   5-6.10714 127.285  62
  -9   1   5 5.51635 124.390  51
  -9   1   4 214.942 137.807  62
  -9   1   4 41.1480 128.041  51
  -9   1   3 360.470 158.882  62
  -9   1   3 275.730 140.744  51
   9  -1  -3 226.985 241.321  43
  -9   1   2 917.341 164.731  62
  -9   1   2 844.016 146.629  39
  -9   1   1 336.905 152.275  62
  -9   1   1 367.202 141.605  39
  -9   1   0 76.3415 142.551  62
  -9   1   0 19.6076 139.720  39
  -9   1  -1 127.449 127.182  62
   9  -1   2 59.3378 188.375  35
  -9   1  -2 9.53174 136.457  62
  -9   1  -2 110.101 159.408  56
   9  -1   3 50.3540 183.062  35
  -9   1  -3 192.162 136.240  62
  -9   1  -3 100.585 159.635  56
   9  -1   4-48.3320 180.550  35
  -9   1  -4 14.1098 161.394  56
   9  -1   5 201.720 174.917  35
  -9   1  -5-29.8989 155.730  56
   9  -1   6 49.9170 168.144  35
  -9   1  -6 63.7215 155.533  56
   9  -1   7-9.16617 154.825  35
  -9   1  -7 37.9874 139.822  56
  -9   1  -7 50.4651 108.190  40
   9  -1   8-56.7663 143.780  35
  -9   1  -8-3.03683 114.423  56
  -9   1  -8 33.9682 93.9696  40
  -9   1  -8 15.9738 66.1261  39
   9   0  -8 41.9336 153.390  60
  -9   0   8 16.8697 99.4809  51
   9   0  -8-3.69935 119.078  47
   9   0  -8 27.2696 133.156  37
  -9   0   7-0.43043 123.251  51
   9   0  -7-21.9068 188.660  37
  -9   0   6-23.2822 137.801  51
   9   0  -6 128.001 246.850  37
  -9   0   5 265.721 137.234  62
  -9   0   5 190.609 139.176  51
   9   0  -5 406.340 286.653  37
  -9   0   4 174.968 138.010  62
  -9   0   4 82.1416 138.330  51
  -9   0   3 104.845 151.988  62
  -9   0   3 0.47757 143.113  51
   9   0  -3-36.2338 235.200  43
  -9   0   2 79.6189 147.971  62
  -9   0   2-46.6242 138.622  51
   9   0  -2 41.0224 242.124  43
  -9   0   1 44.3344 152.636  62
  -9   0   1-8.86546 131.139  39
  -9   0   0-13.7861 138.166  62
   9   0   1 88.2014 192.259  35
  -9   0  -1 31.0562 145.154  62
   9   0   2 103.250 185.075  35
  -9   0  -2 107.911 149.115  62
  -9   0  -2 102.816 173.760  56
   9   0   3 39.0612 197.051  35
  -9   0  -3-9.14464 145.505  62
  -9   0  -3-16.7243 168.897  56
   9   0   4 45.1189 210.677  35
  -9   0  -4 354.243 157.189  62
  -9   0  -4 296.113 172.485  56
   9   0   5 488.052 206.270  35
  -9   0  -5 512.770 174.921  56
   9   0   6 267.916 185.664  35
  -9   0  -6 506.704 169.712  56
   9   0   7 78.8589 166.087  35
  -9   0  -7-40.6421 143.458  56
   9   0   8-67.5806 144.578  35
  -9   0  -8 6.86469 124.491  56
  -9   0  -9-31.6089 75.8138  40
   9   1  -8 572.563 146.883  60
  -9  -1   8 591.666 117.372  51
   9   1  -8 898.013 124.728  47
   9   1  -7 234.524 189.260  60
  -9  -1   7 414.591 129.784  51
   9   1  -7 301.229 186.952  37
  -9  -1   6 141.692 133.217  51
   9   1  -6 174.886 238.446  37
  -9  -1   5-4.23087 126.728  62
  -9  -1   5 57.1486 134.141  51
   9   1  -5 99.6919 296.179  37
  -9  -1   4 251.349 145.226  62
  -9  -1   4 319.439 150.156  51
   9   1  -4 152.429 230.803  43
  -9  -1   3 61.3749 143.986  62
  -9  -1   3 192.595 141.941  51
   9   1  -3 34.8649 269.001  43
  -9  -1   2 12.3748 148.138  62
  -9  -1   2 66.7138 133.188  51
   9   1  -2-99.8060 255.270  43
  -9  -1   1-10.3478 145.155  62
  -9  -1   1-32.6840 142.599  51
   9   1  -1-41.4573 278.532  43
  -9  -1   0 108.836 154.920  62
   9   1   0-15.4429 273.548  43
   9   1   1 184.365 190.211  35
  -9  -1  -1 208.252 145.114  62
  -9  -1  -1 108.397 175.111  56
   9   1   2 394.827 218.619  35
  -9  -1  -2 612.475 163.435  62
  -9  -1  -2 511.963 172.639  56
   9   1   3 133.436 196.445  35
  -9  -1  -3-3.22275 152.829  62
  -9  -1  -3 98.0099 164.862  56
   9   1   4 55.1657 204.881  35
  -9  -1  -4 93.0756 148.714  62
  -9  -1  -4 19.7305 166.700  56
   9   1   5 109.870 189.993  35
  -9  -1  -5 41.3157 131.614  62
  -9  -1  -5 14.4604 163.628  56
   9   1   5 1.66087 226.658  43
   9   1   6 425.185 193.933  35
  -9  -1  -6 423.709 172.837  56
   9   1   7 337.345 183.054  35
  -9  -1  -7 334.728 160.154  56
   9   1   8 23.5046 145.749  35
   9   1   8 102.075 115.494  58
  -9  -1  -8 55.5710 130.184  56
  -9  -1  -9 21.3877 95.9927  56
  -9  -2   8-8.50890 91.2579  51
   9   2  -8 19.2082 105.069  47
  -9  -2   7 332.505 123.354  51
   9   2  -7 331.958 131.447  47
   9   2  -7 336.382 160.740  37
  -9  -2   6 1270.73 166.153  51
   9   2  -6 830.500 234.632  37
  -9  -2   5 323.767 128.837  62
  -9  -2   5 505.316 155.956  51
   9   2  -5 432.614 275.838  37
  -9  -2   4 70.2312 128.218  62
  -9  -2   4 65.8653 145.125  51
   9   2  -4 164.627 202.696  43
   9   2  -4 59.4259 299.523  37
  -9  -2   3 114.056 142.799  62
  -9  -2   3 170.329 150.872  51
   9   2  -3 106.843 267.942  43
   9   2  -3 6.49350 318.160  37
  -9  -2   2 45.8107 149.728  62
  -9  -2   2 51.7788 145.774  51
   9   2  -2 113.384 281.978  43
  -9  -2   1 59.9475 152.731  62
  -9  -2   1 39.7769 136.628  51
   9   2  -1 127.913 278.077  43
  -9  -2   0 33.4727 150.411  62
  -9  -2   0 84.9486 137.404  51
   9   2   0-43.1865 287.689  43
   9   2   1 23.8339 192.711  35
  -9  -2  -1 121.101 151.847  62
   9   2   1 79.5245 278.089  43
   9   2   2 375.311 210.879  35
  -9  -2  -2 247.187 162.991  62
  -9  -2  -2 166.176 173.492  56
   9   2   2 200.595 255.259  43
   9   2   3-62.0457 197.849  35
  -9  -2  -3 23.5713 157.113  62
  -9  -2  -3-4.50932 172.156  56
   9   2   3-83.4036 262.066  43
   9   2   4 587.962 216.459  35
  -9  -2  -4 721.310 181.140  62
  -9  -2  -4 683.899 185.107  56
   9   2   4 218.653 269.284  43
   9   2   5 226.346 202.279  35
  -9  -2  -5 250.681 150.618  62
  -9  -2  -5 245.804 169.009  56
   9   2   6 160.220 193.989  35
  -9  -2  -6 207.969 131.515  62
  -9  -2  -6 303.171 161.734  56
   9   2   7 119.238 164.722  35
  -9  -2  -7 39.6894 152.479  56
   9   2   8-22.4836 134.321  35
   9   2   8 13.4233 112.349  58
  -9  -2  -8-5.82573 140.231  56
  -9  -2  -9 88.7377 104.478  56
   9   3  -8 909.498 109.810  47
  -9  -3   7 184.912 114.049  51
   9   3  -7 176.723 121.729  47
  -9  -3   6 58.0441 120.763  51
   9   3  -6-3.56179 165.744  37
  -9  -3   5 57.8884 141.336  51
   9   3  -5 82.7368 158.571  43
   9   3  -5 101.939 189.026  37
  -9  -3   4 821.227 163.519  51
   9   3  -4 414.308 209.152  43
   9   3  -4 433.228 251.426  37
  -9  -3   3 207.881 134.274  62
  -9  -3   3 28.4799 151.939  51
   9   3  -3 79.3603 232.330  43
   9   3  -3-114.671 263.068  37
  -9  -3   2-47.9769 141.669  62
  -9  -3   2-114.975 162.690  51
   9   3  -2 165.881 241.591  43
   9   3  -2-15.2072 268.993  37
  -9  -3   1 22.6368 152.351  62
  -9  -3   1-5.21188 145.542  51
   9   3  -1-87.3898 278.397  43
   9   3  -1-63.7032 273.779  37
  -9  -3   0 231.814 149.678  62
   9   3   0 93.2778 271.774  43
   9   3   1-53.2001 173.130  35
  -9  -3  -1 129.251 148.930  62
   9   3   1 13.9842 280.811  43
   9   3   2 325.548 186.580  35
  -9  -3  -2 81.5868 157.457  62
   9   3   2 209.513 270.938  43
   9   3   3 2308.98 247.749  35
  -9  -3  -3 2045.53 208.123  62
   9   3   3 1649.43 317.053  43
   9   3   4 127.726 191.526  35
  -9  -3  -4 146.578 151.264  62
  -9  -3  -4 43.6963 157.837  56
   9   3   4-41.3173 244.358  43
   9   3   5 176.448 188.161  35
  -9  -3  -5 207.690 157.017  62
  -9  -3  -5 167.996 165.126  56
   9   3   6 49.2299 173.264  35
  -9  -3  -6 100.027 132.535  62
  -9  -3  -6 262.854 161.488  56
   9   3   7-19.9433 158.279  35
  -9  -3  -7 72.2885 115.242  62
  -9  -3  -7 52.2229 144.464  56
   9   3   8-25.0702 124.276  35
  -9  -3  -8-53.4852 133.070  56
  -9  -4   7 26.8413 88.4116  51
   9   4  -7-73.1305 98.1787  47
  -9  -4   6 449.323 128.536  51
   9   4  -6 456.824 131.995  47
  -9  -4   5 81.0976 129.473  51
   9   4  -5-10.9625 136.199  47
   9   4  -5 29.5480 121.759  43
   9   4  -5 74.4779 158.613  37
  -9  -4   4 26.9842 140.896  51
   9   4  -4 90.2725 160.914  43
   9   4  -4-143.306 184.726  37
  -9  -4   3 317.040 152.267  51
   9   4  -3 516.491 197.236  43
   9   4  -3 359.532 196.192  37
  -9  -4   2 141.303 143.779  62
  -9  -4   2 184.886 151.274  51
   9   4  -2 81.3756 218.748  43
   9   4  -2 297.393 214.245  37
  -9  -4   1 710.004 162.424  62
   9   4  -1 664.602 250.938  43
  -9  -4   0 312.042 157.989  62
   9   4   0 242.891 256.886  43
   9   4   1-54.0632 160.409  35
  -9  -4  -1-26.1922 161.233  62
   9   4   1-52.4999 238.367  43
   9   4   2 226.220 175.035  35
  -9  -4  -2 298.707 161.691  62
   9   4   2 209.769 252.300  43
   9   4   3 67.9954 180.420  35
  -9  -4  -3 0.76804 145.990  62
   9   4   3-97.9116 249.401  43
   9   4   4 0.79936 176.359  35
  -9  -4  -4 14.6537 161.443  62
   9   4   5 203.198 163.796  35
  -9  -4  -5 106.110 150.363  62
   9   4   6-24.0269 156.130  35
  -9  -4  -6 80.7865 144.980  62
  -9  -4  -6-134.147 142.405  56
   9   4   7-11.0805 136.794  35
  -9  -4  -7-38.1413 117.058  62
  -9  -4  -7-32.2335 128.199  56
   9   4   8 90.3387 99.8298  35
   9   5  -6 71.3850 97.0647  63
  -9  -5   6-49.8397 99.2455  51
  -9  -5   5-102.086 121.796  51
   9   5  -5 19.7232 116.206  43
  -9  -5   4 268.620 134.587  51
   9   5  -4 387.579 145.026  43
  -9  -5   3 9.58576 139.104  51
   9   5  -3 64.3705 168.947  43
  -9  -5   2-11.9996 118.475  57
  -9  -5   2 76.3051 138.830  51
   9   5  -2-44.8776 189.615  43
  -9  -5   1 59.5219 132.194  62
  -9  -5   1 124.363 133.374  57
   9   5  -1-74.7643 204.079  43
   9   5   0 74.2580 140.234  35
  -9  -5   0 217.737 134.039  62
   9   5   0 293.389 204.794  43
   9   5   1 1735.14 185.827  35
  -9  -5  -1 2227.69 204.056  62
   9   5   1 2010.27 241.776  43
   9   5   2 2090.12 198.185  35
  -9  -5  -2 1978.06 199.301  62
   9   5   2 2024.74 243.015  43
   9   5   3 649.355 164.715  35
  -9  -5  -3 896.993 169.840  62
   9   5   3 731.375 205.977  43
   9   5   4-16.6139 152.572  35
  -9  -5  -4-106.685 162.598  62
   9   5   5 380.624 157.301  35
  -9  -5  -5 471.234 160.275  62
   9   5   6 268.656 135.535  35
  -9  -5  -6 158.935 135.544  62
   9   5   7 30.8182 113.203  35
  -9  -5  -7 94.1796 113.999  62
  -9  -6   5 158.278 95.6852  51
  -9  -6   4 259.143 122.139  51
   9   6  -4 357.627 126.210  43
  -9  -6   3 167.807 134.585  51
   9   6  -3 257.169 138.859  43
  -9  -6   2 58.2944 121.286  57
  -9  -6   2 162.306 132.883  51
   9   6  -2 141.236 155.955  43
  -9  -6   1 159.285 122.273  57
   9   6  -1 259.425 170.910  43
   9   6   0-100.989 118.714  35
  -9  -6   0-51.0246 124.585  57
   9   6   0 86.8877 158.132  43
   9   6   1 53.7559 128.764  35
  -9  -6  -1 47.8304 127.657  62
  -9  -6  -1-9.97972 120.471  57
   9   6   1-70.3159 161.829  43
   9   6   2 87.6703 136.623  35
  -9  -6  -2 42.3475 131.794  62
   9   6   2 78.9605 159.690  43
   9   6   3 97.6817 129.612  35
  -9  -6  -3 11.6355 139.409  62
   9   6   4 91.4240 133.561  35
  -9  -6  -4 43.6684 131.526  62
   9   6   5 79.9672 119.549  35
  -9  -6  -5 53.5542 133.376  62
   9   6   6 5.09208 112.016  35
  -9  -6  -6 127.120 116.863  62
  -9  -7   3-41.6409 107.990  51
   9   7  -3 110.627 102.104  43
  -9  -7   2 287.376 126.983  51
   9   7  -2 29.0650 118.315  43
  -9  -7   1 90.9089 115.990  57
   9   7  -1 88.9129 117.106  43
  -9  -7   0 99.7947 115.741  57
   9   7   0 63.4780 129.506  43
   9   7   1 999.983 126.943  35
  -9  -7  -1 921.680 144.829  57
   9   7   1 1122.94 141.877  43
   9   7   2 76.1213 114.868  35
  -9  -7  -2-35.9159 120.360  62
  -9  -7  -2-7.99653 104.049  57
   9   7   2-36.3597 77.9726  43
   9   7   3 152.233 114.476  35
  -9  -7  -3 196.876 125.749  62
   9   7   4 241.682 113.635  35
  -9  -7  -4 230.433 122.125  62
   9   7   5 422.806 104.997  35
  -9  -7  -5 340.744 117.814  62
 -10   5  -1 56.2605 77.6921  39
 -10   4   4 294.331 103.823  61
 -10   4   3-39.2677 86.9495  61
 -10   4   1 304.314 102.737  39
 -10   4   0 47.0393 97.8762  39
 -10   4  -1-27.2651 96.8887  39
 -10   4  -2 106.183 99.9241  39
 -10   4  -3 1420.70 117.248  39
 -10   3   5 3093.94 149.476  61
  10  -3  -5 2163.52 285.474  37
 -10   3   4 4408.27 174.540  61
 -10   3   3 890.242 117.595  61
  10  -3  -2-188.798 193.986  43
 -10   3   2 113.708 98.6412  39
 -10   3   1 60.0323 108.331  39
 -10   3   0 99.9026 100.512  62
 -10   3   0 156.105 106.588  39
 -10   3  -1 299.797 115.070  39
 -10   3  -2 137.963 107.922  39
  10  -3   3 101.415 147.567  35
 -10   3  -3 117.194 103.823  39
  10  -3   4 126.353 149.127  35
 -10   3  -4 206.782 102.316  39
  10  -3   5 239.105 131.330  35
 -10   2   6 15.9045 101.503  61
  10  -2  -6 174.634 168.343  37
 -10   2   5 846.987 131.202  61
  10  -2  -5 514.899 251.981  37
 -10   2   4 3739.32 176.285  61
 -10   2   3 106.557 116.827  62
 -10   2   2 400.577 119.331  62
  10  -2  -2 149.496 209.113  43
 -10   2   2 356.958 107.699  39
 -10   2   1 216.709 115.328  62
  10  -2  -1 301.850 222.667  43
 -10   2   1 403.999 118.421  39
 -10   2   0 432.667 119.000  62
 -10   2   0 424.133 123.164  39
 -10   2  -1 30.4583 106.216  62
 -10   2  -1 118.997 114.746  39
 -10   2  -2 420.770 122.135  39
  10  -2   3 5979.55 245.607  35
 -10   2  -3 6539.49 225.528  39
  10  -2   4-37.5751 140.203  35
 -10   2  -4 7.76382 108.900  39
  10  -2   5 701.239 152.178  35
 -10   2  -5 786.985 117.702  39
  10  -2   6-37.2078 119.212  35
 -10   1   6 44.1337 104.151  61
 -10   1   6 81.2645 81.7105  51
  10  -1  -6 21.8430 184.113  37
 -10   1   5 2472.98 155.793  61
 -10   1   5 2633.81 144.683  51
  10  -1  -5 2222.80 304.516  37
 -10   1   4 177.238 119.016  62
 -10   1   4 153.620 117.442  61
 -10   1   4 193.172 94.2715  51
 -10   1   3 1041.08 149.702  62
  10  -1  -3 770.735 228.769  43
 -10   1   2 146.007 131.706  62
  10  -1  -2 151.525 232.086  43
 -10   1   1 221.778 124.005  62
  10  -1  -1 203.101 245.138  43
 -10   1   1 259.190 117.757  39
 -10   1   0 244.695 126.282  62
  10  -1   0-10.8730 237.886  43
 -10   1   0 147.534 125.518  39
 -10   1  -1 201.909 125.169  62
 -10   1  -1 284.141 126.452  39
  10  -1   2 587.572 167.629  35
 -10   1  -2 437.124 127.894  62
 -10   1  -2 501.326 137.652  39
  10  -1   3 879.288 173.963  35
 -10   1  -3 1032.97 145.428  39
  10  -1   4-37.9405 154.585  35
 -10   1  -4 45.1491 120.135  39
  10  -1   5 70.2086 147.562  35
  10  -1   5 60.0713 165.123  43
 -10   1  -5 145.162 114.209  39
  10  -1   6 62.5714 130.355  35
 -10   1  -6 238.412 99.1101  39
 -10   0   6 18.8294 90.5878  51
  10   0  -6 5.49727 180.047  37
 -10   0   5 837.910 118.593  51
  10   0  -5 696.606 247.003  37
 -10   0   4 2207.72 166.453  62
 -10   0   4 2066.28 152.948  51
 -10   0   3-2.45360 120.265  62
 -10   0   3 66.9252 111.947  51
  10   0  -3 131.663 220.773  43
 -10   0   2 1090.11 164.050  62
  10   0  -2 766.066 277.004  43
 -10   0   1 90.4629 138.721  62
  10   0  -1 159.502 246.175  43
 -10   0   0 1296.94 172.560  62
  10   0   0 1036.88 285.522  43
 -10   0   0 1155.48 144.486  39
 -10   0  -1 5195.42 240.073  62
 -10   0  -1 5209.67 222.066  39
  10   0   2 327.395 156.990  35
 -10   0  -2 317.113 127.070  62
  10   0   2 164.841 241.103  43
 -10   0  -2 293.572 130.618  39
  10   0   3 2029.70 204.468  35
 -10   0  -3 2197.22 174.533  62
  10   0   4 108.284 162.246  35
 -10   0  -4 369.987 110.222  62
  10   0   4 122.119 211.070  43
  10   0   5 36.9706 147.097  35
  10   0   5 22.1760 183.258  43
  10   0   6 173.520 137.560  35
 -10   0  -6 136.689 100.912  39
  10   0   7 1232.12 143.107  35
 -10  -1   6 52.7144 97.4683  51
  10   1  -6 46.1472 160.591  37
 -10  -1   5 75.9857 106.898  51
  10   1  -5-105.023 219.260  37
 -10  -1   4 599.346 129.215  62
 -10  -1   4 558.138 127.704  51
  10   1  -4 450.957 175.161  43
  10   1  -4 540.243 276.507  37
 -10  -1   3 853.829 145.065  62
 -10  -1   3 926.591 140.581  51
  10   1  -3 740.457 237.990  43
  10   1  -3 961.064 302.843  37
 -10  -1   2 85.9776 135.759  62
 -10  -1   2 245.214 127.227  51
  10   1  -2 266.519 257.883  43
 -10  -1   1 260.313 137.981  62
  10   1  -1 283.869 270.856  43
 -10  -1   0 26.7147 132.319  62
  10   1   0 154.330 235.195  43
 -10  -1  -1 472.588 138.719  62
  10   1   1 523.069 253.331  43
 -10  -1  -1 522.210 135.068  39
  10   1   2 5272.44 255.393  35
 -10  -1  -2 5227.56 247.068  62
  10   1   2 5135.40 372.206  43
  10   1   3 1333.14 191.943  35
 -10  -1  -3 1480.43 166.734  62
  10   1   3 1249.57 260.097  43
  10   1   4 567.957 172.382  35
 -10  -1  -4 603.833 138.569  62
 -10  -1  -4 720.410 157.587  56
  10   1   4 490.290 234.661  43
  10   1   5 1489.33 190.292  35
 -10  -1  -5 1778.98 173.149  56
  10   1   6 782.977 163.875  35
 -10  -1  -6 865.976 149.221  56
  10   1   7 211.174 112.025  35
 -10  -1  -7 71.0066 103.479  56
 -10  -2   6 570.955 108.110  51
  10   2  -6 570.336 119.339  47
  10   2  -6 397.017 137.342  37
 -10  -2   5 351.585 112.289  51
  10   2  -5 246.625 182.141  37
 -10  -2   4-49.7594 100.522  62
 -10  -2   4 24.1873 114.180  51
  10   2  -4-89.8002 153.577  43
  10   2  -4 39.9784 200.267  37
 -10  -2   3 976.770 145.581  62
 -10  -2   3 954.501 139.108  51
  10   2  -3 943.065 214.708  43
  10   2  -3 749.763 256.479  37
 -10  -2   2 199.734 123.429  62
 -10  -2   2 211.216 123.440  51
  10   2  -2 168.322 223.647  43
  10   2  -2 142.232 250.031  37
 -10  -2   1-43.5214 127.460  62
 -10  -2   1 59.1684 115.968  51
  10   2  -1-67.8263 243.077  43
  10   2  -1-54.1037 257.177  37
 -10  -2   0 1485.14 180.803  62
  10   2   0 1523.92 298.134  43
 -10  -2  -1 12365.3 344.294  62
  10   2   1 11909.3 448.020  43
  10   2   2 13831.7 344.313  35
 -10  -2  -2 12917.9 346.030  62
  10   2   2 13136.3 469.952  43
  10   2   3 575.575 173.282  35
 -10  -2  -3 555.359 150.385  62
  10   2   3 252.371 236.060  43
  10   2   4 1490.38 189.142  35
 -10  -2  -4 1571.09 165.443  62
 -10  -2  -4 1669.81 175.683  56
  10   2   4 1415.38 249.152  43
  10   2   5 57.0482 148.304  35
 -10  -2  -5 34.4736 111.275  62
 -10  -2  -5 33.6912 136.027  56
  10   2   6 405.502 146.881  35
 -10  -2  -6-3.30025 65.1773  62
 -10  -2  -6 317.318 129.373  56
  10   2   7 166.314 108.698  35
 -10  -3   5-28.3673 106.035  51
  10   3  -5-41.8930 122.250  47
 -10  -3   4 265.660 115.352  51
  10   3  -4 279.052 146.609  43
  10   3  -4 201.454 159.340  37
 -10  -3   3 39.2637 102.894  62
 -10  -3   3 34.7142 114.798  51
  10   3  -3 114.190 174.509  43
  10   3  -3-56.8097 170.198  37
 -10  -3   2 326.376 122.061  62
 -10  -3   2 340.555 126.761  51
  10   3  -2 328.346 203.627  43
  10   3  -2 444.637 185.754  37
 -10  -3   1 91.9573 131.064  62
 -10  -3   1 25.4781 121.404  51
  10   3  -1-24.4634 213.821  43
 -10  -3   0 1235.73 156.749  62
 -10  -3   0 1350.02 151.357  51
  10   3   0 875.966 240.702  43
 -10  -3  -1 718.396 150.849  62
  10   3   1 538.655 240.965  43
  10   3   2 6390.75 243.823  35
 -10  -3  -2 6284.09 257.000  62
  10   3   2 6100.23 335.606  43
  10   3   3-20.2324 148.183  35
 -10  -3  -3 18.7855 133.134  62
  10   3   3-71.3772 197.376  43
  10   3   4 1971.82 180.218  35
 -10  -3  -4 2129.37 180.946  62
  10   3   5 511.875 151.558  35
 -10  -3  -5 640.794 135.432  62
  10   3   6 491.042 128.550  35
 -10  -3  -6 374.628 102.507  62
 -10  -4   5 434.430 105.957  51
 -10  -4   4 80.4947 105.040  51
  10   4  -4-75.0624 87.2679  47
  10   4  -4 148.515 118.818  43
 -10  -4   3 172.822 117.303  51
  10   4  -3 55.8634 146.789  43
 -10  -4   2 113.795 104.881  62
 -10  -4   2-65.1402 121.888  51
  10   4  -2-51.9716 170.376  43
 -10  -4   1 249.757 124.077  62
 -10  -4   1 268.957 126.260  51
  10   4  -1 159.887 180.508  43
 -10  -4   0-18.4195 127.913  62
 -10  -4   0-40.1082 115.389  51
  10   4   0-37.7191 170.549  43
 -10  -4  -1 88.2493 130.574  62
  10   4   1-71.9454 182.245  43
  10   4   2 15970.9 313.462  35
 -10  -4  -2 16228.7 370.617  62
  10   4   2 15850.3 385.584  43
  10   4   3 920.796 153.641  35
 -10  -4  -3 1018.05 156.262  62
  10   4   3 1069.45 183.071  43
  10   4   4 701.544 134.396  35
 -10  -4  -4 549.163 147.184  62
  10   4   5 438.924 131.174  35
 -10  -4  -5 444.586 134.209  62
  10   4   6 21.5460 98.2963  35
 -10  -5   3 80.6016 100.640  51
  10   5  -3 25.5939 107.903  43
 -10  -5   2 120.816 118.063  51
  10   5  -2 222.232 140.394  43
 -10  -5   1 478.182 129.033  51
  10   5  -1 410.661 148.411  43
 -10  -5   0 103.326 106.683  62
 -10  -5   0 104.058 121.817  51
  10   5   0 287.240 143.078  43
 -10  -5  -1 29.9291 115.067  62
 -10  -5  -1 51.0276 119.844  51
  10   5   1 37.9534 145.851  43
  10   5   2 371.919 117.988  35
 -10  -5  -2 152.023 120.050  62
  10   5   2 173.228 142.278  43
  10   5   3-31.6098 120.644  35
 -10  -5  -3 4.06345 121.342  62
  10   5   4 197.628 114.995  35
 -10  -5  -4 332.958 120.447  62
  10   5   5 176.997 100.821  35
 -10  -5  -5 147.846 102.327  62
 -10  -6   1 2205.71 143.994  51
  10   6  -1 2223.99 139.996  43
 -10  -6   0 1008.89 124.545  51
  10   6   0 1003.01 125.885  43
  10   6   1 522.871 114.701  43
  11  -2   0 153.645 170.796  43
  11  -2   1 5.07748 174.429  43
 -11   2  -1 0.04305 77.9498  39
  11  -1  -3 74.7883 176.240  37
  11  -1  -2 7.35476 189.668  37
 -11   1   1 17.4616 84.9929  62
  11  -1  -1 24.6486 176.510  43
 -11   1   0 3.70299 84.1943  62
  11  -1   0 79.6870 169.881  43
 -11   1   0-3.73544 78.8747  39
 -11   1  -1-43.5115 85.5463  62
  11  -1   1-135.988 182.034  43
 -11   1  -1 11.1603 81.6076  39
  11  -1   2 27.3976 161.731  43
 -11   1  -2 3.91271 80.3075  39
 -11   1  -3 65.0516 74.4559  39
  11   0  -3 253.280 172.321  37
 -11   0   2 5.85495 91.4213  62
  11   0  -2-0.07289 145.860  43
  11   0  -2-6.66171 184.527  37
 -11   0   1 124.611 91.8848  62
  11   0  -1-3.89814 176.773  43
  11   0  -1 175.137 192.410  37
 -11   0   0 67.2125 95.7131  62
  11   0   0-73.2148 183.273  43
  11   0   0-22.1142 138.983  37
 -11   0  -1 112.069 96.3613  62
  11   0   1-90.5204 184.643  43
 -11   0  -1 139.412 86.0530  39
 -11   0  -2 40.3249 89.1277  62
  11   0   2 189.468 166.099  43
 -11   0  -2-33.2088 87.8883  39
  11   0   3-73.9046 153.345  43
 -11   0  -3 47.3556 82.2160  39
 -11  -1   3 57.1156 81.7611  62
 -11  -1   2 64.4556 91.6177  62
  11   1  -2 2.04747 143.222  43
  11   1  -2-110.707 155.466  37
 -11  -1   1-70.6971 103.681  62
  11   1  -1 113.002 162.603  43
  11   1  -1-138.792 119.972  37
 -11  -1   0 260.865 105.586  62
  11   1   0 39.8796 181.765  43
 -11  -1  -1 37.5868 100.025  62
  11   1   1-61.0439 184.848  43
 -11  -1  -2 518.694 105.818  62
  11   1   2 412.929 181.951  43
 -11  -1  -2 307.422 94.3461  39
  11   1   3 333.361 157.249  43
 -11  -1  -3 550.907 94.0170  39
 -11  -2   2-87.6858 85.6317  62
  11   2  -2 79.4144 130.830  43
 -11  -2   1 168.871 96.7449  62
  11   2  -1 41.6304 154.270  43
 -11  -2   0 505.180 111.928  62
  11   2   0 413.980 170.769  43
 -11  -2  -1 34.8757 100.584  62
  11   2   1 129.384 157.503  43
 -11  -2  -2 88.6906 96.7356  62
  11   2   2 73.8850 150.963  43
 -11  -2  -3 118.342 92.0890  62
 -11  -3   1 1.75012 85.8115  62
  11   3  -1 0.30658 124.071  43
 -11  -3   0 405.541 102.324  62
  11   3   0 349.675 134.783  43
 -11  -3  -1-11.9419 99.2167  62
  11   3   1-59.6697 130.340  43
 -11  -3  -2 757.669 112.655  62
;
_shelx_hkl_checksum              15217
loop_
_space_group_symop_operation_xyz
'x, y, z'
'-x, -y, -z'
loop_
_atom_site_label
_atom_site_type_symbol
_atom_site_fract_x
_atom_site_fract_y
_atom_site_fract_z
_atom_site_U_iso_or_equiv
_atom_site_adp_type
_atom_site_occupancy
_atom_site_site_symmetry_order
_atom_site_calc_flag
_atom_site_refinement_flags_posn
_atom_site_refinement_flags_adp
C1 C 0.3117(3) 0.33706(17) 0.78186(12) 0.0303(4) Uani 1 1 d . .
C2 C 0.4560(3) 0.42929(17) 0.83743(13) 0.0309(4) Uani 1 1 d . .
H2 H 0.4178 0.5194 0.8176 0.037 Uiso 1 1 calc R U
C3 C 0.6551(3) 0.38934(17) 0.92160(13) 0.0305(4) Uani 1 1 d . .
H3 H 0.7547 0.4514 0.9571 0.037 Uiso 1 1 calc R U
C4 C 0.7029(3) 0.25543(16) 0.95170(12) 0.0297(4) Uani 1 1 d . .
C5 C 0.5653(4) 0.16024(17) 0.89776(13) 0.0337(4) Uani 1 1 d . .
H5 H 0.6036 0.0704 0.9186 0.040 Uiso 1 1 calc R U
C6 C 0.3702(4) 0.20168(18) 0.81256(14) 0.0350(4) Uani 1 1 d . .
H6 H 0.2770 0.1392 0.7753 0.042 Uiso 1 1 calc R U
C7 C 0.0997(3) 0.38554(18) 0.69491(13) 0.0330(4) Uani 1 1 d . .
H7 H 0.0509 0.4759 0.6842 0.040 Uiso 1 1 calc R U
C8 C -0.3363(3) 0.28900(18) 0.48065(13) 0.0334(4) Uani 1 1 d . .
C9 C -0.2418(5) 0.1595(2) 0.47124(19) 0.0686(8) Uani 1 1 d . .
H9 H -0.1042 0.1174 0.5209 0.082 Uiso 1 1 calc R U
C10 C -0.3543(5) 0.0938(3) 0.38724(19) 0.0650(7) Uani 1 1 d . .
H10 H -0.2912 0.0068 0.3791 0.078 Uiso 1 1 calc R U
C11 C -0.5600(4) 0.15649(19) 0.31525(15) 0.0412(4) Uani 1 1 d . .
H11 H -0.6372 0.1146 0.2570 0.049 Uiso 1 1 calc R U
C12 C -0.6453(4) 0.28287(18) 0.33319(16) 0.0461(5) Uani 1 1 d . .
H12 H -0.7884 0.3253 0.2861 0.055 Uiso 1 1 calc R U
N1 N -0.0207(3) 0.30731(15) 0.63312(11) 0.0356(4) Uani 1 1 d . .
N2 N -0.2221(3) 0.36403(16) 0.55853(11) 0.0357(3) Uani 1 1 d . .
N3 N -0.5396(3) 0.35149(14) 0.41360(12) 0.0408(4) Uani 1 1 d . .
N4 N 0.8998(3) 0.21333(14) 1.04559(11) 0.0335(3) Uani 1 1 d . .
O1 O 1.0456(3) 0.29754(13) 1.08326(10) 0.0447(3) Uani 1 1 d . .
O2 O 0.9101(3) 0.09649(12) 1.08339(10) 0.0454(3) Uani 1 1 d . .
H2A H -0.288(4) 0.451(2) 0.5616(16) 0.044(6) Uiso 1 1 d . .
loop_
_atom_site_aniso_label
_atom_site_aniso_U_11
_atom_site_aniso_U_22
_atom_site_aniso_U_33
_atom_site_aniso_U_23
_atom_site_aniso_U_13
_atom_site_aniso_U_12
C1 0.0230(8) 0.0454(10) 0.0224(7) -0.0042(7) 0.0001(6) 0.0023(7)
C2 0.0257(8) 0.0373(9) 0.0289(8) 0.0002(7) 0.0012(6) 0.0001(7)
C3 0.0265(8) 0.0398(9) 0.0257(8) -0.0044(7) -0.0015(6) -0.0041(7)
C4 0.0239(8) 0.0411(9) 0.0239(8) -0.0036(7) -0.0033(6) 0.0011(7)
C5 0.0321(9) 0.0361(9) 0.0333(9) -0.0072(7) -0.0042(7) 0.0050(7)
C6 0.0319(9) 0.0442(10) 0.0302(8) -0.0117(7) -0.0068(7) 0.0024(7)
C7 0.0246(8) 0.0475(10) 0.0264(8) -0.0017(7) -0.0012(6) 0.0004(7)
C8 0.0243(8) 0.0508(11) 0.0248(8) -0.0012(7) -0.0015(6) -0.0023(7)
C9 0.0640(14) 0.0866(17) 0.0579(13) -0.0381(12) -0.0367(11) 0.0479(13)
C10 0.0615(14) 0.0788(16) 0.0584(13) -0.0397(12) -0.0277(11) 0.0351(12)
C11 0.0385(10) 0.0551(12) 0.0309(9) -0.0049(8) -0.0069(7) -0.0087(8)
C12 0.0530(12) 0.0397(10) 0.0441(10) 0.0110(8) -0.0260(9) -0.0135(9)
N1 0.0262(7) 0.0555(9) 0.0247(7) -0.0054(6) -0.0052(5) 0.0070(6)
N2 0.0288(7) 0.0496(9) 0.0282(7) -0.0027(6) -0.0090(6) 0.0031(7)
N3 0.0451(9) 0.0372(8) 0.0386(8) 0.0101(6) -0.0189(7) -0.0136(7)
N4 0.0312(7) 0.0415(8) 0.0279(7) -0.0057(6) -0.0047(6) 0.0024(6)
O1 0.0439(7) 0.0515(8) 0.0394(7) -0.0027(6) -0.0181(6) -0.0083(6)
O2 0.0541(8) 0.0407(7) 0.0407(7) -0.0028(6) -0.0160(6) 0.0081(6)
loop_
_atom_type_symbol
_atom_type_description
_atom_type_scat_dispersion_real
_atom_type_scat_dispersion_imag
_atom_type_scat_source
C C 0.0181 0.0091 'International Tables Vol C Tables 4.2.6.8 and 6.1.1.4'
H H 0.0000 0.0000 'International Tables Vol C Tables 4.2.6.8 and 6.1.1.4'
N N 0.0311 0.0180 'International Tables Vol C Tables 4.2.6.8 and 6.1.1.4'
O O 0.0492 0.0322 'International Tables Vol C Tables 4.2.6.8 and 6.1.1.4'
loop_
_geom_angle_atom_site_label_1
_geom_angle_atom_site_label_2
_geom_angle_atom_site_label_3
_geom_angle
C2 C1 C6 119.00(14)
C2 C1 C7 118.54(15)
C6 C1 C7 122.46(15)
C3 C2 C1 121.12(15)
C3 C2 H2 119.4
C1 C2 H2 119.4
C4 C3 C2 118.50(15)
C4 C3 H3 120.7
C2 C3 H3 120.7
C3 C4 C5 122.15(15)
C3 C4 N4 118.48(14)
C5 C4 N4 119.35(14)
C6 C5 C4 118.66(16)
C6 C5 H5 120.7
C4 C5 H5 120.7
C5 C6 C1 120.54(15)
C5 C6 H6 119.7
C1 C6 H6 119.7
N1 C7 C1 121.94(16)
N1 C7 H7 119.0
C1 C7 H7 119.0
N3 C8 N2 115.14(16)
N3 C8 C9 122.46(16)
N2 C8 C9 122.38(15)
C10 C9 C8 118.88(18)
C10 C9 H9 120.6
C8 C9 H9 120.6
C11 C10 C9 120.0(2)
C11 C10 H10 120.0
C9 C10 H10 120.0
C12 C11 C10 116.77(17)
C12 C11 H11 121.6
C10 C11 H11 121.6
N3 C12 C11 125.28(17)
N3 C12 H12 117.4
C11 C12 H12 117.4
C7 N1 N2 116.16(15)
N1 N2 C8 119.34(16)
N1 N2 H2A 120.5(13)
C8 N2 H2A 120.1(13)
C8 N3 C12 116.54(16)
O2 N4 O1 123.12(14)
O2 N4 C4 118.69(13)
O1 N4 C4 118.18(14)
loop_
_geom_bond_atom_site_label_1
_geom_bond_atom_site_label_2
_geom_bond_distance
C1 C2 1.391(2)
C1 C6 1.400(2)
C1 C7 1.462(2)
C2 C3 1.382(2)
C2 H2 0.9300
C3 C4 1.378(2)
C3 H3 0.9300
C4 C5 1.388(2)
C4 N4 1.464(2)
C5 C6 1.382(2)
C5 H5 0.9300
C6 H6 0.9300
C7 N1 1.280(2)
C7 H7 0.9300
C8 N3 1.330(2)
C8 N2 1.378(2)
C8 C9 1.380(3)
C9 C10 1.373(3)
C9 H9 0.9300
C10 C11 1.373(3)
C10 H10 0.9300
C11 C12 1.360(3)
C11 H11 0.9300
C12 N3 1.345(2)
C12 H12 0.9300
N1 N2 1.3574(19)
N2 H2A 0.92(2)
N4 O2 1.2243(18)
N4 O1 1.2278(17)
loop_
_geom_torsion_atom_site_label_1
_geom_torsion_atom_site_label_2
_geom_torsion_atom_site_label_3
_geom_torsion_atom_site_label_4
_geom_torsion
C6 C1 C2 C3 0.2(2)
C7 C1 C2 C3 178.94(14)
C1 C2 C3 C4 -1.6(2)
C2 C3 C4 C5 2.2(2)
C2 C3 C4 N4 -176.21(13)
C3 C4 C5 C6 -1.2(2)
N4 C4 C5 C6 177.19(14)
C4 C5 C6 C1 -0.4(2)
C2 C1 C6 C5 0.9(2)
C7 C1 C6 C5 -177.87(15)
C2 C1 C7 N1 173.32(15)
C6 C1 C7 N1 -7.9(2)
N3 C8 C9 C10 2.2(3)
N2 C8 C9 C10 -176.3(2)
C8 C9 C10 C11 -0.8(4)
C9 C10 C11 C12 -1.0(4)
C10 C11 C12 N3 1.7(3)
C1 C7 N1 N2 177.52(14)
C7 N1 N2 C8 172.71(14)
N3 C8 N2 N1 177.77(14)
C9 C8 N2 N1 -3.7(3)
N2 C8 N3 C12 176.97(15)
C9 C8 N3 C12 -1.6(3)
C11 C12 N3 C8 -0.4(3)
C3 C4 N4 O2 169.40(15)
C5 C4 N4 O2 -9.0(2)
C3 C4 N4 O1 -10.1(2)
C5 C4 N4 O1 171.49(15)
