#------------------------------------------------------------------------------
#$Date: 2019-11-23 02:11:13 +0200 (Sat, 23 Nov 2019) $
#$Revision: 231845 $
#$URL: file:///home/coder/svn-repositories/cod/cif/4/34/65/4346565.cif $
#------------------------------------------------------------------------------
#
# This file is available in the Crystallography Open Database (COD),
# http://www.crystallography.net/
#
# All data on this site have been placed in the public domain by the
# contributors.
#
data_4346565
loop_
_publ_author_name
'North, Andrea J.'
'Hayne, David J.'
'Schieber, Christine'
'Price, Katherine'
'White, Anthony R.'
'Crouch, Peter J.'
'Rigopoulos, Angela'
'O'Keefe, Graeme J'
'Tochon-Danguy, Henri'
'Scott, Andrew M.'
'White, Jonathan M.'
'Ackermann, Uwe'
'Donnelly, Paul S.'
_publ_section_title
;
 Toward hypoxia-selective rhenium and technetium tricarbonyl complexes.
;
_journal_issue                   19
_journal_name_full               'Inorganic chemistry'
_journal_page_first              9594
_journal_page_last               9610
_journal_paper_doi               10.1021/acs.inorgchem.5b01691
_journal_volume                  54
_journal_year                    2015
_chemical_formula_sum            'C15 H11 Br N3 O3 Re'
_chemical_formula_weight         547.38
_space_group_crystal_system      triclinic
_space_group_IT_number           2
_space_group_name_Hall           '-P 1'
_space_group_name_H-M_alt        'P -1'
_atom_sites_solution_hydrogens   geom
_audit_creation_method           SHELXL-2014
_cell_angle_alpha                78.333(2)
_cell_angle_beta                 80.900(2)
_cell_angle_gamma                81.019(2)
_cell_formula_units_Z            2
_cell_length_a                   6.6211(8)
_cell_length_b                   9.0414(11)
_cell_length_c                   13.7120(16)
_cell_measurement_reflns_used    3145
_cell_measurement_temperature    130.0(2)
_cell_measurement_theta_max      27.50
_cell_measurement_theta_min      2.54
_cell_volume                     787.21(16)
_computing_cell_refinement       'Bruker SMART'
_computing_data_collection       'Bruker SMART'
_computing_data_reduction        'Bruker SAINT'
_computing_structure_refinement  'SHELXL-2014 (Sheldrick, 2014)'
_diffrn_ambient_temperature      130.0(2)
_diffrn_measured_fraction_theta_full 0.960
_diffrn_measured_fraction_theta_max 0.984
_diffrn_measurement_device_type  'APEX2 CCD area detector'
_diffrn_measurement_method       'phi and omega scans'
_diffrn_radiation_type           MoK\a
_diffrn_radiation_wavelength     0.71073
_diffrn_reflns_av_R_equivalents  0.0327
_diffrn_reflns_av_unetI/netI     0.0570
_diffrn_reflns_Laue_measured_fraction_full 0.960
_diffrn_reflns_Laue_measured_fraction_max 0.984
_diffrn_reflns_limit_h_max       7
_diffrn_reflns_limit_h_min       -7
_diffrn_reflns_limit_k_max       10
_diffrn_reflns_limit_k_min       -10
_diffrn_reflns_limit_l_max       11
_diffrn_reflns_limit_l_min       -16
_diffrn_reflns_number            4088
_diffrn_reflns_point_group_measured_fraction_full 0.960
_diffrn_reflns_point_group_measured_fraction_max 0.984
_diffrn_reflns_theta_full        25.242
_diffrn_reflns_theta_max         24.999
_diffrn_reflns_theta_min         1.530
_exptl_absorpt_coefficient_mu    10.273
_exptl_absorpt_correction_T_max  1.00
_exptl_absorpt_correction_T_min  0.32
_exptl_absorpt_correction_type   multi-scan
_exptl_absorpt_process_details   SADABS
_exptl_crystal_colour            yellow
_exptl_crystal_density_diffrn    2.309
_exptl_crystal_description       slab
_exptl_crystal_F_000             512
_exptl_crystal_size_max          0.40
_exptl_crystal_size_mid          0.40
_exptl_crystal_size_min          0.15
_refine_diff_density_max         3.469
_refine_diff_density_min         -2.567
_refine_diff_density_rms         0.280
_refine_ls_extinction_method     none
_refine_ls_goodness_of_fit_ref   1.049
_refine_ls_hydrogen_treatment    constr
_refine_ls_matrix_type           full
_refine_ls_number_parameters     208
_refine_ls_number_reflns         2731
_refine_ls_number_restraints     0
_refine_ls_restrained_S_all      1.049
_refine_ls_R_factor_all          0.0491
_refine_ls_R_factor_gt           0.0468
_refine_ls_shift/su_max          0.001
_refine_ls_shift/su_mean         0.000
_refine_ls_structure_factor_coef Fsqd
_refine_ls_weighting_details
'w=1/[\s^2^(Fo^2^)+(0.0853P)^2^] where P=(Fo^2^+2Fc^2^)/3'
_refine_ls_weighting_scheme      calc
_refine_ls_wR_factor_gt          0.1210
_refine_ls_wR_factor_ref         0.1226
_reflns_Friedel_coverage         0.000
_reflns_number_gt                2517
_reflns_number_total             2731
_reflns_threshold_expression     'I > 2\s(I)'
_cod_data_source_file            ic5b01691_si_011.cif
_cod_data_source_block           shelx
_cod_database_code               4346565
_shelx_space_group_comment
;
The symmetry employed for this shelxl refinement is uniquely defined
by the following loop, which should always be used as a source of
symmetry information in preference to the above space-group names.
They are only intended as comments.
;
_shelxl_version_number           2014-1
_shelx_res_file
;
TITL jmwpd73 in P-1
CELL  0.71073   6.6211   9.0414  13.7120   78.333   80.900   81.019
ZERR     2.00   0.0008   0.0011   0.0016    0.002    0.002    0.002
LATT   1
SFAC  C    H    N    O    BR   RE
UNIT  30   22   6    6    2    2
MERG   2
OMIT     0.00  50.00
FMAP   2
PLAN   20
ACTA
BOND
BOND   $H
CONF
L.S.  12
TEMP  -143.00
WGHT    0.085300
FVAR       0.38470
C12   1    0.806117    0.665179    0.505073    11.00000    0.02440    0.02762 =
         0.02960   -0.00718    0.00250   -0.00723
AFIX  43
H12   2    0.694164    0.609386    0.508452    11.00000   -1.20000
AFIX   0
C11   1    0.928362    0.694155    0.415556    11.00000    0.03849    0.02460 =
         0.02491   -0.00555   -0.00048   -0.00678
AFIX  43
H11   2    0.898988    0.661894    0.358109    11.00000   -1.20000
AFIX   0
C10   1    1.096539    0.771509    0.409412    11.00000    0.03174    0.02922 =
         0.02590   -0.00194    0.00611   -0.00344
AFIX  43
H10   2    1.186439    0.790478    0.348268    11.00000   -1.20000
AFIX   0
C9    1    1.130351    0.819701    0.492559    11.00000    0.02564    0.02816 =
         0.02479   -0.00095    0.00271   -0.00712
AFIX  43
H9    2    1.243970    0.873503    0.489941    11.00000   -1.20000
AFIX   0
C8    1    0.996828    0.789502    0.581772    11.00000    0.02420    0.02465 =
         0.02796   -0.01024    0.00503   -0.00752
C7    1    0.933298    0.867353    0.823972    11.00000    0.02619    0.02819 =
         0.02156   -0.00618    0.00102   -0.00327
AFIX  43
H7    2    1.025901    0.941718    0.806513    11.00000   -1.20000
AFIX   0
C1    1    0.842074    0.832146    0.930268    11.00000    0.01781    0.03123 =
         0.02162   -0.00693   -0.00063   -0.00866
C6    1    0.779434    0.955079    0.982016    11.00000    0.02897    0.02607 =
         0.03039   -0.00305   -0.00415   -0.00804
AFIX  43
H6    2    0.793572    1.056544    0.948748    11.00000   -1.20000
AFIX   0
C5    1    0.698211    0.925356    1.080716    11.00000    0.03562    0.03258 =
         0.02750   -0.01208   -0.00421   -0.00298
AFIX  43
H5    2    0.649018    1.007696    1.115241    11.00000   -1.20000
AFIX   0
C4    1    0.685955    0.776638    1.131909    11.00000    0.03686    0.04078 =
         0.02112   -0.00905    0.00197   -0.01390
AFIX  43
H4    2    0.632574    0.757524    1.201138    11.00000   -1.20000
AFIX   0
C3    1    0.751529    0.658796    1.081431    11.00000    0.04530    0.02968 =
         0.02497   -0.00030   -0.00307   -0.00970
AFIX  43
H3    2    0.744661    0.556989    1.115829    11.00000   -1.20000
AFIX   0
C2    1    0.829263    0.687170    0.978731    11.00000    0.03318    0.03031 =
         0.02491   -0.00411   -0.00618   -0.00845
AFIX  43
H2    2    0.872565    0.604921    0.943562    11.00000   -1.20000
AFIX   0
C14   1    0.447732    0.589351    0.692103    11.00000    0.03105    0.02899 =
         0.00985   -0.00352    0.00250   -0.00945
C15   1    0.778027    0.480879    0.782663    11.00000    0.02957    0.02672 =
         0.02801   -0.01299   -0.00320   -0.00635
C13   1    0.477349    0.684902    0.861797    11.00000    0.01649    0.02429 =
         0.03646   -0.01179    0.00171   -0.00802
N3    3    0.833898    0.710729    0.589413    11.00000    0.02595    0.02515 =
         0.01982   -0.00356    0.00008   -0.00358
N2    3    1.022853    0.840763    0.662708    11.00000    0.02626    0.03684 =
         0.02375   -0.00680    0.00941   -0.01788
AFIX  43
H2A   2    1.120925    0.897940    0.658808    11.00000   -1.20000
AFIX   0
N1    3    0.896925    0.805216    0.753728    11.00000    0.02707    0.02669 =
         0.01509   -0.00655    0.00116   -0.00598
O2    4    0.330201    0.529988    0.666071    11.00000    0.03847    0.03756 =
         0.03517   -0.00336   -0.01065   -0.01753
O3    4    0.837261    0.361309    0.813676    11.00000    0.04425    0.03059 =
         0.03264   -0.01056   -0.00245    0.00586
O1    4    0.367950    0.685085    0.936181    11.00000    0.03768    0.04160 =
         0.02321   -0.01128    0.01108   -0.01066
BR1   5    0.475221    0.961626    0.666419    11.00000    0.02230    0.02545 =
         0.02346   -0.00436    0.00285   -0.00707
RE1   6    0.647034    0.684100    0.733756    11.00000    0.02167    0.02316 =
         0.01813   -0.00433    0.00315   -0.00789
HKLF    4

REM  jmwpd73 in P-1
REM R1 =  0.0468 for    2517 Fo > 4sig(Fo)  and  0.0491 for all    2731 data
REM    208 parameters refined using      0 restraints

END

WGHT      0.0855      0.0000

REM Highest difference peak  3.469,  deepest hole -2.567,  1-sigma level  0.280
Q1    1   0.7124  0.5939  0.7227  11.00000  0.05    3.47
Q2    1   0.7203  0.7028  0.7804  11.00000  0.05    3.21
Q3    1   0.5740  0.6720  0.6846  11.00000  0.05    3.20
Q4    1   0.5905  0.7848  0.7436  11.00000  0.05    2.94
Q5    1   0.6073  0.6078  0.6991  11.00000  0.05    2.73
Q6    1   0.6750  0.7724  0.7621  11.00000  0.05    2.49
Q7    1   0.5712  0.6332  0.7938  11.00000  0.05    2.28
Q8    1   0.4977  0.7386  0.7952  11.00000  0.05    2.20
Q9    1   0.7176  0.7247  0.6759  11.00000  0.05    2.13
Q10   1   0.7886  0.6209  0.6799  11.00000  0.05    2.10
Q11   1   0.3949  0.9497  0.6248  11.00000  0.05    1.28
Q12   1   0.5430  0.9905  0.7120  11.00000  0.05    1.24
Q13   1   0.5370  0.8687  0.6580  11.00000  0.05    1.20
Q14   1   0.4233  1.0631  0.6774  11.00000  0.05    1.15
Q15   1   0.5596  0.9237  0.7161  11.00000  0.05    1.12
Q16   1   0.6313  0.9110  0.5951  11.00000  0.05    1.03
Q17   1   0.5439  1.0092  0.6046  11.00000  0.05    0.95
Q18   1   0.7859  0.7983  0.8193  11.00000  0.05    0.76
Q19   1   0.8500  0.8749  0.7759  11.00000  0.05    0.70
Q20   1   0.3981  0.9067  0.7381  11.00000  0.05    0.69
;
_shelx_res_checksum              36997
_shelx_hkl_file
;
  -2   0   0    5.30    2.38   1
  -3   0   0  290.21   17.24   1
  -4   0   0  435.42   25.04   1
   5   0   0   36.88    4.77   2
   6   0   0  703.87   41.44   2
   7   0   0  510.11   31.76   2
   8  -1   0   89.86   12.48   3
   6  -1   0  195.17   14.17   2
   5  -1   0 1425.08   79.09   2
   4  -1   0 1948.43  106.33   2
   3  -1   0  403.57   21.44   2
  -3   1   0  318.12   20.40   1
  -2   1   0    8.18    3.06   1
   2  -1   0    8.69    1.49   2
  -1   1   0 3191.51  145.23   1
   1  -1   0 3225.37  172.09   2
   0  -1   0   29.35    2.41   2
   0   1   0   31.82    2.23   1
   0  -1   0   31.77    2.47   3
   1   1   0 2693.45   75.24   4
   1   1   0 2703.34  122.48   1
   2   1   0 3841.34  107.13   4
   2   1   0 3827.75  174.37   1
   3   1   0 1139.73   33.83   4
   3   1   0 1147.81   55.08   1
   4   1   0   32.30    5.16   1
   4   1   0   31.98    3.13   4
   5   1   0  338.08   12.60   4
   5   1   0  323.33   20.28   1
   6   1   0  397.66   24.41   1
   6   1   0  408.59   15.13   4
   7   1   0    6.67    3.51   2
   8   1   0  119.69   11.10   2
   8  -2   0   57.13   11.55   3
   7  -2   0   13.32    6.22   3
   5  -2   0   52.43    5.78   2
   4  -2   0  614.55   35.51   2
  -3   2   0 1546.94   74.55   1
   1  -2   0 1722.22   94.31   2
   0  -2   0 1576.88   89.91   3
   0   2   0 1631.36   73.43   1
   0  -2   0 1593.97   86.89   2
   1   2   0  154.86    9.14   1
   2   2   0  104.80    7.62   1
   3   2   0  599.75   31.25   1
   3   2   0  605.75   19.23   4
   4   2   0 2182.91   63.40   4
   4   2   0 2181.48  103.20   1
   5   2   0  687.56   36.50   1
   5   2   0  654.06   22.24   4
   6   2   0    2.71    2.45   4
   6   2   0   -2.57    3.33   1
   8   2   0  281.42   20.47   2
   7  -3   0  616.01   45.23   3
   6  -3   0  343.75   29.01   3
   5  -3   0   15.79    6.65   3
   4  -3   0  200.74   13.81   2
   4  -3   0  193.50   18.73   3
   3  -3   0   30.52    4.11   2
   3  -3   0   16.93    5.55   3
  -3   3   0   19.18    5.15   1
  -2   3   0  125.15    8.44   1
   2  -3   0   94.75   10.95   3
   2  -3   0  121.54    9.41   2
   1  -3   0 4291.20  241.74   3
   1  -3   0 4323.93  233.54   2
   0  -3   0 4157.00  240.36   3
   0   3   0 4418.49  195.89   1
   0  -3   0 4375.51  232.25   2
   1   3   0 1360.99   60.99   1
  -1  -3   0 1212.65   70.53   2
   2   3   0  485.48   25.67   1
   3   3   0  697.43   36.24   1
   4   3   0  482.17   27.51   1
   5   3   0   42.22    7.12   1
   6   3   0  470.03   29.02   1
   7   3   0  280.59   21.02   1
   7  -4   0    4.15    5.16   3
   6  -4   0  390.25   32.52   3
   5  -4   0 1070.73   70.50   3
   4  -4   0  699.63   48.88   3
   3  -4   0   13.41    3.77   2
  -3   4   0    7.95    4.14   1
   3  -4   0    3.73    3.75   3
   2  -4   0  361.36   25.00   2
  -2   4   0  371.91   20.39   1
   1  -4   0  815.18   47.02   2
   1  -4   0  770.97   48.71   3
  -1   4   0  783.82   38.78   1
   0   4   0   33.38    4.37   1
   0  -4   0   28.20    4.11   2
   0  -4   0   20.53    3.98   3
  -1  -4   0 2729.35  150.97   2
  -1  -4   0 2740.72  156.20   3
   1   4   0 2879.60  128.86   1
   2   4   0 1343.94   65.21   1
   3   4   0  125.98   10.49   1
   4   4   0  212.33   15.68   1
   5   4   0  732.60   40.95   1
   6   4   0  472.60   30.07   1
   7   4   0    7.61    4.50   1
   7  -5   0   79.89   14.86   3
   6  -5   0  153.99   18.50   3
   5  -5   0    8.15    5.92   3
   4  -5   0  427.56   34.50   3
   3  -5   0 1376.44   86.51   3
   2  -5   0 1011.45   69.27   3
  -2   5   0 1087.03   54.46   1
   2  -5   0 1241.15   67.39   2
   1  -5   0    0.84    2.49   3
   1  -5   0    5.31    3.22   2
  -1   5   0    3.86    2.85   1
   0   5   0  977.35   48.18   1
   0  -5   0  948.32   58.11   3
   0  -5   0  978.02   55.59   2
  -1  -5   0 1309.55   75.29   2
  -1  -5   0 1367.80   78.29   3
   1   5   0 1361.65   65.48   1
   2   5   0    2.22    3.01   1
   3   5   0  355.61   22.33   1
   4   5   0  737.70   41.02   1
   5   5   0  128.31   13.38   1
   6   5   0  177.30   16.53   1
   7   5   0  674.66   41.32   1
   8   5   0  355.51   26.73   1
   6  -6   0  105.92   15.68   3
   5  -6   0  113.26   16.17   3
   4  -6   0  248.57   24.93   3
   3  -6   0    7.86    5.86   3
   2  -6   0   53.91   10.41   3
  -2   6   0   47.85    7.11   1
   1  -6   0  684.46   48.87   3
   1  -6   0  824.91   46.85   2
  -1   6   0  761.30   39.34   1
   0  -6   0 1440.98   80.52   2
   0  -6   0 1411.00   84.43   3
   0   6   0 1403.25   69.33   1
  -1  -6   0   19.60    4.82   3
   1   6   0   18.07    4.91   1
  -1  -6   0   13.43    4.04   2
   2   6   0  465.49   27.51   1
   3   6   0 1109.41   57.74   1
   4   6   0  363.83   24.85   1
   5   6   0   37.88    8.75   1
   6   6   0  288.43   22.99   1
   7   6   0   59.59   10.91   1
   5  -7   0  440.34   38.14   3
   4  -7   0   42.51   11.85   3
   3  -7   0   62.47   13.15   3
   2  -7   0  199.52   20.65   3
  -1   7   0  266.19   17.96   1
   1  -7   0  247.11   22.14   3
   0  -7   0    8.32    4.61   3
   0   7   0   11.37    5.01   1
   0  -7   0   11.76    4.59   2
  -1  -7   0  602.52   40.04   3
  -1  -7   0  622.13   37.90   2
   1   7   0  590.74   34.18   1
   2   7   0  330.30   22.40   1
   3   7   0    5.20    4.86   1
   4   7   0  482.62   31.33   1
   5   7   0  852.83   49.74   1
   6   7   0  260.08   22.06   1
   7   7   0    1.94    5.14   1
   5  -8   0   11.79    8.94   3
   4  -8   0  261.20   27.73   3
   3  -8   0  363.41   33.18   3
   2  -8   0  106.16   15.20   3
   1  -8   0  151.27   17.58   3
  -1   8   0  168.67   14.46   1
   0   8   0  932.48   51.51   1
   0  -8   0 1040.71   64.36   3
  -1  -8   0  445.16   29.90   2
  -1  -8   0  460.66   32.74   3
   1   8   0  411.97   27.50   1
   2   8   0   43.21    8.95   1
   3   8   0  156.53   15.59   1
   4   8   0  202.25   18.68   1
   5   8   0   21.65    7.38   1
   6   8   0  380.56   29.40   1
   4  -9   0  214.28   25.82   3
   3  -9   0   33.63   11.16   3
   2  -9   0   86.11   15.78   3
   1  -9   0  362.71   31.41   3
   0   9   0   53.71    9.23   1
   0  -9   0   53.00   11.23   3
  -1  -9   0  182.85   19.56   3
   1   9   0  219.17   18.23   1
   2   9   0  550.42   34.67   1
   3   9   0  628.25   39.10   1
   4   9   0   42.75   10.25   1
   5   9   0   99.65   15.51   1
   3 -10   0  185.63   24.21   3
   2 -10   0  270.50   28.21   3
   1 -10   0  133.42   18.30   3
   0 -10   0   25.30    9.72   3
   1  10   0  201.73   18.28   1
   2  10   0   47.78   10.20   1
   3  10   0  117.36   15.29   1
   4  10   0  624.10   41.32   1
   1 -11   0  267.38   29.02   3
   0 -11   0  511.44   42.26   3
   1  11   0  189.07   17.87   1
   2  11   0    2.36    6.72   1
   3  11   0  156.70   18.44   1
   3  11  -1    5.98    8.43   1
   2  11  -1  322.49   26.23   1
   1  11  -1  252.91   21.46   1
   0 -11   1   84.19   16.56   3
   1 -11   1   14.61   10.16   3
   4  10  -1    3.01    6.86   1
   3  10  -1  116.33   15.29   1
   2  10  -1   74.98   12.36   1
   1  10  -1   36.18    8.96   1
   0  10  -1  293.93   23.26   1
   0 -10   1  331.07   29.67   3
   1 -10   1  551.05   44.61   3
   2 -10   1  177.63   22.62   3
   3 -10   1    2.41    7.30   3
   5   9  -1  227.72   21.22   1
   4   9  -1  551.09   36.86   1
   3   9  -1  250.48   21.50   1
   2   9  -1   16.01    7.07   1
   1   9  -1   59.92   10.11   1
   0   9  -1  134.15   13.74   1
   0  -9   1  131.37   16.24   3
   1  -9   1   15.44    6.53   3
   2  -9   1  314.96   30.05   3
   3  -9   1  394.49   36.13   3
   4  -9   1  165.18   23.17   3
   6   8  -1  113.98   15.63   1
   5   8  -1  224.65   20.32   1
   4   8  -1    2.73    5.90   1
   3   8  -1  406.20   27.86   1
   2   8  -1  997.70   54.48   1
   1   8  -1  532.75   32.72   1
   0   8  -1   93.57   11.21   1
   0  -8   1  104.63   13.33   3
   1  -8   1  143.91   16.40   3
  -1   8  -1  122.00   13.26   1
   2  -8   1   97.73   14.28   3
   3  -8   1    7.87    6.51   3
   4  -8   1  165.17   21.31   3
   5  -8   1  358.68   35.14   3
   7   7  -1  405.56   30.31   1
   6   7  -1  811.70   48.93   1
   5   7  -1  211.18   18.98   1
   4   7  -1   31.89    8.12   1
   3   7  -1  320.06   23.09   1
   2   7  -1   45.00    8.14   1
  -1  -7   1  441.19   31.21   3
   1   7  -1  435.86   27.20   1
   0  -7   1 1404.09   83.86   3
   0   7  -1 1349.86   68.44   1
   0  -7   1 1358.80   77.66   2
  -1   7  -1  748.97   40.59   1
   1  -7   1  747.23   50.31   3
  -2   7  -1  175.96   15.04   1
   2  -7   1  205.24   20.37   3
   3  -7   1  117.48   15.93   3
   4  -7   1  380.66   34.03   3
   5  -7   1   28.33    9.19   3
   7   6  -1  105.68   13.99   1
   6   6  -1   23.31    7.17   1
   5   6  -1  801.65   46.27   1
   4   6  -1 1389.87   71.67   1
   3   6  -1  760.04   42.09   1
   2   6  -1    7.08    4.11   1
  -1  -6   1  346.78   24.56   3
   1   6  -1  346.79   21.87   1
   0  -6   1  214.13   15.07   2
   0  -6   1  218.44   17.47   3
   0   6  -1  195.81   14.89   1
   1  -6   1  144.54   14.95   3
   1  -6   1  170.98   13.02   2
  -1   6  -1  169.92   13.21   1
  -2   6  -1  866.43   45.92   1
   2  -6   1  906.67   58.66   3
   3  -6   1  705.94   50.15   3
   4  -6   1   80.55   14.34   3
   5  -6   1  205.78   22.66   3
   6  -6   1  341.66   31.79   3
   7   5  -1   29.76    7.80   1
   6   5  -1  162.30   15.40   1
   5   5  -1  137.49   13.97   1
   4   5  -1   58.91    8.78   1
   3   5  -1 1333.58   66.80   1
   2   5  -1 2427.05  114.84   1
  -1  -5   1 1044.37   62.53   3
   1   5  -1 1067.54   52.76   1
   0   5  -1  124.32   10.10   1
   0  -5   1   95.78    8.48   2
   0  -5   1  103.60   10.07   3
  -1   5  -1  738.65   37.98   1
   1  -5   1  705.27   46.60   3
   1  -5   1  764.50   42.94   2
  -2   5  -1  801.81   41.24   1
  -3   5  -1   70.58    8.79   1
   3  -5   1   55.84   10.72   3
   4  -5   1  316.73   28.06   3
   5  -5   1  320.26   28.84   3
   6  -5   1   49.50   11.73   3
   7  -5   1  130.14   17.49   3
   7   4  -1  888.51   49.76   1
   6   4  -1  800.54   44.99   1
   5   4  -1   48.98    8.29   1
   4   4  -1  252.99   17.61   1
   3   4  -1  789.70   41.26   1
   2   4  -1    2.59    2.19   1
   1   4  -1 1717.48   81.25   1
   0  -4   1 1495.23   85.18   2
   0  -4   1 1524.78   89.59   3
   0   4  -1 1655.41   74.15   1
   1  -4   1 1756.51  106.12   3
  -1   4  -1 1810.83   86.15   1
   1  -4   1 1941.94  100.93   2
   2  -4   1  155.63   14.77   3
  -2   4  -1  156.75   11.72   1
   2  -4   1  189.07   13.91   2
   3  -4   1  470.56   34.31   3
  -3   4  -1  476.07   27.05   1
   4  -4   1  461.13   35.19   3
   5  -4   1   45.87   10.68   3
   6  -4   1  105.77   14.97   3
   7  -4   1  180.12   20.05   3
   8   3  -1   55.25    8.22   2
   6   3  -1  283.78   20.04   1
   5   3  -1 2013.17   97.30   1
   4   3  -1 1745.01   84.21   1
   3   3  -1   72.70    7.26   1
   2   3  -1  524.48   27.49   1
   1   3  -1  768.69   37.79   1
   0  -3   1   11.63    2.53   3
   0   3  -1   11.64    2.65   1
   0  -3   1    9.95    1.87   2
  -1   3  -1  478.72   24.15   1
   1  -3   1  454.72   29.52   3
   2  -3   1 1463.63   91.83   3
  -2   3  -1 1670.21   73.92   1
   3  -3   1  194.98   12.34   2
  -3   3  -1  176.94   13.84   1
   3  -3   1  161.17   15.84   3
   4  -3   1   57.16    5.61   2
   4  -3   1   52.64    9.55   3
  -4   3  -1   35.05    8.79   1
   5  -3   1  873.95   58.32   3
   6  -3   1  552.01   41.09   3
   7  -3   1   83.14   13.76   3
   8   2  -1  166.96   14.45   2
   7   2  -1    3.40    3.31   2
   6   2  -1  334.38   21.56   1
   5   2  -1  416.52   24.41   1
   4   2  -1  254.01   16.07   1
   3   2  -1 3579.52  164.34   1
   2   2  -1 1881.78   87.47   1
   1   2  -1   38.85    3.77   1
   0  -2   1  423.35   24.78   2
   0   2  -1  477.64   22.40   1
   0  -2   1  441.72   26.38   3
   1  -2   1 9999.99  549.93   3
   1  -2   1 9852.99  531.79   2
  -2   2  -1  318.46   17.68   1
   3  -2   1    7.40    1.78   2
   3  -2   1    4.13    3.24   3
  -3   2  -1   20.34    5.45   1
  -4   2  -1  472.30   28.88   1
   5  -2   1  222.36   14.65   2
   5  -2   1  218.65   20.18   3
   6  -2   1   94.34   12.74   3
   7  -2   1  432.71   33.97   3
   8  -2   1  303.22   26.97   3
   8   1  -1  194.29   15.78   2
   7   1  -1  634.37   39.01   2
   6   1  -1  425.74   27.25   2
   5   1  -1   48.76    6.20   1
   5   1  -1   37.24    3.56   4
   4   1  -1  924.24   46.22   1
   4   1  -1  946.61   28.45   4
   3   1  -1 1586.55   45.06   4
   3   1  -1 1536.21   73.26   1
   2   1  -1   13.96    2.22   1
   1   1  -1 2510.03  114.05   1
  -1   1  -1    8.23    1.96   1
  -2   1  -1  558.14   28.83   1
  -3   1  -1 2062.56  102.08   1
   3  -1   1 2243.18  116.32   2
  -4   1  -1  788.56   42.70   1
  -5   1  -1   13.99    6.24   1
   5  -1   1   17.70    3.19   2
   6  -1   1  129.48   10.17   2
   7  -1   1   82.41   11.57   3
   8  -1   1    7.91    4.87   3
   7   0  -1    9.45    3.95   2
   6   0  -1  359.95   23.54   2
   5   0  -1 1230.40   59.40   1
   5   0  -1 1240.11   36.54   4
   5   0  -1 1188.98   68.60   2
   4   0  -1  393.25   21.22   1
   4   0  -1  380.21   12.99   4
   4   0  -1  393.66   23.81   2
   3   0  -1  149.35    9.52   1
   3   0  -1  158.48    5.93   4
   2   0  -1 1693.20   78.02   1
   2   0  -1 1705.95   47.95   4
   1   0  -1 2157.23  114.14   2
   1   0  -1 2086.79   96.14   1
   0   0  -1  230.14   12.84   2
   0   0  -1  228.43   10.92   1
  -1   0  -1 2033.47   93.26   1
  -2   0  -1   66.79    7.06   1
  -3   0  -1   26.61    5.54   1
  -4   0  -1  451.90   27.16   1
  -5   0  -1 1564.58   78.66   1
   6   0   1  759.11   45.33   2
  -6   0  -1  814.63   44.73   1
   7   0   1   56.35    6.82   2
   7  -1  -1  114.52   10.58   2
   6  -1  -1  618.38   37.24   2
   5  -1  -1  112.52    9.38   2
  -4   1   1  343.33   19.41   1
   4  -1  -1  343.18   21.27   2
  -3   1   1  900.91   45.61   1
   3  -1  -1 1005.78   53.30   2
  -2   1   1   84.87    6.25   1
   2  -1  -1  102.43    6.82   2
   1  -1  -1  600.04   33.34   2
   0  -1  -1 4222.05  244.65   2
   0   1   1 4883.13  206.26   1
  -1  -1  -1 3268.85  150.14   1
  -1  -1  -1 3342.93  177.24   2
  -2  -1  -1 2413.01  111.78   1
  -3  -1  -1  132.34   11.11   1
  -4  -1  -1  247.39   17.89   1
  -5  -1  -1   53.78    9.01   1
   6   1   1  188.30    9.18   4
   6   1   1  190.06   14.97   1
   7   1   1  655.53   39.38   2
   8  -2  -1  170.59   18.61   3
   6  -2  -1   27.56    4.89   2
   5  -2  -1  365.65   23.19   2
   4  -2  -1 1241.34   69.31   2
   3  -2  -1  763.22   43.33   2
  -2   2   1   32.73    4.11   1
   2  -2  -1   26.67    3.45   2
   1  -2  -1  640.47   36.79   2
   0   2   1  517.03   24.70   1
   0  -2  -1  521.78   30.49   3
   1   2   1   31.64    3.36   1
  -1  -2  -1   30.35    3.57   2
   1   2   1   33.35    2.09   4
   2   2   1 3549.48   99.15   4
   2   2   1 3503.62  161.33   1
   3   2   1 2801.40   80.41   4
   3   2   1 2835.74  130.93   1
   4   2   1  565.03   18.86   4
   4   2   1  548.10   30.53   1
   5   2   1   26.76    3.52   4
   5   2   1   24.59    5.57   1
   6   2   1  138.69   13.03   1
   6   2   1  148.75    8.24   4
   7   2   1   43.93    5.52   4
   7   2   1   47.63    8.88   1
   8   2   1   62.50    7.80   2
   7  -3  -1   13.41    6.12   3
   6  -3  -1  264.02   24.00   3
   5  -3  -1  328.02   22.15   2
   5  -3  -1  356.47   28.39   3
   4  -3  -1    2.33    3.45   3
   4  -3  -1    6.55    2.66   2
   3  -3  -1  637.22   43.84   3
   3  -3  -1  704.78   38.41   2
  -3   3   1  615.41   33.47   1
   2  -3  -1 3909.77  207.04   2
   2  -3  -1 3548.39  217.03   3
  -2   3   1 3999.17  173.65   1
   1  -3  -1 2337.03  126.01   2
   1  -3  -1 2212.75  130.26   3
   0  -3  -1    6.96    2.62   2
   0   3   1    3.85    1.54   1
   0  -3  -1    4.03    1.64   3
  -1  -3  -1  648.51   38.42   3
   1   3   1  670.46   33.01   1
  -1  -3  -1  688.48   38.30   2
   2   3   1  503.07   25.93   1
   2   3   1  473.26   15.82   4
   3   3   1  225.67   14.95   1
   3   3   1  231.04    9.23   4
   4   3   1 1234.35   62.03   1
   4   3   1 1249.57   38.16   4
   5   3   1 1793.57   86.93   1
   5   3   1 1739.81   53.28   4
   6   3   1  355.21   14.83   4
   6   3   1  356.03   24.02   1
   7   3   1   25.34    7.97   1
   7  -4  -1  221.61   22.25   3
   6  -4  -1  414.71   33.61   3
   5  -4  -1  163.78   18.04   3
   4  -4  -1  142.59   15.81   3
   4  -4  -1  127.00   11.24   2
   3  -4  -1  594.89   41.84   3
   3  -4  -1  598.82   36.60   2
   2  -4  -1   31.68    7.09   3
   2  -4  -1    6.45    3.71   2
  -2   4   1    4.73    2.38   1
   1  -4  -1  759.28   50.05   3
   1  -4  -1  824.62   49.37   2
  -1   4   1  842.33   39.22   1
   0   4   1 3719.68  170.37   1
   0  -4  -1 3793.24  203.48   2
   0  -4  -1 3693.92  209.57   3
   1   4   1 3875.23  176.95   1
  -1  -4  -1 3851.42  215.53   3
  -1  -4  -1 3870.70  209.25   2
  -2  -4  -1   77.93    7.45   2
   2   4   1   89.95    8.13   1
   3   4   1   34.09    5.75   1
   4   4   1  494.80   29.06   1
   5   4   1   29.30    7.19   1
   6   4   1  479.79   30.64   1
   7   4   1  700.75   41.65   1
   8   4   1  165.75   16.07   1
   7  -5  -1   67.96   13.70   3
   6  -5  -1   82.69   14.28   3
   5  -5  -1  624.81   46.34   3
   4  -5  -1  975.71   65.59   3
   3  -5  -1  425.70   32.43   3
   3  -5  -1  375.99   27.78   2
  -2   5   1   35.72    5.04   1
   2  -5  -1   34.80    8.17   3
   2  -5  -1   40.79    7.84   2
   1  -5  -1  191.82   16.36   2
  -1   5   1  169.57   11.64   1
   1  -5  -1  170.91   15.48   3
   0  -5  -1   18.77    4.86   2
   0   5   1   13.10    3.62   1
   0  -5  -1   17.07    4.38   3
  -1  -5  -1  672.53   39.42   2
  -1  -5  -1  668.51   39.81   3
   1   5   1  623.42   33.96   1
   2   5   1 2024.54   99.69   1
  -2  -5  -1 2175.46  116.29   2
   3   5   1 1417.29   70.41   1
   4   5   1  183.20   14.98   1
   5   5   1  155.85   14.78   1
   6   5   1  312.59   23.32   1
   7   5   1   40.12    8.90   1
   8   5   1   55.02   10.47   1
   6  -6  -1  147.29   18.40   3
   5  -6  -1   60.60   13.04   3
   4  -6  -1  189.12   20.89   3
   3  -6  -1  946.08   64.10   3
   2  -6  -1 1549.21   95.73   3
   1  -6  -1  718.36   44.33   2
  -1   6   1  634.46   34.87   1
   1  -6  -1  666.51   44.97   3
   0  -6  -1  108.88   11.33   3
   0  -6  -1  126.26   12.31   2
   0   6   1  110.74    9.98   1
  -1  -6  -1  944.94   55.08   3
   1   6   1  862.40   46.17   1
  -1  -6  -1  910.37   53.70   2
  -2  -6  -1   70.96    8.24   2
   2   6   1   65.05    8.32   1
   3   6   1  128.50   12.50   1
   4   6   1  956.94   51.97   1
   5   6   1  654.07   39.50   1
   6   6   1    6.69    5.44   1
   7   6   1  119.89   14.12   1
   5  -7  -1   12.91    7.12   3
   4  -7  -1  149.67   19.30   3
   3  -7  -1  201.00   21.83   3
   2  -7  -1   21.22    8.13   3
   1  -7  -1  920.43   55.75   2
   1  -7  -1  874.23   57.64   3
  -1   7   1  828.04   44.91   1
   0   7   1 1655.77   80.68   1
  -1  -7  -1  521.05   33.36   2
  -1  -7  -1  519.63   34.07   3
   1   7   1  465.54   28.69   1
   2   7   1   53.22    8.29   1
  -2  -7  -1   42.99    7.31   2
   3   7   1  346.66   23.77   1
   4   7   1  269.60   21.10   1
   5   7   1   54.45   10.29   1
   6   7   1  321.95   25.43   1
   7   7   1  207.05   20.26   1
   5  -8  -1  510.63   42.97   3
   4  -8  -1  549.83   44.66   3
   3  -8  -1   56.60   13.37   3
   2  -8  -1  211.78   22.32   3
   1  -8  -1  132.14   15.96   3
   0   8   1   21.97    6.48   1
   0  -8  -1   23.25    7.11   2
   0  -8  -1   19.01    6.80   3
   1   8   1  455.79   27.85   1
  -1  -8  -1  438.80   31.04   2
  -1  -8  -1  432.34   31.86   3
   2   8   1  717.38   40.78   1
   3   8   1  314.08   22.96   1
   4   8   1   61.12   10.95   1
   5   8   1  558.96   36.76   1
   6   8   1  218.21   20.45   1
   4  -9  -1  110.28   19.23   3
   3  -9  -1  507.63   42.65   3
   2  -9  -1  456.43   38.22   3
   1  -9  -1    8.93    6.59   3
   0  -9  -1  208.17   20.80   3
   0   9   1  201.53   16.93   1
  -1  -9  -1  344.01   28.70   3
   1   9   1  352.72   24.66   1
  -1  -9  -1  383.56   28.39   2
   2   9   1   75.18   11.19   1
   3   9   1   28.64    8.41   1
   4   9   1  478.53   32.75   1
   5   9   1   64.90   12.51   1
   6   9   1    7.40    6.21   1
   3 -10  -1   44.20   13.35   3
   2 -10  -1   22.29    9.16   3
   1 -10  -1  353.61   31.92   3
   0 -10  -1  410.39   34.28   3
   1  10   1   12.51    6.74   1
   2  10   1  130.35   15.00   1
   3  10   1  293.02   23.53   1
   4  10   1   97.42   14.42   1
   5  10   1   12.01    8.96   1
   1 -11  -1  129.40   19.89   3
   2  11   1  132.16   15.30   1
   3  11   1   -3.54    6.47   1
   2  11  -2   29.09   10.17   1
   1  11  -2   20.97    9.13   1
   4  10  -2  322.35   27.98   1
   3  10  -2   65.63   13.07   1
   2  10  -2   61.20   11.67   1
   1  10  -2  305.89   23.71   1
   0  10  -2  119.81   14.52   1
   0 -10   2  117.89   17.04   3
   1 -10   2    1.50    5.54   3
   2 -10   2  138.45   20.23   3
   5   9  -2  217.36   20.59   1
   4   9  -2    2.82    6.24   1
   3   9  -2  151.71   16.40   1
   2   9  -2  348.88   26.13   1
   1   9  -2  105.52   13.21   1
   0  -9   2  137.65   16.79   3
   0   9  -2  110.95   13.14   1
   1  -9   2  566.17   43.99   3
  -1   9  -2  569.23   35.34   1
   2  -9   2  263.95   26.84   3
   3  -9   2   22.53    9.42   3
   4  -9   2   52.38   15.06   3
   6   8  -2  254.04   22.56   1
   5   8  -2    8.96    5.36   1
   4   8  -2  315.82   24.37   1
   3   8  -2  595.46   37.31   1
   2   8  -2  157.27   15.57   1
   1   8  -2   59.80    9.71   1
   0  -8   2  196.36   19.48   3
   0   8  -2  200.51   16.83   1
   1  -8   2  101.39   13.95   3
  -1   8  -2  107.84   12.85   1
   2  -8   2   95.15   15.24   3
   3  -8   2  629.85   48.44   3
   4  -8   2  345.73   33.10   3
   5  -8   2   45.38   14.14   3
   6   7  -2   18.85    7.12   1
   5   7  -2  349.66   26.18   1
   4   7  -2  374.90   26.23   1
   3   7  -2    9.80    5.39   1
   2   7  -2  827.19   45.96   1
   1   7  -2  975.46   52.07   1
   0  -7   2  342.47   26.14   3
   0   7  -2  321.97   21.82   1
   1  -7   2    6.66    4.98   3
  -1   7  -2    4.08    4.58   1
   2  -7   2  181.88   18.82   3
  -2   7  -2  181.53   15.40   1
   3  -7   2  160.01   18.84   3
   4  -7   2  243.03   25.29   3
   5  -7   2  375.83   34.36   3
   7   6  -2  145.39   15.28   1
   6   6  -2  539.79   34.88   1
   5   6  -2  390.52   26.82   1
   4   6  -2    4.23    4.62   1
   3   6  -2  413.68   26.33   1
   2   6  -2  433.92   26.60   1
   1   6  -2   46.17    7.41   1
   0   6  -2 1049.71   53.67   1
   0  -6   2 1061.95   64.88   3
   1  -6   2 1311.01   82.28   3
  -1   6  -2 1405.90   67.87   1
  -2   6  -2  972.81   50.68   1
   2  -6   2  987.08   63.38   3
   3  -6   2    6.63    5.19   3
  -3   6  -2    6.44    4.81   1
   4  -6   2   48.70   11.67   3
   5  -6   2   19.51    8.06   3
   6  -6   2   18.40    8.31   3
   7   5  -2  205.43   18.13   1
   6   5  -2   33.84    8.46   1
   5   5  -2  307.44   22.06   1
   4   5  -2 1688.69   83.87   1
   3   5  -2 1385.51   69.20   1
   2   5  -2   88.59    9.31   1
   1   5  -2  124.40   10.92   1
   0  -5   2  143.41   12.40   3
   0   5  -2  131.48   11.02   1
   1  -5   2   37.78    6.74   3
  -1   5  -2   37.89    6.18   1
   1  -5   2   39.00    4.42   2
   2  -5   2  830.33   53.31   3
  -2   5  -2  822.80   42.85   1
   3  -5   2 1277.98   78.84   3
  -3   5  -2 1226.61   62.79   1
   4  -5   2  244.69   23.29   3
   5  -5   2   30.88    9.12   3
   6  -5   2  104.55   15.21   3
   7  -5   2  157.52   19.67   3
   8   4  -2  341.70   25.40   2
   7   4  -2   99.19   11.84   1
   6   4  -2  111.07   12.35   1
   5   4  -2  330.37   22.15   1
   4   4  -2  158.58   12.97   1
   3   4  -2  617.05   33.47   1
   2   4  -2 3545.74  163.97   1
   1   4  -2 1920.89   90.82   1
   0   4  -2  237.25   14.80   1
   0  -4   2  237.96   16.86   3
  -1   4  -2   12.53    3.87   1
   1  -4   2   14.52    4.01   3
   1  -4   2   13.07    2.08   2
   2  -4   2 1990.72  118.11   3
  -2   4  -2 2062.40   95.79   1
  -3   4  -2   22.48    6.00   1
   3  -4   2   31.67    7.33   3
   4  -4   2  311.75   26.07   3
  -4   4  -2  306.52   23.15   1
   5  -4   2  722.81   50.80   3
   6  -4   2  315.63   28.15   3
   7  -4   2   -2.37    3.69   3
   6   3  -2 1199.15   61.58   1
   5   3  -2  703.42   38.23   1
   4   3  -2   23.56    4.80   1
   3   3  -2  454.73   25.15   1
   2   3  -2  198.99   12.76   1
   1   3  -2  263.00   15.29   1
   0   3  -2 2693.35  120.59   1
   0  -3   2 2538.57  146.93   3
   1  -3   2 5415.06  313.67   3
  -1   3  -2 5880.31  255.49   1
   1  -3   2 5587.95  301.07   2
   2  -3   2  995.93   61.99   3
   2  -3   2 1042.07   57.97   2
  -2   3  -2 1062.28   50.50   1
   3  -3   2   74.28    5.98   2
   3  -3   2   66.28    8.68   3
  -3   3  -2   66.59    8.30   1
   4  -3   2  547.51   37.31   3
  -4   3  -2  492.23   31.83   1
   5  -3   2   42.02    9.49   3
   6  -3   2   79.25   13.04   3
   7  -3   2  195.43   20.42   3
   8   2  -2   43.77    7.55   2
   7   2  -2  110.73   11.14   2
   6   2  -2  101.28   10.24   1
   5   2  -2  873.06   44.87   1
   4   2  -2 3234.47  149.77   1
   3   2  -2 1367.63   65.32   1
   2   2  -2   16.50    2.95   1
   1   2  -2   40.05    4.07   1
   0  -2   2  140.68   10.28   3
   0   2  -2  170.53    9.69   1
  -1   2  -2   36.76    4.08   1
   1  -2   2   28.38    3.80   3
  -2   2  -2 3158.81  145.10   1
  -3   2  -2 1186.37   59.08   1
   3  -2   2 1254.18   64.47   2
   3  -2   2 1100.65   70.81   3
   4  -2   2  192.36   17.49   3
  -4   2  -2  204.69   17.90   1
   4  -2   2  216.99   13.04   2
   5  -2   2  119.42   13.24   3
  -5   2  -2   92.98   13.24   1
   6  -2   2  364.97   29.26   3
   7  -2   2  179.39   18.74   3
   8  -2   2    1.93    4.41   3
   8   1  -2  364.53   25.64   2
   7   1  -2    1.08    3.19   2
   6   1  -2   62.46    7.65   2
   5   1  -2  357.01   20.15   1
   5   1  -2  324.35   22.25   2
   4   1  -2    7.51    2.77   1
   3   1  -2 1884.18   87.58   1
   2   1  -2 5023.13  227.26   1
   1   1  -2 1401.54   64.66   1
   0  -1   2    6.05    1.21   3
   0   1  -2    6.02    1.53   1
  -1   1  -2  765.19   36.81   1
   1  -1   2  780.60   44.48   3
  -2   1  -2 1087.30   52.64   1
   3  -1   2  190.70   15.68   3
  -3   1  -2  216.71   16.00   1
   4  -1   2  781.00   51.37   3
  -4   1  -2  847.61   45.28   1
   5  -1   2  503.73   27.36   2
  -5   1  -2  455.18   30.27   1
   5  -1   2  432.14   32.76   3
   6  -1   2  127.20   14.38   3
   7  -1   2   56.96   10.79   3
   8  -1   2  287.59   25.04   3
   8   0  -2   76.21    8.97   2
   7   0  -2  695.41   42.63   2
   6   0  -2  682.02   41.27   2
   5   0  -2  356.21   23.08   2
   4   0  -2  109.23    9.20   2
   4   0  -2  121.09    8.37   1
   3   0  -2  720.97   41.25   2
   3   0  -2  721.32   34.77   1
   2   0  -2   39.12    4.02   2
   2   0  -2   45.41    3.34   1
   1   0  -2 2001.37   87.73   1
   1   0  -2 1859.94  104.19   2
   0   0  -2 3456.70  188.76   2
   0   0  -2 3581.00  158.92   1
  -1   0  -2 3456.72  154.08   1
   1   0   2 3346.60  188.04   3
  -1   0  -2 3360.78  181.68   2
  -2   0  -2  511.97   27.50   1
  -3   0  -2 1668.94   81.28   1
  -4   0  -2  932.06   50.12   1
  -5   0  -2   64.46   10.68   1
   6   0   2   92.11    7.79   2
  -6   0  -2   79.89   12.37   1
   7  -1  -2    5.85    3.49   2
   6  -1  -2   34.57    5.86   2
   5  -1  -2 1542.23   86.31   2
   4  -1  -2 2144.85   59.66   4
   4  -1  -2 2147.18   97.11   1
   4  -1  -2 2026.64  115.52   2
   3  -1  -2  317.82    9.99   4
   3  -1  -2  320.98   16.27   1
   3  -1  -2  326.00   19.98   2
   2  -1  -2  214.09   10.56   1
   2  -1  -2  209.53   13.47   2
   1  -1  -2 2074.74  112.32   2
   0  -1  -2 1224.61   74.03   2
   0  -1  -2 1469.55   61.82   1
  -1  -1  -2  200.79   12.34   2
  -1  -1  -2  204.05   11.92   1
  -2  -1  -2 5005.28  228.44   1
  -3  -1  -2 1597.75   77.87   1
  -4  -1  -2  276.44   20.24   1
  -5  -1  -2  588.98   36.37   1
  -6  -1  -2  778.38   46.19   1
   6  -2  -2  176.91   14.12   2
   5  -2  -2  271.22   18.61   2
   4  -2  -2   12.94    3.33   2
   3  -2  -2 2002.15  109.75   2
   2  -2  -2 3172.49  171.65   2
   1  -2  -2  328.87   20.41   2
   0   2   2  123.47    6.42   1
   0  -2  -2  103.21    9.38   2
   0  -2  -2  100.53    8.09   3
  -1  -2  -2 3374.43  163.23   1
  -1  -2  -2 3804.81  193.73   2
  -2  -2  -2 4388.85  199.27   1
  -2  -2  -2 4314.49  233.80   2
  -3  -2  -2  182.30   14.21   1
  -4  -2  -2  413.08   26.62   1
   6   2   2    5.35    2.71   4
   6   2   2    9.57    5.06   1
   7   2   2  371.48   25.04   1
   7   2   2  346.52   15.14   4
   7  -3  -2  239.53   22.53   3
   5  -3  -2   -0.31    2.26   2
   4  -3  -2  456.20   28.34   2
   3  -3  -2  625.57   37.11   2
   2  -3  -2    5.93    2.60   2
   1  -3  -2  770.84   47.77   2
  -1   3   2  880.39   37.92   1
   1  -3  -2  779.12   49.81   3
   0   3   2  449.97   21.45   1
   0  -3  -2  402.21   27.54   2
   0  -3  -2  441.68   26.79   3
   1   3   2  192.55    7.17   4
  -1  -3  -2  202.70   12.30   3
  -1  -3  -2  211.71   14.11   2
   1   3   2  191.05   11.67   1
   2   3   2  288.13   16.99   1
   2   3   2  290.31   10.46   4
  -2  -3  -2  292.85   18.42   2
   3   3   2 2236.73   65.19   4
   3   3   2 2258.68  106.12   1
   4   3   2 1269.90   38.77   4
   4   3   2 1243.09   62.92   1
   5   3   2   86.60    6.06   4
   5   3   2   86.70    9.89   1
   6   3   2  101.17    7.19   4
   6   3   2   93.73   11.66   1
   7   3   2   86.44    7.07   4
   7   3   2   81.84   11.25   1
   7  -4  -2   14.16    6.49   3
   6  -4  -2  139.13   16.36   3
   5  -4  -2  556.18   36.49   2
   5  -4  -2  631.04   43.59   3
   4  -4  -2  633.66   44.62   3
   3  -4  -2  144.58   12.56   2
   3  -4  -2  164.34   16.40   3
   2  -4  -2 1287.82   75.86   3
  -2   4   2 1211.31   57.21   1
   2  -4  -2 1169.24   70.63   2
   1  -4  -2 1012.95   63.07   3
   1  -4  -2 1020.96   61.66   2
  -1   4   2 1063.86   48.76   1
   0  -4  -2  206.62   16.74   2
   0  -4  -2  213.59   15.35   3
   0   4   2  213.72   12.38   1
  -1  -4  -2  342.00   20.76   3
   1   4   2  325.56   18.58   1
  -1  -4  -2  338.68   22.20   2
   2   4   2 1264.91   62.92   1
  -2  -4  -2 1337.05   73.27   2
   3   4   2   66.96    7.51   1
   3   4   2   58.57    4.50   4
   4   4   2  331.10   12.88   4
   4   4   2  296.33   20.36   1
   5   4   2 1257.75   39.56   4
   5   4   2 1226.63   64.20   1
   6   4   2  668.39   39.71   1
   6   4   2  681.87   24.52   4
   7   4   2   42.16    9.32   1
   8   4   2   34.38    8.13   1
   6  -5  -2  266.19   24.96   3
   5  -5  -2  151.04   17.38   3
   4  -5  -2   70.77   12.26   3
   4  -5  -2   56.98    8.27   2
   3  -5  -2  868.24   54.00   3
   3  -5  -2  680.10   47.37   2
   2  -5  -2  749.55   48.94   3
   2  -5  -2  689.81   45.85   2
   1  -5  -2   70.00   10.15   2
   1  -5  -2   61.11    8.69   3
  -1   5   2   57.97    6.03   1
   0   5   2 1472.40   71.61   1
   0  -5  -2 1489.43   88.49   3
   0  -5  -2 1583.99   88.01   2
  -1  -5  -2 3117.27  171.74   3
   1   5   2 2976.39  141.18   1
  -1  -5  -2 3066.24  168.05   2
  -2  -5  -2 1081.85   62.16   2
   2   5   2 1067.75   53.70   1
   3   5   2   51.04    7.34   1
   4   5   2  232.66   17.46   1
   5   5   2   34.29    8.04   1
   6   5   2  190.46   17.36   1
   7   5   2  493.33   33.04   1
   8   5   2  333.50   25.80   1
   6  -6  -2   12.69    7.09   3
   5  -6  -2  130.60   16.92   3
   4  -6  -2  776.38   54.91   3
   3  -6  -2  658.32   47.59   3
   2  -6  -2   28.46    8.11   2
   2  -6  -2   25.29    8.05   3
   1  -6  -2  429.17   30.20   3
   1  -6  -2  404.43   30.36   2
  -1   6   2  364.75   22.04   1
   0   6   2  173.85   13.12   1
   0  -6  -2  200.75   16.30   3
   0  -6  -2  205.81   17.74   2
   1   6   2   80.73    8.70   1
  -1  -6  -2   88.65   10.34   2
  -1  -6  -2   87.75    8.87   3
   2   6   2 1281.46   64.69   1
  -2  -6  -2 1319.75   75.37   2
   3   6   2 1995.07   97.11   1
   4   6   2  572.29   34.34   1
   5   6   2    0.99    4.07   1
   6   6   2  187.27   17.81   1
   7   6   2   64.17   11.77   1
   5  -7  -2  326.82   30.22   3
   4  -7  -2   29.00   10.13   3
   3  -7  -2  324.39   29.29   3
   2  -7  -2 1165.28   72.73   2
   2  -7  -2 1129.93   74.52   3
   1  -7  -2  615.85   44.27   2
   1  -7  -2  671.77   45.16   3
   0  -7  -2   82.95   10.10   3
   0   7   2   69.30    8.52   1
   0  -7  -2   85.25   12.01   2
  -1  -7  -2  146.68   13.17   3
   1   7   2  138.55   12.17   1
  -1  -7  -2  129.73   14.23   2
   2   7   2  430.79   26.46   1
  -2  -7  -2  439.00   30.26   2
   3   7   2   -0.37    4.07   1
   4   7   2  417.44   28.05   1
   5   7   2 1263.27   68.21   1
   6   7   2  312.61   24.96   1
   7   7   2   20.28    7.48   1
   5  -8  -2   85.65   16.57   3
   4  -8  -2   49.62   12.85   3
   3  -8  -2  276.44   27.15   3
   2  -8  -2    4.82    5.03   3
   1  -8  -2  273.12   24.95   2
   1  -8  -2  271.13   24.56   3
   0  -8  -2  636.80   43.84   3
   0  -8  -2  625.10   43.80   2
   0   8   2  654.31   35.75   1
   1   8   2 1125.96   58.09   1
  -1  -8  -2 1147.53   70.01   3
  -1  -8  -2 1123.84   69.40   2
   2   8   2  393.42   25.29   1
  -2  -8  -2  377.29   28.59   2
   3   8   2   36.37    8.41   1
   4   8   2  214.44   18.94   1
   5   8   2    3.76    6.08   1
   6   8   2  154.78   16.62   1
   4  -9  -2  465.98   40.36   3
   3  -9  -2  215.24   24.13   3
   2  -9  -2    4.17    6.28   3
   1  -9  -2  151.84   17.79   3
   0  -9  -2   14.88    7.95   2
   0  -9  -2   23.51    8.07   3
  -1  -9  -2  139.29   15.74   3
   1   9   2  150.67   14.61   1
  -1  -9  -2  149.36   17.24   2
   2   9   2  674.62   38.80   1
  -2  -9  -2  655.13   45.11   2
   3   9   2  627.31   38.13   1
   4   9   2  147.64   15.81   1
   5   9   2  101.80   14.89   1
   6   9   2  213.38   21.08   1
   3 -10  -2  261.38   28.21   3
   2 -10  -2  657.19   50.44   3
   1 -10  -2  308.17   28.99   3
   0 -10  -2    7.02    6.16   3
  -1 -10  -2  168.88   19.26   2
   1  10   2  158.34   15.52   1
  -2 -10  -2   79.69   12.56   2
   2  10   2   72.21   11.21   1
   3  10   2   12.40    7.01   1
   4  10   2  408.62   29.74   1
   5  10   2  426.94   32.28   1
   2  11   2    7.85    6.15   1
   3  11   2  140.78   16.65   1
   4  11   2  137.71   17.61   1
   3  10  -3   64.98   12.91   1
   2  10  -3   97.48   13.85   1
   1  10  -3   -4.11    5.02   1
   0  10  -3  184.50   18.27   1
   1 -10   3  252.47   26.83   3
   2 -10   3  109.23   19.89   3
   5   9  -3  125.75   16.93   1
   4   9  -3  506.57   35.47   1
   3   9  -3  476.15   33.23   1
   2   9  -3   38.51    9.18   1
   1   9  -3  122.17   14.07   1
   0   9  -3  149.18   15.26   1
   0  -9   3  148.98   18.28   3
   1  -9   3    1.40    4.57   3
  -1   9  -3   10.15    6.28   1
   2  -9   3   93.44   16.67   3
   3  -9   3  164.76   21.77   3
   6   8  -3   14.80    7.56   1
   5   8  -3  170.68   17.08   1
   4   8  -3   51.53   10.36   1
   3   8  -3  199.04   18.61   1
   2   8  -3  746.01   43.89   1
   1   8  -3  440.28   28.73   1
   0  -8   3   36.27    9.05   3
   0   8  -3   32.25    7.92   1
   1  -8   3  128.72   15.95   3
  -1   8  -3  136.64   14.25   1
   2  -8   3  272.21   26.09   3
  -2   8  -3  275.89   21.13   1
   3  -8   3  133.45   17.73   3
   4  -8   3   36.60   11.58   3
   6   7  -3  464.25   32.11   1
   5   7  -3  291.56   22.95   1
   4   7  -3   29.34    7.69   1
   3   7  -3  573.53   35.26   1
   2   7  -3  160.38   15.24   1
   1   7  -3   50.18    8.73   1
   0   7  -3  308.88   21.72   1
   0  -7   3  327.41   25.62   3
   1  -7   3  340.66   27.51   3
  -1   7  -3  342.29   23.37   1
   2  -7   3   18.63    7.05   3
  -2   7  -3   19.55    6.42   1
   3  -7   3  166.90   18.85   3
   4  -7   3  368.58   32.86   3
   5  -7   3   79.60   15.65   3
   7   6  -3   90.09   12.90   1
   6   6  -3   10.85    6.14   1
   5   6  -3  451.14   29.94   1
   4   6  -3  998.24   54.01   1
   3   6  -3  569.16   33.70   1
   2   6  -3   77.20   10.08   1
   1   6  -3  989.46   51.78   1
   0   6  -3  411.87   25.05   1
   0  -6   3  405.78   29.02   3
  -1   6  -3    2.18    3.86   1
   1  -6   3    5.35    4.05   3
   2  -6   3  125.22   13.92   3
  -2   6  -3  117.47   11.94   1
   3  -6   3  517.56   37.65   3
  -3   6  -3  463.96   29.31   1
   4  -6   3    1.07    4.07   3
   5  -6   3  132.45   17.27   3
   6  -6   3  520.25   42.28   3
   7   5  -3   13.77    6.16   1
   6   5  -3   53.34    9.20   1
   5   5  -3  391.09   25.95   1
   4   5  -3  205.98   16.44   1
   3   5  -3  355.38   22.61   1
   2   5  -3 1233.97   61.97   1
   1   5  -3  616.73   33.85   1
   0   5  -3   74.94    8.23   1
   0  -5   3   64.75    7.97   3
   1  -5   3 1543.12   92.73   3
  -1   5  -3 1601.03   76.64   1
  -2   5  -3 1503.65   73.44   1
   2  -5   3 1488.93   89.86   3
  -3   5  -3  207.17   16.14   1
   3  -5   3  200.03   18.97   3
   4  -5   3    7.66    5.42   3
   5  -5   3  204.36   21.17   3
   6  -5   3   11.74    6.79   3
   7  -5   3  161.16   19.70   3
   6   4  -3  537.50   32.49   1
   5   4  -3   10.65    5.03   1
   4   4  -3  239.91   16.97   1
   3   4  -3 1926.82   92.43   1
   2   4  -3  601.99   32.29   1
   1   4  -3   39.77    5.86   1
   0   4  -3  484.31   25.88   1
   0  -4   3  454.23   29.82   3
   1  -4   3  353.41   24.42   3
  -1   4  -3  369.09   21.25   1
   2  -4   3   59.30    7.81   3
  -2   4  -3   62.83    7.43   1
   3  -4   3 1487.53   89.72   3
  -3   4  -3 1489.30   73.39   1
  -4   4  -3  680.99   41.02   1
   4  -4   3  758.81   49.18   3
   5  -4   3  218.00   21.26   3
   6  -4   3    7.38    5.72   3
   7  -4   3   76.77   13.69   3
   8   3  -3  183.50   16.63   2
   7   3  -3  188.83   16.25   2
   6   3  -3  103.55   11.36   1
   5   3  -3  529.32   30.23   1
   4   3  -3 1120.39   55.99   1
   3   3  -3    8.77    3.38   1
   2   3  -3 1236.22   59.78   1
   1   3  -3 3244.86  149.42   1
   0  -3   3 1214.34   73.91   3
   0   3  -3 1362.27   61.80   1
   1  -3   3   26.97    4.42   3
  -1   3  -3   32.29    4.73   1
   2  -3   3  528.07   33.70   3
  -2   3  -3  521.22   28.13   1
  -3   3  -3  115.58   11.27   1
   3  -3   3  100.14   10.82   3
   4  -3   3   44.89    8.40   3
  -4   3  -3   40.19    9.42   1
  -5   3  -3  636.59   39.55   1
   6  -3   3  507.51   37.99   3
   7  -3   3  236.09   22.65   3
   8   2  -3  116.27   12.34   2
   7   2  -3   35.43    6.78   2
   6   2  -3  666.28   41.27   2
   5   2  -3  715.05   37.59   1
   4   2  -3  273.82   16.86   1
   3   2  -3  804.88   40.15   1
   2   2  -3  938.94   45.53   1
   1   2  -3   23.86    3.48   1
   0  -2   3 1912.07  117.22   3
   0   2  -3 2270.06   96.91   1
  -1   2  -3 4721.08  205.71   1
   1  -2   3 4319.38  251.57   3
   2  -2   3 1915.55  112.07   3
  -2   2  -3 2016.85   92.31   1
  -3   2  -3  212.19   15.41   1
   3  -2   3  208.87   11.85   2
   3  -2   3  177.27   15.34   3
  -4   2  -3  199.95   18.09   1
   4  -2   3  223.65   17.90   3
   5  -2   3  102.83   12.22   3
  -5   2  -3   91.76   13.51   1
   6  -2   3    4.29    4.74   3
   7  -2   3  278.88   24.68   3
   8  -2   3  281.65   25.27   3
   8   1  -3   57.06    8.48   2
   7   1  -3  334.96   23.92   2
   6   1  -3    7.56    3.91   2
   5   1  -3    4.42    3.11   2
   5   1  -3    7.77    3.26   1
   4   1  -3 2249.51  134.05   2
   4   1  -3 2641.13  113.79   1
   3   1  -3 3928.30  179.06   1
   2   1  -3  299.92   16.02   1
   1   1  -3  482.28   23.99   1
   0   1  -3  962.29   45.51   1
   0   1  -3  964.87   52.41   2
  -1   1  -3    3.62    2.04   1
   1  -1   3    5.69    1.47   3
  -2   1  -3 1411.21   66.00   1
   2  -1   3 1349.00   78.91   3
  -3   1  -3 3671.92  167.15   1
   3  -1   3 3492.00  201.76   3
   4  -1   3 1372.02   82.27   3
  -4   1  -3 1396.67   71.15   1
  -5   1  -3    5.92    7.07   1
   5  -1   3   14.27    5.03   3
   5  -1   3    7.81    2.16   2
   6  -1   3   73.96   10.38   3
  -6   1  -3   63.28   11.94   1
   7  -1   3  176.82   17.71   3
   8   0  -3  363.07   25.96   2
   7   0  -3  111.34   11.30   2
   6   0  -3   22.78    5.27   2
   5   0  -3  414.06   26.78   2
   4   0  -3  448.95   28.87   2
   4   0  -3  491.99   24.35   1
   3   0  -3  133.31   10.52   2
   3   0  -3  151.26    8.76   1
   2   0  -3 5737.07  250.91   1
   2   0  -3 5387.78  298.54   2
   1   0  -3 8031.08  354.82   1
   1   0  -3 7745.39  421.74   2
   0   0  -3 1752.41   79.75   1
   0   0  -3 1734.81   94.41   2
   1   0   3  149.88    9.65   3
  -1   0  -3  176.05   10.11   2
  -1   0  -3  145.92    9.72   1
  -2   0  -3 1186.19   56.12   1
   2   0   3 1108.39   65.27   3
  -3   0  -3  276.77   18.29   1
   3   0   3  218.42   16.76   3
  -4   0  -3  755.70   40.98   1
   4   0   3  642.32   43.41   3
  -5   0  -3  685.26   41.77   1
   5   0   3  701.47   44.83   3
  -6   0  -3  580.24   37.98   1
   6   0   3  578.14   39.55   3
   7   0   3   44.41    8.92   3
   8  -1  -3    1.44    3.41   2
   7  -1  -3  376.79   26.01   2
   6  -1  -3  592.82   36.98   2
   5  -1  -3  986.47   57.29   2
   4  -1  -3    1.51    2.09   2
   3  -1  -3  280.63   13.60   1
   3  -1  -3  250.22   17.26   2
   2  -1  -3  153.50   10.77   2
   1  -1  -3   35.54    3.88   2
   0  -1  -3 3603.69  164.68   1
   0  -1  -3 3680.48  196.81   2
  -1  -1  -3 4581.63  222.48   1
  -1  -1  -3 5233.95  264.06   2
  -2  -1  -3  525.31   27.71   1
  -2  -1  -3  534.75   28.84   2
   2   1   3  463.18   29.35   3
  -3  -1  -3   41.74    7.34   1
  -4  -1  -3  129.03   14.12   1
  -5  -1  -3  147.53   16.37   1
  -6  -1  -3   -0.81    6.33   1
  -7  -1  -3  322.28   27.19   1
   7  -2  -3   74.04    9.07   2
   6  -2  -3    1.55    3.12   2
   5  -2  -3  679.80   41.05   2
   4  -2  -3 1720.60   95.86   2
   3  -2  -3 1712.87   94.87   2
   2  -2  -3   20.60    3.54   2
   1  -2  -3  175.46   12.46   2
   0  -2  -3   98.99    9.50   2
   0  -2  -3  118.24    6.74   1
  -1  -2  -3  200.85   12.39   1
  -1  -2  -3  217.44   14.67   2
  -2  -2  -3 2845.77  132.79   1
  -2  -2  -3 2873.48  154.77   2
  -3  -2  -3 2745.44  129.91   1
  -4  -2  -3  392.43   26.48   1
  -5  -2  -3    0.47    5.59   1
  -6  -2  -3  283.77   24.49   1
   7   2   3  196.42   10.51   4
   7   2   3  192.29   16.94   1
   6  -3  -3   29.77    5.95   2
   5  -3  -3  207.49   15.98   2
   4  -3  -3   13.45    3.92   2
   3  -3  -3  977.25   56.27   2
   2  -3  -3 2948.55  161.23   2
   1  -3  -3 2703.16  148.99   2
   0  -3  -3  185.14   16.08   2
   0  -3  -3  214.68   14.92   3
   0   3   3  220.82   11.38   1
   0   3   3  223.66    6.99   4
  -1  -3  -3  607.99   34.68   3
  -1  -3  -3  607.84   36.82   2
  -2  -3  -3 1750.31   96.91   2
  -2  -3  -3 1759.82   83.58   1
  -3  -3  -3  206.68   15.74   1
  -4  -3  -3  594.95   35.72   1
   6   3   3  119.26    7.93   4
   6   3   3  121.92   12.96   1
   7   3   3   58.84   10.05   1
   7   3   3   66.57    6.51   4
   8   3   3  206.64   17.77   1
   8   3   3  186.07   10.68   4
   7  -4  -3  253.22   23.66   3
   6  -4  -3  522.96   39.07   3
   5  -4  -3  185.41   15.23   2
   4  -4  -3    9.33    3.77   2
   3  -4  -3  428.99   28.00   2
   2  -4  -3  168.06   15.68   3
   2  -4  -3  152.03   13.52   2
   1  -4  -3  108.87   11.70   2
   1  -4  -3  113.26   11.63   3
  -1   4   3  120.32    7.27   1
   0  -4  -3 2553.49  138.00   3
   0  -4  -3 2263.24  135.72   2
   0   4   3 2448.63  111.12   1
  -1  -4  -3 2196.99  119.43   3
   1   4   3 2096.16   60.66   4
  -1  -4  -3 2151.40  118.96   2
   1   4   3 2064.68   98.68   1
   2   4   3   24.30    4.52   1
  -2  -4  -3   27.54    4.97   2
   2   4   3   26.88    2.84   4
   3   4   3  651.73   35.17   1
  -3  -4  -3  667.06   39.18   2
   3   4   3  639.42   21.56   4
   4   4   3  915.01   48.21   1
   4   4   3  910.98   29.63   4
   5   4   3  165.66    9.20   4
   5   4   3  163.22   14.90   1
   6   4   3   50.98    9.48   1
   6   4   3   50.18    5.90   4
   7   4   3  235.96   12.44   4
   7   4   3  256.91   20.68   1
   8   4   3   44.20    9.57   1
   6  -5  -3   73.90   12.57   3
   5  -5  -3  351.86   29.43   3
   4  -5  -3 1295.48   75.77   3
   4  -5  -3 1029.38   67.83   2
   3  -5  -3  544.75   36.84   3
   3  -5  -3  414.64   31.44   2
   2  -5  -3   34.70    7.92   3
   2  -5  -3   21.19    6.30   2
   1  -5  -3  792.74   48.17   3
   1  -5  -3  740.74   47.63   2
  -1   5   3  662.58   35.66   1
   0   5   3  408.88   21.65   1
   0  -5  -3  379.24   28.96   2
   0  -5  -3  425.50   27.44   3
   1   5   3  105.38    8.88   1
  -1  -5  -3  112.03   11.70   2
  -1  -5  -3  107.88    8.88   3
  -2  -5  -3 1633.28   92.08   2
   2   5   3 1610.38   77.96   1
  -3  -5  -3 1134.13   64.10   2
   3   5   3 1083.67   34.20   4
   3   5   3 1080.23   55.65   1
   4   5   3   26.17    6.28   1
   4   5   3   26.79    3.85   4
   5   5   3  186.32   10.33   4
   5   5   3  211.73   17.38   1
   6   5   3  960.24   53.57   1
   6   5   3  955.87   32.96   4
   7   5   3  236.86   20.46   1
   8   5   3    9.32    6.10   1
   6  -6  -3   70.55   13.38   3
   5  -6  -3   56.97   11.79   3
   4  -6  -3    2.80    4.53   3
   3  -6  -3  534.47   37.94   3
   3  -6  -3  416.43   32.99   2
   2  -6  -3 1257.55   77.57   3
   2  -6  -3 1179.05   74.46   2
   1  -6  -3  491.10   34.85   2
   1  -6  -3  490.12   33.91   3
  -1   6   3  402.25   24.31   1
   0  -6  -3   91.82    9.64   3
   0  -6  -3   57.90   10.26   2
   0   6   3   56.30    6.88   1
  -1  -6  -3 1056.67   62.61   3
   1   6   3 1059.37   52.50   1
  -1  -6  -3 1052.27   64.14   2
  -2  -6  -3 1097.04   66.79   2
   2   6   3 1159.26   56.86   1
   3   6   3   99.33   10.78   1
  -3  -6  -3  105.15   11.30   2
   4   6   3  169.42   15.27   1
   5   6   3  268.04   20.91   1
   6   6   3   16.76    7.53   1
   7   6   3  162.21   16.50   1
   5  -7  -3   25.70    9.00   3
   4  -7  -3  259.59   25.50   3
   3  -7  -3  343.89   29.94   3
   2  -7  -3   13.69    7.66   2
   2  -7  -3   23.44    8.03   3
   1  -7  -3   80.59   13.20   2
   1  -7  -3   79.44   11.67   3
   0  -7  -3  814.58   48.84   3
   0   7   3  770.64   38.94   1
   0  -7  -3  645.38   48.83   2
   1   7   3  354.93   21.43   1
  -1  -7  -3  352.44   24.56   3
  -1  -7  -3  331.29   26.80   2
   2   7   3  207.70   15.91   1
  -2  -7  -3  223.09   19.17   2
   3   7   3 1101.32   57.40   1
  -3  -7  -3 1090.33   66.23   2
   4   7   3  701.89   40.79   1
   5   7   3  117.40   14.62   1
   6   7   3  107.79   14.57   1
   7   7   3  100.44   14.53   1
   5  -8  -3  326.83   30.81   3
   4  -8  -3  535.78   42.67   3
   3  -8  -3    1.63    5.34   3
   2  -8  -3  268.57   25.54   3
   1  -8  -3  787.07   52.25   3
   1  -8  -3  710.62   51.98   2
   0   8   3  376.73   23.38   1
   0  -8  -3  403.56   29.22   3
   0  -8  -3  347.55   30.66   2
  -1  -8  -3  123.99   15.81   2
  -1  -8  -3  117.58   12.65   3
   1   8   3  132.21   12.15   1
  -2  -8  -3  644.12   44.39   2
   2   8   3  672.09   37.30   1
  -3  -8  -3  127.04   14.49   2
   3   8   3  121.24   12.91   1
   4   8   3  119.81   13.58   1
   5   8   3  774.40   46.43   1
   6   8   3  584.71   38.70   1
   7   8   3  159.14   18.03   1
   4  -9  -3    1.71    6.18   3
   3  -9  -3  277.90   27.55   3
   2  -9  -3  291.63   27.80   3
   1  -9  -3   19.64    7.91   3
   0  -9  -3  387.35   34.91   2
   0  -9  -3  496.35   34.79   3
  -1  -9  -3  822.98   57.77   2
   1   9   3  915.26   47.10   1
  -2  -9  -3  331.80   29.13   2
   2   9   3  392.82   24.84   1
   3   9   3    2.51    5.14   1
   4   9   3  135.92   15.00   1
   5   9   3  107.36   14.82   1
   6   9   3   33.41   10.70   1
   3 -10  -3  119.20   19.00   3
   2 -10  -3   35.89   11.02   3
   1 -10  -3  123.81   16.89   3
  -1 -10  -3    4.29    6.62   2
  -2 -10  -3  235.08   24.57   2
   2  10   3  282.58   20.76   1
   3  10   3  662.87   39.94   1
   4  10   3  409.61   29.32   1
   5  10   3   14.78    8.91   1
   2  11   3  170.74   16.38   1
  -2 -11  -3  148.14   19.10   2
   3  11   3   -3.77    5.15   1
   4  11   3  137.00   17.03   1
   3  10  -4   27.96   10.44   1
   2  10  -4   77.35   13.04   1
   1  10  -4  423.70   30.59   1
   0  10  -4  256.45   22.38   1
   1 -10   4   28.28   11.07   3
  -1  10  -4   27.43    8.71   1
   2 -10   4    6.57    8.64   3
   4   9  -4  130.16   15.47   1
   3   9  -4   10.27    6.27   1
   2   9  -4  172.54   17.34   1
   1   9  -4   23.40    7.99   1
   0   9  -4   79.20   12.12   1
  -1   9  -4  330.14   25.55   1
   1  -9   4  384.57   32.62   3
   2  -9   4  299.29   29.45   3
   3  -9   4   43.96   13.24   3
   5   8  -4   36.02    8.72   1
   4   8  -4  612.02   39.30   1
   3   8  -4  648.57   40.43   1
   2   8  -4  381.72   26.87   1
   1   8  -4    5.87    5.07   1
   0  -8   4  161.11   17.34   3
   0   8  -4  140.64   14.74   1
  -1   8  -4   36.06    8.36   1
   1  -8   4   36.92    9.71   3
   2  -8   4   98.65   14.36   3
  -2   8  -4   78.16   11.51   1
   3  -8   4  288.61   27.93   3
   4  -8   4  336.27   31.79   3
   6   7  -4   34.50    9.30   1
   5   7  -4   83.54   12.42   1
   4   7  -4  192.92   17.75   1
   3   7  -4    4.69    4.53   1
   2   7  -4  616.34   36.95   1
   1   7  -4 1174.73   61.41   1
   0   7  -4  611.67   36.76   1
   0  -7   4  661.08   44.17   3
  -1   7  -4   10.28    5.92   1
   1  -7   4    6.93    4.67   3
  -2   7  -4  244.98   18.98   1
   2  -7   4  231.31   22.12   3
  -3   7  -4  173.06   16.28   1
   3  -7   4  192.38   20.02   3
   4  -7   4   -0.26    4.01   3
   5  -7   4  139.59   18.51   3
   6   6  -4  497.91   32.48   1
   5   6  -4  902.38   50.60   1
   4   6  -4   54.79    9.58   1
   3   6  -4   25.48    7.12   1
   2   6  -4  519.16   31.22   1
   1   6  -4    6.22    4.28   1
   0   6  -4  547.58   32.46   1
   0  -6   4  589.73   38.67   3
  -1   6  -4  816.91   43.96   1
   1  -6   4  808.85   52.52   3
  -2   6  -4  453.22   28.18   1
   2  -6   4  466.47   33.77   3
  -3   6  -4   39.89    7.95   1
   3  -6   4   44.56    9.77   3
   4  -6   4  253.98   24.19   3
   5  -6   4  205.31   21.99   3
   6  -6   4   -0.67    4.54   3
   6   5  -4   82.19   11.57   1
   5   5  -4  471.72   29.69   1
   4   5  -4 1265.36   64.91   1
   3   5  -4 1857.43   90.88   1
   2   5  -4  255.56   17.93   1
   1   5  -4  162.60   13.09   1
   0   5  -4  509.83   27.46   1
   0  -5   4  420.54   30.74   3
  -1   5  -4   30.19    6.02   1
   1  -5   4   14.07    4.76   3
  -2   5  -4  267.06   19.43   1
   2  -5   4  324.58   23.36   3
  -3   5  -4  442.67   28.88   1
   3  -5   4  534.67   35.82   3
   4  -5   4  274.02   23.50   3
  -4   5  -4  237.79   20.08   1
   5  -5   4    3.95    5.15   3
   6  -5   4  349.00   30.47   3
   7   4  -4  380.88   27.60   2
   6   4  -4   14.62    6.12   1
   5   4  -4  489.28   29.51   1
   4   4  -4   61.70    8.37   1
   3   4  -4   57.17    7.50   1
   2   4  -4 2156.09  102.53   1
   1   4  -4 1885.04   89.86   1
   0  -4   4  147.52   12.42   3
   0   4  -4  157.06   11.86   1
  -1   4  -4  355.39   21.10   1
   1  -4   4  343.84   23.90   3
   2  -4   4  791.54   49.21   3
  -2   4  -4  787.96   41.41   1
  -3   4  -4  250.67   17.79   1
   3  -4   4  222.53   19.15   3
  -4   4  -4    8.10    6.12   1
   4  -4   4    1.88    3.89   3
   5  -4   4  212.88   20.40   3
   6  -4   4  122.61   15.53   3
   7  -4   4    0.79    4.46   3
   7   3  -4  336.19   24.79   2
   6   3  -4 1317.47   76.88   2
   5   3  -4  205.99   15.34   1
   4   3  -4   71.42    8.12   1
   3   3  -4  868.52   44.07   1
   2   3  -4  655.50   34.15   1
   1   3  -4   37.49    5.19   1
   0  -3   4 1297.83   78.92   3
   0   3  -4 1449.29   66.17   1
  -1   3  -4 1257.61   59.83   1
   1  -3   4 1209.98   71.72   3
   2  -3   4  106.25    9.68   3
  -2   3  -4  100.80    9.29   1
   3  -3   4  193.25   15.54   3
  -3   3  -4  175.76   14.65   1
  -4   3  -4  984.19   54.50   1
   4  -3   4 1037.85   63.17   3
   5  -3   4  541.20   35.75   3
  -5   3  -4  415.91   31.74   1
   6  -3   4    4.54    4.69   3
   7  -3   4   46.80   10.65   3
   7   2  -4  194.78   16.81   2
   6   2  -4    4.39    3.75   2
   5   2  -4  556.03   34.03   2
   5   2  -4  502.82   29.00   1
   4   2  -4 2280.91  107.10   1
   3   2  -4 1308.89   62.90   1
   2   2  -4    0.84    1.76   1
   1   2  -4 1877.93   87.59   1
   0   2  -4 2375.86  114.43   1
   0   2  -4 2578.14  133.43   2
  -1   2  -4  199.55   12.35   1
   1  -2   4  178.25   12.95   3
  -2   2  -4  280.28   17.03   1
   2  -2   4  268.84   18.52   3
   3  -2   4  827.54   51.13   3
  -3   2  -4  861.55   44.56   1
  -4   2  -4  271.79   21.53   1
   4  -2   4  292.13   21.45   3
   5  -2   4  369.47   26.27   3
  -5   2  -4  309.20   25.53   1
   6  -2   4  699.19   47.23   3
   7  -2   4  360.69   28.92   3
   7   1  -4  102.13   11.09   2
   6   1  -4  129.54   12.47   2
   5   1  -4  398.30   26.58   2
   4   1  -4  534.76   34.10   2
   4   1  -4  577.07   29.10   1
   3   1  -4  680.42   33.09   1
   3   1  -4  641.18   38.99   2
   2   1  -4 1716.79   79.96   1
   2   1  -4 1716.47   94.49   2
   1   1  -4  738.37   36.98   1
   1   1  -4  794.62   43.15   2
   0   1  -4   36.30    4.31   1
   0   1  -4   37.13    3.33   2
   1  -1   4 1228.69   70.94   3
  -1   1  -4 1276.46   59.28   1
   2  -1   4 2026.30  117.60   3
  -2   1  -4 2147.70   98.01   1
  -3   1  -4  677.35   36.78   1
   3  -1   4  657.02   40.56   3
  -4   1  -4   19.90    7.75   1
   4  -1   4   10.95    3.89   3
   5  -1   4  238.46   18.59   3
  -5   1  -4  208.53   20.13   1
   6  -1   4   55.43    9.21   3
  -6   1  -4   34.41   10.80   1
   7  -1   4   91.15   11.76   3
   7   0  -4  440.02   30.11   2
   6   0  -4  522.23   33.88   2
   5   0  -4   85.27    9.16   2
   4   0  -4  518.34   33.00   2
   4   0  -4  554.81   27.34   1
   3   0  -4  917.84   55.01   2
   3   0  -4 1009.83   45.87   1
   2   0  -4 1518.07   86.94   2
   2   0  -4 1635.50   72.95   1
   1   0  -4  369.13   22.64   2
   1   0  -4  395.55   19.24   1
   0   0  -4  955.43   52.95   2
   0   0  -4  956.06   44.96   1
   1   0   4   47.79    3.94   3
  -1   0  -4   57.29    5.55   1
  -2   0  -4  357.66   19.90   2
  -2   0  -4  348.33   20.47   1
   2   0   4  345.35   21.11   3
  -3   0  -4 1240.92   61.19   1
   3   0   4 1164.76   69.21   3
   4   0   4 1937.05  113.25   3
  -4   0  -4 2012.62   98.16   1
  -5   0  -4  687.91   42.27   1
   5   0   4  675.38   43.18   3
  -6   0  -4   10.10    8.23   1
   6   0   4    6.07    3.72   3
  -7   0  -4   80.07   14.40   1
   7  -1  -4  160.09   14.48   2
   6  -1  -4    3.83    3.50   2
   5  -1  -4  511.24   32.54   2
   4  -1  -4  793.49   46.90   2
   3  -1  -4  173.42   13.43   2
   3  -1  -4  200.75   10.21   1
   2  -1  -4 1008.09   42.90   1
   2  -1  -4  840.19   52.21   2
   1  -1  -4 4795.29  259.88   2
   1  -1  -4 4863.60  217.61   1
   0  -1  -4 3668.95  198.75   2
   0  -1  -4 3676.29  166.24   1
  -1  -1  -4    5.24    2.43   1
  -1  -1  -4    1.73    1.91   2
   2   1   4  403.16   23.13   3
  -2  -1  -4  372.26   22.59   1
  -2  -1  -4  422.79   23.48   2
   3   1   4  379.48   24.18   3
  -3  -1  -4  417.51   25.06   1
   4   1   4   41.81    5.44   3
  -4  -1  -4   54.75    9.88   1
   5   1   4  677.76   43.27   3
  -5  -1  -4  710.77   42.84   1
   6   1   4 1089.46   63.71   3
  -6  -1  -4  980.75   59.74   1
  -7  -1  -4  295.58   27.05   1
   7  -2  -4    3.32    3.34   2
   6  -2  -4  285.62   20.97   2
   5  -2  -4  747.44   45.25   2
   4  -2  -4   87.68    8.84   2
   3  -2  -4  104.91    9.33   2
   2  -2  -4 1442.47   80.58   2
   1  -2  -4  265.11   17.70   2
   0  -2  -4  276.26   20.34   2
   0  -2  -4  327.59   15.63   1
  -1  -2  -4 4584.20  248.90   2
  -1  -2  -4 4593.31  208.73   1
  -2  -2  -4 3727.42  174.16   1
  -2  -2  -4 3828.61  204.24   2
  -3  -2  -4  305.92   20.79   1
  -3  -2  -4  309.19   19.22   2
  -4  -2  -4  205.97   17.87   1
  -5  -2  -4  292.66   24.30   1
  -6  -2  -4    7.07    8.20   1
  -7  -2  -4  285.02   26.30   1
   8   2   4  327.29   14.95   4
   8   2   4  334.22   24.38   1
   6  -3  -4  200.35   16.41   2
   5  -3  -4   66.62    8.48   2
   4  -3  -4  635.76   38.94   2
   3  -3  -4 2292.07  126.80   2
   2  -3  -4  871.00   51.03   2
   1  -3  -4   33.86    5.72   2
   0  -3  -4  528.05   25.13   1
   0  -3  -4  503.74   33.43   2
  -1  -3  -4   56.05    4.23   3
  -1  -3  -4   50.81    5.49   1
  -1  -3  -4   54.81    7.55   2
  -2  -3  -4  928.26   53.29   2
  -2  -3  -4  914.76   46.49   1
  -3  -3  -4 3727.13  206.31   2
  -3  -3  -4 3886.80  178.08   1
  -4  -3  -4 2674.96  129.88   1
  -5  -3  -4  176.55   18.86   1
  -6  -3  -4   49.32   11.81   1
   7   3   4  168.12    9.82   4
   7   3   4  164.30   15.79   1
   8   3   4    8.86    3.19   4
   8   3   4    9.30    5.46   1
   7  -4  -4  160.78   17.60   3
   6  -4  -4    0.79    3.54   2
   5  -4  -4  177.55   15.28   2
   4  -4  -4  157.96   13.65   2
   3  -4  -4    8.35    3.72   2
   2  -4  -4 1449.18   83.27   2
   1  -4  -4 2971.62  176.88   2
  -1   4   4 3307.60  144.92   1
   1  -4  -4 3313.22  182.95   3
   0  -4  -4 1325.63   71.37   3
   0  -4  -4 1093.53   71.18   2
   0   4   4 1189.60   56.29   1
  -1  -4  -4   15.04    5.06   2
  -1  -4  -4   18.64    2.55   3
   1   4   4   12.78    3.07   1
   1   4   4   15.55    1.98   4
   2   4   4  374.80   13.40   4
   2   4   4  380.76   21.87   1
  -2  -4  -4  422.14   26.49   2
  -3  -4  -4  269.22   18.99   2
   5   4   4  742.93   25.83   4
   5   4   4  760.22   42.15   1
   6   4   4  711.38   41.80   1
   6   4   4  715.77   25.77   4
   7   4   4   68.07    6.91   4
   7   4   4   65.67   10.91   1
   8   4   4   42.81    5.94   4
   8   4   4   24.22    7.75   1
   6  -5  -4  283.55   25.28   3
   5  -5  -4  265.51   21.78   2
   5  -5  -4  319.59   26.04   3
   4  -5  -4   60.42   10.68   3
   4  -5  -4   52.68    8.34   2
   3  -5  -4  312.46   24.81   3
   3  -5  -4  263.39   21.56   2
   2  -5  -4  330.94   24.89   3
   2  -5  -4  267.62   22.43   2
  -1   5   4  155.07    9.94   1
   1  -5  -4  188.03   16.12   3
   1  -5  -4  159.06   16.20   2
   0   5   4 1103.64   53.58   1
   0  -5  -4 1051.96   68.46   2
   0  -5  -4 1217.86   67.84   3
  -1  -5  -4 2739.24  148.55   3
   1   5   4 2645.29  122.18   1
  -1  -5  -4 2531.64  148.27   2
   2   5   4  820.20   41.98   1
   2   5   4  816.53   25.78   4
  -2  -5  -4  839.87   50.60   2
   3   5   4    0.78    1.69   4
  -3  -5  -4    2.26    3.23   2
   3   5   4    3.76    2.99   1
   4   5   4  191.50    9.33   4
   4   5   4  176.53   14.98   1
   5   5   4  204.10   10.53   4
   5   5   4  188.23   16.59   1
   6   5   4   -3.02    2.58   4
   6   5   4   -0.99    3.99   1
   7   5   4  351.38   26.07   1
   7   5   4  336.85   15.79   4
   8   5   4  150.50   16.39   1
   6  -6  -4    8.98    5.64   3
   5  -6  -4  204.44   20.57   3
   4  -6  -4  981.20   64.88   3
   2  -6  -4  104.94   13.40   2
   2  -6  -4  120.53   14.28   3
   1  -6  -4  161.27   15.63   3
   1  -6  -4  143.44   16.37   2
   0  -6  -4  558.64   35.41   3
   0   6   4  523.35   27.60   1
   0  -6  -4  492.04   37.38   2
   1   6   4    0.18    2.67   1
  -1  -6  -4    1.80    1.91   3
  -1  -6  -4    3.78    4.22   2
   2   6   4 1360.66   65.40   1
  -2  -6  -4 1295.37   78.50   2
  -3  -6  -4 1687.75   96.19   2
   3   6   4 1645.67   81.61   1
   4   6   4  615.39   22.02   4
   4   6   4  620.42   35.93   1
   5   6   4    3.41    2.52   4
   5   6   4    1.45    4.03   1
   6   6   4  364.54   26.53   1
   7   6   4  216.98   19.63   1
   5  -7  -4  160.58   18.59   3
   4  -7  -4   32.64    9.73   3
   3  -7  -4  142.17   16.93   2
   3  -7  -4  181.64   19.18   3
   2  -7  -4 1056.69   71.59   2
   2  -7  -4 1224.28   74.49   3
   1  -7  -4 1611.85   95.43   3
   1  -7  -4 1497.45   94.78   2
   0  -7  -4  344.52   30.28   2
   0   7   4  373.98   21.74   1
   0  -7  -4  408.83   28.15   3
  -1  -7  -4  346.43   29.11   2
  -1  -7  -4  394.25   25.96   3
   2   7   4  535.86   29.33   1
  -2  -7  -4  470.16   35.38   2
  -3  -7  -4   48.30    9.18   2
   3   7   4   43.50    8.01   1
   4   7   4  100.13   12.23   1
   5   7   4  534.66   34.22   1
   6   7   4  287.60   23.11   1
   7   7   4   -0.96    4.98   1
   5  -8  -4  168.84   20.26   3
   4  -8  -4    9.55    6.52   3
   3  -8  -4  233.72   23.74   3
   2  -8  -4   10.35    7.53   2
   2  -8  -4   26.77    8.93   3
   1  -8  -4   24.15    8.02   3
   1  -8  -4   27.47    9.94   2
   0  -8  -4  847.18   61.44   2
   0  -8  -4 1002.56   59.90   3
  -1  -8  -4  676.94   49.97   2
   1   8   4  787.35   39.60   1
  -2  -8  -4   42.35    9.85   2
   2   8   4   30.29    6.95   1
  -3  -8  -4   74.18   11.86   2
   3   8   4   76.43   10.41   1
   4   8   4  484.94   31.23   1
   5   8   4  308.91   24.10   1
   6   8   4    7.07    6.23   1
   7   8   4  149.03   17.03   1
   4  -9  -4  498.57   40.57   3
   3  -9  -4  242.45   24.58   3
   2  -9  -4    1.67    4.93   3
   1  -9  -4  285.51   29.12   2
   1  -9  -4  305.04   26.77   3
   0  -9  -4  135.68   19.43   2
   1   9   4    0.35    4.56   1
  -1  -9  -4    3.77    6.89   2
  -2  -9  -4  187.41   21.11   2
   2   9   4  210.48   16.42   1
   3   9   4  408.69   26.74   1
  -3  -9  -4  396.97   32.30   2
   4   9   4   99.69   13.05   1
   5   9   4  104.81   14.29   1
   6   9   4  394.10   30.66   1
   3 -10  -4  158.57   20.33   3
   2 -10  -4  394.61   34.28   3
   0 -10  -4    3.82    7.88   2
  -1 -10  -4  257.25   26.73   2
   2  10   4  228.17   18.23   1
  -2 -10  -4  221.31   24.06   2
   3  10   4   27.89    7.87   1
  -3 -10  -4   24.51    9.48   2
   4  10   4   83.21   12.42   1
   5  10   4  155.30   17.36   1
  -1 -11  -4  173.62   22.33   2
  -2 -11  -4   58.71   13.79   2
   3  11   4  373.54   26.36   1
   4  11   4  271.34   22.78   1
   2  10  -5  204.25   21.18   1
   1  10  -5   47.02   10.97   1
   0  10  -5   39.10   11.02   1
   1 -10   5  103.29   19.05   3
  -1  10  -5   77.11   12.95   1
   4   9  -5  195.49   19.99   1
   3   9  -5  235.71   21.72   1
   2   9  -5   28.78    8.65   1
   1   9  -5  202.67   18.96   1
   0   9  -5  429.56   30.35   1
  -1   9  -5  120.55   14.03   1
   1  -9   5  118.14   16.94   3
   2  -9   5    3.58    6.91   3
  -2   9  -5    0.88    5.49   1
   3  -9   5   84.99   17.38   3
   5   8  -5  192.93   18.85   1
   4   8  -5  209.07   19.20   1
   3   8  -5    5.98    4.97   1
   2   8  -5   40.52    9.15   1
   1   8  -5  439.05   29.55   1
   0   8  -5   12.39    6.73   1
  -1   8  -5  324.06   24.63   1
   1  -8   5  375.28   30.59   3
   2  -8   5  427.60   34.50   3
  -2   8  -5  375.64   27.43   1
   3  -8   5  210.03   22.84   3
   4  -8   5   16.39    7.48   3
   6   7  -5  336.11   25.95   1
   5   7  -5  105.15   13.70   1
   4   7  -5  220.12   19.10   1
   3   7  -5  498.09   32.17   1
   2   7  -5  806.36   45.53   1
   1   7  -5   88.28   11.48   1
   0   7  -5   87.06   11.33   1
   1  -7   5  131.42   15.12   3
  -1   7  -5  138.38   13.80   1
  -2   7  -5   -1.53    4.17   1
   2  -7   5    2.32    4.50   3
  -3   7  -5  201.82   18.16   1
   3  -7   5  250.25   23.09   3
   4  -7   5  376.76   32.37   3
   5  -7   5  206.97   22.73   3
   6   6  -5  150.91   15.35   1
   5   6  -5  115.04   13.86   1
   4   6  -5  477.84   30.66   1
   3   6  -5   70.37   10.23   1
   2   6  -5   45.71    8.32   1
   1   6  -5 1359.39   68.97   1
   0   6  -5  981.27   51.99   1
  -1   6  -5  141.84   13.61   1
   1  -6   5  158.35   15.28   3
   2  -6   5   18.32    6.52   3
  -2   6  -5   13.25    5.71   1
  -3   6  -5  124.82   13.53   1
   3  -6   5  154.79   15.96   3
   4  -6   5   14.70    6.65   3
  -4   6  -5   14.44    6.93   1
   5  -6   5  123.86   16.18   3
   6  -6   5  299.41   28.43   3
   7   5  -5   20.01    6.65   2
   6   5  -5  360.44   25.32   1
   5   5  -5  959.09   52.07   1
   4   5  -5  103.91   11.88   1
   3   5  -5  103.02   11.15   1
   2   5  -5  464.13   27.92   1
   1   5  -5  165.77   13.45   1
   0   5  -5  211.96   15.89   1
   1  -5   5 1276.48   78.04   3
  -1   5  -5 1326.15   65.34   1
  -2   5  -5 1049.72   55.25   1
   2  -5   5 1087.25   66.14   3
   3  -5   5  254.87   21.51   3
  -3   5  -5  265.21   19.45   1
  -4   5  -5    0.50    5.46   1
   4  -5   5    3.13    4.56   3
   5  -5   5  156.16   17.44   3
   6  -5   5   44.82   10.76   3
   7   4  -5  131.54   13.64   2
   6   4  -5  226.79   17.38   1
   6   4  -5  200.00   17.69   2
   5   4  -5   33.05    7.36   1
   4   4  -5  605.82   34.35   1
   3   4  -5 1913.82   92.55   1
   2   4  -5 1599.30   77.99   1
   1   4  -5  123.23   10.48   1
   0   4  -5  527.21   29.52   1
   1  -4   5  328.98   23.05   3
  -1   4  -5  332.73   20.53   1
   2  -4   5   39.69    6.72   3
  -2   4  -5   45.40    7.26   1
   3  -4   5  774.35   47.14   3
  -3   4  -5  681.34   39.74   1
  -4   4  -5  791.60   46.95   1
   4  -4   5  897.16   55.07   3
   5  -4   5  329.67   25.34   3
  -5   4  -5  244.36   23.56   1
   6  -4   5   19.75    7.07   3
   7  -4   5  155.65   17.72   3
   7   3  -5  599.63   39.88   2
   6   3  -5   65.26    8.93   2
   5   3  -5  122.53   11.62   1
   5   3  -5  106.13   11.26   2
   4   3  -5  131.20   11.40   1
   3   3  -5  148.11   11.63   1
   2   3  -5  964.57   48.50   1
   1   3  -5 2926.44  135.85   1
   0   3  -5 2610.66  127.82   1
   0   3  -5 2883.14  148.23   2
   1  -3   5  334.33   23.33   3
  -1   3  -5  381.60   21.35   1
  -2   3  -5  188.91   14.09   1
   2  -3   5  213.63   15.44   3
  -3   3  -5  481.22   28.61   1
   3  -3   5  488.79   32.14   3
  -4   3  -5    3.59    5.96   1
   4  -3   5    4.13    3.61   3
   5  -3   5  305.90   23.25   3
  -5   3  -5  248.70   23.07   1
   6  -3   5  386.18   30.12   3
   7  -3   5  124.81   14.97   3
   7   2  -5   67.92    9.49   2
   6   2  -5  939.74   57.21   2
   5   2  -5 1284.79   76.56   2
   5   2  -5 1360.12   65.19   1
   4   2  -5  278.76   17.61   1
   4   2  -5  293.88   20.50   2
   3   2  -5  139.42   10.70   1
   3   2  -5  149.85   11.98   2
   2   2  -5   78.14    7.54   1
   2   2  -5   84.37    7.69   2
   1   2  -5  301.22   18.29   2
   1   2  -5  280.74   16.86   1
   0   2  -5 1435.20   74.52   2
   0   2  -5 1291.44   64.95   1
   1  -2   5 2088.41  123.24   3
  -1   2  -5 2281.64  102.40   1
  -2   2  -5 1187.21   59.38   1
   2  -2   5 1240.15   70.45   3
   3  -2   5   24.85    4.72   3
  -3   2  -5   28.95    6.46   1
  -4   2  -5  326.47   24.48   1
   4  -2   5  374.51   24.91   3
  -5   2  -5  390.22   29.57   1
   5  -2   5  427.46   29.49   3
  -6   2  -5   28.15   11.07   1
   6  -2   5   43.69    8.74   3
   7  -2   5   29.33    7.95   3
   7   1  -5  182.88   16.45   2
   6   1  -5  113.51   11.98   2
   5   1  -5  163.14   14.38   2
   4   1  -5 2202.22  100.11   1
   4   1  -5 2073.24  119.04   2
   3   1  -5 2634.60  120.37   1
   3   1  -5 2566.71  142.90   2
   2   1  -5 1084.97   53.20   1
   2   1  -5 1138.94   62.90   2
   1   1  -5  155.52   10.15   1
   1   1  -5  159.35   11.01   2
   0   1  -5 1546.24   74.76   1
   0   1  -5 1652.27   87.27   2
  -1   1  -5  456.24   23.25   1
   1  -1   5  416.41   26.09   3
  -2   1  -5  414.98   23.37   1
   2  -1   5  408.33   25.23   3
   3  -1   5 1627.91   93.89   3
  -3   1  -5 1652.82   80.58   1
  -4   1  -5  927.85   51.50   1
   4  -1   5  946.16   56.36   3
  -5   1  -5   48.34   10.98   1
   5  -1   5   53.32    7.43   3
   6  -1   5  261.26   19.94   3
  -6   1  -5  205.95   22.28   1
   7   0  -5  381.65   27.52   2
   6   0  -5   48.03    7.80   2
   5   0  -5  184.02   15.47   2
   4   0  -5  242.46   17.86   2
   3   0  -5   15.27    3.89   2
   3   0  -5   24.06    3.59   1
   2   0  -5 1336.42   75.50   2
   2   0  -5 1362.84   63.09   1
   1   0  -5 7450.53  408.53   2
   1   0  -5 7794.21  343.63   1
   0   0  -5 1110.26   61.79   2
   0   0  -5 1112.67   52.43   1
  -1   0  -5   24.50    3.81   2
  -1   0  -5   31.49    4.08   1
  -2   0  -5 1220.65   60.35   1
  -2   0  -5 1304.83   67.61   2
   2   0   5 1186.80   69.91   3
  -3   0  -5 1186.50   58.60   1
   3   0   5 1097.94   65.50   3
   4   0   5   14.38    3.55   3
  -4   0  -5    7.85    6.29   1
   5   0   5  491.96   32.19   3
  -5   0  -5  499.70   33.91   1
  -6   0  -5  248.67   23.88   1
  -7   0  -5   13.40    8.49   1
   7  -1  -5  164.42   15.27   2
   6  -1  -5  981.29   59.12   2
   5  -1  -5  805.25   48.97   2
   4  -1  -5    8.15    3.67   2
   3  -1  -5  159.91    8.58   1
   3  -1  -5  127.87   11.38   2
   1  -1  -5  117.12    9.36   2
   0  -1  -5 1485.04   68.51   1
   0  -1  -5 1476.34   82.51   2
  -1  -1  -5 1726.26   76.07   1
  -1  -1  -5 1506.34   90.20   2
  -2  -1  -5  450.36   25.74   1
  -2  -1  -5  490.52   27.54   2
   2   1   5  450.04   26.59   3
   3   1   5  257.80   16.02   3
  -3  -1  -5  245.87   18.15   1
  -3  -1  -5  267.82   15.98   2
   4   1   5 2015.15  116.49   3
  -4  -1  -5 2090.60  102.26   1
  -4  -1  -5 2072.87  102.15   1
   5   1   5  881.56   54.54   3
  -5  -1  -5  946.29   53.44   1
  -6  -1  -5   15.49    9.27   1
  -7  -1  -5   33.38   11.01   1
   7  -2  -5  185.62   16.42   2
   6  -2  -5   86.45   10.09   2
   5  -2  -5  371.28   25.79   2
   4  -2  -5 1341.34   76.91   2
   3  -2  -5 1078.04   62.24   2
   2  -2  -5  120.51   10.20   2
   1  -2  -5  549.10   27.98   1
   1  -2  -5  648.43   36.42   2
   0  -2  -5 1551.56   69.63   1
   0  -2  -5 1455.36   85.04   2
  -1  -2  -5  557.01   35.71   2
  -1  -2  -5  585.95   29.23   1
  -2  -2  -5  363.28   23.00   1
  -2  -2  -5  457.65   26.10   2
  -3  -2  -5 1589.18   83.93   2
   3   2   5 1461.88   84.67   3
  -3  -2  -5 1491.74   75.09   1
   4   2   5  171.73   12.28   3
  -4  -2  -5  194.03   17.20   1
  -5  -2  -5   79.97   13.04   1
  -6  -2  -5  522.02   37.75   1
  -7  -2  -5  486.24   37.89   1
   7  -3  -5  137.41   13.48   2
   6  -3  -5   56.31    8.63   2
   5  -3  -5  234.41   18.43   2
   4  -3  -5   54.45    7.71   2
   3  -3  -5   71.04    8.15   2
   2  -3  -5 1412.18   80.35   2
   1  -3  -5  826.85   49.59   2
   0  -3  -5   60.30    8.45   2
   0  -3  -5   70.01    5.07   1
  -1  -3  -5  259.43   20.45   2
  -1  -3  -5  285.82   15.85   1
  -2  -3  -5 2537.41  138.32   2
  -2  -3  -5 2462.85  117.12   1
  -3  -3  -5  906.12   51.87   2
  -3  -3  -5  881.10   47.21   1
  -4  -3  -5   24.86    7.74   1
  -5  -3  -5  138.43   16.89   1
  -6  -3  -5   38.03   11.42   1
   8   3   5  252.24   12.86   4
   8   3   5  255.03   21.01   1
   6  -4  -5  384.32   27.43   2
   5  -4  -5  103.38   11.35   2
   4  -4  -5  148.12   13.60   2
   3  -4  -5  914.07   54.84   2
   2  -4  -5  826.22   50.34   2
   1  -4  -5   39.96    7.32   2
   0   4   5  336.21   10.72   4
   0  -4  -5  313.80   25.05   2
   0  -4  -5  373.68   23.53   3
   0   4   5  322.95   17.39   1
  -1  -4  -5  532.86   38.09   2
  -1  -4  -5  567.68   29.72   1
  -1  -4  -5  647.83   34.58   3
  -2  -4  -5    5.80    3.81   2
  -2  -4  -5   13.60    4.00   1
  -3  -4  -5 1426.49   70.82   1
  -3  -4  -5 1389.37   80.33   2
  -4  -4  -5 2477.20  121.28   1
  -5  -4  -5  938.13   54.77   1
   7   4   5  104.81   13.41   1
   7   4   5  114.73    8.15   4
   8   4   5   24.02    4.55   4
   8   4   5   18.74    6.69   1
   6  -5  -5   21.46    7.66   3
   5  -5  -5  115.09   13.88   3
   5  -5  -5  118.97   12.75   2
   4  -5  -5  528.29   35.30   2
   3  -5  -5  210.20   17.90   2
   2  -5  -5  101.58   12.39   2
   2  -5  -5  143.44   13.84   3
   1  -5  -5 1587.55   89.03   3
   1  -5  -5 1363.27   86.88   2
   0  -5  -5 1457.18   86.95   2
   0   5   5 1442.25   67.87   1
   1   5   5  562.12   17.27   4
  -1  -5  -5  579.52   33.02   3
  -1  -5  -5  464.26   36.38   2
   1   5   5  558.54   28.09   1
   2   5   5  327.22   19.76   1
  -2  -5  -5  346.19   25.30   2
   2   5   5  336.70   12.20   4
   3   5   5  491.92   29.10   1
  -3  -5  -5  579.90   35.09   2
   3   5   5  501.09   17.97   4
  -4  -5  -5   11.17    4.74   2
   4   5   5   18.24    5.76   1
   4   5   5   16.13    3.41   4
   5   5   5  463.38   28.93   1
   5   5   5  433.34   17.53   4
   6   5   5  913.57   51.72   1
   6   5   5  924.80   31.84   4
   7   5   5  346.78   15.84   4
   7   5   5  338.33   25.42   1
   8   5   5   10.70    5.82   1
   8   5   5   16.92    4.54   4
   6  -6  -5  118.80   15.11   3
   5  -6  -5  247.77   22.78   3
   4  -6  -5   66.33   10.37   2
   4  -6  -5   73.17   12.01   3
   3  -6  -5   33.69    8.63   3
   3  -6  -5   28.10    7.67   2
   2  -6  -5  530.65   36.89   3
   2  -6  -5  479.13   35.77   2
   1  -6  -5   42.75    9.60   2
   1  -6  -5   52.59    9.06   3
   0  -6  -5   74.89    9.37   3
   0  -6  -5   55.03   11.00   2
   0   6   5   68.79    6.76   1
   1   6   5 1738.31   81.55   1
  -1  -6  -5 1702.75   98.74   3
  -2  -6  -5 1575.07   95.77   2
   2   6   5 1689.97   78.70   1
   3   6   5  294.52   12.10   4
  -3  -6  -5  310.55   24.03   2
   3   6   5  312.42   20.06   1
   4   6   5   23.07    4.06   4
  -4  -6  -5   24.69    6.77   2
   4   6   5   24.27    6.96   1
   5   6   5  207.56   10.78   4
   5   6   5  213.28   17.84   1
   6   6   5   26.90    8.36   1
   6   6   5   27.88    5.29   4
   7   6   5  119.05   13.69   1
   7   6   5  110.93    8.96   4
   5  -7  -5   12.04    6.32   3
   4  -7  -5  333.25   28.47   3
   3  -7  -5  725.56   48.10   3
   3  -7  -5  599.65   44.85   2
   2  -7  -5  414.45   33.69   2
   2  -7  -5  461.09   34.14   3
   1  -7  -5   -1.23    5.66   2
   1  -7  -5   -0.40    3.50   3
   0  -7  -5  359.56   31.62   2
   0  -7  -5  420.92   28.86   3
  -1  -7  -5   54.93   11.57   2
   1   7   5   67.93    7.68   1
   2   7   5   81.26    9.10   1
  -2  -7  -5   78.74   12.62   2
   3   7   5 1024.20   52.34   1
  -3  -7  -5  982.19   62.97   2
  -4  -7  -5 1442.88   84.91   2
   4   7   5 1387.48   71.99   1
   5   7   5  290.60   22.32   1
   6   7   5    6.00    5.54   1
   7   7   5  109.85   15.02   1
   4  -8  -5  158.89   18.38   3
   3  -8  -5    2.83    5.15   3
   2  -8  -5  536.46   42.67   2
   2  -8  -5  612.36   43.04   3
   1  -8  -5 1035.32   64.76   3
   1  -8  -5  934.95   65.69   2
   0  -8  -5  847.27   58.90   2
  -1  -8  -5   48.93   12.01   2
   1   8   5   51.94    7.27   1
  -2  -8  -5   85.30   13.94   2
   2   8   5   95.89   10.20   1
   3   8   5  219.66   17.16   1
  -3  -8  -5  206.81   21.06   2
  -4  -8  -5   29.38    8.57   2
   4   8   5   30.99    7.90   1
   5   8   5  570.15   35.96   1
   6   8   5  523.96   35.22   1
   4  -9  -5   50.61   12.03   3
   3  -9  -5   83.52   14.28   3
   2  -9  -5  200.06   21.14   3
   1  -9  -5    1.11    6.69   2
   1  -9  -5    2.67    5.29   3
   0  -9  -5  444.78   37.96   2
  -1  -9  -5  475.19   39.07   2
  -2  -9  -5  789.38   57.76   2
   2   9   5  899.58   45.79   1
   3   9   5    3.61    4.65   1
  -3  -9  -5    6.26    6.54   2
   4   9   5  343.49   24.68   1
   5   9   5  166.48   17.03   1
   6   9   5   -0.38    6.76   1
   3 -10  -5  508.61   40.86   3
   0 -10  -5  142.84   20.90   2
  -1 -10  -5   28.40   11.35   2
   2  10   5  182.25   15.22   1
  -2 -10  -5  151.92   20.81   2
  -3 -10  -5  616.31   48.72   2
   3  10   5  707.61   39.23   1
   4  10   5  433.78   29.23   1
   5  10   5   28.26    8.99   1
  -1 -11  -5   -0.57    6.97   2
  -2 -11  -5  165.49   22.10   2
   3  11   5   39.57    8.70   1
  -3 -11  -5   37.29   11.66   2
   4  11   5   17.46    7.72   1
   1  10  -6  166.07   19.60   1
   3   9  -6   15.25    6.62   1
   2   9  -6   81.83   13.34   1
   1   9  -6  136.08   15.86   1
   0   9  -6   14.30    7.10   1
   1  -9   6  184.74   21.78   3
  -1   9  -6  170.34   17.22   1
   2  -9   6  162.26   20.51   3
  -2   9  -6  143.08   15.95   1
   4   8  -6  303.72   24.29   1
   3   8  -6  684.96   41.95   1
   2   8  -6  218.00   19.45   1
   1   8  -6    8.40    6.02   1
   0   8  -6  298.31   23.43   1
  -1   8  -6  133.72   14.52   1
   1  -8   6  138.84   17.08   3
  -2   8  -6    3.52    5.43   1
   2  -8   6    0.46    4.84   3
   3  -8   6   64.82   13.51   3
  -3   8  -6   49.85   10.19   1
   4  -8   6  130.99   17.99   3
   5   7  -6   74.21   11.77   1
   4   7  -6  295.06   23.07   1
   3   7  -6    4.75    5.45   1
   2   7  -6   93.14   11.66   1
   1   7  -6  663.50   39.20   1
   0   7  -6  225.58   18.91   1
  -1   7  -6   -4.25    4.19   1
   1  -7   6    1.63    4.30   3
   2  -7   6  311.45   26.34   3
  -2   7  -6  284.07   22.05   1
  -3   7  -6  289.82   22.94   1
   3  -7   6  328.23   27.76   3
   4  -7   6   40.44    9.86   3
   5  -7   6   10.18    6.86   3
   6   6  -6  386.68   26.80   1
   6   6  -6  347.80   27.17   2
   5   6  -6  537.42   34.24   1
   4   6  -6   90.07   12.02   1
   3   6  -6  154.04   14.65   1
   2   6  -6  620.97   36.21   1
   1   6  -6  194.02   16.29   1
   0   6  -6   17.24    6.55   1
  -1   6  -6  371.46   25.02   1
   1  -6   6  398.76   29.19   3
   2  -6   6  270.77   22.77   3
  -2   6  -6  264.69   20.16   1
   3  -6   6    8.06    5.17   3
  -3   6  -6    7.63    5.36   1
   4  -6   6  317.72   26.57   3
  -4   6  -6  291.87   23.46   1
   5  -6   6  366.33   30.82   3
   6   5  -6  148.11   15.20   2
   6   5  -6  174.57   15.63   1
   5   5  -6    5.03    4.82   1
   4   5  -6  407.51   26.54   1
   3   5  -6  813.12   44.66   1
   2   5  -6  325.98   21.61   1
   1   5  -6  385.44   24.26   1
   0   5  -6 1181.32   60.57   1
   1  -5   6  695.55   44.79   3
  -1   5  -6  690.82   38.35   1
  -2   5  -6   22.39    6.59   1
   2  -5   6   25.12    6.48   3
   3  -5   6  116.81   12.90   3
  -3   5  -6  112.62   12.50   1
   4  -5   6  139.23   14.75   3
  -4   5  -6  129.47   14.86   1
   5  -5   6    1.34    4.15   3
   6  -5   6  240.76   22.96   3
   7   4  -6  190.67   18.10   2
   6   4  -6    1.72    3.59   2
   5   4  -6  287.17   22.02   2
   5   4  -6  295.74   20.82   1
   4   4  -6  733.83   40.52   1
   3   4  -6   72.89    9.22   1
   2   4  -6  567.76   31.74   1
   1   4  -6  356.56   21.94   1
   0   4  -6  187.04   14.82   1
   0   4  -6  218.88   13.33   2
  -1   4  -6  627.05   34.60   1
   1  -4   6  631.36   39.93   3
   2  -4   6 1157.31   68.71   3
  -2   4  -6 1122.54   58.03   1
  -3   4  -6  490.10   30.38   1
   3  -4   6  521.60   34.36   3
  -4   4  -6   23.36    7.82   1
   4  -4   6   33.47    7.61   3
   5  -4   6   52.45    9.57   3
  -5   4  -6   30.93    9.84   1
   6  -4   6   95.83   12.78   3
   7  -4   6    6.62    5.77   3
   7   3  -6  119.39   13.46   2
   6   3  -6  626.52   41.13   2
   5   3  -6  357.48   26.53   2
   5   3  -6  399.18   24.18   1
   4   3  -6   32.87    6.38   2
   4   3  -6   31.10    6.29   1
   3   3  -6 1792.29   93.52   2
   3   3  -6 1511.92   79.67   1
   2   3  -6 1728.94   91.06   2
   2   3  -6 1525.41   78.06   1
   1   3  -6  263.91   18.01   1
   1   3  -6  332.02   19.38   2
   0   3  -6  280.63   16.42   2
   0   3  -6  247.13   16.69   1
  -1   3  -6  642.86   33.75   1
   1  -3   6  606.07   38.48   3
  -2   3  -6   25.11    5.50   1
   2  -3   6   26.77    4.98   3
  -3   3  -6  562.26   32.90   1
   3  -3   6  585.88   36.91   3
   4  -3   6 1123.70   67.16   3
  -4   3  -6 1075.15   58.99   1
  -5   3  -6  459.27   34.25   1
   5  -3   6  572.40   36.46   3
  -6   3  -6   89.95   15.94   1
   6  -3   6  125.47   13.54   3
   7  -3   6   17.55    6.21   3
   7   2  -6  432.94   31.34   2
   6   2  -6  262.12   21.19   2
   5   2  -6    4.02    3.82   2
   4   2  -6  745.89   45.38   2
   4   2  -6  731.29   38.66   1
   3   2  -6  376.35   21.85   1
   3   2  -6  369.94   24.75   2
   2   2  -6   97.19    8.40   1
   2   2  -6   98.56    8.94   2
   1   2  -6 1544.43   77.14   1
   1   2  -6 1703.70   89.80   2
   0   2  -6 5690.01  287.90   2
   0   2  -6 5034.73  244.21   1
   1  -2   6  821.56   48.89   3
  -1   2  -6  833.55   42.03   1
  -1   2  -6  828.57   46.02   2
  -2   2  -6    1.36    3.16   1
   2  -2   6    1.43    1.72   3
   3  -2   6  284.23   19.90   3
  -3   2  -6  294.27   20.05   1
  -4   2  -6   80.05   11.79   1
   4  -2   6   62.64    7.74   3
   5  -2   6  131.79   12.58   3
  -5   2  -6  111.40   15.30   1
  -6   2  -6  402.16   32.48   1
   6  -2   6  474.67   31.84   3
   7   1  -6   24.87    6.88   2
   6   1  -6  153.61   14.94   2
   5   1  -6 1063.53   63.62   2
   4   1  -6 1056.40   52.12   1
   4   1  -6 1055.14   62.26   2
   3   1  -6    0.16    2.39   2
   3   1  -6    3.37    2.86   1
   2   1  -6  327.85   21.21   2
   2   1  -6  312.92   18.13   1
   1   1  -6 1193.08   57.42   1
   1   1  -6 1195.59   66.87   2
   0   1  -6   97.78    7.49   2
   0   1  -6   88.18    7.75   1
   2  -1   6 2112.56  119.88   3
  -2   1  -6 2036.92  100.27   1
  -2   1  -6 2230.30  114.48   2
  -3   1  -6  886.60   47.34   1
   3  -1   6  904.32   52.71   3
  -4   1  -6    1.47    5.57   1
   4  -1   6    4.63    2.56   3
   5  -1   6  299.49   21.35   3
  -5   1  -6  291.30   24.44   1
   6  -1   6  111.02   11.48   3
  -6   1  -6   98.73   15.77   1
  -7   1  -6   21.66   10.18   1
   7   0  -6  121.28   13.27   2
   6   0  -6  279.03   22.04   2
   5   0  -6   80.07    9.95   2
   4   0  -6  532.92   34.30   2
   2   0  -6 3260.33  144.44   1
   2   0  -6 3047.46  172.02   2
   1   0  -6  108.93    9.29   2
   1   0  -6  122.72    8.29   1
   0   0  -6  305.35   19.15   2
   0   0  -6  293.05   16.47   1
  -1   0  -6   87.43    8.30   2
  -1   0  -6  105.09    8.20   1
   2   0   6    6.36    1.75   3
  -2   0  -6    6.24    1.95   2
  -2   0  -6    8.08    3.82   1
   3   0   6 1120.38   63.54   3
  -3   0  -6 1093.34   56.81   1
  -4   0  -6 2069.31  103.36   1
   4   0   6 2109.90  118.58   3
  -5   0  -6  502.00   34.49   1
   5   0   6  522.33   32.69   3
  -6   0  -6   12.50    8.67   1
  -7   0  -6   95.81   16.39   1
   7  -1  -6  547.48   37.28   2
   6  -1  -6  165.11   15.48   2
   5  -1  -6   57.62    8.56   2
   4  -1  -6  157.83   13.84   2
   3  -1  -6   11.87    3.98   2
   2  -1  -6  598.82   36.95   2
   2  -1  -6  624.41   29.53   1
   1  -1  -6 3913.38  207.21   2
   1  -1  -6 3718.35  172.79   1
   0  -1  -6 2365.48  129.43   2
   0  -1  -6 2337.21  107.86   1
  -1  -1  -6   84.62    9.15   2
  -1  -1  -6  108.55    8.25   1
   2   1   6    7.35    1.36   3
  -2  -1  -6    1.55    3.16   1
  -2  -1  -6    9.51    2.92   2
   3   1   6  534.47   32.08   3
  -3  -1  -6  553.97   31.89   2
  -3  -1  -6  566.23   32.21   1
  -4  -1  -6   21.15    7.38   1
   4   1   6   15.64    3.00   3
  -5  -1  -6  232.82   21.76   1
  -6  -1  -6  324.43   27.60   1
  -7  -1  -6  261.18   25.74   1
  -8  -1  -6   -2.87    7.68   1
   7  -2  -6   49.18    8.89   2
   6  -2  -6  516.36   34.96   2
   5  -2  -6  864.44   52.97   2
   4  -2  -6  356.24   24.89   2
   3  -2  -6   37.48    6.14   2
   2  -2  -6  554.48   34.34   2
   1  -2  -6  184.65   10.82   1
   1  -2  -6  233.04   16.02   2
   0  -2  -6  498.92   25.55   1
   0  -2  -6  528.74   32.88   2
  -1  -2  -6 2015.75   90.72   1
  -1  -2  -6 1858.66  109.17   2
  -2  -2  -6 2861.25  146.70   2
  -2  -2  -6 2453.17  123.93   1
  -3  -2  -6   87.00    9.99   1
  -3  -2  -6   86.30    8.04   2
   3   2   6   90.87    5.83   3
  -4  -2  -6  315.02   23.23   1
  -5  -2  -6  398.61   29.52   1
  -6  -2  -6  227.12   22.92   1
  -7  -2  -6   23.81   10.58   1
  -8  -2  -6  308.57   30.33   1
   7  -3  -6   87.27   11.03   2
   6  -3  -6   60.50    9.13   2
   5  -3  -6    5.61    4.49   2
   4  -3  -6  608.09   38.73   2
   3  -3  -6 2376.88  132.54   2
   2  -3  -6 1266.60   73.14   2
   1  -3  -6   12.81    4.26   2
   0  -3  -6  537.34   36.17   2
   0  -3  -6  573.18   27.38   1
  -1  -3  -6  547.33   37.25   2
  -1  -3  -6  587.26   29.30   1
  -2  -3  -6   24.47    5.73   2
  -2  -3  -6   23.75    4.96   1
  -3  -3  -6 2164.17  117.23   2
  -3  -3  -6 2053.82  101.60   1
  -4  -3  -6 1444.31   74.64   1
  -4  -3  -6 1453.48   81.59   2
  -5  -3  -6  101.61   14.42   1
  -6  -3  -6  160.27   19.23   1
  -7  -3  -6  533.88   40.87   1
   6  -4  -6   65.16    9.67   2
   5  -4  -6   24.11    6.25   2
   4  -4  -6  178.55   15.89   2
   3  -4  -6   -1.29    3.01   2
   2  -4  -6  538.28   35.31   2
   1  -4  -6 1866.78  106.95   2
   0  -4  -6  547.50   28.48   1
   0  -4  -6  620.81   39.62   2
  -1  -4  -6  144.72   10.02   1
  -1  -4  -6  137.72   14.74   2
  -2  -4  -6 1129.13   55.94   1
  -2  -4  -6 1120.46   67.28   2
  -3  -4  -6 1058.40   54.90   1
  -3  -4  -6 1052.61   62.32   2
  -4  -4  -6   16.28    6.61   1
  -4  -4  -6   12.85    4.46   2
  -5  -4  -6  408.32   30.50   1
  -6  -4  -6  375.87   30.65   1
   8   4   6   64.28    7.17   4
   8   4   6   52.10   10.54   1
   6  -5  -6  311.67   24.18   2
   5  -5  -6  399.70   28.85   2
   4  -5  -6   60.62    9.51   2
   3  -5  -6  165.95   15.84   2
   2  -5  -6  369.33   27.41   2
   1  -5  -6   75.20    8.96   3
   1  -5  -6   46.36    9.05   2
   0   5   6  383.07   21.32   1
   0  -5  -6  487.20   29.09   3
   0  -5  -6  387.31   30.87   2
   1   5   6 1586.78   45.81   4
   1   5   6 1605.90   74.59   1
  -1  -5  -6 1557.24   94.11   2
  -2  -5  -6  454.02   32.55   2
  -3  -5  -6   15.26    5.68   2
  -4  -5  -6  885.23   54.12   2
   6   5   6   93.81    7.41   4
   6   5   6  115.71   12.46   1
   7   5   6   22.09    7.09   1
   7   5   6   17.27    4.19   4
   5  -6  -6   52.01   10.09   3
   5  -6  -6   37.52    8.34   2
   4  -6  -6  387.28   29.36   3
   4  -6  -6  341.86   27.48   2
   3  -6  -6  879.44   53.15   3
   3  -6  -6  685.86   49.87   2
   2  -6  -6  142.11   15.97   2
   2  -6  -6  157.27   15.70   3
   1  -6  -6  405.09   32.74   2
   1  -6  -6  472.46   32.00   3
   0  -6  -6  733.70   50.15   2
  -1  -6  -6  419.89   33.13   2
   1   6   6  439.92   23.45   1
   2   6   6   53.14    4.06   4
   2   6   6   56.65    6.75   1
  -2  -6  -6   49.89    9.94   2
  -3  -6  -6  471.71   33.61   2
   3   6   6  463.92   16.55   4
   3   6   6  457.17   26.94   1
  -4  -6  -6  271.55   22.20   2
   4   6   6  268.56   19.16   1
   4   6   6  255.20   11.55   4
   5   6   6   29.12    4.82   4
   5   6   6   41.89    8.76   1
   6   6   6  338.39   15.47   4
   6   6   6  366.05   25.62   1
   7   6   6  460.23   30.99   1
   7   6   6  438.74   18.87   4
   5  -7  -6   87.63   12.66   3
   4  -7  -6  103.82   13.19   3
   4  -7  -6   89.92   12.49   2
   3  -7  -6    0.47    3.57   3
   3  -7  -6    6.75    5.74   2
   2  -7  -6  576.14   39.06   3
   2  -7  -6  474.62   38.09   2
   1  -7  -6  859.89   60.93   2
   1  -7  -6 1002.04   60.52   3
   0  -7  -6   95.82   15.17   2
   0  -7  -6  107.68   11.86   3
   1   7   6  506.11   25.80   1
  -1  -7  -6  411.53   35.44   2
   2   7   6  673.71   33.98   1
  -2  -7  -6  574.68   43.75   2
   3   7   6  897.57   46.44   1
  -3  -7  -6  865.67   57.39   2
   4   7   6   62.02    9.61   1
   4   7   6   65.39    5.87   4
  -4  -7  -6   78.46   11.78   2
   5   7   6  257.17   12.23   4
   5   7   6  260.09   20.23   1
   6   7   6   66.33    6.87   4
   6   7   6   57.20   11.18   1
   7   7   6    2.79    5.19   1
   4  -8  -6    2.84    4.70   3
   3  -8  -6  336.24   29.81   2
   3  -8  -6  378.83   30.28   3
   2  -8  -6  415.29   35.38   2
   2  -8  -6  488.52   35.66   3
   1  -8  -6   26.77   10.13   2
   1  -8  -6   31.39    8.59   3
   0  -8  -6  288.67   28.21   2
  -1  -8  -6  403.25   34.48   2
  -2  -8  -6  109.89   16.53   2
   2   8   6  133.21   11.85   1
  -3  -8  -6  497.95   39.58   2
   3   8   6  570.08   31.78   1
   4   8   6 1231.28   63.09   1
  -4  -8  -6 1189.30   76.13   2
   5   8   6  408.30   27.82   1
   6   8   6   54.79   11.02   1
   3  -9  -6  144.37   17.33   3
   2  -9  -6   56.99   12.45   2
   2  -9  -6   39.03   10.31   3
   1  -9  -6  567.74   44.69   2
   0  -9  -6  625.39   48.36   2
  -1  -9  -6  124.51   18.64   2
  -2  -9  -6    3.55    7.21   2
   2   9   6    3.88    4.85   1
  -3  -9  -6  367.82   32.91   2
   3   9   6  401.81   25.11   1
  -4  -9  -6    2.62    5.43   2
   4   9   6    4.16    5.37   1
   5   9   6  118.48   14.01   1
   6   9   6  356.28   27.58   1
   1 -10  -6  107.37   17.66   2
   0 -10  -6   84.52   17.12   2
  -1 -10  -6  189.61   24.01   2
  -2 -10  -6  559.71   45.47   2
   3  10   6  120.18   12.52   1
  -3 -10  -6  107.27   17.45   2
  -4 -10  -6    8.33    6.06   2
   4  10   6    4.34    5.14   1
   5  10   6   95.62   13.40   1
   0 -11  -6   94.27   18.07   2
  -1 -11  -6   52.17   14.69   2
  -2 -11  -6    3.45    6.79   2
  -3 -11  -6  318.30   32.31   2
   4  11   6  515.66   33.08   1
   2   9  -7    4.32    7.53   1
   1   9  -7  137.13   17.30   1
   0   9  -7  467.09   33.05   1
  -1   9  -7  168.39   18.01   1
  -2   9  -7    9.29    6.83   1
   4   8  -7  441.25   31.14   1
   3   8  -7   64.91   11.25   1
   2   8  -7   38.67    9.18   1
   1   8  -7  125.10   14.84   1
   0   8  -7    3.93    5.40   1
  -1   8  -7  110.29   13.87   1
  -2   8  -7  403.57   29.46   1
   2  -8   7  447.69   35.60   3
   3  -8   7  219.92   22.68   3
  -3   8  -7  194.88   18.76   1
   5   7  -7   99.57   13.50   1
   4   7  -7  115.46   13.14   1
   3   7  -7  610.53   37.61   1
   2   7  -7  616.08   37.55   1
   1   7  -7  316.91   23.77   1
   0   7  -7    6.12    5.57   1
  -1   7  -7  197.69   17.46   1
   1  -7   7  194.50   19.60   3
  -2   7  -7   85.20   11.99   1
   2  -7   7   90.75   12.52   3
   3  -7   7   94.51   13.49   3
   4  -7   7  193.49   20.58   3
   5   6  -7   19.04    6.91   1
   5   6  -7   13.32    5.31   2
   4   6  -7  132.81   14.14   1
   3   6  -7  148.18   14.16   1
   2   6  -7  103.25   11.71   1
   1   6  -7  789.72   44.28   1
   0   6  -7  551.11   33.48   1
  -1   6  -7  412.10   27.67   1
   1  -6   7  458.16   32.46   3
  -2   6  -7   43.98    8.76   1
   2  -6   7   44.93    9.09   3
   3  -6   7  192.69   17.95   3
  -3   6  -7  141.71   15.05   1
   4  -6   7   56.14   10.92   3
  -4   6  -7   54.49   10.85   1
   5  -6   7    8.81    5.15   3
   6   5  -7  253.31   21.41   2
   5   5  -7 1092.92   65.64   2
   5   5  -7 1081.69   58.48   1
   4   5  -7  768.98   47.13   2
   4   5  -7  747.55   42.73   1
   3   5  -7    1.34    4.37   1
   2   5  -7  415.64   26.28   1
   1   5  -7  119.31   12.04   1
   0   5  -7   17.98    6.22   1
  -1   5  -7  503.59   30.65   1
   1  -5   7  523.17   35.25   3
  -2   5  -7  584.64   36.19   1
   2  -5   7  681.12   42.55   3
   3  -5   7  114.27   12.47   3
  -3   5  -7  100.40   12.11   1
  -4   5  -7   32.81    9.03   1
   4  -5   7   41.04    8.61   3
  -5   5  -7  229.93   22.82   1
   5  -5   7  299.05   23.94   3
   6  -5   7  163.19   17.82   3
   6   4  -7  188.21   17.61   2
   5   4  -7   43.18    8.04   2
   5   4  -7   44.35    8.61   1
   4   4  -7  371.16   25.61   2
   4   4  -7  345.03   23.58   1
   3   4  -7 1899.79   99.88   2
   3   4  -7 1621.85   85.63   1
   2   4  -7  668.53   37.79   1
   2   4  -7  721.83   41.81   2
   1   4  -7   19.52    5.36   1
   1   4  -7   25.64    4.23   2
   0   4  -7  214.89   15.83   1
  -1   4  -7 1120.47   56.38   1
   1  -4   7 1074.13   66.05   3
  -2   4  -7   24.29    6.37   1
   2  -4   7   27.94    6.12   3
   3  -4   7  105.72   11.25   3
  -3   4  -7  104.90   11.95   1
   4  -4   7  294.31   22.41   3
  -4   4  -7  263.35   21.62   1
  -5   4  -7   95.41   14.76   1
   5  -4   7  123.71   13.21   3
   6  -4   7   33.99    8.24   3
   6   3  -7  200.45   18.33   2
   5   3  -7   29.37    7.06   2
   4   3  -7  367.00   25.85   2
   4   3  -7  360.15   23.08   1
   3   3  -7   67.76    8.39   1
   3   3  -7   75.90    8.85   2
   2   3  -7  348.15   22.46   2
   2   3  -7  318.36   20.49   1
   1   3  -7  898.83   49.83   2
   1   3  -7  830.62   44.62   1
   0   3  -7 1845.14   95.62   2
   0   3  -7 1640.14   83.61   1
  -1   3  -7   74.51    8.81   1
   2  -3   7  437.29   29.24   3
  -2   3  -7  456.11   26.56   1
   3  -3   7  618.33   38.51   3
  -3   3  -7  585.65   34.67   1
  -4   3  -7  194.17   17.87   1
   4  -3   7  188.26   15.98   3
  -5   3  -7   18.35    8.61   1
   5  -3   7   18.12    5.87   3
  -6   3  -7  169.30   20.38   1
   6  -3   7  176.28   16.63   3
   7   2  -7   46.09    9.58   2
   6   2  -7  603.53   40.66   2
   5   2  -7 1118.01   67.34   2
   4   2  -7  384.44   23.32   1
   4   2  -7  395.08   27.36   2
   3   2  -7  139.41   10.97   1
   3   2  -7  124.39   11.95   2
   2   2  -7  864.42   45.15   1
   2   2  -7  925.66   52.51   2
   1   2  -7  902.10   46.72   1
   1   2  -7  953.91   53.22   2
   0   2  -7   -0.28    2.30   1
   0   2  -7    5.22    2.16   2
  -1   2  -7  639.51   37.72   2
  -1   2  -7  683.73   35.20   1
  -2   2  -7  448.84   26.40   1
   2  -2   7  460.16   28.82   3
   3  -2   7   28.09    4.90   3
  -3   2  -7   22.53    6.38   1
   4  -2   7  535.08   34.46   3
  -4   2  -7  538.53   33.94   1
   5  -2   7 1048.13   61.63   3
  -5   2  -7  962.86   57.23   1
   6  -2   7  288.91   22.27   3
  -6   2  -7  279.33   25.21   1
   7   1  -7   63.48   10.60   2
   6   1  -7  353.21   26.89   2
   5   1  -7   33.82    7.46   2
   4   1  -7  652.55   41.46   2
   3   1  -7 1268.55   71.80   2
   3   1  -7 1204.99   59.98   1
   2   1  -7  192.38   12.68   1
   2   1  -7  168.44   13.83   2
   1   1  -7  220.16   14.02   1
   1   1  -7  210.15   15.05   2
   0   1  -7 1441.51   69.70   1
   0   1  -7 1474.59   80.89   2
  -1   1  -7 1306.70   58.53   1
  -1   1  -7 1079.41   66.69   2
  -2   1  -7   50.78    7.07   1
   2  -1   7   57.57    5.80   3
  -2   1  -7   65.52    5.02   2
  -3   1  -7   66.85    9.25   1
   3  -1   7   69.82    6.74   3
  -4   1  -7  429.77   28.56   1
   4  -1   7  425.43   27.51   3
   5  -1   7    9.52    3.76   3
  -5   1  -7   10.59    8.20   1
  -6   1  -7  300.43   26.47   1
  -7   1  -7  325.47   29.47   1
   7   0  -7  262.93   22.30   2
   6   0  -7   10.84    5.10   2
   5   0  -7  308.41   23.59   2
   4   0  -7  781.48   48.37   2
   3   0  -7   63.16    6.71   1
   3   0  -7   54.78    7.65   2
   2   0  -7  931.91   43.87   1
   2   0  -7  855.23   52.30   2
   1   0  -7 1044.02   61.09   2
   1   0  -7 1098.84   51.60   1
   0   0  -7  128.24   10.49   2
   0   0  -7  136.27    9.52   1
  -1   0  -7  175.82   14.71   2
  -1   0  -7  240.28   14.02   1
  -2   0  -7 1740.93   88.29   2
   2   0   7 1504.86   89.82   3
  -2   0  -7 1533.84   76.86   1
  -3   0  -7 1890.70   93.81   1
  -3   0  -7 1931.81  104.46   2
   3   0   7 1962.10  108.82   3
   4   0   7  128.75   10.23   3
  -4   0  -7  132.25   14.64   1
  -5   0  -7   89.88   13.80   1
   5   0   7   87.85    8.41   3
  -6   0  -7  100.42   15.88   1
  -7   0  -7   12.19    8.39   1
   7  -1  -7   44.35    8.75   2
   6  -1  -7  498.35   34.73   2
   5  -1  -7  444.24   31.04   2
   4  -1  -7   16.38    5.36   2
   3  -1  -7  742.58   45.45   2
   2  -1  -7 3033.03  169.73   2
   2  -1  -7 3151.99  141.02   1
   1  -1  -7 1169.37   64.41   2
   1  -1  -7 1068.40   52.56   1
   0  -1  -7   10.47    2.78   1
   0  -1  -7   11.23    3.63   2
  -1  -1  -7  743.79   49.57   2
  -1  -1  -7  930.17   42.10   1
  -2  -1  -7  152.10   12.41   1
  -2  -1  -7  186.70   13.55   2
   3   1   7  126.03    8.66   3
  -3  -1  -7  114.66   11.80   1
  -3  -1  -7  137.12    9.78   2
  -4  -1  -7 1776.29   88.13   1
   4   1   7 1715.84   98.60   3
  -5  -1  -7 1557.33   82.27   1
  -6  -1  -7  279.51   25.37   1
  -7  -1  -7   35.17   11.78   1
  -8  -1  -7  117.16   19.58   1
   7  -2  -7  210.41   19.08   2
   6  -2  -7  244.36   20.55   2
   5  -2  -7   14.29    5.62   2
   4  -2  -7  279.55   21.49   2
   3  -2  -7  593.02   37.65   2
   2  -2  -7   14.21    4.52   2
   1  -2  -7  689.18   35.45   1
   1  -2  -7  810.68   45.70   2
   0  -2  -7 3029.54  166.07   2
   0  -2  -7 2979.63  137.35   1
  -1  -2  -7  946.42   46.15   1
  -1  -2  -7  928.41   56.62   2
  -2  -2  -7   97.04   10.11   2
  -2  -2  -7   95.83    9.35   1
  -3  -2  -7  470.12   27.81   2
  -3  -2  -7  409.07   26.32   1
  -4  -2  -7  138.91   14.59   1
  -4  -2  -7  122.80   10.25   2
  -5  -2  -7   39.46   10.49   1
  -6  -2  -7  797.50   50.20   1
  -7  -2  -7  723.28   49.53   1
  -8  -2  -7   91.80   17.81   1
   6  -3  -7   63.16    9.81   2
   5  -3  -7  573.13   38.14   2
   4  -3  -7  797.73   49.67   2
   3  -3  -7   21.20    5.75   2
   2  -3  -7  391.35   26.87   2
   1  -3  -7  199.00   11.16   1
   1  -3  -7  233.37   17.77   2
   0  -3  -7    2.57    3.47   2
   0  -3  -7    3.28    1.82   1
  -1  -3  -7 1055.96   51.12   1
  -1  -3  -7 1049.93   64.01   2
  -2  -3  -7 3280.08  174.23   2
  -2  -3  -7 2983.82  145.44   1
  -3  -3  -7  956.09   51.90   1
  -3  -3  -7 1047.27   59.10   2
  -4  -3  -7   54.53    9.59   1
  -4  -3  -7   63.93    7.60   2
  -5  -3  -7  289.03   23.93   1
  -6  -3  -7  172.77   19.94   1
  -7  -3  -7   13.10    9.38   1
  -8  -3  -7  132.84   21.25   1
   6  -4  -7  252.23   21.07   2
   5  -4  -7   62.16    9.74   2
   4  -4  -7  175.81   16.06   2
   3  -4  -7 1139.37   68.05   2
   2  -4  -7 1464.95   85.41   2
   1  -4  -7  221.49   18.65   2
   0  -4  -7  228.63   19.63   2
   0  -4  -7  213.91   12.44   1
  -1  -4  -7  172.72   17.26   2
  -1  -4  -7  182.48   11.75   1
  -2  -4  -7   23.95    6.85   2
  -2  -4  -7   25.55    5.00   1
  -3  -4  -7  515.24   31.28   1
  -3  -4  -7  577.97   36.22   2
  -4  -4  -7 1337.64   70.46   1
  -4  -4  -7 1370.92   78.35   2
  -5  -4  -7  925.88   54.10   1
  -6  -4  -7   10.83    8.44   1
  -7  -4  -7   87.67   16.53   1
   8   4   7   98.95    8.18   4
   8   4   7  116.95   13.42   1
   6  -5  -7   99.27   11.99   2
   5  -5  -7    0.89    4.03   2
   4  -5  -7  142.19   14.62   2
   3  -5  -7   66.84   10.19   2
   2  -5  -7  176.34   16.99   2
   1  -5  -7 1438.40   85.95   2
   0  -5  -7 1938.94  108.84   2
   0   5   7 1745.56   52.19   4
  -1  -5  -7  273.80   23.97   2
  -2  -5  -7  106.76    9.79   1
  -2  -5  -7  111.10   13.72   2
  -3  -5  -7   42.27    8.50   2
  -3  -5  -7   43.52    7.41   1
  -4  -5  -7  295.86   22.44   1
  -4  -5  -7  295.50   23.00   2
  -5  -5  -7  388.58   28.88   1
   7   5   7  223.10   19.01   1
   7   5   7  214.06   11.58   4
   8   5   7   12.55    4.05   4
   8   5   7    8.60    6.28   1
   5  -6  -7  377.35   28.72   3
   5  -6  -7  329.80   27.01   2
   4  -6  -7  373.06   28.21   3
   4  -6  -7  333.42   27.06   2
   3  -6  -7   13.30    6.17   2
   3  -6  -7   11.11    5.21   3
   2  -6  -7  297.99   25.98   2
   2  -6  -7  357.53   26.06   3
   1  -6  -7  173.79   18.68   2
   1  -6  -7  204.82   17.24   3
   0  -6  -7  154.38   17.88   2
   0  -6  -7  173.95   14.85   3
  -1  -6  -7 1236.22   76.91   2
   1   6   7 1228.50   35.96   4
   1   6   7 1196.08   58.44   1
   2   6   7 1171.60   34.27   4
  -2  -6  -7 1074.71   71.00   2
   2   6   7 1151.01   55.69   1
   3   6   7  401.35   24.81   1
  -3  -6  -7  463.39   32.94   2
   3   6   7  422.95   15.37   4
   4   6   7   95.08    6.64   4
  -4  -6  -7  115.01   13.72   2
   4   6   7   97.89   11.05   1
   5   6   7  553.83   20.04   4
   5   6   7  519.79   32.15   1
   6   6   7  203.14   10.77   4
   6   6   7  191.29   17.07   1
   7   6   7    8.64    3.00   4
   7   6   7    0.66    4.48   1
   5  -7  -7   -0.99    4.02   3
   4  -7  -7  148.19   17.00   2
   4  -7  -7  192.93   18.27   3
   3  -7  -7  818.78   50.50   3
   3  -7  -7  643.54   48.34   2
   2  -7  -7  621.11   41.45   3
   2  -7  -7  550.59   41.59   2
   1  -7  -7   24.12    8.78   2
   1  -7  -7   29.39    7.43   3
   0  -7  -7  329.36   29.26   2
   1   7   7  346.05   19.77   1
  -1  -7  -7  333.01   29.87   2
   2   7   7    2.06    3.45   1
  -2  -7  -7    2.29    5.63   2
   3   7   7  164.46    8.22   4
  -3  -7  -7  179.49   19.17   2
   3   7   7  171.69   13.69   1
   4   7   7 1005.05   52.77   1
  -4  -7  -7 1031.52   64.79   2
   4   7   7  985.91   32.31   4
   5   7   7  102.46    7.23   4
   5   7   7  101.59   11.98   1
   6   7   7   16.11    4.27   4
   6   7   7   24.36    8.51   1
   7   7   7  223.60   12.09   4
   7   7   7  224.70   19.69   1
   4  -8  -7   58.39   11.14   3
   3  -8  -7    0.85    4.41   3
   3  -8  -7   -1.90    5.14   2
   2  -8  -7  293.14   24.47   3
   2  -8  -7  251.64   25.11   2
   1  -8  -7  911.29   62.15   2
   0  -8  -7  754.84   54.27   2
  -1  -8  -7    4.81    6.65   2
  -2  -8  -7   80.00   14.69   2
   2   8   7   91.95    9.77   1
  -3  -8  -7  331.27   30.20   2
   3   8   7  376.23   23.00   1
  -4  -8  -7   13.24    7.65   2
   4   8   7    6.92    5.70   1
   5   8   7   52.92    9.83   1
   6   8   7  280.26   22.87   1
   3  -9  -7   45.18   10.38   3
   2  -9  -7  188.41   21.53   2
   1  -9  -7   79.18   14.83   2
   0  -9  -7  105.79   17.36   2
  -1  -9  -7  449.50   38.60   2
  -2  -9  -7  220.97   24.77   2
   3   9   7    9.94    5.18   1
  -3  -9  -7    7.91    7.32   2
  -4  -9  -7  254.87   25.77   2
   4   9   7  265.18   19.88   1
   5   9   7  533.87   33.74   1
   6   9   7  169.92   18.11   1
   1 -10  -7   83.78   15.70   2
   0 -10  -7  372.34   35.11   2
  -1 -10  -7  152.98   21.41   2
  -2 -10  -7    5.20    6.96   2
  -3 -10  -7  195.92   24.20   2
   3  10   7  243.50   17.67   1
  -4 -10  -7  194.82   23.20   2
   4  10   7  205.96   17.25   1
   5  10   7    8.28    7.08   1
   0 -11  -7  141.37   21.29   2
  -1 -11  -7   90.51   17.97   2
  -2 -11  -7  305.13   32.49   2
  -3 -11  -7  167.19   22.72   2
   1   9  -8  234.96   22.74   1
   0   9  -8   26.04    9.27   1
  -1   9  -8   25.19    9.56   1
   3   8  -8  141.40   15.38   1
   2   8  -8  165.17   16.86   1
   1   8  -8   13.28    7.30   1
   0   8  -8  312.03   24.50   1
  -1   8  -8  281.78   23.11   1
  -2   8  -8  142.75   15.81   1
   2  -8   8  149.21   18.23   3
   3  -8   8    9.35    6.92   3
  -3   8  -8    2.94    6.41   1
   4   7  -8  425.55   29.47   1
   3   7  -8  195.73   17.58   1
   2   7  -8    4.23    4.37   1
   1   7  -8  194.75   18.26   1
   0   7  -8   98.09   12.73   1
  -1   7  -8   19.70    7.18   1
   2  -7   8  421.21   32.15   3
  -2   7  -8  351.23   26.85   1
  -3   7  -8  286.32   23.57   1
   3  -7   8  333.49   27.67   3
  -4   7  -8   67.69   12.09   1
   4  -7   8   65.49   12.81   3
   5   6  -8  259.86   20.54   1
   5   6  -8  261.46   21.46   2
   4   6  -8   47.37    8.02   2
   4   6  -8   40.87    8.49   1
   3   6  -8  215.95   17.48   2
   3   6  -8  224.40   18.44   1
   2   6  -8  939.32   51.63   1
   1   6  -8  499.86   31.85   1
   0   6  -8   32.56    7.83   1
  -1   6  -8   76.28   10.84   1
   2  -6   8  214.35   19.74   3
  -2   6  -8  214.53   18.34   1
   3  -6   8   15.46    6.15   3
  -3   6  -8   14.91    7.04   1
   4  -6   8  182.03   18.16   3
  -4   6  -8  158.82   16.73   1
   5  -6   8  310.52   27.04   3
   6   5  -8  318.14   25.89   2
   5   5  -8  121.86   12.97   1
   5   5  -8  130.09   13.76   2
   4   5  -8   61.50    9.18   1
   4   5  -8   53.61    8.44   2
   3   5  -8  219.69   16.99   2
   3   5  -8  190.40   16.39   1
   2   5  -8   19.11    5.98   1
   2   5  -8   23.99    5.10   2
   1   5  -8  332.04   23.13   1
   0   5  -8 1032.58   54.58   1
  -1   5  -8 1062.85   56.21   1
   2  -5   8  127.19   13.03   3
  -2   5  -8  106.35   12.09   1
  -3   5  -8   29.02    7.92   1
   3  -5   8   38.33    7.99   3
   4  -5   8   93.35   11.74   3
  -4   5  -8   85.80   12.44   1
   5  -5   8   10.42    5.39   3
  -5   5  -8    9.31    7.22   1
   6  -5   8  137.05   15.55   3
   6   4  -8   42.14    9.12   2
   5   4  -8  606.49   40.57   2
   4   4  -8  859.33   49.27   1
   4   4  -8 1005.87   57.42   2
   3   4  -8  408.57   26.78   2
   3   4  -8  359.80   24.20   1
   2   4  -8    6.25    4.42   1
   2   4  -8    1.39    2.85   2
   1   4  -8  367.97   23.22   2
   1   4  -8  346.94   23.21   1
   0   4  -8  209.26   16.16   1
  -1   4  -8  280.53   19.64   1
  -2   4  -8  915.56   51.26   1
   2  -4   8 1037.14   60.36   3
   3  -4   8  522.95   35.30   3
  -3   4  -8  524.21   32.36   1
   4  -4   8  115.76   12.34   3
  -4   4  -8  111.52   13.93   1
   5  -4   8   75.78   10.28   3
  -5   4  -8   72.71   13.30   1
  -6   4  -8  205.53   22.48   1
   6  -4   8  221.28   19.59   3
   6   3  -8  115.42   14.21   2
   5   3  -8  235.47   20.08   2
   4   3  -8   17.29    5.36   1
   4   3  -8   15.21    5.71   2
   3   3  -8  878.59   50.71   2
   3   3  -8  777.31   43.49   1
   2   3  -8 1776.04   89.53   1
   2   3  -8 1933.89  104.19   2
   1   3  -8 1158.05   62.24   2
   1   3  -8 1013.52   54.87   1
   0   3  -8    6.36    4.03   1
   0   3  -8    4.71    2.41   2
  -1   3  -8  476.20   27.92   1
   2  -3   8  120.29   11.02   3
  -2   3  -8  116.18   11.75   1
   3  -3   8  151.07   12.96   3
  -3   3  -8  131.05   13.78   1
  -4   3  -8  335.32   25.16   1
   4  -3   8  355.29   24.96   3
  -5   3  -8  452.95   32.65   1
   5  -3   8  479.20   32.33   3
  -6   3  -8   76.16   14.46   1
   6  -3   8   66.60    9.54   3
   6   2  -8  620.13   42.40   2
   5   2  -8   40.40    8.57   2
   4   2  -8  145.67   14.29   2
   3   2  -8  142.22   11.93   1
   3   2  -8  149.30   13.58   2
   2   2  -8   45.44    6.80   1
   2   2  -8   44.44    6.61   2
   1   2  -8 1670.68   84.06   1
   1   2  -8 1839.23   97.92   2
   0   2  -8 2793.65  145.73   2
   0   2  -8 2545.04  125.00   1
  -1   2  -8  531.51   29.63   1
  -2   2  -8   11.78    4.78   1
   2  -2   8   11.69    3.49   3
  -3   2  -8  302.43   21.03   1
   3  -2   8  278.24   20.06   3
  -4   2  -8  244.00   20.76   1
   4  -2   8  264.30   18.82   3
   5  -2   8   13.19    4.68   3
  -5   2  -8   26.67    9.16   1
  -6   2  -8  175.77   20.50   1
  -7   2  -8   87.16   16.34   1
   6   1  -8  210.61   19.44   2
   5   1  -8 1667.38   97.60   2
   4   1  -8 1290.22   76.35   2
   3   1  -8   74.56    9.52   2
   3   1  -8   83.44    8.65   1
   2   1  -8  200.57   16.03   2
   2   1  -8  221.81   14.62   1
   1   1  -8  989.06   56.91   2
   1   1  -8  979.06   48.92   1
   0   1  -8  102.79    9.25   1
   0   1  -8  104.13    9.14   2
  -1   1  -8  601.33   30.51   1
  -1   1  -8  511.26   33.44   2
   2  -1   8 1933.68  108.58   3
  -2   1  -8 1889.31   91.82   1
  -3   1  -8  411.01   26.65   1
   3  -1   8  444.60   27.17   3
  -4   1  -8   -1.49    5.18   1
   4  -1   8    8.30    2.93   3
  -5   1  -8  497.77   34.77   1
   5  -1   8  528.54   33.06   3
  -6   1  -8  337.52   28.41   1
  -7   1  -8   22.16   10.19   1
   6   0  -8  167.86   16.83   2
   5   0  -8  103.19   12.44   2
   4   0  -8  194.04   17.18   2
   3   0  -8 1443.08   83.51   2
   2   0  -8 1805.40  107.89   2
   2   0  -8 2048.46   90.59   1
   1   0  -8  442.80   28.87   2
   1   0  -8  469.61   24.67   1
   0   0  -8  147.08   11.68   2
   0   0  -8  130.32   10.02   1
  -2   0  -8  157.34   11.93   2
  -2   0  -8  135.98   11.99   1
   3   0   8   94.31    7.43   3
  -3   0  -8   75.05    9.93   1
  -4   0  -8  667.87   40.36   1
   4   0   8  695.96   40.77   3
  -5   0  -8  214.11   20.22   1
  -6   0  -8    5.97    7.77   1
  -7   0  -8  325.12   29.36   1
   6  -1  -8  278.06   23.24   2
   5  -1  -8   10.96    5.80   2
   4  -1  -8  261.38   20.96   2
   3  -1  -8  167.51   15.00   2
   2  -1  -8   78.17    9.14   2
   2  -1  -8   87.71    6.95   1
   1  -1  -8 1748.22   97.03   2
   1  -1  -8 1693.46   80.12   1
   0  -1  -8 1348.70   78.10   2
   0  -1  -8 1384.29   64.87   1
  -1  -1  -8   44.86    5.95   1
  -1  -1  -8   42.15    6.90   2
  -2  -1  -8  478.44   28.37   1
  -2  -1  -8  538.55   32.61   2
  -3  -1  -8  884.04   51.44   1
   3   1   8  990.78   56.55   3
  -3  -1  -8 1099.96   56.65   2
  -4  -1  -8  365.64   25.61   1
  -5  -1  -8    7.33    7.40   1
  -6  -1  -8  334.39   28.02   1
  -7  -1  -8   95.78   16.70   1
  -8  -1  -8    6.79    9.78   1
   6  -2  -8  313.17   25.11   2
   5  -2  -8 1226.55   74.04   2
   4  -2  -8  259.83   20.99   2
   3  -2  -8   31.40    6.73   2
   2  -2  -8  540.20   34.94   2
   1  -2  -8  919.82   52.50   2
   1  -2  -8  812.95   41.18   1
   0  -2  -8   14.39    4.90   2
   0  -2  -8    6.74    2.53   1
  -1  -2  -8  991.73   60.60   2
  -1  -2  -8 1015.06   49.47   1
  -2  -2  -8  543.47   34.60   2
  -2  -2  -8  503.13   29.00   1
  -3  -2  -8   46.55    7.96   1
  -3  -2  -8   70.33    7.95   2
  -4  -2  -8  261.23   17.36   2
  -4  -2  -8  237.56   19.73   1
  -5  -2  -8  903.94   52.60   1
  -6  -2  -8  658.46   43.63   1
  -7  -2  -8    8.00    8.30   1
  -8  -2  -8   17.06   11.84   1
   6  -3  -8  211.62   19.19   2
   5  -3  -8   16.92    6.34   2
   4  -3  -8  373.08   27.50   2
   3  -3  -8  646.67   41.70   2
   2  -3  -8  313.86   23.18   2
   1  -3  -8    6.41    4.00   2
   0  -3  -8  788.65   49.73   2
   0  -3  -8  792.74   38.37   1
  -1  -3  -8 1546.96   88.62   2
  -1  -3  -8 1452.54   71.19   1
  -2  -3  -8  167.66   15.68   2
  -2  -3  -8  148.48   12.09   1
  -3  -3  -8  288.91   20.90   2
  -3  -3  -8  258.18   19.00   1
  -4  -3  -8  110.08   12.84   1
  -4  -3  -8   76.94    9.18   2
  -5  -3  -8  134.94   16.04   1
  -6  -3  -8  452.82   33.97   1
  -7  -3  -8  618.70   44.87   1
  -8  -3  -8  388.03   36.15   1
   6  -4  -8   28.67    7.82   2
   5  -4  -8  214.41   19.18   2
   4  -4  -8  261.24   21.52   2
   3  -4  -8  147.82   14.92   2
   2  -4  -8   29.90    7.21   2
   1  -4  -8  784.85   49.97   2
   0  -4  -8  385.23   18.84   1
   0  -4  -8  324.52   26.65   2
  -1  -4  -8   77.76    7.33   1
  -1  -4  -8   73.24   11.36   2
  -2  -4  -8 1283.76   61.48   1
  -2  -4  -8 1212.53   75.45   2
  -3  -4  -8 1498.96   74.00   1
  -3  -4  -8 1478.62   87.09   2
  -4  -4  -8  590.50   35.41   1
  -4  -4  -8  573.04   37.54   2
  -5  -4  -8  145.64   16.13   1
  -6  -4  -8  370.29   30.31   1
  -7  -4  -8   17.07    9.74   1
   5  -5  -8  240.05   20.91   2
   4  -5  -8   66.40   10.34   2
   3  -5  -8  143.72   15.22   2
   2  -5  -8  723.51   47.54   2
   0  -5  -8    4.60    4.87   2
  -1  -5  -8  385.94   22.49   1
  -1  -5  -8  448.69   33.06   2
  -2  -5  -8  327.35   19.43   1
  -2  -5  -8  291.43   25.77   2
  -3  -5  -8   12.12    6.33   2
  -3  -5  -8    8.50    4.73   1
  -4  -5  -8  537.13   32.87   1
  -4  -5  -8  498.76   35.35   2
  -5  -5  -8 2089.62  121.54   2
  -5  -5  -8 2184.83  108.86   1
  -6  -5  -8  279.30   25.53   1
   5  -6  -8    7.55    4.63   2
   5  -6  -8    4.36    4.21   3
   4  -6  -8  123.36   14.50   2
   3  -6  -8  148.46   15.99   2
   2  -6  -8   10.19    5.81   2
   1  -6  -8  419.01   28.56   3
   1  -6  -8  365.24   30.42   2
   0  -6  -8 1484.92   90.92   2
   1   6   8  918.16   29.21   4
  -1  -6  -8 1087.70   65.50   2
   1   6   8  939.49   47.62   1
  -2  -6  -8   35.29    9.92   2
   2   6   8   34.77    3.32   4
   2   6   8   33.14    5.50   1
  -3  -6  -8   29.15    8.89   2
  -4  -6  -8  243.82   21.83   2
  -5  -6  -8   34.69    8.37   2
   6   6   8  294.44   13.30   4
   6   6   8  267.14   21.13   1
   7   6   8  493.62   20.21   4
   7   6   8  502.61   33.03   1
   4  -7  -8  283.62   24.74   2
   4  -7  -8  299.85   24.63   3
   3  -7  -8   46.64   10.00   2
   3  -7  -8   48.14    9.43   3
   2  -7  -8   42.36    9.75   2
   2  -7  -8   54.49    9.38   3
   1  -7  -8  324.69   28.38   2
   0  -7  -8   62.34   12.52   2
  -1  -7  -8  474.48   38.01   2
   2   7   8 1096.32   32.38   4
  -2  -7  -8 1000.78   69.20   2
   2   7   8 1089.69   52.72   1
   3   7   8  621.07   20.52   4
  -3  -7  -8  577.07   43.85   2
   3   7   8  625.24   33.50   1
   4   7   8   90.91    6.26   4
   4   7   8   85.08   10.18   1
  -4  -7  -8   86.56   13.54   2
   5   7   8   99.92   11.72   1
  -5  -7  -8  108.70   14.53   2
   5   7   8  106.78    7.19   4
   6   7   8  219.58   11.32   4
   6   7   8  210.02   18.34   1
   7   7   8    1.72    5.22   1
   7   7   8    2.05    3.32   4
   4  -8  -8   62.22   11.28   3
   4  -8  -8   55.36   10.26   2
   3  -8  -8  208.31   19.53   3
   3  -8  -8  171.87   19.25   2
   2  -8  -8  615.72   45.17   2
   1  -8  -8  406.64   34.17   2
   0  -8  -8   42.51   11.42   2
  -1  -8  -8  313.35   29.58   2
  -2  -8  -8   19.62    8.56   2
   2   8   8   15.47    5.15   1
  -3  -8  -8   84.65   14.80   2
   3   8   8  103.82   10.58   1
   4   8   8  800.58   26.56   4
  -4  -8  -8  761.32   55.04   2
   4   8   8  815.49   43.42   1
  -5  -8  -8  617.77   45.06   2
   5   8   8  592.45   35.93   1
   5   8   8  611.21   22.10   4
   6   8   8   69.65   11.72   1
   6   8   8   47.71    6.13   4
   3  -9  -8   46.85   10.57   2
   2  -9  -8   37.54   10.26   2
   1  -9  -8  561.70   43.88   2
   0  -9  -8 1087.41   73.74   2
  -1  -9  -8  403.40   36.20   2
  -2  -9  -8   15.26    9.24   2
  -3  -9  -8  129.54   19.09   2
   3   9   8  184.86   14.35   1
   4   9   8   88.31   11.00   1
  -4  -9  -8   94.03   15.78   2
  -5  -9  -8   33.99   10.95   2
   5   9   8   29.08    7.91   1
   6   9   8  481.42   32.47   1
   2 -10  -8  103.28   15.97   2
   1 -10  -8  175.08   21.46   2
   0 -10  -8   17.90    9.08   2
  -1 -10  -8  297.47   30.87   2
  -2 -10  -8  474.09   41.25   2
  -3 -10  -8  199.11   23.79   2
   4  10   8    1.78    5.00   1
  -4 -10  -8    0.16    5.54   2
   5  10   8  210.16   18.79   1
   0 -11  -8  105.67   18.52   2
  -1 -11  -8  115.65   20.21   2
  -2 -11  -8    9.06    8.16   2
  -3 -11  -8   66.21   16.82   2
   2   8  -9   14.72    6.99   1
   1   8  -9  238.88   21.63   1
   0   8  -9   39.97    9.99   1
  -1   8  -9   22.03    8.33   1
  -2   8  -9  103.20   14.51   1
   4   7  -9    0.99    4.48   1
   3   7  -9  239.82   20.35   1
   2   7  -9  468.74   31.67   1
   1   7  -9  130.12   14.27   1
   0   7  -9   77.64   11.56   1
  -1   7  -9  260.84   21.57   1
  -2   7  -9  180.99   17.73   1
  -3   7  -9   16.98    6.97   1
   3  -7   9   13.88    6.37   3
   4  -7   9   38.01   10.02   3
   5   6  -9    0.46    4.22   2
   4   6  -9  150.37   15.11   1
   4   6  -9  183.66   16.19   2
   3   6  -9  282.33   21.44   1
   2   6  -9    6.10    5.49   1
   1   6  -9  162.87   15.67   1
   0   6  -9  342.94   24.31   1
  -1   6  -9  144.78   14.86   1
  -2   6  -9   40.64    8.97   1
   2  -6   9   47.94    9.69   3
   3  -6   9  350.90   27.14   3
  -3   6  -9  293.60   23.96   1
   4  -6   9  217.67   20.05   3
  -4   6  -9  180.64   18.61   1
   5  -6   9   26.45    8.43   3
   5   5  -9  444.08   32.19   2
   4   5  -9  523.93   33.42   1
   4   5  -9  577.49   37.35   2
   3   5  -9   22.68    6.65   1
   3   5  -9   32.31    6.65   2
   2   5  -9  359.69   24.70   1
   1   5  -9  682.45   39.33   1
   0   5  -9  144.50   13.89   1
  -1   5  -9   48.67    8.62   1
   2  -5   9  180.34   16.57   3
  -2   5  -9  167.46   15.50   1
   3  -5   9   84.28   10.62   3
  -3   5  -9   63.49   10.74   1
   4  -5   9   73.69   10.31   3
  -4   5  -9   71.42   11.60   1
   5  -5   9  286.60   22.95   3
  -5   5  -9  213.14   22.02   1
   6   4  -9  289.94   24.91   2
   5   4  -9  166.02   16.58   2
   4   4  -9   10.50    5.07   1
   4   4  -9    4.61    4.25   2
   3   4  -9  441.20   29.09   2
   3   4  -9  393.67   26.16   1
   2   4  -9  409.63   27.63   1
   2   4  -9  487.30   29.87   2
   1   4  -9   15.58    5.77   1
   0   4  -9 1054.29   55.19   1
  -1   4  -9  860.70   46.80   1
   2  -4   9  189.50   16.16   3
  -2   4  -9  173.84   15.28   1
   3  -4   9    1.71    3.21   3
  -3   4  -9    7.16    5.28   1
  -4   4  -9   65.75   11.22   1
   4  -4   9   68.93    9.39   3
  -5   4  -9   38.42   10.07   1
   5  -4   9   58.72    9.56   3
   6  -4   9   42.13    8.64   3
  -6   4  -9   39.32   11.71   1
   6   3  -9   33.84    9.17   2
   5   3  -9   81.07   11.68   2
   4   3  -9  856.26   47.39   1
   4   3  -9  925.57   55.85   2
   3   3  -9  725.99   41.21   1
   3   3  -9  795.22   47.75   2
   2   3  -9    2.81    4.65   1
   2   3  -9    2.91    3.21   2
   1   3  -9  523.29   31.30   1
   1   3  -9  570.95   34.02   2
   0   3  -9  455.76   27.45   1
  -1   3  -9   14.49    5.43   1
   2  -3   9  546.88   34.90   3
  -2   3  -9  520.12   31.53   1
  -3   3  -9  947.02   54.08   1
   3  -3   9 1084.05   61.95   3
  -4   3  -9  306.98   24.05   1
   4  -3   9  316.11   23.09   3
   5  -3   9   15.60    5.27   3
  -5   3  -9    9.28    6.87   1
  -6   3  -9   79.66   14.32   1
   6   2  -9  158.40   17.46   2
   5   2  -9  457.64   33.43   2
   4   2  -9  174.32   16.54   2
   3   2  -9  167.68   13.68   1
   3   2  -9  154.36   14.80   2
   2   2  -9 1286.85   65.11   1
   2   2  -9 1332.04   75.79   2
   1   2  -9 1725.44   95.07   2
   1   2  -9 1656.81   81.81   1
   0   2  -9  307.03   20.15   2
   0   2  -9  294.62   19.53   1
  -1   2  -9   54.04    7.35   1
  -2   2  -9  326.14   21.74   1
   3  -2   9   -0.24    2.23   3
  -3   2  -9   -0.19    4.80   1
  -4   2  -9  247.25   21.30   1
   4  -2   9  291.35   19.98   3
   5  -2   9  695.81   40.92   3
  -5   2  -9  570.06   39.95   1
  -6   2  -9  267.24   24.93   1
  -7   2  -9   29.90   11.39   1
   6   1  -9  466.18   34.99   2
   5   1  -9  201.79   19.00   2
   4   1  -9   44.27    8.55   2
   3   1  -9  261.10   17.30   1
   3   1  -9  249.50   20.25   2
   2   1  -9   76.10    8.76   1
   2   1  -9   69.83    8.87   2
   1   1  -9  204.18   14.70   1
   1   1  -9  218.99   16.25   2
   0   1  -9 2035.23  111.43   2
   0   1  -9 1975.22   95.32   1
  -1   1  -9 1386.77   67.58   1
  -1   1  -9 1361.09   78.00   2
  -2   1  -9  267.24   18.54   1
  -3   1  -9   46.66    8.63   1
   3  -1   9   45.43    5.72   3
   4  -1   9  172.19   13.79   3
  -4   1  -9  195.61   17.95   1
  -5   1  -9   16.73    8.47   1
  -6   1  -9   44.21   11.94   1
  -7   1  -9  414.46   34.14   1
   6   0  -9    5.00    4.75   2
   5   0  -9  423.31   31.63   2
   4   0  -9 1699.40   99.18   2
   3   0  -9  577.96   38.08   2
   2   0  -9    1.90    3.09   2
   2   0  -9    6.35    3.37   1
   1   0  -9  420.81   23.54   1
   1   0  -9  423.72   27.85   2
   0   0  -9  208.79   16.03   2
   0   0  -9  209.93   14.00   1
  -1   0  -9  273.20   16.56   1
  -1   0  -9  213.67   17.95   2
  -2   0  -9 1501.04   76.69   1
  -2   0  -9 1636.95   88.71   2
   3   0   9 1095.11   61.54   3
  -3   0  -9 1027.95   55.55   1
  -4   0  -9  392.93   27.37   1
  -5   0  -9   23.37    8.63   1
  -6   0  -9  219.62   22.14   1
  -7   0  -9  119.28   18.28   1
   6  -1  -9   87.25   12.16   2
   5  -1  -9  213.45   19.63   2
   4  -1  -9    5.28    4.60   2
   3  -1  -9  733.40   46.54   2
   2  -1  -9 2196.41  123.63   2
   1  -1  -9 1199.88   68.31   2
   1  -1  -9 1133.66   55.86   1
   0  -1  -9    2.54    2.74   1
   0  -1  -9    1.60    3.19   2
  -1  -1  -9  188.68   16.78   2
  -1  -1  -9  222.66   14.49   1
  -2  -1  -9  199.94   16.64   2
  -2  -1  -9  205.87   15.22   1
  -3  -1  -9    6.05    3.23   2
  -3  -1  -9    6.98    4.75   1
  -4  -1  -9  642.68   38.65   1
  -5  -1  -9  449.51   31.39   1
  -6  -1  -9  290.59   26.05   1
  -7  -1  -9   99.25   17.13   1
   6  -2  -9  394.34   30.54   2
   5  -2  -9   80.13   11.36   2
   4  -2  -9  125.94   13.78   2
   3  -2  -9  122.63   13.20   2
   2  -2  -9   29.90    6.75   2
   1  -2  -9  438.12   23.81   1
   1  -2  -9  495.87   31.76   2
   0  -2  -9 2582.31  145.36   2
   0  -2  -9 2608.92  119.98   1
  -1  -2  -9 1060.76   51.43   1
  -1  -2  -9 1015.98   62.91   2
  -2  -2  -9    9.38    4.52   2
  -2  -2  -9    8.56    4.06   1
  -3  -2  -9  356.55   24.11   1
  -3  -2  -9  405.59   26.12   2
  -4  -2  -9  364.90   23.92   2
  -4  -2  -9  371.57   25.58   1
  -5  -2  -9   26.06    8.89   1
  -6  -2  -9  343.08   28.35   1
  -7  -2  -9  418.88   34.04   1
  -8  -2  -9   97.84   19.40   1
   6  -3  -9   55.23   10.24   2
   5  -3  -9  736.60   48.70   2
   4  -3  -9  692.16   45.62   2
   3  -3  -9  517.97   35.53   2
   2  -3  -9   20.46    6.09   2
   1  -3  -9  475.33   32.71   2
   0  -3  -9  188.15   17.45   2
   0  -3  -9  204.20   12.31   1
  -1  -3  -9  303.64   18.77   1
  -1  -3  -9  353.29   26.17   2
  -2  -3  -9 1709.37   82.40   1
  -2  -3  -9 1711.22   99.80   2
  -3  -3  -9  884.00   49.27   1
  -3  -3  -9  999.84   57.71   2
  -4  -3  -9    2.26    5.14   1
  -4  -3  -9    4.71    3.64   2
  -5  -3  -9  160.41   17.08   1
  -6  -3  -9  853.19   52.42   1
  -7  -3  -9   89.90   16.06   1
   6  -4  -9   74.40   11.83   2
   5  -4  -9   47.50    9.48   2
   4  -4  -9   29.93    7.85   2
   3  -4  -9  690.34   45.45   2
   2  -4  -9  941.77   58.79   2
   1  -4  -9  261.63   21.89   2
   0  -4  -9  109.08    8.06   1
   0  -4  -9  113.49   13.46   2
  -1  -4  -9  598.37   32.20   1
  -1  -4  -9  662.01   43.70   2
  -2  -4  -9  349.10   20.98   1
  -2  -4  -9  343.06   27.65   2
  -3  -4  -9   59.59    8.30   1
  -3  -4  -9   49.45    9.23   2
  -4  -4  -9  408.11   28.32   2
  -4  -4  -9  379.45   26.25   1
  -5  -4  -9  382.65   26.83   2
  -5  -4  -9  383.68   27.96   1
  -6  -4  -9    7.97    7.50   1
  -7  -4  -9  185.39   22.05   1
   5  -5  -9    6.27    4.42   2
   4  -5  -9  150.43   16.11   2
   3  -5  -9  207.41   19.35   2
   2  -5  -9   48.75    9.49   2
   1  -5  -9  648.66   44.25   2
   0  -5  -9 1107.93   69.61   2
  -1  -5  -9  236.54   22.20   2
  -1  -5  -9  202.29   13.57   1
  -2  -5  -9  150.31   17.52   2
  -2  -5  -9  143.19   11.49   1
  -3  -5  -9  707.15   38.33   1
  -3  -5  -9  678.09   46.71   2
  -4  -5  -9  333.46   26.32   2
  -4  -5  -9  338.19   23.92   1
  -5  -5  -9    3.48    4.28   2
  -5  -5  -9   -0.54    4.73   1
  -6  -5  -9  200.42   20.68   1
  -7  -5  -9  164.37   21.42   1
   5  -6  -9  323.22   26.92   2
   4  -6  -9  442.46   33.40   2
   3  -6  -9    2.24    4.56   2
   2  -6  -9   68.31   11.38   2
   1  -6  -9  514.30   37.93   2
   0  -6  -9   82.47   13.17   2
  -1  -6  -9  455.45   34.11   2
   1   6   9  368.71   21.31   1
   1   6   9  373.72   13.11   4
  -2  -6  -9  586.37   31.40   1
  -2  -6  -9  569.22   42.72   2
  -3  -6  -9   63.61    8.53   1
  -3  -6  -9   50.12   11.06   2
  -4  -6  -9  107.65   14.32   2
  -4  -6  -9  102.75   12.17   1
  -5  -6  -9  746.63   44.41   1
  -5  -6  -9  711.82   48.49   2
   7   6   9   66.83    6.58   4
   7   6   9   74.68   10.96   1
   4  -7  -9   47.61    9.18   3
   4  -7  -9   55.67   10.34   2
   3  -7  -9  265.79   21.88   3
   3  -7  -9  238.37   22.88   2
   2  -7  -9  304.25   26.78   2
   2  -7  -9  319.99   24.88   3
   1  -7  -9    2.32    5.06   2
   0  -7  -9  639.67   46.66   2
  -1  -7  -9  908.64   61.84   2
   2   7   9  142.02   11.25   1
   2   7   9  150.06    6.94   4
  -2  -7  -9  145.66   18.71   2
   3   7   9   72.78    8.60   1
   3   7   9   72.63    5.21   4
  -3  -7  -9   46.39   11.65   2
   4   7   9  204.64    9.61   4
   4   7   9  193.40   15.49   1
  -4  -7  -9  227.99   22.39   2
   5   7   9   48.50    8.66   1
   5   7   9   44.73    5.07   4
  -5  -7  -9   51.75   11.05   2
   6   7   9   47.24    5.52   4
   6   7   9   45.89    9.20   1
   3  -8  -9   17.73    6.88   2
   2  -8  -9    6.03    5.96   2
   1  -8  -9  474.50   37.91   2
   0  -8  -9  489.14   39.24   2
  -1  -8  -9   17.46    8.72   2
  -2  -8  -9  361.70   32.53   2
  -3  -8  -9  569.69   47.53   2
   3   8   9  701.59   35.79   1
   3   8   9  689.47   21.85   4
  -4  -8  -9  272.64   26.52   2
   4   8   9  262.95   11.36   4
   4   8   9  261.74   18.80   1
   5   8   9    8.79    3.08   4
  -5  -8  -9   -0.68    5.26   2
   5   8   9    0.36    4.82   1
   6   8   9  120.95   14.17   1
   6   8   9  123.22    8.47   4
   3  -9  -9   45.54   10.80   2
   2  -9  -9  280.91   26.83   2
   1  -9  -9  251.42   25.60   2
   0  -9  -9   15.94    8.60   2
  -1  -9  -9  137.54   19.12   2
  -2  -9  -9  143.36   19.67   2
   3   9   9    0.80    4.43   1
  -3  -9  -9    1.71    5.97   2
   4   9   9  239.31   17.87   1
  -4  -9  -9  229.86   25.60   2
   5   9   9  428.18   27.28   1
  -5  -9  -9  382.22   35.36   2
   1 -10  -9  102.66   16.89   2
   0 -10  -9  547.29   44.59   2
  -1 -10  -9  416.63   37.65   2
  -2 -10  -9   55.21   14.29   2
  -3 -10  -9   61.29   14.90   2
  -4 -10  -9   81.63   16.62   2
   4  10   9  100.81   11.44   1
  -1 -11  -9   77.61   16.95   2
  -2 -11  -9  413.27   39.61   2
   0   8 -10  213.45   20.72   1
   3   7 -10  406.59   29.37   1
   2   7 -10   48.71    9.77   1
   1   7 -10   33.01    8.11   1
   0   7 -10   70.75   11.75   1
  -1   7 -10    7.32    6.23   1
  -2   7 -10  126.59   15.49   1
  -3   7 -10  217.93   21.33   1
   3  -7  10  259.40   24.06   3
   4   6 -10   15.47    6.66   1
   3   6 -10  147.79   15.25   1
   2   6 -10  529.54   33.92   1
   1   6 -10  338.20   24.43   1
   0   6 -10   76.83   11.06   1
  -1   6 -10   82.08   11.80   1
  -2   6 -10  184.77   17.30   1
  -3   6 -10   12.12    6.88   1
   3  -6  10    9.72    5.83   3
   4  -6  10   77.95   11.27   3
  -4   6 -10   49.09   11.58   1
   5   5 -10  102.05   13.40   2
   4   5 -10    9.57    5.23   1
   4   5 -10    0.84    3.81   2
   3   5 -10  301.56   22.54   1
   2   5 -10   61.56   10.17   1
   1   5 -10  222.52   18.10   1
   0   5 -10  555.88   33.90   1
  -1   5 -10  494.53   31.46   1
  -2   5 -10   73.31   10.82   1
  -3   5 -10   80.74   11.87   1
   3  -5  10   88.46   11.21   3
  -4   5 -10  248.32   22.33   1
   4  -5  10  286.34   23.03   3
   5  -5  10   36.87    8.63   3
  -5   5 -10   37.92   11.74   1
   5   4 -10  365.21   28.77   2
   4   4 -10  915.17   56.62   2
   4   4 -10  880.90   49.23   1
   3   4 -10  594.22   38.09   2
   3   4 -10  551.50   34.18   1
   2   4 -10   19.46    6.73   1
   1   4 -10  257.25   19.22   1
   0   4 -10  187.21   15.98   1
  -1   4 -10    6.57    5.24   1
  -2   4 -10  174.57   15.55   1
  -3   4 -10  389.12   27.50   1
   3  -4  10  421.29   29.36   3
   4  -4  10   42.02    8.12   3
  -4   4 -10   40.84    9.67   1
  -5   4 -10   64.71   12.77   1
   5  -4  10   86.65   10.65   3
  -6   4 -10  246.94   24.79   1
   5   3 -10  124.39   14.74   2
   4   3 -10   16.12    6.51   2
   3   3 -10  377.04   25.32   1
   3   3 -10  391.78   27.85   2
   2   3 -10  780.30   44.09   1
   2   3 -10  851.01   50.12   2
   1   3 -10  295.68   20.44   1
   0   3 -10    0.76    4.01   1
  -1   3 -10  409.52   25.89   1
  -2   3 -10  564.98   33.73   1
   3  -3  10   36.04    6.79   3
  -3   3 -10   32.34    8.10   1
  -4   3 -10  101.79   13.79   1
   4  -3  10  125.61   12.14   3
   5  -3  10  155.23   13.89   3
  -5   3 -10  117.60   16.20   1
  -6   3 -10    8.41    7.70   1
   6   2 -10  415.36   32.97   2
   5   2 -10   50.10   10.04   2
   4   2 -10  118.96   13.75   2
   3   2 -10  695.32   44.67   2
   3   2 -10  690.69   38.43   1
   2   2 -10   62.33    8.36   1
   2   2 -10   40.41    7.45   2
   1   2 -10  199.43   15.46   1
   1   2 -10  195.07   15.66   2
   0   2 -10  714.51   38.99   1
  -1   2 -10  517.68   30.14   1
  -2   2 -10   49.44    8.43   1
   3  -2  10  860.11   51.75   3
  -3   2 -10  835.66   47.11   1
  -4   2 -10  472.41   32.29   1
   4  -2  10  500.86   32.10   3
  -5   2 -10   84.85   13.95   1
  -6   2 -10   21.06    9.54   1
   6   1 -10   28.81    9.39   2
   5   1 -10  585.33   41.33   2
   4   1 -10  862.00   55.16   2
   3   1 -10   63.76    9.64   2
   2   1 -10  345.90   21.91   1
   2   1 -10  359.51   25.41   2
   1   1 -10 1079.82   64.06   2
   1   1 -10 1109.45   55.30   1
   0   1 -10  429.63   27.36   2
   0   1 -10  395.14   24.21   1
  -1   1 -10   23.72    5.68   1
  -2   1 -10  372.42   23.97   1
  -3   1 -10  226.27   18.90   1
   3  -1  10  254.67   17.35   3
  -4   1 -10   30.17    8.38   1
  -5   1 -10  490.75   34.31   1
  -6   1 -10  287.31   25.67   1
  -7   1 -10  202.58   23.56   1
   6   0 -10  219.14   21.58   2
   5   0 -10  274.01   24.00   2
   4   0 -10    1.73    4.32   2
   3   0 -10  863.04   54.12   2
   2   0 -10  574.83   30.26   1
   2   0 -10  530.99   36.14   2
   1   0 -10   18.88    5.25   2
   1   0 -10   12.86    4.10   1
   0   0 -10  361.91   21.62   1
   0   0 -10  363.17   25.07   2
  -1   0 -10 1575.29   76.62   1
  -2   0 -10  897.87   47.42   1
  -3   0 -10   18.55    6.71   1
  -4   0 -10  207.65   18.47   1
  -5   0 -10   84.21   13.39   1
  -6   0 -10   26.04    9.55   1
  -7   0 -10  365.61   31.80   1
   6  -1 -10  153.52   17.39   2
   5  -1 -10   12.59    6.24   2
   4  -1 -10  818.96   53.05   2
   3  -1 -10  887.05   55.63   2
   2  -1 -10  202.41   17.62   2
   1  -1 -10  281.47   16.65   1
   1  -1 -10  270.16   20.87   2
   0  -1 -10  316.19   23.32   2
   0  -1 -10  321.48   19.11   1
  -1  -1 -10   88.21   10.79   2
  -1  -1 -10   89.42    9.25   1
  -2  -1 -10  293.76   20.28   1
  -2  -1 -10  321.46   23.31   2
  -3  -1 -10 1832.71   90.65   1
  -4  -1 -10  996.01   54.95   1
  -5  -1 -10   19.49    8.23   1
  -6  -1 -10   42.77   11.42   1
  -7  -1 -10  191.66   21.99   1
   6  -2 -10   47.95   10.63   2
   5  -2 -10  251.41   22.54   2
   4  -2 -10  185.55   18.08   2
   3  -2 -10    6.99    4.85   2
   2  -2 -10 1120.53   67.61   2
   1  -2 -10 1058.04   63.83   2
   0  -2 -10  237.43   20.31   2
   0  -2 -10  274.87   15.98   1
  -1  -2 -10   61.77    7.29   1
  -1  -2 -10   56.67    9.28   2
  -2  -2 -10  305.65   23.88   2
  -2  -2 -10  303.76   19.99   1
  -3  -2 -10   57.89    8.32   2
  -3  -2 -10   64.39    9.54   1
  -4  -2 -10  256.29   20.42   1
  -5  -2 -10  663.69   41.35   1
  -6  -2 -10  674.66   44.15   1
  -7  -2 -10   40.77   12.17   1
   5  -3 -10  205.31   19.76   2
   4  -3 -10   36.23    8.86   2
   3  -3 -10  340.54   26.57   2
   2  -3 -10  200.15   18.25   2
   1  -3 -10  316.05   24.69   2
   0  -3 -10  867.52   44.30   1
   0  -3 -10  949.98   57.43   2
  -1  -3 -10 1550.09   76.27   1
  -1  -3 -10 1646.77   94.85   2
  -2  -3 -10  478.93   26.92   1
  -2  -3 -10  449.18   33.36   2
  -3  -3 -10   25.96    6.43   1
  -3  -3 -10   16.12    6.13   2
  -4  -3 -10  155.78   13.86   2
  -4  -3 -10  137.52   14.65   1
  -5  -3 -10   18.03    7.49   1
  -6  -3 -10   84.03   13.95   1
  -7  -3 -10  412.32   33.65   1
   5  -4 -10  201.43   19.67   2
   4  -4 -10  781.54   51.74   2
   3  -4 -10  889.33   57.02   2
   2  -4 -10   54.23    9.90   2
   1  -4 -10   21.50    7.21   2
   0  -4 -10  128.19   14.86   2
  -1  -4 -10    2.26    2.67   1
  -1  -4 -10    7.16    5.53   2
  -2  -4 -10  868.82   44.48   1
  -2  -4 -10  855.12   56.21   2
  -3  -4 -10 1411.84   84.70   2
  -3  -4 -10 1410.23   70.66   1
  -4  -4 -10  343.55   25.42   2
  -4  -4 -10  313.65   23.13   1
  -5  -4 -10    4.42    4.35   2
  -5  -4 -10    2.39    5.07   1
  -6  -4 -10  206.67   20.81   1
  -7  -4 -10  146.00   20.50   1
   5  -5 -10   83.63   12.78   2
   4  -5 -10   26.45    7.99   2
   3  -5 -10  283.11   24.40   2
   2  -5 -10  714.75   48.21   2
   1  -5 -10  514.62   37.37   2
   0  -5 -10   94.36   13.38   2
  -1  -5 -10  120.27    9.80   1
  -1  -5 -10  156.94   17.67   2
  -2  -5 -10  303.21   26.83   2
  -2  -5 -10  302.00   18.86   1
  -3  -5 -10    5.28    4.24   1
  -3  -5 -10    8.66    6.24   2
  -4  -5 -10  447.49   33.37   2
  -4  -5 -10  456.51   29.05   1
  -5  -5 -10  778.53   49.73   2
  -5  -5 -10  754.38   45.62   1
  -6  -5 -10  267.63   23.91   1
  -7  -5 -10    2.97    6.92   1
   4  -6 -10    8.36    4.83   2
   3  -6 -10  280.58   24.74   2
   2  -6 -10    7.27    5.11   2
   1  -6 -10  131.33   16.09   2
   0  -6 -10 1361.41   84.82   2
  -1  -6 -10 1184.43   75.92   2
  -2  -6 -10   91.63   14.89   2
  -2  -6 -10   86.49    8.75   1
  -3  -6 -10   77.75   13.48   2
  -3  -6 -10   84.26    9.91   1
  -4  -6 -10  331.12   29.15   2
  -4  -6 -10  384.86   25.26   1
  -5  -6 -10  104.70   13.67   1
  -5  -6 -10   93.89   13.48   2
  -6  -6 -10  107.02   14.91   1
   4  -7 -10  473.57   34.45   3
   4  -7 -10  470.10   36.29   2
   3  -7 -10  128.03   14.08   3
   3  -7 -10  137.58   16.28   2
   2  -7 -10    3.35    4.48   2
   1  -7 -10  241.27   23.57   2
   0  -7 -10   48.34   11.36   2
  -1  -7 -10   54.47   12.37   2
   2   7  10  434.65   15.31   4
  -2  -7 -10  483.09   37.96   2
   2   7  10  438.20   24.97   1
  -3  -7 -10  443.19   37.65   2
   3   7  10  515.08   16.82   4
   3   7  10  472.58   26.99   1
  -4  -7 -10   51.73   12.00   2
   4   7  10   45.55    7.80   1
   4   7  10   56.76    4.92   4
   5   7  10   83.45    6.14   4
  -5  -7 -10   84.76   13.76   2
   5   7  10   75.16   10.24   1
   6   7  10  225.59   18.68   1
   6   7  10  220.72   11.27   4
   3  -8 -10  276.51   25.77   2
   2  -8 -10  406.04   33.72   2
   1  -8 -10  217.69   22.83   2
   0  -8 -10   18.83    8.74   2
  -1  -8 -10  253.97   26.12   2
  -2  -8 -10  155.70   20.69   2
   3   8  10    6.27    4.46   1
  -3  -8 -10   -0.11    6.03   2
   3   8  10    2.38    2.33   4
   4   8  10  251.61   11.07   4
   4   8  10  258.77   18.19   1
  -4  -8 -10  263.62   26.64   2
   5   8  10  192.57    9.60   4
  -5  -8 -10  187.88   21.82   2
   5   8  10  191.47   15.86   1
   6   8  10    6.81    3.38   4
   6   8  10   12.22    6.71   1
   2  -9 -10    9.74    7.31   2
   1  -9 -10  231.77   24.34   2
   0  -9 -10  524.04   42.22   2
  -1  -9 -10  353.70   32.78   2
  -2  -9 -10   34.89   11.26   2
  -3  -9 -10  333.50   32.36   2
   4   9  10  287.85   19.57   1
  -4  -9 -10  261.80   28.32   2
  -5  -9 -10   12.86    8.72   2
   5   9  10   18.02    6.91   1
   1 -10 -10  156.53   20.08   2
   0 -10 -10   57.75   13.72   2
  -1 -10 -10   68.22   15.14   2
  -2 -10 -10  357.55   34.66   2
  -3 -10 -10  145.36   21.57   2
   4  10  10   19.50    6.40   1
  -4 -10 -10   18.28   10.75   2
   2   7 -11  180.05   17.92   1
   1   7 -11   55.44   10.34   1
   0   7 -11   89.97   13.07   1
  -1   7 -11  364.37   27.93   1
  -2   7 -11  300.56   24.89   1
   3   6 -11  510.88   33.75   1
   2   6 -11  281.53   22.02   1
   1   6 -11    7.12    4.74   1
   0   6 -11  126.72   13.82   1
  -1   6 -11   92.03   12.82   1
  -2   6 -11   29.63    8.47   1
  -3   6 -11  277.12   23.71   1
   4   5 -11  163.81   15.74   1
   3   5 -11    6.66    5.60   1
   2   5 -11  389.30   26.78   1
   1   5 -11  613.06   36.97   1
   0   5 -11  303.40   22.57   1
  -1   5 -11   32.76    7.78   1
  -2   5 -11   94.33   12.55   1
  -3   5 -11   83.79   12.70   1
   4  -5  11   27.21    7.59   3
  -4   5 -11   17.50    8.04   1
   4   4 -11   57.32   10.09   2
   3   4 -11   88.48   11.67   1
   3   4 -11   88.93   11.62   2
   2   4 -11  246.94   19.36   1
   1   4 -11   17.46    6.58   1
   0   4 -11  354.17   24.53   1
  -1   4 -11  806.66   45.33   1
  -2   4 -11  502.49   32.08   1
  -3   4 -11   -1.14    4.68   1
   4  -4  11  117.49   12.76   3
  -4   4 -11  118.25   15.15   1
   5  -4  11   67.94    9.56   3
  -5   4 -11   54.53   12.93   1
   5   3 -11   82.74   12.87   2
   4   3 -11  829.23   53.69   2
   3   3 -11 1059.24   55.90   1
   3   3 -11 1042.36   64.23   2
   2   3 -11  187.31   16.37   2
   2   3 -11  172.88   15.35   1
   1   3 -11   47.88    8.47   1
   0   3 -11  355.36   23.93   1
  -1   3 -11   17.11    5.92   1
  -2   3 -11  387.10   26.01   1
  -3   3 -11  592.05   36.52   1
   4  -3  11  239.63   19.04   3
  -4   3 -11  229.10   20.82   1
  -5   3 -11    9.21    7.09   1
  -6   3 -11   87.76   16.51   1
   5   2 -11  169.33   18.51   2
   4   2 -11   50.58    9.82   2
   3   2 -11  114.80   13.32   2
   2   2 -11 1422.26   82.88   2
   2   2 -11 1410.59   71.22   1
   1   2 -11 1075.36   57.59   1
   1   2 -11 1164.01   66.10   2
   0   2 -11  222.81   17.01   1
  -1   2 -11   71.09    9.50   1
  -2   2 -11  467.68   29.27   1
  -3   2 -11   37.58    8.24   1
  -4   2 -11   84.05   13.01   1
  -5   2 -11  195.69   20.06   1
  -6   2 -11  103.83   17.12   1
   5   1 -11  379.38   30.92   2
   4   1 -11    2.55    4.65   2
   3   1 -11  342.86   26.58   2
   2   1 -11  165.83   13.72   1
   2   1 -11  152.61   15.20   2
   1   1 -11    2.35    3.94   1
   1   1 -11    7.46    4.37   2
   0   1 -11  915.33   54.59   2
   0   1 -11  903.64   47.41   1
  -1   1 -11  930.61   49.04   1
  -2   1 -11  306.67   21.45   1
  -3   1 -11   71.88   10.58   1
  -4   1 -11  494.21   32.88   1
  -5   1 -11  143.08   16.86   1
  -6   1 -11    5.82    6.79   1
   5   0 -11  334.34   28.33   2
   4   0 -11 1003.95   63.81   2
   3   0 -11  646.00   43.32   2
   2   0 -11   44.94    8.39   2
   1   0 -11  239.81   18.46   2
   1   0 -11  191.15   14.72   1
   0   0 -11  194.29   16.30   2
   0   0 -11  182.65   14.31   1
  -1   0 -11   59.90    8.02   1
  -1   0 -11   42.11    7.92   2
  -2   0 -11  404.81   25.82   1
  -3   0 -11  732.82   41.97   1
  -4   0 -11   92.16   12.89   1
  -5   0 -11   71.58   12.69   1
  -6   0 -11  221.03   22.16   1
  -7   0 -11  249.86   26.19   1
   5  -1 -11  108.09   14.84   2
   4  -1 -11   21.65    7.70   2
   3  -1 -11  387.76   29.45   2
   2  -1 -11 1030.03   63.17   2
   1  -1 -11  580.74   31.24   1
   1  -1 -11  600.95   39.00   2
   0  -1 -11   28.92    5.52   1
   0  -1 -11   19.73    5.95   2
  -1  -1 -11  274.83   22.71   2
  -1  -1 -11  317.38   19.74   1
  -2  -1 -11  847.78   45.48   1
  -3  -1 -11   85.42   11.30   1
  -4  -1 -11  121.93   14.15   1
  -5  -1 -11  139.04   16.17   1
  -6  -1 -11   40.98   11.35   1
  -7  -1 -11   48.69   13.52   1
   5  -2 -11   78.57   12.86   2
   4  -2 -11   67.29   11.62   2
   3  -2 -11  454.60   33.41   2
   2  -2 -11  461.06   32.97   2
   1  -2 -11  378.50   28.03   2
   0  -2 -11  311.42   18.55   1
   0  -2 -11  297.98   23.88   2
  -1  -2 -11  473.38   26.67   1
  -1  -2 -11  457.43   33.08   2
  -2  -2 -11   -0.31    3.82   1
  -2  -2 -11    2.43    4.42   2
  -3  -2 -11  564.52   33.62   1
  -4  -2 -11  688.94   40.61   1
  -5  -2 -11  212.98   19.55   1
  -6  -2 -11    6.21    6.99   1
  -7  -2 -11  140.84   19.83   1
   5  -3 -11  295.74   25.92   2
   4  -3 -11  524.13   38.24   2
   3  -3 -11  163.11   17.01   2
   2  -3 -11   86.43   11.88   2
   1  -3 -11  324.97   25.88   2
   0  -3 -11  369.36   20.92   1
   0  -3 -11  381.68   28.85   2
  -1  -3 -11   19.52    7.16   2
  -1  -3 -11   18.67    4.59   1
  -2  -3 -11  441.03   25.89   1
  -2  -3 -11  438.00   32.76   2
  -3  -3 -11  343.87   26.14   2
  -3  -3 -11  321.60   22.11   1
  -4  -3 -11    7.54    5.71   1
  -4  -3 -11    5.10    4.46   2
  -5  -3 -11  452.76   31.23   1
  -6  -3 -11  756.16   47.56   1
  -7  -3 -11  250.05   25.01   1
   5  -4 -11  116.09   15.15   2
   4  -4 -11    5.69    5.08   2
   3  -4 -11  181.22   18.61   2
   2  -4 -11  500.02   36.33   2
   1  -4 -11    5.99    5.09   2
   0  -4 -11   10.98    6.08   2
  -1  -4 -11 1497.27   85.65   2
  -1  -4 -11 1276.92   66.47   1
  -2  -4 -11 1142.62   59.52   1
  -2  -4 -11 1255.78   75.41   2
  -3  -4 -11   30.69    8.60   2
  -3  -4 -11   24.45    6.24   1
  -4  -4 -11  155.88   15.76   2
  -4  -4 -11  142.69   14.49   1
  -5  -4 -11  192.76   18.16   1
  -5  -4 -11  190.13   17.39   2
  -6  -4 -11    3.78    5.18   1
  -7  -4 -11  218.19   23.90   1
   4  -5 -11  210.19   20.68   2
   3  -5 -11  502.43   37.45   2
   2  -5 -11   80.47   12.48   2
   1  -5 -11   14.39    6.81   2
   0  -5 -11  432.25   33.57   2
  -1  -5 -11  130.14   16.87   2
  -2  -5 -11  111.32   15.60   2
  -2  -5 -11   99.33    9.57   1
  -3  -5 -11  834.63   43.99   1
  -3  -5 -11  806.37   55.05   2
  -4  -5 -11  861.07   55.73   2
  -4  -5 -11  835.79   46.94   1
  -5  -5 -11  100.73   13.52   2
  -5  -5 -11  119.40   14.27   1
  -6  -5 -11   45.76   10.56   1
  -7  -5 -11   91.54   16.39   1
   4  -6 -11  168.39   18.50   2
   3  -6 -11    0.73    4.54   2
   2  -6 -11  392.58   31.73   2
   1  -6 -11  551.47   40.72   2
   0  -6 -11  257.17   24.56   2
  -1  -6 -11   20.51    8.61   2
  -2  -6 -11  190.91   20.89   2
  -2  -6 -11  155.91   12.62   1
  -3  -6 -11   41.74   10.86   2
  -3  -6 -11   43.93    7.29   1
  -4  -6 -11   99.77   11.69   1
  -4  -6 -11   89.69   14.15   2
  -5  -6 -11  702.46   41.66   1
  -5  -6 -11  649.28   46.70   2
  -6  -6 -11  544.54   37.23   1
   3  -7 -11  148.26   17.44   2
   2  -7 -11  102.43   14.38   2
   1  -7 -11    2.04    5.28   2
   0  -7 -11  613.65   45.58   2
  -1  -7 -11  990.96   66.82   2
  -2  -7 -11  563.50   43.80   2
  -3  -7 -11   -1.66    5.55   2
  -4  -7 -11  166.36   20.25   2
  -5  -7 -11   82.42   14.11   2
   6   7  11   23.59    4.23   4
   6   7  11   18.22    7.08   1
   3  -8 -11  272.39   25.98   2
   2  -8 -11   60.80   12.27   2
   1  -8 -11   84.51   14.36   2
   0  -8 -11  129.69   17.53   2
  -1  -8 -11   19.18    8.69   2
  -2  -8 -11  401.02   35.57   2
   3   8  11  712.90   23.37   4
   3   8  11  703.52   38.03   1
  -3  -8 -11  750.78   54.26   2
   4   8  11  325.13   20.89   1
   4   8  11  322.36   12.76   4
  -4  -8 -11  308.42   30.16   2
  -5  -8 -11    6.97    7.08   2
   5   8  11    6.74    2.68   4
   5   8  11    4.26    4.88   1
   6   8  11   70.58    6.63   4
   6   8  11   80.74   11.74   1
   2  -9 -11  454.83   37.64   2
   1  -9 -11  426.44   36.26   2
   0  -9 -11   92.14   15.51   2
  -1  -9 -11   40.50   11.41   2
  -2  -9 -11  227.33   25.20   2
  -3  -9 -11    1.58    6.85   2
   4   9  11  111.73   11.53   1
   4   9  11  116.17    6.91   4
  -4  -9 -11  114.43   19.20   2
   5   9  11  316.08   22.14   1
   5   9  11  324.38   13.46   4
  -5  -9 -11  309.04   31.75   2
   0 -10 -11  234.05   26.00   2
  -1 -10 -11  482.24   41.41   2
  -2 -10 -11   81.91   16.59   2
  -3 -10 -11   49.11   14.67   2
   1   6 -12  270.01   21.70   1
   0   6 -12    7.04    5.33   1
  -1   6 -12   97.20   13.51   1
  -2   6 -12  196.19   19.44   1
   3   5 -12  391.32   27.28   1
   2   5 -12  267.50   20.91   1
   1   5 -12   -4.14    3.83   1
   0   5 -12   98.43   12.46   1
  -1   5 -12  201.62   17.72   1
  -2   5 -12   10.65    6.76   1
  -3   5 -12  109.86   14.92   1
   4  -5  12  316.23   24.99   3
  -4   5 -12  264.78   24.84   1
   4   4 -12  406.27   31.11   2
   3   4 -12  123.39   13.58   1
   2   4 -12   27.98    7.35   1
   1   4 -12  605.76   36.64   1
   0   4 -12  464.24   30.21   1
  -1   4 -12   28.93    7.54   1
  -2   4 -12   32.33    7.99   1
  -3   4 -12   97.83   13.39   1
   4  -4  12    9.01    4.88   3
  -4   4 -12    9.74    7.77   1
  -5   4 -12   60.81   14.09   1
   4   3 -12  110.87   14.06   2
   3   3 -12   41.58    8.83   2
   2   3 -12  370.71   25.30   1
   1   3 -12  205.95   17.23   1
   0   3 -12   35.06    7.81   1
  -1   3 -12  730.55   41.71   1
  -2   3 -12  376.10   26.12   1
  -3   3 -12  190.51   17.98   1
  -4   3 -12    5.03    5.72   1
  -5   3 -12  139.43   18.23   1
   5   2 -12    9.27    7.23   2
   4   2 -12  223.96   21.28   2
   3   2 -12  681.13   45.46   2
   2   2 -12  628.16   36.02   1
   2   2 -12  598.47   40.46   2
   1   2 -12   47.85    8.47   1
   0   2 -12  200.68   16.20   1
  -1   2 -12   30.02    7.35   1
  -2   2 -12   13.04    5.92   1
  -3   2 -12  369.99   26.35   1
  -4   2 -12  665.70   41.77   1
  -5   2 -12  232.30   22.06   1
  -6   2 -12   -4.29    7.61   1
   5   1 -12   97.37   14.85   2
   4   1 -12  148.09   16.71   2
   3   1 -12    9.79    5.54   2
   2   1 -12  366.80   27.43   2
   1   1 -12 1145.04   58.87   1
   1   1 -12 1158.42   68.81   2
   0   1 -12  823.06   44.42   1
  -1   1 -12    7.18    5.02   1
  -2   1 -12   66.14    9.81   1
  -3   1 -12  229.78   19.40   1
  -4   1 -12    6.73    6.08   1
  -5   1 -12  245.41   22.60   1
  -6   1 -12  273.42   25.81   1
   5   0 -12  500.27   38.86   2
   4   0 -12   89.29   13.57   2
   3   0 -12   70.43   11.48   2
   2   0 -12  337.63   26.27   2
   1   0 -12  153.73   15.27   2
   1   0 -12  164.84   13.45   1
   0   0 -12  778.51   50.45   2
   0   0 -12  843.70   43.38   1
  -1   0 -12  863.49   46.09   1
  -2   0 -12  984.42   52.74   1
  -3   0 -12   64.95   10.55   1
  -4   0 -12  104.75   13.56   1
  -5   0 -12  139.26   17.07   1
  -6   0 -12    9.78    8.41   1
   5  -1 -12   17.08    8.43   2
   4  -1 -12  584.92   42.27   2
   3  -1 -12 1284.12   78.83   2
   2  -1 -12  488.29   34.77   2
   1  -1 -12   25.53    7.21   2
   0  -1 -12  178.89   16.68   2
   0  -1 -12  169.33   13.56   1
  -1  -1 -12   25.76    7.12   2
  -1  -1 -12   38.58    7.11   1
  -2  -1 -12  147.92   13.99   1
  -3  -1 -12  779.04   44.28   1
  -4  -1 -12  605.90   37.77   1
  -5  -1 -12   64.94   11.79   1
  -6  -1 -12  120.41   16.57   1
  -7  -1 -12  231.18   25.27   1
   5  -2 -12   77.95   14.18   2
   4  -2 -12   85.35   13.55   2
   3  -2 -12   12.56    6.66   2
   2  -2 -12  673.40   45.35   2
   1  -2 -12 1639.22   96.65   2
   0  -2 -12  129.88   10.80   1
   0  -2 -12  113.22   13.72   2
  -1  -2 -12   -0.46    3.28   1
  -1  -2 -12    0.28    3.88   2
  -2  -2 -12  431.69   26.32   1
  -2  -2 -12  411.31   31.32   2
  -3  -2 -12  221.05   18.07   1
  -4  -2 -12   11.25    5.86   1
  -5  -2 -12  396.51   28.73   1
  -6  -2 -12  431.77   32.53   1
  -7  -2 -12   15.83    9.94   1
   4  -3 -12   18.51    7.44   2
   3  -3 -12   84.24   12.90   2
   2  -3 -12  275.63   23.95   2
   1  -3 -12    3.95    5.24   2
   0  -3 -12  416.92   31.65   2
  -1  -3 -12 1441.20   84.37   2
  -1  -3 -12 1318.12   67.28   1
  -2  -3 -12  232.96   21.57   2
  -2  -3 -12  212.92   16.16   1
  -3  -3 -12    8.89    5.18   1
  -3  -3 -12    3.36    5.53   2
  -4  -3 -12  296.22   22.12   1
  -5  -3 -12  314.28   24.70   1
  -6  -3 -12    3.89    5.43   1
  -7  -3 -12  110.73   17.82   1
   4  -4 -12  482.77   37.15   2
   3  -4 -12  507.81   38.12   2
   2  -4 -12   64.15   11.58   2
   1  -4 -12  170.13   18.09   2
   0  -4 -12  328.38   27.33   2
  -1  -4 -12    3.31    3.10   1
  -1  -4 -12    3.78    5.60   2
  -2  -4 -12  294.01   19.72   1
  -2  -4 -12  317.26   27.19   2
  -3  -4 -12  431.33   25.88   1
  -3  -4 -12  366.43   30.88   2
  -4  -4 -12  127.38   15.10   2
  -4  -4 -12  127.44   13.51   1
  -5  -4 -12   30.55    8.23   1
  -6  -4 -12  362.63   27.88   1
   4  -5 -12   34.69    9.72   2
   3  -5 -12   96.61   13.82   2
   2  -5 -12  590.90   42.83   2
   1  -5 -12  538.65   39.75   2
   0  -5 -12   13.02    6.98   2
  -1  -5 -12  375.82   31.30   2
  -2  -5 -12  367.61   29.70   2
  -2  -5 -12  281.81   19.62   1
  -3  -5 -12  167.57   13.93   1
  -3  -5 -12  152.21   18.30   2
  -4  -5 -12   69.44   12.14   2
  -4  -5 -12   69.58    9.89   1
  -5  -5 -12  309.74   25.54   2
  -5  -5 -12  297.23   23.39   1
  -6  -5 -12   89.46   13.58   1
   3  -6 -12  121.19   15.80   2
   2  -6 -12  143.83   17.20   2
   1  -6 -12    4.89    5.94   2
   0  -6 -12  509.81   39.36   2
  -1  -6 -12  299.00   27.79   2
  -2  -6 -12   53.47   12.13   2
  -3  -6 -12  228.55   16.37   1
  -3  -6 -12  189.56   21.78   2
  -4  -6 -12  621.66   45.95   2
  -4  -6 -12  650.13   37.54   1
  -5  -6 -12  299.69   23.60   1
  -5  -6 -12  329.38   28.02   2
  -6  -6 -12    5.37    4.79   1
   3  -7 -12   92.22   14.62   2
   2  -7 -12   10.96    5.70   2
   1  -7 -12  349.50   30.69   2
   0  -7 -12  349.70   31.05   2
  -1  -7 -12    8.75    7.55   2
  -2  -7 -12  146.57   19.59   2
  -3  -7 -12  258.75   18.07   1
  -3  -7 -12  253.17   26.13   2
  -4  -7 -12    8.01    4.85   1
  -4  -7 -12    2.52    6.41   2
  -5  -7 -12  122.52   13.36   1
  -5  -7 -12  105.97   16.37   2
  -6  -7 -12  445.99   36.30   2
   2  -8 -12  333.35   30.28   2
   0  -8 -12   58.36   12.77   2
  -1  -8 -12  437.61   37.45   2
  -2  -8 -12  510.62   42.12   2
  -3  -8 -12   47.73   12.61   2
   4   8  12   30.18    6.62   1
  -4  -8 -12   32.19   11.42   2
   4   8  12   31.21    3.86   4
  -5  -8 -12   76.75   15.41   2
   5   8  12   74.18   10.10   1
   5   8  12   67.14    5.91   4
   1  -9 -12    3.62    6.41   2
   0  -9 -12  143.49   18.88   2
  -1  -9 -12   79.33   15.20   2
  -2  -9 -12   51.58   14.06   2
  -3  -9 -12  363.19   34.96   2
  -4  -9 -12  317.47   32.47   2
   2   5 -13  156.81   16.03   1
   1   5 -13  429.77   29.62   1
   0   5 -13  263.29   21.33   1
  -1   5 -13   23.41    7.32   1
  -2   5 -13  165.79   17.66   1
  -3   5 -13   94.34   14.55   1
   2   4 -13  188.00   17.08   1
   1   4 -13  117.36   13.34   1
   0   4 -13   42.89    8.82   1
  -1   4 -13  310.48   23.13   1
  -2   4 -13  108.44   12.86   1
  -3   4 -13   16.95    8.24   1
  -4   4 -13  142.70   18.44   1
   4   3 -13  301.14   26.19   2
   2   3 -13  140.53   14.63   1
   1   3 -13   88.35   11.57   1
   0   3 -13  331.05   23.52   1
  -1   3 -13  132.58   14.03   1
  -2   3 -13   27.57    7.94   1
  -3   3 -13   84.64   12.42   1
  -4   3 -13  226.84   21.94   1
  -5   3 -13    1.15    7.21   1
   4   2 -13  142.89   17.33   2
   3   2 -13    3.07    5.04   2
   2   2 -13  389.19   26.20   1
   1   2 -13  677.65   39.14   1
   0   2 -13  200.56   16.61   1
  -1   2 -13  347.65   24.29   1
  -2   2 -13  343.74   24.66   1
  -3   2 -13  430.85   29.79   1
  -4   2 -13    5.65    6.46   1
  -5   2 -13   96.04   15.37   1
   4   1 -13    2.49    5.64   2
   3   1 -13  313.32   26.17   2
   2   1 -13  651.99   43.76   2
   1   1 -13  104.92   13.25   2
   1   1 -13  133.45   12.94   1
   0   1 -13  157.17   14.80   1
  -1   1 -13  271.33   20.22   1
  -2   1 -13   46.35    8.92   1
  -3   1 -13  139.71   15.17   1
  -4   1 -13  544.30   35.96   1
  -5   1 -13  252.08   23.30   1
  -6   1 -13   41.39   12.50   1
   4   0 -13  432.36   34.57   2
   3   0 -13  220.31   21.10   2
   2   0 -13    1.39    3.89   2
   1   0 -13  434.22   31.56   2
   0   0 -13  915.97   48.03   1
   0   0 -13  883.66   56.24   2
  -1   0 -13   59.37    9.24   1
  -2   0 -13    3.21    5.22   1
  -3   0 -13  273.02   21.57   1
  -4   0 -13   75.85   12.08   1
  -5   0 -13   79.19   13.40   1
  -6   0 -13  375.50   30.40   1
   4  -1 -13  243.23   24.19   2
   3  -1 -13    8.89    6.43   2
   2  -1 -13  336.31   27.27   2
   1  -1 -13  255.50   22.13   2
   0  -1 -13   13.19    5.27   1
   0  -1 -13   19.08    6.86   2
  -1  -1 -13  400.79   25.00   1
  -1  -1 -13  365.97   28.80   2
  -2  -1 -13 1121.84   59.04   1
  -3  -1 -13  353.61   25.16   1
  -4  -1 -13   10.67    6.72   1
  -5  -1 -13  162.86   17.03   1
  -6  -1 -13   68.24   13.52   1
   4  -2 -13  143.89   18.09   2
   3  -2 -13  533.35   39.47   2
   2  -2 -13  563.99   40.39   2
   1  -2 -13   21.21    7.28   2
   0  -2 -13  148.03   16.38   2
  -1  -2 -13  104.72   11.24   1
  -1  -2 -13  120.13   14.34   2
  -2  -2 -13   12.49    5.89   1
  -2  -2 -13   10.72    6.73   2
  -3  -2 -13  338.21   24.06   1
  -4  -2 -13  711.21   42.25   1
  -5  -2 -13  317.83   24.83   1
  -6  -2 -13   -1.92    5.93   1
   4  -3 -13  159.85   19.02   2
   3  -3 -13   32.37    9.25   2
   2  -3 -13  164.79   18.28   2
   1  -3 -13  937.07   60.65   2
   0  -3 -13  728.31   49.29   2
  -1  -3 -13   22.61    8.22   2
  -1  -3 -13   26.69    5.71   1
  -2  -3 -13  102.75   11.02   1
  -2  -3 -13  103.49   14.59   2
  -3  -3 -13   59.50   10.92   2
  -3  -3 -13   47.59    8.48   1
  -4  -3 -13   27.03    7.69   1
  -5  -3 -13  307.24   24.25   1
  -6  -3 -13  546.83   37.52   1
   4  -4 -13  109.72   16.35   2
   3  -4 -13    8.88    6.16   2
   2  -4 -13  149.65   17.37   2
   1  -4 -13   60.31   11.27   2
   0  -4 -13  105.10   14.32   2
  -1  -4 -13  851.03   57.01   2
  -2  -4 -13  611.44   42.40   2
  -2  -4 -13  519.10   31.48   1
  -3  -4 -13  248.87   23.67   2
  -3  -4 -13  255.05   18.78   1
  -4  -4 -13   62.26    9.91   1
  -5  -4 -13  265.44   21.73   1
  -6  -4 -13   45.79   10.37   1
   3  -5 -13  458.26   36.58   2
   2  -5 -13  208.01   21.56   2
   1  -5 -13    0.86    4.73   2
   0  -5 -13  118.16   15.58   2
  -1  -5 -13   74.40   13.22   2
  -2  -5 -13    7.38    4.10   1
  -2  -5 -13    6.07    6.89   2
  -3  -5 -13  452.59   27.43   1
  -3  -5 -13  440.37   35.50   2
  -4  -5 -13  807.81   44.95   1
  -4  -5 -13  789.58   54.06   2
  -5  -5 -13   77.36   11.35   1
  -6  -5 -13   26.95    8.56   1
   3  -6 -13    1.81    4.87   2
   2  -6 -13  246.91   24.13   2
   1  -6 -13  854.66   58.56   2
   0  -6 -13  444.52   36.04   2
  -1  -6 -13    2.87    6.63   2
  -2  -6 -13  105.44   16.42   2
  -3  -6 -13  226.18   16.77   1
  -3  -6 -13  228.51   23.99   2
  -4  -6 -13   -1.10    5.94   2
  -4  -6 -13    2.92    4.17   1
  -5  -6 -13  278.04   26.23   2
  -5  -6 -13  298.60   22.83   1
  -6  -6 -13  292.51   24.79   1
   2  -7 -13  141.29   17.55   2
   1  -7 -13   12.08    6.90   2
   0  -7 -13  236.24   24.62   2
  -1  -7 -13  548.67   42.97   2
  -2  -7 -13  226.83   24.68   2
  -3  -7 -13    1.10    6.42   2
  -4  -7 -13  152.50   20.26   2
  -4  -7 -13  199.15   16.12   1
  -5  -7 -13  173.87   21.58   2
  -5  -7 -13  234.59   18.89   1
   1  -8 -13   66.12   13.18   2
   0  -8 -13  169.56   20.49   2
  -1  -8 -13   17.38    9.36   2
  -2  -8 -13  105.48   17.54   2
  -3  -8 -13  333.02   32.07   2
   4   8  13  194.12   15.02   1
  -4  -8 -13  198.17   24.26   2
   4   8  13  207.73    9.30   4
   5   8  13   -0.30    2.79   4
  -5  -8 -13    3.34    8.17   2
   5   8  13    2.32    5.45   1
   0  -9 -13  118.74   18.01   2
  -1  -9 -13   94.17   16.33   2
  -2  -9 -13  279.22   29.95   2
  -3  -9 -13  195.37   24.89   2
   0   5 -14   10.61    5.97   1
  -1   5 -14   81.18   12.57   1
   2   4 -14   56.67   10.31   1
   1   4 -14  500.21   32.81   1
   0   4 -14  504.99   32.70   1
  -1   4 -14  203.61   18.39   1
  -2   4 -14   44.96    9.52   1
  -3   4 -14   58.66   12.30   1
   2   3 -14  182.67   16.56   1
   1   3 -14  177.05   16.36   1
   0   3 -14   10.94    5.68   1
  -1   3 -14  338.40   24.82   1
  -2   3 -14  441.69   30.09   1
  -3   3 -14  129.42   15.04   1
  -4   3 -14   15.00    8.93   1
   3   2 -14  623.70   43.85   2
   1   2 -14   63.93    9.88   1
   0   2 -14   82.93   11.39   1
  -1   2 -14  213.37   18.39   1
  -2   2 -14   23.99    6.90   1
  -3   2 -14  144.49   15.63   1
  -4   2 -14  286.52   24.97   1
   3   1 -14   35.26    9.45   2
   2   1 -14  140.75   16.31   2
   1   1 -14  702.89   40.43   1
   0   1 -14  587.31   35.23   1
  -1   1 -14   49.39    9.00   1
  -2   1 -14  111.84   13.55   1
  -3   1 -14  373.85   27.36   1
  -4   1 -14   37.37    9.14   1
  -5   1 -14    8.85    7.80   1
   4   0 -14  105.81   16.65   2
   3   0 -14   15.23    6.94   2
   2   0 -14  143.74   16.53   2
   1   0 -14  141.39   15.76   2
   0   0 -14   27.35    7.13   1
  -1   0 -14  423.61   27.66   1
  -2   0 -14  441.63   29.27   1
  -3   0 -14   17.13    7.29   1
  -4   0 -14  150.79   16.43   1
  -5   0 -14  274.28   24.06   1
   4  -1 -14  357.59   31.76   2
   3  -1 -14  612.30   44.43   2
   2  -1 -14  205.71   20.47   2
   1  -1 -14   19.50    7.04   2
   0  -1 -14  342.72   22.43   1
   0  -1 -14  308.62   26.35   2
  -1  -1 -14  355.62   24.10   1
  -2  -1 -14    0.63    4.50   1
  -3  -1 -14  329.91   24.55   1
  -4  -1 -14  144.00   15.78   1
  -5  -1 -14   15.89    6.61   1
   4  -2 -14  144.70   19.23   2
   3  -2 -14   15.10    7.50   2
   2  -2 -14  164.80   18.24   2
   1  -2 -14  567.36   40.75   2
   0  -2 -14  255.62   22.87   2
  -1  -2 -14   23.76    6.49   1
  -1  -2 -14   18.91    7.58   2
  -2  -2 -14  566.09   33.95   1
  -3  -2 -14  346.40   24.64   1
  -4  -2 -14   77.59   11.62   1
  -5  -2 -14  103.99   13.54   1
  -6  -2 -14  163.58   18.76   1
   3  -3 -14   56.66   12.81   2
   2  -3 -14  362.98   30.52   2
   1  -3 -14   99.86   14.47   2
   0  -3 -14   32.70    8.93   2
  -1  -3 -14  330.02   28.01   2
  -2  -3 -14  117.41   12.27   1
  -2  -3 -14  129.80   17.00   2
  -3  -3 -14   18.74    6.55   1
  -4  -3 -14  456.22   30.21   1
  -5  -3 -14  600.45   38.46   1
  -6  -3 -14   87.57   14.13   1
   3  -4 -14  201.00   22.24   2
   2  -4 -14    8.84    6.05   2
   1  -4 -14  183.23   19.72   2
   0  -4 -14  711.14   49.75   2
  -1  -4 -14  431.78   34.46   2
  -2  -4 -14   -0.33    6.11   2
  -2  -4 -14    8.34    4.79   1
  -3  -4 -14  212.98   17.09   1
  -3  -4 -14  202.75   21.48   2
  -4  -4 -14  122.80   13.33   1
  -5  -4 -14   59.77   10.42   1
  -6  -4 -14  325.22   26.63   1
   3  -5 -14    4.05    6.17   2
   2  -5 -14  190.62   21.26   2
   1  -5 -14  212.58   22.10   2
   0  -5 -14   33.24    9.76   2
  -1  -5 -14  205.44   22.14   2
  -2  -5 -14  819.57   56.78   2
  -3  -5 -14  276.66   26.87   2
  -3  -5 -14  311.93   20.89   1
  -4  -5 -14    6.42    4.08   1
  -4  -5 -14    4.50    6.69   2
  -5  -5 -14  108.73   12.63   1
   2  -6 -14  280.94   27.29   2
   1  -6 -14   22.71    8.93   2
   0  -6 -14   75.39   13.98   2
  -1  -6 -14  134.25   18.22   2
  -2  -6 -14    1.49    5.76   2
  -3  -6 -14  274.69   18.67   1
  -3  -6 -14  250.51   25.93   2
  -4  -6 -14  497.52   41.14   2
  -4  -6 -14  585.22   33.53   1
  -5  -6 -14  324.95   29.27   2
  -5  -6 -14  331.65   24.77   1
   1  -7 -14  462.89   38.54   2
   0  -7 -14  506.97   40.92   2
  -1  -7 -14  175.46   21.31   2
  -2  -7 -14   27.51   10.63   2
  -3  -7 -14  136.46   18.91   2
  -4  -7 -14   42.26   12.08   2
  -4  -7 -14   58.83    8.66   1
  -5  -7 -14  147.26   14.36   1
  -5  -7 -14   99.54   17.19   2
   0  -8 -14    8.81    8.47   2
  -1  -8 -14  307.85   30.39   2
  -2  -8 -14  618.03   48.59   2
  -3  -8 -14  124.66   19.22   2
  -4  -8 -14    7.49    8.57   2
   0   4 -15   17.23    6.92   1
  -1   4 -15   55.93   10.87   1
   1   3 -15  102.91   12.07   1
   0   3 -15  409.65   28.52   1
  -1   3 -15  357.71   26.46   1
  -2   3 -15   39.81    9.15   1
   1   2 -15  131.50   14.03   1
   0   2 -15   89.22   12.08   1
  -1   2 -15   85.31   12.09   1
  -2   2 -15  479.59   32.23   1
  -3   2 -15  379.83   28.33   1
   3   1 -15  372.16   31.44   2
   0   1 -15   12.83    6.28   1
  -1   1 -15  164.44   15.72   1
  -2   1 -15   73.48   11.49   1
  -3   1 -15  108.86   14.22   1
  -4   1 -15  392.19   29.43   1
   3   0 -15  141.40   18.30   2
   2   0 -15    9.33    6.34   2
   0   0 -15  911.08   50.16   1
  -1   0 -15  427.75   28.76   1
  -2   0 -15    2.69    5.05   1
  -3   0 -15  195.95   18.48   1
  -4   0 -15   39.65    9.75   1
  -5   0 -15    9.38    6.68   1
   3  -1 -15   53.21   12.27   2
   2  -1 -15   54.80   11.32   2
   1  -1 -15  143.16   16.71   2
  -1  -1 -15  291.07   21.78   1
  -2  -1 -15  693.09   41.10   1
  -3  -1 -15  229.38   19.86   1
  -4  -1 -15    7.38    5.15   1
  -5  -1 -15  127.67   16.15   1
   3  -2 -15  652.56   48.27   2
   2  -2 -15  469.92   36.87   2
   1  -2 -15   41.06   10.08   2
   0  -2 -15   64.99   11.91   2
  -1  -2 -15  210.61   17.30   1
  -2  -2 -15   31.82    7.76   1
  -3  -2 -15  149.74   15.32   1
  -4  -2 -15  351.31   25.91   1
  -5  -2 -15  233.59   21.03   1
   3  -3 -15   83.40   15.60   2
   2  -3 -15   68.77   13.02   2
   1  -3 -15  580.25   42.93   2
   0  -3 -15  598.83   43.60   2
  -1  -3 -15  127.30   16.46   2
  -2  -3 -15   45.78    8.07   1
  -3  -3 -15  216.84   18.13   1
  -4  -3 -15   61.48   10.24   1
  -5  -3 -15   36.18    8.88   1
   2  -4 -15   77.36   14.48   2
   1  -4 -15   91.69   14.87   2
   0  -4 -15   20.87    7.59   2
  -1  -4 -15  383.48   32.33   2
  -2  -4 -15  389.89   32.87   2
  -3  -4 -15   15.93    5.81   1
  -4  -4 -15  137.43   14.38   1
  -5  -4 -15  238.18   20.45   1
   2  -5 -15  143.62   19.06   2
   1  -5 -15    2.26    5.37   2
   0  -5 -15  247.87   25.00   2
  -1  -5 -15  354.44   31.27   2
  -2  -5 -15   13.07    8.04   2
  -3  -5 -15  151.93   19.42   2
  -3  -5 -15  155.07   14.05   1
  -4  -5 -15  175.82   15.80   1
  -5  -5 -15   83.98   11.89   1
   1  -6 -15  356.80   32.24   2
   0  -6 -15  249.96   25.55   2
  -1  -6 -15    2.48    6.98   2
  -2  -6 -15  179.06   21.72   2
  -3  -6 -15  340.44   31.19   2
  -4  -6 -15   97.89   10.91   1
  -4  -6 -15   76.08   14.34   2
   0  -7 -15   12.59    8.82   2
  -1  -7 -15  192.94   23.16   2
  -2  -7 -15  122.01   18.85   2
  -3  -7 -15    2.37    7.48   2
  -4  -7 -15  203.05   23.79   2
  -2  -8 -15    1.02    7.88   2
   0   2 -16  206.97   18.61   1
  -1   2 -16  386.50   28.25   1
  -2   2 -16   96.36   13.61   1
   0   1 -16  230.75   19.55   1
  -1   1 -16   12.88    6.19   1
  -2   1 -16  165.30   17.16   1
  -3   1 -16  395.74   29.66   1
  -1   0 -16  109.63   13.71   1
  -2   0 -16  160.38   16.50   1
  -3   0 -16   21.02    7.81   1
  -4   0 -16  132.14   17.00   1
   2  -1 -16   69.60   13.30   2
  -1  -1 -16  562.75   35.08   1
  -2  -1 -16  121.96   14.36   1
  -3  -1 -16   12.18    6.27   1
  -4  -1 -16  137.64   15.89   1
   2  -2 -16   58.42   13.06   2
   1  -2 -16   92.60   14.43   2
  -2  -2 -16  366.28   25.91   1
  -3  -2 -16  481.07   32.11   1
  -4  -2 -16  105.36   13.64   1
   2  -3 -16  373.82   33.02   2
   1  -3 -16  217.37   22.61   2
   0  -3 -16    1.76    4.96   2
  -3  -3 -16   18.42    6.17   1
  -4  -3 -16  330.71   24.90   1
   2  -4 -16    2.03    6.36   2
   1  -4 -16  121.83   17.39   2
   0  -4 -16  740.52   52.73   2
  -1  -4 -16  499.06   39.35   2
  -3  -4 -16   31.30    7.24   1
  -4  -4 -16  127.48   14.23   1
   1  -5 -16   80.79   14.78   2
   0  -5 -16   59.87   13.17   2
  -1  -5 -16  157.45   19.97   2
  -2  -5 -16  402.96   34.58   2
  -4  -5 -16   34.70    7.83   1
   0  -6 -16   55.08   13.22   2
  -1  -6 -16  178.15   22.17   2
  -2  -6 -16   33.88   11.27   2
  -3  -6 -16   42.71   11.95   2
  -1  -7 -16   69.47   14.96   2
  -2  -7 -16   20.46   11.10   2
  -1   1 -17  171.44   17.59   1
  -1   0 -17  263.00   21.66   1
  -2   0 -17    1.90    5.58   1
  -2  -1 -17  372.71   27.15   1
  -3  -1 -17  159.27   17.25   1
   1  -2 -17   25.42    9.61   2
  -2  -2 -17  253.19   20.80   1
  -3  -2 -17   -0.60    5.29   1
   1  -3 -17  115.31   17.14   2
   0  -3 -17  253.78   25.06   2
  -3  -3 -17  288.46   22.21   1
   0  -4 -17   55.38   12.84   2
  -1  -4 -17  146.96   19.35   2
  -1  -5 -17  588.58   45.91   2
  -2  -5 -17   81.37   15.27   2
   0   0   0    0.00    0.00   0
;
_shelx_hkl_checksum              52234
loop_
_space_group_symop_operation_xyz
'x, y, z'
'-x, -y, -z'
loop_
_atom_site_label
_atom_site_type_symbol
_atom_site_fract_x
_atom_site_fract_y
_atom_site_fract_z
_atom_site_U_iso_or_equiv
_atom_site_adp_type
_atom_site_occupancy
_atom_site_site_symmetry_order
_atom_site_calc_flag
_atom_site_refinement_flags_posn
_atom_site_refinement_flags_adp
C12 C 0.8061(14) 0.6652(10) 0.5051(7) 0.0272(19) Uani 1 1 d . .
H12 H 0.6942 0.6094 0.5085 0.033 Uiso 1 1 calc R U
C11 C 0.9284(15) 0.6942(10) 0.4156(7) 0.029(2) Uani 1 1 d . .
H11 H 0.8990 0.6619 0.3581 0.035 Uiso 1 1 calc R U
C10 C 1.0965(15) 0.7715(10) 0.4094(7) 0.031(2) Uani 1 1 d . .
H10 H 1.1864 0.7905 0.3483 0.037 Uiso 1 1 calc R U
C9 C 1.1304(14) 0.8197(10) 0.4926(6) 0.0270(19) Uani 1 1 d . .
H9 H 1.2440 0.8735 0.4899 0.032 Uiso 1 1 calc R U
C8 C 0.9968(13) 0.7895(10) 0.5818(7) 0.0253(19) Uani 1 1 d . .
C7 C 0.9333(14) 0.8674(10) 0.8240(6) 0.0256(19) Uani 1 1 d . .
H7 H 1.0259 0.9417 0.8065 0.031 Uiso 1 1 calc R U
C1 C 0.8421(13) 0.8321(10) 0.9303(6) 0.0229(18) Uani 1 1 d . .
C6 C 0.7794(14) 0.9551(10) 0.9820(7) 0.028(2) Uani 1 1 d . .
H6 H 0.7936 1.0565 0.9487 0.034 Uiso 1 1 calc R U
C5 C 0.6982(15) 0.9254(11) 1.0807(7) 0.031(2) Uani 1 1 d . .
H5 H 0.6490 1.0077 1.1152 0.037 Uiso 1 1 calc R U
C4 C 0.6860(15) 0.7766(11) 1.1319(7) 0.032(2) Uani 1 1 d . .
H4 H 0.6326 0.7575 1.2011 0.039 Uiso 1 1 calc R U
C3 C 0.7515(16) 0.6588(11) 1.0814(7) 0.034(2) Uani 1 1 d . .
H3 H 0.7447 0.5570 1.1158 0.040 Uiso 1 1 calc R U
C2 C 0.8293(15) 0.6872(10) 0.9787(7) 0.029(2) Uani 1 1 d . .
H2 H 0.8726 0.6049 0.9436 0.035 Uiso 1 1 calc R U
C14 C 0.4477(14) 0.5894(10) 0.6921(6) 0.0233(18) Uani 1 1 d . .
C15 C 0.7780(14) 0.4809(10) 0.7827(7) 0.027(2) Uani 1 1 d . .
C13 C 0.4773(13) 0.6849(10) 0.8618(7) 0.0248(19) Uani 1 1 d . .
N3 N 0.8339(12) 0.7107(8) 0.5894(5) 0.0240(16) Uani 1 1 d . .
N2 N 1.0229(11) 0.8408(9) 0.6627(5) 0.0287(17) Uani 1 1 d . .
H2A H 1.1209 0.8979 0.6588 0.034 Uiso 1 1 calc R U
N1 N 0.8969(12) 0.8052(8) 0.7537(5) 0.0227(15) Uani 1 1 d . .
O2 O 0.3302(11) 0.5300(8) 0.6661(5) 0.0355(16) Uani 1 1 d . .
O3 O 0.8373(11) 0.3613(8) 0.8137(5) 0.0366(16) Uani 1 1 d . .
O1 O 0.3679(11) 0.6851(8) 0.9362(5) 0.0345(15) Uani 1 1 d . .
Br1 Br 0.47522(13) 0.96163(10) 0.66642(6) 0.0240(2) Uani 1 1 d . .
Re1 Re 0.64703(5) 0.68410(3) 0.73376(2) 0.02099(17) Uani 1 1 d . .
loop_
_atom_site_aniso_label
_atom_site_aniso_U_11
_atom_site_aniso_U_22
_atom_site_aniso_U_33
_atom_site_aniso_U_23
_atom_site_aniso_U_13
_atom_site_aniso_U_12
C12 0.024(5) 0.028(5) 0.030(5) -0.007(4) 0.003(4) -0.007(4)
C11 0.038(5) 0.025(5) 0.025(5) -0.006(4) 0.000(4) -0.007(4)
C10 0.032(5) 0.029(5) 0.026(5) -0.002(4) 0.006(4) -0.003(4)
C9 0.026(5) 0.028(5) 0.025(5) -0.001(4) 0.003(4) -0.007(4)
C8 0.024(5) 0.025(5) 0.028(5) -0.010(4) 0.005(4) -0.008(4)
C7 0.026(5) 0.028(5) 0.022(5) -0.006(4) 0.001(4) -0.003(4)
C1 0.018(4) 0.031(5) 0.022(4) -0.007(4) -0.001(3) -0.009(4)
C6 0.029(5) 0.026(5) 0.030(5) -0.003(4) -0.004(4) -0.008(4)
C5 0.036(5) 0.033(5) 0.028(5) -0.012(4) -0.004(4) -0.003(4)
C4 0.037(5) 0.041(6) 0.021(5) -0.009(4) 0.002(4) -0.014(4)
C3 0.045(6) 0.030(5) 0.025(5) 0.000(4) -0.003(4) -0.010(4)
C2 0.033(5) 0.030(5) 0.025(5) -0.004(4) -0.006(4) -0.008(4)
C14 0.031(5) 0.029(5) 0.010(4) -0.004(3) 0.003(3) -0.009(4)
C15 0.030(5) 0.027(5) 0.028(5) -0.013(4) -0.003(4) -0.006(4)
C13 0.016(4) 0.024(5) 0.036(5) -0.012(4) 0.002(4) -0.008(3)
N3 0.026(4) 0.025(4) 0.020(4) -0.004(3) 0.000(3) -0.004(3)
N2 0.026(4) 0.037(4) 0.024(4) -0.007(3) 0.009(3) -0.018(3)
N1 0.027(4) 0.027(4) 0.015(4) -0.007(3) 0.001(3) -0.006(3)
O2 0.038(4) 0.038(4) 0.035(4) -0.003(3) -0.011(3) -0.018(3)
O3 0.044(4) 0.031(4) 0.033(4) -0.011(3) -0.002(3) 0.006(3)
O1 0.038(4) 0.042(4) 0.023(3) -0.011(3) 0.011(3) -0.011(3)
Br1 0.0223(5) 0.0255(5) 0.0235(5) -0.0044(4) 0.0028(3) -0.0071(4)
Re1 0.0217(2) 0.0232(2) 0.0181(2) -0.00433(15) 0.00315(15) -0.00789(16)
loop_
_atom_type_symbol
_atom_type_description
_atom_type_scat_dispersion_real
_atom_type_scat_dispersion_imag
_atom_type_scat_source
C C 0.0033 0.0016 'International Tables Vol C Tables 4.2.6.8 and 6.1.1.4'
H H 0.0000 0.0000 'International Tables Vol C Tables 4.2.6.8 and 6.1.1.4'
N N 0.0061 0.0033 'International Tables Vol C Tables 4.2.6.8 and 6.1.1.4'
O O 0.0106 0.0060 'International Tables Vol C Tables 4.2.6.8 and 6.1.1.4'
Br Br -0.2901 2.4595 'International Tables Vol C Tables 4.2.6.8 and 6.1.1.4'
Re Re -1.0185 7.2310 'International Tables Vol C Tables 4.2.6.8 and 6.1.1.4'
loop_
_geom_angle_atom_site_label_1
_geom_angle_atom_site_label_2
_geom_angle_atom_site_label_3
_geom_angle
N3 C12 C11 124.1(9)
N3 C12 H12 117.9
C11 C12 H12 117.9
C12 C11 C10 119.0(9)
C12 C11 H11 120.5
C10 C11 H11 120.5
C9 C10 C11 118.8(9)
C9 C10 H10 120.6
C11 C10 H10 120.6
C10 C9 C8 119.5(8)
C10 C9 H9 120.2
C8 C9 H9 120.2
N2 C8 N3 117.4(8)
N2 C8 C9 120.4(8)
N3 C8 C9 122.2(8)
N1 C7 C1 124.9(8)
N1 C7 H7 117.5
C1 C7 H7 117.5
C2 C1 C6 120.6(8)
C2 C1 C7 121.8(8)
C6 C1 C7 117.6(8)
C5 C6 C1 118.7(8)
C5 C6 H6 120.6
C1 C6 H6 120.6
C6 C5 C4 121.3(9)
C6 C5 H5 119.3
C4 C5 H5 119.3
C3 C4 C5 119.2(9)
C3 C4 H4 120.4
C5 C4 H4 120.4
C4 C3 C2 120.4(9)
C4 C3 H3 119.8
C2 C3 H3 119.8
C1 C2 C3 119.7(9)
C1 C2 H2 120.1
C3 C2 H2 120.1
O2 C14 Re1 178.6(8)
O3 C15 Re1 174.2(8)
O1 C13 Re1 176.8(8)
C12 N3 C8 116.2(8)
C12 N3 Re1 128.6(6)
C8 N3 Re1 115.1(6)
C8 N2 N1 121.0(7)
C8 N2 H2A 119.5
N1 N2 H2A 119.5
C7 N1 N2 114.3(7)
C7 N1 Re1 134.4(6)
N2 N1 Re1 110.3(5)
C14 Re1 C13 89.2(3)
C14 Re1 C15 87.1(4)
C13 Re1 C15 90.3(4)
C14 Re1 N3 94.3(3)
C13 Re1 N3 173.5(3)
C15 Re1 N3 95.4(3)
C14 Re1 N1 169.9(3)
C13 Re1 N1 100.3(3)
C15 Re1 N1 96.2(3)
N3 Re1 N1 75.9(3)
C14 Re1 Br1 93.7(3)
C13 Re1 Br1 90.3(3)
C15 Re1 Br1 179.0(3)
N3 Re1 Br1 84.01(19)
N1 Re1 Br1 82.97(18)
loop_
_geom_bond_atom_site_label_1
_geom_bond_atom_site_label_2
_geom_bond_distance
C12 N3 1.351(11)
C12 C11 1.361(13)
C12 H12 0.9500
C11 C10 1.388(13)
C11 H11 0.9500
C10 C9 1.361(13)
C10 H10 0.9500
C9 C8 1.397(12)
C9 H9 0.9500
C8 N2 1.330(11)
C8 N3 1.362(11)
C7 N1 1.279(11)
C7 C1 1.478(12)
C7 H7 0.9500
C1 C2 1.353(12)
C1 C6 1.412(13)
C6 C5 1.364(13)
C6 H6 0.9500
C5 C4 1.393(13)
C5 H5 0.9500
C4 C3 1.364(13)
C4 H4 0.9500
C3 C2 1.407(13)
C3 H3 0.9500
C2 H2 0.9500
C14 O2 1.148(11)
C14 Re1 1.895(9)
C15 O3 1.113(11)
C15 Re1 1.941(9)
C13 O1 1.154(11)
C13 Re1 1.930(9)
N3 Re1 2.152(7)
N2 N1 1.396(10)
N2 H2A 0.8800
N1 Re1 2.200(7)
Br1 Re1 2.6357(10)
loop_
_geom_torsion_atom_site_label_1
_geom_torsion_atom_site_label_2
_geom_torsion_atom_site_label_3
_geom_torsion_atom_site_label_4
_geom_torsion
N3 C12 C11 C10 1.9(14)
C12 C11 C10 C9 -1.8(13)
C11 C10 C9 C8 0.4(13)
C10 C9 C8 N2 -177.4(8)
C10 C9 C8 N3 1.0(14)
N1 C7 C1 C2 44.4(13)
N1 C7 C1 C6 -139.4(9)
C2 C1 C6 C5 -2.6(13)
C7 C1 C6 C5 -178.8(8)
C1 C6 C5 C4 3.2(14)
C6 C5 C4 C3 -1.8(15)
C5 C4 C3 C2 -0.4(15)
C6 C1 C2 C3 0.4(13)
C7 C1 C2 C3 176.5(8)
C4 C3 C2 C1 1.1(15)
C11 C12 N3 C8 -0.4(13)
C11 C12 N3 Re1 176.6(7)
N2 C8 N3 C12 177.5(8)
C9 C8 N3 C12 -1.0(13)
N2 C8 N3 Re1 0.0(10)
C9 C8 N3 Re1 -178.5(7)
N3 C8 N2 N1 4.6(13)
C9 C8 N2 N1 -176.8(8)
C1 C7 N1 N2 -171.3(8)
C1 C7 N1 Re1 21.1(14)
C8 N2 N1 C7 -177.1(8)
C8 N2 N1 Re1 -6.5(10)
