#------------------------------------------------------------------------------
#$Date: 2019-11-23 02:06:58 +0200 (Sat, 23 Nov 2019) $
#$Revision: 231834 $
#$URL: file:///home/coder/svn-repositories/cod/cif/4/34/65/4346553.cif $
#------------------------------------------------------------------------------
#
# This file is available in the Crystallography Open Database (COD),
# http://www.crystallography.net/
#
# All data on this site have been placed in the public domain by the
# contributors.
#
data_4346553
loop_
_publ_author_name
'Finger, Lars H.'
'Scheibe, Benjamin'
'Sundermeyer, J\"org'
_publ_section_title
;
 Synthesis of organic (trimethylsilyl)chalcogenolate salts Cat[TMS-E] (E =
 S, Se, Te): the methylcarbonate anion as a desilylating agent.
;
_journal_issue                   19
_journal_name_full               'Inorganic chemistry'
_journal_page_first              9568
_journal_page_last               9575
_journal_paper_doi               10.1021/acs.inorgchem.5b01665
_journal_volume                  54
_journal_year                    2015
_chemical_formula_moiety         'C3 H9 S Si, C4 H12 N, C2 H3 N'
_chemical_formula_sum            'C9 H24 N2 S Si'
_chemical_formula_weight         220.45
_chemical_name_common            '[NMe4][TMS-S], 6'
_chemical_name_systematic
; 
Tetramethylammonium-trimethylsilylthiolate aceonitrile solvate
;
_space_group_crystal_system      monoclinic
_space_group_IT_number           11
_space_group_name_Hall           '-P 2yb'
_space_group_name_H-M_alt        'P 1 21/m 1'
_atom_sites_solution_hydrogens   mixed
_atom_sites_solution_primary     direct
_atom_sites_solution_secondary   difmap
_audit_creation_method           SHELXL-2014/7
_cell_angle_alpha                90
_cell_angle_beta                 104.094(4)
_cell_angle_gamma                90
_cell_formula_units_Z            2
_cell_length_a                   7.6236(11)
_cell_length_b                   7.6281(11)
_cell_length_c                   13.2227(18)
_cell_measurement_reflns_used    2850
_cell_measurement_temperature    110(2)
_cell_measurement_theta_max      28.5643
_cell_measurement_theta_min      2.7547
_cell_volume                     745.80(18)
_computing_cell_refinement
;
Bruker: SAINT V8.34B, Bruker AXS Inc., 
Madison, Wisconsin, USA, 2012.
;
_computing_data_collection
;
Bruker: Bruker Instrument Service v3.0.26, Bruker AXS Inc., 
Madison, Wisconsin, USA, 2012.
;
_computing_data_reduction
;
Bruker: SAINT V8.34B, Bruker AXS Inc., 
Madison, Wisconsin, USA, 2012.
;
_computing_molecular_graphics
;
Mercury (C. F. Macrae, P. R. Edgington, P. McCabe, E. Pidcock,
 G. P. Shields, R. Taylor, M. Towler, 
J. van de Streek, J. Appl. Cryst. 2006,  39, 453-457.)
Ortep-3 for Windows (L.J. Farrugia, J. Appl. Cryst. 2012, 45, 849-854)
DIAMOND 4 (H. Putz, K. Brandenburg, Crystal Impact GbR, Kreuzherrenstr. 
102, 53227 Bonn, Germany)
;
_computing_publication_material
;
WinGX 2014.1 (L.J. Farrugia, J. Appl. Cryst. 2012, 45, 849-854)
enCIFer (F. H. Allen, O. Johnson, G. P. Shields, B. R. Smith, M. 
Towler, J. Appl. Cryst. 2004, 37, 335-338.)
;
_computing_structure_refinement
;
SHELXL-2014/7 (G. M. Sheldrick, Acta Cryst. A 2008, 64, 112-122)
;
_computing_structure_solution
;
SHELXS-2013 (G. M. Sheldrick, Acta Cryst. A 2008, 64, 112-122)
;
_diffrn_ambient_temperature      110(2)
_diffrn_detector_area_resol_mean 10.4167
_diffrn_measured_fraction_theta_full 0.999
_diffrn_measured_fraction_theta_max 0.959
_diffrn_measurement_device_type  'D8 Quest (Bruker AXS Inc.)'
_diffrn_measurement_method       'rotation method'
_diffrn_radiation_type           MoK\a
_diffrn_radiation_wavelength     0.71073
_diffrn_reflns_av_unetI/netI     0.0909
_diffrn_reflns_Laue_measured_fraction_full 0.999
_diffrn_reflns_Laue_measured_fraction_max 0.959
_diffrn_reflns_limit_h_max       10
_diffrn_reflns_limit_h_min       -10
_diffrn_reflns_limit_k_max       10
_diffrn_reflns_limit_k_min       0
_diffrn_reflns_limit_l_max       18
_diffrn_reflns_limit_l_min       0
_diffrn_reflns_number            2198
_diffrn_reflns_point_group_measured_fraction_full 0.999
_diffrn_reflns_point_group_measured_fraction_max 0.959
_diffrn_reflns_theta_full        25.000
_diffrn_reflns_theta_max         30.314
_diffrn_reflns_theta_min         2.755
_diffrn_source                   'I\mS Microfocus Source'
_exptl_absorpt_coefficient_mu    0.268
_exptl_absorpt_correction_T_max  0.7460
_exptl_absorpt_correction_T_min  0.5002
_exptl_absorpt_correction_type   multi-scan
_exptl_absorpt_process_details
;
TWINABS vers. 2012.1 (Bruker AXS Inc., 2013)
;
_exptl_crystal_colour            colourless
_exptl_crystal_density_diffrn    0.982
_exptl_crystal_density_method    'not measured'
_exptl_crystal_description       plate
_exptl_crystal_F_000             244
_exptl_crystal_size_max          0.320
_exptl_crystal_size_mid          0.180
_exptl_crystal_size_min          0.040
_refine_diff_density_max         0.508
_refine_diff_density_min         -0.439
_refine_diff_density_rms         0.083
_refine_ls_extinction_method     none
_refine_ls_goodness_of_fit_ref   1.100
_refine_ls_hydrogen_treatment    constr
_refine_ls_matrix_type           full
_refine_ls_number_parameters     77
_refine_ls_number_reflns         2198
_refine_ls_number_restraints     0
_refine_ls_restrained_S_all      1.100
_refine_ls_R_factor_all          0.1308
_refine_ls_R_factor_gt           0.0784
_refine_ls_shift/su_max          0.000
_refine_ls_shift/su_mean         0.000
_refine_ls_structure_factor_coef Fsqd
_refine_ls_weighting_details
'w=1/[\s^2^(Fo^2^)+(0.0407P)^2^+0.8512P] where P=(Fo^2^+2Fc^2^)/3'
_refine_ls_weighting_scheme      calc
_refine_ls_wR_factor_gt          0.1331
_refine_ls_wR_factor_ref         0.1505
_reflns_Friedel_coverage         0.000
_reflns_number_gt                1545
_reflns_number_total             2198
_reflns_threshold_expression     'I > 2\s(I)'
_cod_data_source_file            ic5b01665_si_001.cif
_cod_data_source_block           fin184f5
_cod_original_sg_symbol_H-M      'P 21/m'
_cod_database_code               4346553
_audit_contact_author            'Joerg Sundermeyer'
_shelx_shelxl_version_number     2014/7
_shelx_space_group_comment
; 
The symmetry employed for this shelxl refinement is uniquely defined 
by the following loop, which should always be used as a source of 
symmetry information in preference to the above space-group names. 
They are only intended as comments. 
;
_shelx_estimated_absorpt_t_min   0.919
_shelx_estimated_absorpt_t_max   0.989
_shelx_res_file
; 
  
    shelx.res created by SHELXL-2014/7 
  
TITL fin184f4 in P2(1)/m 
CELL  0.71073   7.6236   7.6281  13.2227   90.000  104.094   90.000 
ZERR     2.00   0.0011   0.0011   0.0018    0.000    0.004    0.000 
LATT   1 
SYMM  - X, 1/2 + Y, - Z 
SFAC  C    H    N    SI   S 
UNIT  18 48 4 2 2 
MERG   0 
FMAP   2 
PLAN   20 
SIZE     0.040   0.180   0.320 
ACTA    50.00 
BOND   $H 
CONF 
LIST   4 
L.S.  20 
TEMP  -163.00 
WGHT    0.040700    0.851200 
BASF   0.48961 
FVAR       1.17865 
C1    1    0.617141    0.250000    0.068177    10.50000    0.01651    0.04302 = 
         0.01908    0.00000    0.01071    0.00000 
AFIX   3 
H1A   2    0.493327    0.250000    0.024348    10.50000   -1.50000 
H1B   2    0.636119    0.145103    0.112295    11.00000   -1.50000 
AFIX   0 
C2    1    0.935551    0.250000    0.067751    10.50000    0.01585    0.02007 = 
         0.03890    0.00000    0.01026    0.00000 
AFIX   3 
H2A   2    1.023071    0.250000    0.024383    10.50000   -1.50000 
H2B   2    0.953057    0.145463    0.112165    11.00000   -1.50000 
AFIX   0 
C3    1    0.722071    0.091379   -0.067797    11.00000    0.02880    0.01623 = 
         0.02857   -0.00256    0.00522   -0.00045 
AFIX 137 
H3A   2    0.598102    0.090331   -0.111412    11.00000   -1.50000 
H3B   2    0.742650   -0.013974   -0.024083    11.00000   -1.50000 
H3C   2    0.807568    0.093365   -0.112414    11.00000   -1.50000 
AFIX   0 
C4    1   -0.138068    0.250000    0.645140    10.50000    0.05251    0.11494 = 
         0.03569    0.00000   -0.01282    0.00000 
AFIX   3 
H4A   2   -0.166326    0.250000    0.568774    10.50000   -1.50000 
H4C   2   -0.189944    0.146259    0.670564    11.00000   -1.50000 
AFIX   0 
C5    1    0.200966    0.051470    0.642464    11.00000    0.12450    0.09643 = 
         0.04184   -0.02191    0.01166    0.03950 
AFIX 137 
H5A   2    0.150194   -0.054481    0.666174    11.00000   -1.50000 
H5B   2    0.333160    0.048245    0.666020    11.00000   -1.50000 
H5C   2    0.165436    0.057009    0.566145    11.00000   -1.50000 
AFIX   0 
C6    1    0.369689    0.250000    0.305216    10.50000    0.03423    0.05069 = 
         0.04315    0.00000    0.00462    0.00000 
C7    1    0.413972    0.250000    0.418514    10.50000    0.09668    0.11637 = 
         0.04442    0.00000    0.00813    0.00000 
AFIX 137 
H7A   2    0.530993    0.192344    0.445168    10.50000   -1.50000 
H7B   2    0.320205    0.186577    0.442832    10.50000   -1.50000 
H7C   2    0.420578    0.371079    0.443944    10.50000   -1.50000 
AFIX   0 
N1    3    0.749252    0.250000   -0.000168    10.50000    0.01288    0.01710 = 
         0.02361    0.00000    0.00205    0.00000 
N2    3    0.334285    0.250000    0.217444    10.50000    0.03584    0.04865 = 
         0.05294    0.00000   -0.00810    0.00000 
SI1   4    0.113049    0.250000    0.698119    10.50000    0.03576    0.04436 = 
         0.01923    0.00000    0.00456    0.00000 
S1    5    0.187958    0.250000    0.858021    10.50000    0.02448    0.02724 = 
         0.01965    0.00000    0.00388    0.00000 
HKLF    5 
  
REM  fin184f4 in P2(1)/m 
REM R1 =  0.0784 for    1545 Fo > 4sig(Fo)  and  0.1308 for all    2198 data 
REM     77 parameters refined using      0 restraints 
  
END 
  
WGHT      0.0407      0.8512 
  
REM Highest difference peak  0.508,  deepest hole -0.439,  1-sigma level  0.083 
Q1    1   0.1513  0.2500  0.7825  10.50000  0.05    0.51 
Q2    1   1.2496  0.2500  0.0329  10.50000  0.05    0.37 
Q3    1   0.2554 -0.2500  0.6527  10.50000  0.05    0.34 
Q4    1   0.9638  0.2500  0.1242  10.50000  0.05    0.33 
Q5    1   0.1079  0.1347  0.6658  11.00000  0.05    0.33 
Q6    1   0.5358  0.2500  0.0028  10.50000  0.05    0.33 
Q7    1  -0.0564  0.2500  0.8013  10.50000  0.05    0.32 
Q8    1   0.6941  0.2500  0.0357  10.50000  0.05    0.32 
Q9    1   0.8311  0.2500  0.0179  10.50000  0.05    0.32 
Q10   1   0.0787 -0.0409  0.6727  11.00000  0.05    0.31 
Q11   1   0.9518  0.1151  0.0713  11.00000  0.05    0.31 
Q12   1   0.4241  0.2500  0.8785  10.50000  0.05    0.30 
Q13   1   0.2130  0.1447  0.8387  11.00000  0.05    0.29 
Q14   1   0.6336  0.2500  0.1423  10.50000  0.05    0.29 
Q15   1   0.0632  0.1280  0.6964  11.00000  0.05    0.28 
Q16   1  -0.1440  0.2500  0.4528  10.50000  0.05    0.28 
Q17   1  -0.0711  0.1405  0.6630  11.00000  0.05    0.28 
Q18   1   0.2260  0.1843  0.6820  11.00000  0.05    0.28 
Q19   1   0.2525  0.2500  0.9419  10.50000  0.05    0.28 
Q20   1   0.1643  0.1422  0.8759  11.00000  0.05    0.28 
;
_shelx_res_checksum              99199
_shelx_hkl_file
; 
   1   0   0 374.153 15.4728   1 
  -2   0   2 2269.61 90.8330  -2 
   2   0   0 2269.61 90.8330   1 
  -3   0   3 209.394 14.6943  -2 
   3   0   0 209.394 14.6943   1 
  -4   0   3 184.060 10.1152  -2 
   4   0   0 184.060 10.1152   1 
  -5   0   4 192.143 6.92301  -2 
   5   0   0 192.143 6.92301   1 
  -6   0   5 14.4731 3.79014  -2 
   6   0   0 14.4731 3.79014   1 
  -7   0   6 8.48197 5.54616  -2 
   7   0   0 8.48197 5.54616   1 
  -8   0   7 12.3346 13.0000  -2 
   8   0   0 12.3346 13.0000   1 
  -9   0   8 56.1695 22.3014  -2 
   9   0   0 56.1695 22.3014   1 
   0   1   0 -0.1315 0.27282  -2 
   0   1   0 -0.1315 0.27282   1 
  -1   1   1 571.760 16.2709  -2 
   1   1   0 571.760 16.2709   1 
  -2   1   2 587.965 19.9404  -2 
   2   1   0 587.965 19.9404   1 
  -3   1   3 337.717 21.5180  -2 
   3   1   0 337.717 21.5180   1 
  -4   1   3 724.047 21.8999  -2 
   4   1   0 724.047 21.8999   1 
  -5   1   4 828.134 17.7199  -2 
   5   1   0 828.134 17.7199   1 
  -6   1   5 -0.2442 3.57889  -2 
   6   1   0 -0.2442 3.57889   1 
  -7   1   6 81.0662 5.21236  -2 
   7   1   0 81.0662 5.21236   1 
  -8   1   7 74.3875 10.3445  -2 
   8   1   0 74.3875 10.3445   1 
  -9   1   8 53.1041 15.5985  -2 
   9   1   0 53.1041 15.5985   1 
   0   2   0 9999.99 228.099  -2 
   0   2   0 9999.99 228.099   1 
  -1   2   1 104.192 2.21063  -2 
   1   2   0 104.192 2.21063   1 
  -2   2   2 5.01911 1.94506  -2 
   2   2   0 5.01911 1.94506   1 
   3   2   0 72.8405 2.79602   1 
  -4   2   3 566.862 24.9853  -2 
   4   2   0 566.862 24.9853   1 
  -5   2   4 166.932 4.81425  -2 
   5   2   0 166.932 4.81425   1 
  -6   2   5 13.2677 3.41339  -2 
   6   2   0 13.2677 3.41339   1 
  -7   2   6 76.6366 6.30325  -2 
   7   2   0 76.6366 6.30325   1 
  -8   2   7 7.00422 9.13147  -2 
   8   2   0 7.00422 9.13147   1 
  -9   2   8 -11.642 14.8144  -2 
   9   2   0 -11.642 14.8144   1 
   0   3   0 0.54148 0.90924  -2 
   0   3   0 0.54148 0.90924   1 
  -1   3   1 1917.89 29.0022  -2 
   1   3   0 1917.89 29.0022   1 
  -2   3   2 316.985 7.19692  -2 
   2   3   0 316.985 7.19692   1 
  -3   3   3 205.207 9.12879  -2 
   3   3   0 205.207 9.12879   1 
  -4   3   3 263.376 11.0264  -2 
   4   3   0 263.376 11.0264   1 
  -5   3   4 317.744 7.67717  -2 
   5   3   0 317.744 7.67717   1 
  -6   3   5 29.2974 4.03096  -2 
   6   3   0 29.2974 4.03096   1 
  -7   3   6 53.9346 5.86083  -2 
   7   3   0 53.9346 5.86083   1 
  -8   3   7 25.8330 11.3127  -2 
   8   3   0 25.8330 11.3127   1 
  -9   3   8 88.1790 16.7723  -2 
   9   3   0 88.1790 16.7723   1 
   0   4   0 4217.65 95.9178  -2 
   0   4   0 4217.65 95.9178   1 
  -1   4   1 270.655 4.97191  -2 
   1   4   0 270.655 4.97191   1 
  -2   4   2 62.9411 2.70857  -2 
   2   4   0 62.9411 2.70857   1 
  -3   4   3 258.157 13.2805  -2 
   3   4   0 258.157 13.2805   1 
  -4   4   3 231.400 7.35727  -2 
   4   4   0 231.400 7.35727   1 
  -5   4   4 160.468 5.65965  -2 
   5   4   0 160.468 5.65965   1 
  -6   4   5 20.8935 4.69801  -2 
   6   4   0 20.8935 4.69801   1 
  -7   4   6 53.7436 7.32865  -2 
   7   4   0 53.7436 7.32865   1 
  -8   4   7 21.1869 12.8930  -2 
   8   4   0 21.1869 12.8930   1 
  -9   4   8 8.26505 28.6634  -2 
   9   4   0 8.26505 28.6634   1 
   0   5   0 7.11263 1.89454  -2 
   0   5   0 7.11263 1.89454   1 
  -1   5   1 303.469 6.12869  -2 
   1   5   0 303.469 6.12869   1 
  -2   5   2 246.814 5.55983  -2 
   2   5   0 246.814 5.55983   1 
  -3   5   3 81.8710 10.2399  -2 
   3   5   0 81.8710 10.2399   1 
  -4   5   3 224.029 7.51450  -2 
   4   5   0 224.029 7.51450   1 
  -5   5   4 256.818 8.21770  -2 
   5   5   0 256.818 8.21770   1 
  -6   5   5 0.63161 4.77493  -2 
   6   5   0 0.63161 4.77493   1 
  -7   5   6 49.9746 9.17138  -2 
   7   5   0 49.9746 9.17138   1 
  -8   5   7 -30.095 20.7252  -2 
   8   5   0 -30.095 20.7252   1 
   0   6   0 2700.65 69.6975  -2 
   0   6   0 2700.65 69.6975   1 
  -1   6   1 74.3153 3.96797  -2 
   1   6   0 74.3153 3.96797   1 
  -2   6   2 195.126 5.39116  -2 
   2   6   0 195.126 5.39116   1 
  -3   6   3 46.6765 9.02926  -2 
   3   6   0 46.6765 9.02926   1 
  -4   6   3 27.7057 5.81468  -2 
   4   6   0 27.7057 5.81468   1 
  -5   6   4 44.0228 6.38601  -2 
   5   6   0 44.0228 6.38601   1 
  -6   6   5 -0.4425 6.64440  -2 
   6   6   0 -0.4425 6.64440   1 
  -7   6   6 6.20265 8.20293  -2 
   7   6   0 6.20265 8.20293   1 
  -8   6   7 -38.232 28.8439  -2 
   8   6   0 -38.232 28.8439   1 
   0   7   0 3.67449 3.07958  -2 
   0   7   0 3.67449 3.07958   1 
  -1   7   1 27.1583 4.47722  -2 
   1   7   0 27.1583 4.47722   1 
  -2   7   2 181.829 6.75772  -2 
   2   7   0 181.829 6.75772   1 
  -3   7   3 118.369 15.7372  -2 
   3   7   0 118.369 15.7372   1 
  -4   7   3 169.710 8.68582  -2 
   4   7   0 169.710 8.68582   1 
  -5   7   4 155.687 9.25038  -2 
   5   7   0 155.687 9.25038   1 
  -6   7   5 -0.0897 9.29187  -2 
   6   7   0 -0.0897 9.29187   1 
  -7   7   6 3.51952 11.3822  -2 
   7   7   0 3.51952 11.3822   1 
   8   7   0 3.82095 15.0703   1 
   0   8   0 586.442 16.3699  -2 
   0   8   0 586.442 16.3699   1 
  -1   8   1 40.1409 5.48272  -2 
   1   8   0 40.1409 5.48272   1 
  -2   8   2 35.0453 9.43864  -2 
   2   8   0 35.0453 9.43864   1 
  -3   8   3 -9.1881 35.2358  -2 
   3   8   0 -9.1881 35.2358   1 
  -4   8   3 10.8214 11.3481  -2 
   4   8   0 10.8214 11.3481   1 
  -5   8   4 33.9379 11.6067  -2 
   5   8   0 33.9379 11.6067   1 
  -6   8   5 -12.113 12.9492  -2 
   6   8   0 -12.113 12.9492   1 
  -7   8   6 6.37395 17.7569  -2 
   7   8   0 6.37395 17.7569   1 
   0   9   0 0.60302 5.62914  -2 
   0   9   0 0.60302 5.62914   1 
  -1   9   1 117.297 8.40861  -2 
   1   9   0 117.297 8.40861   1 
  -2   9   2 48.2425 10.1568  -2 
   2   9   0 48.2425 10.1568   1 
  -3   9   3 -13.256 48.3948  -2 
   3   9   0 -13.256 48.3948   1 
  -3   9   2 32.5917 36.3717  -2 
   3   9   0 32.5917 36.3717   1 
  -4   9   3 9.74356 19.8864  -2 
   4   9   0 9.74356 19.8864   1 
  -5   9   4 30.0771 15.2264  -2 
   5   9   0 30.0771 15.2264   1 
   0  10   0 164.170 14.8465  -2 
   0  10   0 164.170 14.8465   1 
  -1  10   1 24.2822 12.2603  -2 
   1  10   0 24.2822 12.2603   1 
  -2  10   2 43.6381 21.9441  -2 
   2  10   0 43.6381 21.9441   1 
  -3  10   3 45.2247 44.1803  -2 
   3  10   0 45.2247 44.1803   1 
  -4  10   3 18.1277 40.7128  -2 
   4  10   0 18.1277 40.7128   1 
  -9   0   7 30.6728 20.5984  -2 
  -9   0   1 30.6728 20.5984   1 
  -8   0   6 0.49092 10.4297  -2 
  -8   0   1 0.49092 10.4297   1 
  -7   0   5 88.9119 8.33100  -2 
  -7   0   1 88.9119 8.33100   1 
  -6   0   4 70.4858 4.55374  -2 
  -6   0   1 70.4858 4.55374   1 
  -5   0   3 136.209 9.57743  -2 
  -5   0   1 136.209 9.57743   1 
  -4   0   2 2202.14 73.8321  -2 
  -4   0   1 2202.14 73.8321   1 
  -3   0   2 62.7850 7.62748  -2 
  -3   0   1 62.7850 7.62748   1 
  -2   0   1 9119.40 363.050  -2 
  -2   0   1 9119.40 363.050   1 
  -1   0   1 496.044 15.4205   1 
  -1   0   2 558.993 22.9894  -2 
   1   0   1 558.993 22.9894   1 
  -2   0   3 572.650 23.7935  -2 
   2   0   1 572.650 23.7935   1 
   3   0   1 296.858 8.42326   1 
  -4   0   4 27.5293 5.65210  -2 
   4   0   1 27.5293 5.65210   1 
  -5   0   5 29.7524 4.66951  -2 
   5   0   1 29.7524 4.66951   1 
  -6   0   6 24.2771 4.15131  -2 
   6   0   1 24.2771 4.15131   1 
  -7   0   7 12.1209 5.32021  -2 
   7   0   1 12.1209 5.32021   1 
  -8   0   8 50.0945 14.3356  -2 
   8   0   1 50.0945 14.3356   1 
  -9   0   9 218.730 27.0157  -2 
   9   0   1 218.730 27.0157   1 
 -10   1   1 41.5035 13.4727   1 
  -9   1   7 -27.101 22.0515  -2 
  -9   1   1 -27.101 22.0515   1 
  -8   1   6 36.8352 7.84990  -2 
  -8   1   1 36.8352 7.84990   1 
  -7   1   5 409.630 10.7421  -2 
  -7   1   1 409.630 10.7421   1 
  -6   1   4 160.436 6.06614  -2 
  -6   1   1 160.436 6.06614   1 
  -5   1   3 153.423 5.79573  -2 
  -5   1   1 153.423 5.79573   1 
  -4   1   2 308.423 11.8662  -2 
  -4   1   1 308.423 11.8662   1 
  -3   1   2 2252.97 127.747  -2 
  -3   1   1 2252.97 127.747   1 
  -2   1   1 1.63363 1.76905  -2 
  -2   1   1 1.63363 1.76905   1 
   1   1   0 526.071 11.8522  -2 
  -1   1   1 526.071 11.8522   1 
   0   1   1 1527.42 31.4931  -2 
   0   1   1 1527.42 31.4931   1 
  -1   1   2 7724.36 188.039  -2 
   1   1   1 7724.36 188.039   1 
  -2   1   3 2618.40 85.4153  -2 
   2   1   1 2618.40 85.4153   1 
  -3   1   4 978.964 41.4344  -2 
   3   1   1 978.964 41.4344   1 
  -4   1   4 313.807 12.3147  -2 
   4   1   1 313.807 12.3147   1 
  -5   1   5 159.802 5.05315  -2 
   5   1   1 159.802 5.05315   1 
  -6   1   6 14.1291 3.06270  -2 
   6   1   1 14.1291 3.06270   1 
  -7   1   7 60.8352 5.11371  -2 
   7   1   1 60.8352 5.11371   1 
  -8   1   8 -4.0116 9.39684  -2 
   8   1   1 -4.0116 9.39684   1 
  -9   1   9 58.3069 16.4368  -2 
   9   1   1 58.3069 16.4368   1 
  -9   2   7 17.4030 13.9965  -2 
  -9   2   1 17.4030 13.9965   1 
  -8   2   6 37.0548 9.03654  -2 
  -8   2   1 37.0548 9.03654   1 
  -7   2   5 155.753 7.86168  -2 
  -7   2   1 155.753 7.86168   1 
  -6   2   4 9.99250 3.55265  -2 
  -6   2   1 9.99250 3.55265   1 
  -5   2   3 349.059 8.15165  -2 
  -5   2   1 349.059 8.15165   1 
  -4   2   2 1178.97 48.6575  -2 
  -4   2   1 1178.97 48.6575   1 
  -3   2   2 145.192 13.9911  -2 
  -3   2   1 145.192 13.9911   1 
  -2   2   1 2612.01 66.4543  -2 
  -2   2   1 2612.01 66.4543   1 
   1   2   0 104.586 2.29532  -2 
  -1   2   1 104.586 2.29532   1 
   0   2   1 889.836 14.6577  -2 
   0   2   1 889.836 14.6577   1 
  -1   2   2 2514.99 41.1209  -2 
   1   2   1 2514.99 41.1209   1 
  -2   2   3 1188.54 27.5527  -2 
   2   2   1 1188.54 27.5527   1 
  -3   2   4 37.8202 8.48643  -2 
   3   2   1 37.8202 8.48643   1 
  -4   2   4 119.913 6.36872  -2 
   4   2   1 119.913 6.36872   1 
  -5   2   5 119.474 4.71963  -2 
   5   2   1 119.474 4.71963   1 
  -6   2   6 6.96191 3.72103  -2 
   6   2   1 6.96191 3.72103   1 
  -7   2   7 84.4433 5.15313  -2 
   7   2   1 84.4433 5.15313   1 
  -8   2   8 23.1394 9.83717  -2 
   8   2   1 23.1394 9.83717   1 
  -9   2   9 110.678 16.3942  -2 
   9   2   1 110.678 16.3942   1 
  -9   3   7 68.2186 15.6360  -2 
  -9   3   1 68.2186 15.6360   1 
  -8   3   6 15.9533 11.5773  -2 
  -8   3   1 15.9533 11.5773   1 
  -7   3   5 150.364 7.94746  -2 
  -7   3   1 150.364 7.94746   1 
  -6   3   4 41.8121 3.79601  -2 
  -6   3   1 41.8121 3.79601   1 
  -5   3   3 72.6433 4.04747  -2 
  -5   3   1 72.6433 4.04747   1 
  -4   3   2 246.965 8.25100  -2 
  -4   3   1 246.965 8.25100   1 
  -3   3   2 2224.53 93.1381  -2 
  -3   3   1 2224.53 93.1381   1 
  -2   3   1 143.422 4.09557  -2 
  -2   3   1 143.422 4.09557   1 
   1   3   0 1959.22 30.6647  -2 
  -1   3   1 1959.22 30.6647   1 
   0   3   1 3.56411 0.67672  -2 
   0   3   1 3.56411 0.67672   1 
  -1   3   2 604.218 9.59671  -2 
   1   3   1 604.218 9.59671   1 
  -2   3   3 52.4100 2.46662  -2 
   2   3   1 52.4100 2.46662   1 
  -3   3   4 98.7394 9.05445  -2 
   3   3   1 98.7394 9.05445   1 
  -4   3   4 9.08461 4.05781  -2 
   4   3   1 9.08461 4.05781   1 
  -5   3   5 17.9375 3.77088  -2 
   5   3   1 17.9375 3.77088   1 
  -6   3   6 43.5558 4.50996  -2 
   6   3   1 43.5558 4.50996   1 
  -7   3   7 81.3414 7.99392  -2 
   7   3   1 81.3414 7.99392   1 
  -8   3   8 37.7094 11.0407  -2 
   8   3   1 37.7094 11.0407   1 
  -9   3   9 108.971 18.0060  -2 
   9   3   1 108.971 18.0060   1 
  -9   4   7 58.9897 20.2777  -2 
  -9   4   1 58.9897 20.2777   1 
  -8   4   6 27.6000 13.1769  -2 
  -8   4   1 27.6000 13.1769   1 
  -7   4   5 139.985 9.01348  -2 
  -7   4   1 139.985 9.01348   1 
  -6   4   4 6.78332 4.03215  -2 
  -6   4   1 6.78332 4.03215   1 
  -5   4   3 200.016 6.09776  -2 
  -5   4   1 200.016 6.09776   1 
  -4   4   2 573.721 16.1939  -2 
  -4   4   1 573.721 16.1939   1 
  -3   4   2 78.3903 9.84879  -2 
  -3   4   1 78.3903 9.84879   1 
  -2   4   1 1475.28 24.6515  -2 
  -2   4   1 1475.28 24.6515   1 
   1   4   0 270.448 5.13076  -2 
  -1   4   1 270.448 5.13076   1 
   0   4   1 120.498 2.87142  -2 
   0   4   1 120.498 2.87142   1 
  -1   4   2 681.429 10.9265  -2 
   1   4   1 681.429 10.9265   1 
  -2   4   3 440.863 9.15245  -2 
   2   4   1 440.863 9.15245   1 
  -3   4   4 18.7203 9.48398  -2 
   3   4   1 18.7203 9.48398   1 
  -4   4   4 61.4875 4.28558  -2 
   4   4   1 61.4875 4.28558   1 
  -5   4   5 78.7369 4.33029  -2 
   5   4   1 78.7369 4.33029   1 
  -6   4   6 2.25375 4.78737  -2 
   6   4   1 2.25375 4.78737   1 
  -7   4   7 54.5036 8.78790  -2 
   7   4   1 54.5036 8.78790   1 
  -8   4   8 12.1124 13.6804  -2 
   8   4   1 12.1124 13.6804   1 
  -9   5   7 209.429 51.9766  -2 
  -9   5   1 209.429 51.9766   1 
  -8   5   6 13.3710 14.6860  -2 
  -8   5   1 13.3710 14.6860   1 
  -7   5   5 189.663 10.2354  -2 
  -7   5   1 189.663 10.2354   1 
  -6   5   4 75.8728 7.37816  -2 
  -6   5   1 75.8728 7.37816   1 
  -5   5   3 26.4089 5.09907  -2 
  -5   5   1 26.4089 5.09907   1 
  -4   5   2 84.4616 5.85188  -2 
  -4   5   1 84.4616 5.85188   1 
  -3   5   2 481.930 18.8385  -2 
  -3   5   1 481.930 18.8385   1 
  -2   5   1 14.2707 3.04779  -2 
  -2   5   1 14.2707 3.04779   1 
   1   5   0 302.713 6.40639  -2 
  -1   5   1 302.713 6.40639   1 
   0   5   1 380.669 7.46501  -2 
   0   5   1 380.669 7.46501   1 
  -1   5   2 769.567 13.3226  -2 
   1   5   1 769.567 13.3226   1 
  -2   5   3 213.247 6.27630  -2 
   2   5   1 213.247 6.27630   1 
  -3   5   4 233.178 13.6612  -2 
   3   5   1 233.178 13.6612   1 
  -4   5   4 92.7169 5.42267  -2 
   4   5   1 92.7169 5.42267   1 
  -5   5   5 97.4013 6.14186  -2 
   5   5   1 97.4013 6.14186   1 
  -6   5   6 -5.6141 7.46248  -2 
   6   5   1 -5.6141 7.46248   1 
  -7   5   7 23.6687 9.55684  -2 
   7   5   1 23.6687 9.55684   1 
  -8   5   8 21.1706 16.7964  -2 
   8   5   1 21.1706 16.7964   1 
  -8   6   6 -0.7323 17.3210  -2 
  -8   6   1 -0.7323 17.3210   1 
  -7   6   5 23.9268 9.74623  -2 
  -7   6   1 23.9268 9.74623   1 
  -6   6   4 17.4613 6.51162  -2 
  -6   6   1 17.4613 6.51162   1 
  -5   6   3 57.7519 6.08544  -2 
  -5   6   1 57.7519 6.08544   1 
  -4   6   2 490.174 12.7936  -2 
  -4   6   1 490.174 12.7936   1 
  -3   6   2 20.1260 11.8352  -2 
  -3   6   1 20.1260 11.8352   1 
  -2   6   1 1200.81 20.8770  -2 
  -2   6   1 1200.81 20.8770   1 
   1   6   0 68.9999 3.42830  -2 
  -1   6   1 68.9999 3.42830   1 
   0   6   1 384.303 7.55591  -2 
   0   6   1 384.303 7.55591   1 
  -1   6   2 85.9225 3.91516  -2 
   1   6   1 85.9225 3.91516   1 
  -2   6   3 50.1481 3.95475  -2 
   2   6   1 50.1481 3.95475   1 
  -3   6   4 31.1286 10.8639  -2 
   3   6   1 31.1286 10.8639   1 
  -4   6   4 -11.428 8.64505  -2 
   4   6   1 -11.428 8.64505   1 
  -5   6   5 6.83674 6.18729  -2 
   5   6   1 6.83674 6.18729   1 
  -6   6   6 -5.0389 7.48721  -2 
   6   6   1 -5.0389 7.48721   1 
  -7   6   7 -8.5782 11.8786  -2 
   7   6   1 -8.5782 11.8786   1 
  -8   6   8 -1.4604 21.6755  -2 
   8   6   1 -1.4604 21.6755   1 
  -8   7   6 -20.525 24.4528  -2 
  -8   7   1 -20.525 24.4528   1 
  -7   7   5 83.4055 13.4747  -2 
  -7   7   1 83.4055 13.4747   1 
  -6   7   4 37.4581 8.89309  -2 
  -6   7   1 37.4581 8.89309   1 
  -5   7   3 50.4364 10.1695  -2 
  -5   7   1 50.4364 10.1695   1 
  -4   7   2 99.6779 9.19437  -2 
  -4   7   1 99.6779 9.19437   1 
  -3   7   2 160.395 12.5766  -2 
  -3   7   1 160.395 12.5766   1 
  -2   7   1 0.51484 5.74705  -2 
  -2   7   1 0.51484 5.74705   1 
   1   7   0 30.6006 4.23483  -2 
  -1   7   1 30.6006 4.23483   1 
   0   7   1 129.857 4.77153  -2 
   0   7   1 129.857 4.77153   1 
  -1   7   2 278.031 8.00957  -2 
   1   7   1 278.031 8.00957   1 
  -2   7   3 137.459 6.34070  -2 
   2   7   1 137.459 6.34070   1 
  -3   7   4 45.7429 15.5039  -2 
   3   7   1 45.7429 15.5039   1 
  -4   7   4 55.1670 8.80571  -2 
   4   7   1 55.1670 8.80571   1 
  -5   7   5 48.9545 8.21505  -2 
   5   7   1 48.9545 8.21505   1 
  -6   7   6 -6.6989 13.3521  -2 
   6   7   1 -6.6989 13.3521   1 
  -7   7   7 12.1906 13.2097  -2 
   7   7   1 12.1906 13.2097   1 
  -7   8   5 27.4046 17.2880  -2 
  -7   8   1 27.4046 17.2880   1 
  -6   8   4 -6.4376 10.6181  -2 
  -6   8   1 -6.4376 10.6181   1 
  -5   8   3 68.6353 11.8739  -2 
  -5   8   1 68.6353 11.8739   1 
  -4   8   2 121.182 13.9874  -2 
  -4   8   1 121.182 13.9874   1 
  -3   8   2 -18.920 34.2553  -2 
  -3   8   1 -18.920 34.2553   1 
  -2   8   1 306.365 10.8546  -2 
  -2   8   1 306.365 10.8546   1 
   1   8   0 32.3159 5.68751  -2 
  -1   8   1 32.3159 5.68751   1 
   0   8   1 118.897 5.07823  -2 
   0   8   1 118.897 5.07823   1 
  -1   8   2 116.306 6.80533  -2 
   1   8   1 116.306 6.80533   1 
  -2   8   3 16.7100 9.15124  -2 
   2   8   1 16.7100 9.15124   1 
  -3   8   4 -19.271 14.8964  -2 
   3   8   1 -19.271 14.8964   1 
  -4   8   4 1.98173 13.5592  -2 
   4   8   1 1.98173 13.5592   1 
  -5   8   5 32.9970 12.7633  -2 
   5   8   1 32.9970 12.7633   1 
  -6   8   6 2.95367 13.8557  -2 
   6   8   1 2.95367 13.8557   1 
  -5   9   3 18.8127 18.2322  -2 
  -5   9   1 18.8127 18.2322   1 
  -4   9   2 24.6229 18.3285  -2 
  -4   9   1 24.6229 18.3285   1 
  -3   9   1 225.498 39.4728  -2 
  -3   9   1 225.498 39.4728   1 
  -3   9   2 178.401 49.7264  -2 
  -3   9   1 178.401 49.7264   1 
  -2   9   1 17.0406 25.2823  -2 
  -2   9   1 17.0406 25.2823   1 
   1   9   0 127.430 9.06860  -2 
  -1   9   1 127.430 9.06860   1 
   0   9   1 26.0751 4.31718  -2 
   0   9   1 26.0751 4.31718   1 
  -1   9   2 26.4743 7.52540  -2 
   1   9   1 26.4743 7.52540   1 
  -2   9   3 38.8611 11.8952  -2 
   2   9   1 38.8611 11.8952   1 
  -3   9   4 -36.580 49.6837  -2 
   3   9   1 -36.580 49.6837   1 
  -3   9   3 -34.622 38.0596  -2 
   3   9   1 -34.622 38.0596   1 
  -4   9   4 -11.209 25.4842  -2 
   4   9   1 -11.209 25.4842   1 
  -5   9   5 24.7461 23.7464  -2 
   5   9   1 24.7461 23.7464   1 
  -4  10   2 104.206 41.4774  -2 
  -4  10   1 104.206 41.4774   1 
  -3  10   2 26.1700 27.7891  -2 
  -3  10   1 26.1700 27.7891   1 
  -2  10   1 34.8642 19.3092  -2 
  -2  10   1 34.8642 19.3092   1 
   1  10   0 43.0983 13.5009  -2 
  -1  10   1 43.0983 13.5009   1 
   0  10   1 14.5232 6.74479  -2 
   0  10   1 14.5232 6.74479   1 
  -1  10   2 68.3785 12.0140  -2 
   1  10   1 68.3785 12.0140   1 
  -2  10   3 42.0934 22.8064  -2 
   2  10   1 42.0934 22.8064   1 
   3  10   1 4.73383 13.6806   1 
 -10   0   2 -1.3692 11.1341   1 
  -9   0   6 -16.373 19.6891  -2 
  -9   0   2 -16.373 19.6891   1 
  -8   0   5 19.4396 12.4433  -2 
  -8   0   2 19.4396 12.4433   1 
  -7   0   4 148.360 9.63941  -2 
  -7   0   2 148.360 9.63941   1 
  -6   0   3 1703.78 49.4249  -2 
  -6   0   2 1703.78 49.4249   1 
  -5   0   2 149.226 7.98666  -2 
  -5   0   2 149.226 7.98666   1 
  -4   0   1 2129.62 88.2936  -2 
  -4   0   2 2129.62 88.2936   1 
  -3   0   1 66.8885 6.61715  -2 
  -3   0   2 66.8885 6.61715   1 
   2   0   0 2151.95 122.115  -2 
  -2   0   2 2151.95 122.115   1 
  -1   0   2 199.372 5.77375   1 
   0   0   2 26.4249 1.21881  -2 
   0   0   2 26.4249 1.21881   1 
  -1   0   3 283.670 8.45765  -2 
   1   0   2 283.670 8.45765   1 
  -2   0   4 42.7750 4.21372  -2 
   2   0   2 42.7750 4.21372   1 
   3   0   2 454.758 12.3569   1 
  -4   0   5 86.9699 11.7579  -2 
   4   0   2 86.9699 11.7579   1 
  -5   0   6 7.58118 4.59626  -2 
   5   0   2 7.58118 4.59626   1 
  -6   0   7 113.004 5.42569  -2 
   6   0   2 113.004 5.42569   1 
  -7   0   8 143.546 7.60777  -2 
   7   0   2 143.546 7.60777   1 
  -8   0   9 5.40075 13.7615  -2 
   8   0   2 5.40075 13.7615   1 
  -9   0  10 100.429 25.8281  -2 
   9   0   2 100.429 25.8281   1 
 -10   1   6 150.788 59.3952  -2 
 -10   1   2 150.788 59.3952   1 
  -9   1   6 70.5581 15.0619  -2 
  -9   1   2 70.5581 15.0619   1 
  -8   1   5 117.006 9.01350  -2 
  -8   1   2 117.006 9.01350   1 
  -7   1   4 45.4640 5.00532  -2 
  -7   1   2 45.4640 5.00532   1 
  -6   1   3 53.6954 4.02357  -2 
  -6   1   2 53.6954 4.02357   1 
  -5   1   2 636.013 16.0004  -2 
  -5   1   2 636.013 16.0004   1 
  -4   1   1 311.182 12.1599  -2 
  -4   1   2 311.182 12.1599   1 
  -3   1   1 2171.48 123.160  -2 
  -3   1   2 2171.48 123.160   1 
   2   1   0 577.331 17.7720  -2 
  -2   1   2 577.331 17.7720   1 
   1   1   1 7533.70 165.156  -2 
  -1   1   2 7533.70 165.156   1 
   0   1   2 22.3750 0.94532  -2 
   0   1   2 22.3750 0.94532   1 
  -1   1   3 1299.62 25.8443  -2 
   1   1   2 1299.62 25.8443   1 
  -2   1   4 340.401 10.3168  -2 
   2   1   2 340.401 10.3168   1 
  -3   1   5 209.745 15.3776  -2 
   3   1   2 209.745 15.3776   1 
  -4   1   5 406.736 29.2233  -2 
   4   1   2 406.736 29.2233   1 
  -5   1   6 194.895 5.35784  -2 
   5   1   2 194.895 5.35784   1 
  -6   1   7 30.1847 3.50541  -2 
   6   1   2 30.1847 3.50541   1 
  -7   1   8 76.3817 5.11120  -2 
   7   1   2 76.3817 5.11120   1 
  -8   1   9 143.948 10.7450  -2 
   8   1   2 143.948 10.7450   1 
  -9   1  10 6.44464 17.2413  -2 
   9   1   2 6.44464 17.2413   1 
 -10   2   6 119.015 54.2403  -2 
 -10   2   2 119.015 54.2403   1 
  -9   2   6 19.3995 14.3475  -2 
  -9   2   2 19.3995 14.3475   1 
  -8   2   5 22.7569 7.83952  -2 
  -8   2   2 22.7569 7.83952   1 
  -7   2   4 186.051 8.25721  -2 
  -7   2   2 186.051 8.25721   1 
  -6   2   3 870.072 21.3617  -2 
  -6   2   2 870.072 21.3617   1 
  -5   2   2 173.195 5.19650  -2 
  -5   2   2 173.195 5.19650   1 
  -4   2   1 1085.85 28.5391  -2 
  -4   2   2 1085.85 28.5391   1 
  -3   2   1 107.181 7.57739  -2 
  -3   2   2 107.181 7.57739   1 
   2   2   0 1.78356 1.83548  -2 
  -2   2   2 1.78356 1.83548   1 
   1   2   1 2635.98 42.7296  -2 
  -1   2   2 2635.98 42.7296   1 
   0   2   2 195.979 3.91571  -2 
   0   2   2 195.979 3.91571   1 
  -1   2   3 1204.85 19.6930  -2 
   1   2   2 1204.85 19.6930   1 
  -2   2   4 134.318 4.00656  -2 
   2   2   2 134.318 4.00656   1 
  -3   2   5 13.9567 5.12268  -2 
   3   2   2 13.9567 5.12268   1 
  -4   2   5 34.8593 4.21733  -2 
   4   2   2 34.8593 4.21733   1 
  -5   2   6 111.804 4.78974  -2 
   5   2   2 111.804 4.78974   1 
  -6   2   7 81.2411 5.97277  -2 
   6   2   2 81.2411 5.97277   1 
  -7   2   8 39.7981 4.86964  -2 
   7   2   2 39.7981 4.86964   1 
  -8   2   9 29.1125 10.7001  -2 
   8   2   2 29.1125 10.7001   1 
  -9   2  10 141.271 18.2926  -2 
   9   2   2 141.271 18.2926   1 
 -10   3   2 19.4261 13.2171   1 
  -9   3   6 60.8158 14.7071  -2 
  -9   3   2 60.8158 14.7071   1 
  -8   3   5 55.3925 10.4316  -2 
  -8   3   2 55.3925 10.4316   1 
  -7   3   4 16.9307 9.58442  -2 
  -7   3   2 16.9307 9.58442   1 
  -6   3   3 48.5876 3.82465  -2 
  -6   3   2 48.5876 3.82465   1 
  -5   3   2 1104.29 24.5280  -2 
  -5   3   2 1104.29 24.5280   1 
  -4   3   1 227.310 8.75383  -2 
  -4   3   2 227.310 8.75383   1 
  -3   3   1 2176.70 62.5709  -2 
  -3   3   2 2176.70 62.5709   1 
   2   3   0 327.363 7.64988  -2 
  -2   3   2 327.363 7.64988   1 
   1   3   1 624.722 10.2489  -2 
  -1   3   2 624.722 10.2489   1 
   0   3   2 23.3340 1.20572  -2 
   0   3   2 23.3340 1.20572   1 
  -1   3   3 713.102 11.6278  -2 
   1   3   2 713.102 11.6278   1 
  -2   3   4 64.6019 2.68553  -2 
   2   3   2 64.6019 2.68553   1 
  -3   3   5 53.1385 7.91237  -2 
   3   3   2 53.1385 7.91237   1 
  -4   3   5 70.6756 4.58527  -2 
   4   3   2 70.6756 4.58527   1 
  -5   3   6 219.177 6.42185  -2 
   5   3   2 219.177 6.42185   1 
  -6   3   7 158.680 7.98438  -2 
   6   3   2 158.680 7.98438   1 
  -7   3   8 130.901 9.05827  -2 
   7   3   2 130.901 9.05827   1 
  -8   3   9 209.227 13.7478  -2 
   8   3   2 209.227 13.7478   1 
  -9   3  10 76.0609 43.6063  -2 
   9   3   2 76.0609 43.6063   1 
  -9   4   6 34.9204 17.7513  -2 
  -9   4   2 34.9204 17.7513   1 
  -8   4   5 31.3204 12.8905  -2 
  -8   4   2 31.3204 12.8905   1 
  -7   4   4 128.519 7.58252  -2 
  -7   4   2 128.519 7.58252   1 
  -6   4   3 461.939 13.2886  -2 
  -6   4   2 461.939 13.2886   1 
  -5   4   2 53.5164 4.45889  -2 
  -5   4   2 53.5164 4.45889   1 
  -4   4   1 566.172 17.8408  -2 
  -4   4   2 566.172 17.8408   1 
  -3   4   1 69.3362 13.1553  -2 
  -3   4   2 69.3362 13.1553   1 
   2   4   0 64.1407 2.87092  -2 
  -2   4   2 64.1407 2.87092   1 
   1   4   1 688.650 11.4215  -2 
  -1   4   2 688.650 11.4215   1 
   0   4   2 166.844 3.59025  -2 
   0   4   2 166.844 3.59025   1 
  -1   4   3 210.177 4.16039  -2 
   1   4   2 210.177 4.16039   1 
  -2   4   4 2.21870 2.58242  -2 
   2   4   2 2.21870 2.58242   1 
  -3   4   5 9.15969 5.32070  -2 
   3   4   2 9.15969 5.32070   1 
  -4   4   5 2.91748 4.94016  -2 
   4   4   2 2.91748 4.94016   1 
  -5   4   6 61.3738 4.71482  -2 
   5   4   2 61.3738 4.71482   1 
  -6   4   7 35.0782 4.88502  -2 
   6   4   2 35.0782 4.88502   1 
  -7   4   8 26.6906 8.74207  -2 
   7   4   2 26.6906 8.74207   1 
  -8   4   9 37.1392 12.6041  -2 
   8   4   2 37.1392 12.6041   1 
  -9   5   6 -14.014 25.4087  -2 
  -9   5   2 -14.014 25.4087   1 
  -8   5   5 47.9200 14.2340  -2 
  -8   5   2 47.9200 14.2340   1 
  -7   5   4 10.6884 7.06870  -2 
  -7   5   2 10.6884 7.06870   1 
  -6   5   3 32.5467 4.71790  -2 
  -6   5   2 32.5467 4.71790   1 
  -5   5   2 226.626 8.94042  -2 
  -5   5   2 226.626 8.94042   1 
  -4   5   1 93.4405 6.41177  -2 
  -4   5   2 93.4405 6.41177   1 
  -3   5   1 491.347 25.5396  -2 
  -3   5   2 491.347 25.5396   1 
   2   5   0 256.611 5.74233  -2 
  -2   5   2 256.611 5.74233   1 
   1   5   1 782.317 14.3182  -2 
  -1   5   2 782.317 14.3182   1 
   0   5   2 1.76411 1.33134  -2 
   0   5   2 1.76411 1.33134   1 
  -1   5   3 303.197 6.49995  -2 
   1   5   2 303.197 6.49995   1 
  -2   5   4 46.0689 3.61402  -2 
   2   5   2 46.0689 3.61402   1 
  -3   5   5 43.2328 7.72950  -2 
   3   5   2 43.2328 7.72950   1 
  -4   5   5 73.7935 5.45434  -2 
   4   5   2 73.7935 5.45434   1 
  -5   5   6 60.6230 6.06450  -2 
   5   5   2 60.6230 6.06450   1 
  -6   5   7 16.8924 5.84377  -2 
   6   5   2 16.8924 5.84377   1 
  -7   5   8 43.6812 10.1557  -2 
   7   5   2 43.6812 10.1557   1 
  -8   5   9 98.9705 17.5836  -2 
   8   5   2 98.9705 17.5836   1 
  -8   6   5 -26.198 18.4482  -2 
  -8   6   2 -26.198 18.4482   1 
  -7   6   4 48.1304 9.32659  -2 
  -7   6   2 48.1304 9.32659   1 
  -6   6   3 504.553 16.7382  -2 
  -6   6   2 504.553 16.7382   1 
  -5   6   2 28.6337 6.05428  -2 
  -5   6   2 28.6337 6.05428   1 
  -4   6   1 515.670 13.8120  -2 
  -4   6   2 515.670 13.8120   1 
  -3   6   1 8.00572 7.78596  -2 
  -3   6   2 8.00572 7.78596   1 
   2   6   0 195.094 5.34831  -2 
  -2   6   2 195.094 5.34831   1 
   1   6   1 88.2201 3.73701  -2 
  -1   6   2 88.2201 3.73701   1 
   0   6   2 2.32441 1.60935  -2 
   0   6   2 2.32441 1.60935   1 
  -1   6   3 -0.4547 2.95968  -2 
   1   6   2 -0.4547 2.95968   1 
  -2   6   4 3.20557 3.96801  -2 
   2   6   2 3.20557 3.96801   1 
  -3   6   5 45.3162 15.3580  -2 
   3   6   2 45.3162 15.3580   1 
  -4   6   5 -18.200 16.6588  -2 
   4   6   2 -18.200 16.6588   1 
  -5   6   6 -0.7457 6.13036  -2 
   5   6   2 -0.7457 6.13036   1 
  -6   6   7 32.6889 8.68322  -2 
   6   6   2 32.6889 8.68322   1 
  -7   6   8 51.8615 12.2904  -2 
   7   6   2 51.8615 12.2904   1 
  -8   7   5 61.5672 24.0166  -2 
  -8   7   2 61.5672 24.0166   1 
  -7   7   4 26.3696 11.1466  -2 
  -7   7   2 26.3696 11.1466   1 
  -6   7   3 31.2981 8.32864  -2 
  -6   7   2 31.2981 8.32864   1 
  -5   7   2 97.0572 8.91757  -2 
  -5   7   2 97.0572 8.91757   1 
  -4   7   1 76.9605 8.71577  -2 
  -4   7   2 76.9605 8.71577   1 
  -3   7   1 154.833 10.9837  -2 
  -3   7   2 154.833 10.9837   1 
   2   7   0 204.423 6.79605  -2 
  -2   7   2 204.423 6.79605   1 
   1   7   1 284.345 8.27438  -2 
  -1   7   2 284.345 8.27438   1 
   0   7   2 77.8137 3.90544  -2 
   0   7   2 77.8137 3.90544   1 
  -1   7   3 225.622 6.93580  -2 
   1   7   2 225.622 6.93580   1 
  -2   7   4 70.3437 5.58240  -2 
   2   7   2 70.3437 5.58240   1 
  -3   7   5 26.1246 16.5023  -2 
   3   7   2 26.1246 16.5023   1 
  -4   7   5 102.460 9.60986  -2 
   4   7   2 102.460 9.60986   1 
  -5   7   6 52.2421 10.6871  -2 
   5   7   2 52.2421 10.6871   1 
  -6   7   7 2.78887 14.8674  -2 
   6   7   2 2.78887 14.8674   1 
  -7   7   8 -5.9035 17.5830  -2 
   7   7   2 -5.9035 17.5830   1 
  -7   8   4 25.8921 12.9193  -2 
  -7   8   2 25.8921 12.9193   1 
  -6   8   3 174.816 13.5710  -2 
  -6   8   2 174.816 13.5710   1 
  -5   8   2 11.5426 12.9521  -2 
  -5   8   2 11.5426 12.9521   1 
  -4   8   1 138.952 11.8724  -2 
  -4   8   2 138.952 11.8724   1 
  -3   8   1 -0.5535 21.0887  -2 
  -3   8   2 -0.5535 21.0887   1 
   2   8   0 18.7011 6.97680  -2 
  -2   8   2 18.7011 6.97680   1 
   1   8   1 134.916 6.44039  -2 
  -1   8   2 134.916 6.44039   1 
   0   8   2 12.9128 2.88813  -2 
   0   8   2 12.9128 2.88813   1 
  -1   8   3 40.6908 5.83403  -2 
   1   8   2 40.6908 5.83403   1 
  -2   8   4 4.96901 7.37111  -2 
   2   8   2 4.96901 7.37111   1 
  -3   8   5 26.9498 17.4079  -2 
   3   8   2 26.9498 17.4079   1 
  -4   8   5 13.3647 15.0494  -2 
   4   8   2 13.3647 15.0494   1 
  -5   8   6 71.8939 18.3780  -2 
   5   8   2 71.8939 18.3780   1 
  -6   8   7 22.3626 17.0255  -2 
   6   8   2 22.3626 17.0255   1 
  -5   9   2 83.9455 20.8855  -2 
  -5   9   2 83.9455 20.8855   1 
  -4   9   1 11.4307 16.5622  -2 
  -4   9   2 11.4307 16.5622   1 
  -3   9   1 195.334 47.7869  -2 
  -3   9   2 195.334 47.7869   1 
   2   9   0 39.5197 11.4150  -2 
  -2   9   2 39.5197 11.4150   1 
   1   9   1 23.4362 7.90857  -2 
  -1   9   2 23.4362 7.90857   1 
   0   9   2 4.66700 4.46728  -2 
   0   9   2 4.66700 4.46728   1 
  -1   9   3 55.9413 8.81400  -2 
   1   9   2 55.9413 8.81400   1 
  -2   9   4 5.26643 11.6436  -2 
   2   9   2 5.26643 11.6436   1 
  -3   9   5 45.3831 21.2231  -2 
   3   9   2 45.3831 21.2231   1 
  -4   9   5 3.70597 18.7574  -2 
   4   9   2 3.70597 18.7574   1 
  -5   9   6 41.3160 24.5190  -2 
   5   9   2 41.3160 24.5190   1 
  -3  10   2 20.7758 14.7708   1 
   2  10   0 5.32882 29.0169  -2 
  -2  10   2 5.32882 29.0169   1 
   1  10   1 85.8935 14.0461  -2 
  -1  10   2 85.8935 14.0461   1 
   0  10   2 18.2838 6.43076  -2 
   0  10   2 18.2838 6.43076   1 
  -1  10   3 37.7272 13.2396  -2 
   1  10   2 37.7272 13.2396   1 
  -2  10   4 -5.1826 22.5260  -2 
   2  10   2 -5.1826 22.5260   1 
   3  10   2 -3.3470 14.3107   1 
 -10   0   3 3.08429 11.2839   1 
  -9   0   5 34.1700 20.3726  -2 
  -9   0   3 34.1700 20.3726   1 
  -8   0   4 481.620 20.5634  -2 
  -8   0   3 481.620 20.5634   1 
  -7   0   3 34.3390 6.98390  -2 
  -7   0   3 34.3390 6.98390   1 
  -6   0   2 1750.23 58.7296  -2 
  -6   0   3 1750.23 58.7296   1 
  -5   0   1 124.478 7.19808  -2 
  -5   0   3 124.478 7.19808   1 
   4   0   0 175.249 9.30430  -2 
  -4   0   3 175.249 9.30430   1 
   3   0   0 189.132 12.5475  -2 
  -3   0   3 189.132 12.5475   1 
  -2   0   3 20.6092 1.49683   1 
   1   0   2 281.076 12.7740  -2 
  -1   0   3 281.076 12.7740   1 
   0   0   3 3416.33 93.3296  -2 
   0   0   3 3416.33 93.3296   1 
  -1   0   4 474.278 11.1634  -2 
   1   0   3 474.278 11.1634   1 
  -2   0   5 45.2348 3.80828  -2 
   2   0   3 45.2348 3.80828   1 
   3   0   3 19.2956 1.94004   1 
  -4   0   6 35.7272 10.9198  -2 
   4   0   3 35.7272 10.9198   1 
  -5   0   7 421.693 13.0956  -2 
   5   0   3 421.693 13.0956   1 
  -6   0   8 133.987 9.62395  -2 
   6   0   3 133.987 9.62395   1 
  -7   0   9 265.590 11.9162  -2 
   7   0   3 265.590 11.9162   1 
  -8   0  10 191.203 18.0241  -2 
   8   0   3 191.203 18.0241   1 
  -9   0  11 -23.564 24.4832  -2 
   9   0   3 -23.564 24.4832   1 
 -10   1   5 37.3583 19.2102  -2 
 -10   1   3 37.3583 19.2102   1 
  -9   1   5 35.5473 13.5254  -2 
  -9   1   3 35.5473 13.5254   1 
  -8   1   4 57.2915 7.78391  -2 
  -8   1   3 57.2915 7.78391   1 
  -7   1   3 123.521 6.00754  -2 
  -7   1   3 123.521 6.00754   1 
  -6   1   2 66.4283 3.70463  -2 
  -6   1   3 66.4283 3.70463   1 
  -5   1   1 142.548 4.23265  -2 
  -5   1   3 142.548 4.23265   1 
   4   1   0 696.294 29.3368  -2 
  -4   1   3 696.294 29.3368   1 
   3   1   0 358.005 24.1019  -2 
  -3   1   3 358.005 24.1019   1 
   2   1   1 2555.14 89.3526  -2 
  -2   1   3 2555.14 89.3526   1 
   1   1   2 1284.23 23.4202  -2 
  -1   1   3 1284.23 23.4202   1 
   0   1   3 0.74915 0.43269  -2 
   0   1   3 0.74915 0.43269   1 
  -1   1   4 411.439 7.35707  -2 
   1   1   3 411.439 7.35707   1 
  -2   1   5 698.948 13.6156  -2 
   2   1   3 698.948 13.6156   1 
  -3   1   6 827.688 34.8822  -2 
   3   1   3 827.688 34.8822   1 
  -4   1   6 88.5520 8.73426  -2 
   4   1   3 88.5520 8.73426   1 
  -5   1   7 239.292 6.88577  -2 
   5   1   3 239.292 6.88577   1 
  -6   1   8 435.118 13.6565  -2 
   6   1   3 435.118 13.6565   1 
  -7   1   9 120.874 5.76514  -2 
   7   1   3 120.874 5.76514   1 
  -8   1  10 0.05492 11.7088  -2 
   8   1   3 0.05492 11.7088   1 
  -9   1  11 -28.017 24.2200  -2 
   9   1   3 -28.017 24.2200   1 
 -10   2   5 28.9060 56.0151  -2 
 -10   2   3 28.9060 56.0151   1 
  -9   2   5 41.9497 13.8397  -2 
  -9   2   3 41.9497 13.8397   1 
  -8   2   4 215.980 9.49381  -2 
  -8   2   3 215.980 9.49381   1 
  -7   2   3 6.52204 3.70062  -2 
  -7   2   3 6.52204 3.70062   1 
  -6   2   2 891.399 17.8327  -2 
  -6   2   3 891.399 17.8327   1 
  -5   2   1 350.133 7.67745  -2 
  -5   2   3 350.133 7.67745   1 
   4   2   0 492.769 15.5598  -2 
  -4   2   3 492.769 15.5598   1 
   3   2   0 219.849 16.5648  -2 
  -3   2   3 219.849 16.5648   1 
   2   2   1 1195.93 28.8732  -2 
  -2   2   3 1195.93 28.8732   1 
   1   2   2 1164.40 22.5364  -2 
  -1   2   3 1164.40 22.5364   1 
   0   2   3 5.04275 0.74518  -2 
   0   2   3 5.04275 0.74518   1 
  -1   2   4 500.617 9.06297  -2 
   1   2   3 500.617 9.06297   1 
  -2   2   5 18.4041 2.25596  -2 
   2   2   3 18.4041 2.25596   1 
  -3   2   6 77.1932 10.2050  -2 
   3   2   3 77.1932 10.2050   1 
  -4   2   6 60.9894 4.57273  -2 
   4   2   3 60.9894 4.57273   1 
  -5   2   7 201.225 5.94134  -2 
   5   2   3 201.225 5.94134   1 
  -6   2   8 28.4493 5.93991  -2 
   6   2   3 28.4493 5.93991   1 
  -7   2   9 144.684 9.11355  -2 
   7   2   3 144.684 9.11355   1 
  -8   2  10 275.436 15.0177  -2 
   8   2   3 275.436 15.0177   1 
 -10   3   3 20.7176 12.8743   1 
  -9   3   5 59.0278 15.2347  -2 
  -9   3   3 59.0278 15.2347   1 
  -8   3   4 37.9011 9.18642  -2 
  -8   3   3 37.9011 9.18642   1 
  -7   3   3 266.095 8.62728  -2 
  -7   3   3 266.095 8.62728   1 
  -6   3   2 43.8062 3.97639  -2 
  -6   3   3 43.8062 3.97639   1 
  -5   3   1 66.8609 4.44497  -2 
  -5   3   3 66.8609 4.44497   1 
   4   3   0 240.204 8.07073  -2 
  -4   3   3 240.204 8.07073   1 
   3   3   0 188.400 11.7780  -2 
  -3   3   3 188.400 11.7780   1 
   2   3   1 58.3576 2.85300  -2 
  -2   3   3 58.3576 2.85300   1 
   1   3   2 733.451 13.1125  -2 
  -1   3   3 733.451 13.1125   1 
   0   3   3 798.182 15.5643  -2 
   0   3   3 798.182 15.5643   1 
  -1   3   4 255.250 4.75787  -2 
   1   3   3 255.250 4.75787   1 
  -2   3   5 44.9241 2.63260  -2 
   2   3   3 44.9241 2.63260   1 
   3   3   3 324.893 7.95233   1 
  -4   3   6 143.724 6.32169  -2 
   4   3   3 143.724 6.32169   1 
  -5   3   7 236.324 7.19444  -2 
   5   3   3 236.324 7.19444   1 
  -6   3   8 591.797 13.7593  -2 
   6   3   3 591.797 13.7593   1 
  -7   3   9 26.2883 7.67695  -2 
   7   3   3 26.2883 7.67695   1 
  -8   3  10 45.0276 12.0532  -2 
   8   3   3 45.0276 12.0532   1 
 -10   4   5 -49.118 65.4430  -2 
 -10   4   3 -49.118 65.4430   1 
  -9   4   5 10.7765 18.6004  -2 
  -9   4   3 10.7765 18.6004   1 
  -8   4   4 112.229 11.8023  -2 
  -8   4   3 112.229 11.8023   1 
  -7   4   3 -6.3160 8.72141  -2 
  -7   4   3 -6.3160 8.72141   1 
  -6   4   2 458.584 12.1057  -2 
  -6   4   3 458.584 12.1057   1 
  -5   4   1 205.004 6.81848  -2 
  -5   4   3 205.004 6.81848   1 
   4   4   0 242.066 10.5927  -2 
  -4   4   3 242.066 10.5927   1 
   3   4   0 262.488 12.9420  -2 
  -3   4   3 262.488 12.9420   1 
   2   4   1 440.964 10.4769  -2 
  -2   4   3 440.964 10.4769   1 
   1   4   2 209.549 4.22324  -2 
  -1   4   3 209.549 4.22324   1 
   0   4   3 189.547 4.09692  -2 
   0   4   3 189.547 4.09692   1 
  -1   4   4 476.686 8.59371  -2 
   1   4   3 476.686 8.59371   1 
  -2   4   5 -1.9669 3.26199  -2 
   2   4   3 -1.9669 3.26199   1 
  -3   4   6 64.8940 7.68040  -2 
   3   4   3 64.8940 7.68040   1 
  -4   4   6 43.6530 4.74425  -2 
   4   4   3 43.6530 4.74425   1 
  -5   4   7 72.1236 6.53541  -2 
   5   4   3 72.1236 6.53541   1 
  -6   4   8 18.9119 5.16068  -2 
   6   4   3 18.9119 5.16068   1 
  -7   4   9 95.1373 9.30749  -2 
   7   4   3 95.1373 9.30749   1 
  -8   4  10 241.526 15.6853  -2 
   8   4   3 241.526 15.6853   1 
  -9   5   5 33.8010 24.8263  -2 
  -9   5   3 33.8010 24.8263   1 
  -8   5   4 7.32062 13.5864  -2 
  -8   5   3 7.32062 13.5864   1 
  -7   5   3 80.6437 7.33384  -2 
  -7   5   3 80.6437 7.33384   1 
  -6   5   2 36.1278 4.85367  -2 
  -6   5   3 36.1278 4.85367   1 
  -5   5   1 38.6060 6.11600  -2 
  -5   5   3 38.6060 6.11600   1 
   4   5   0 237.669 9.78072  -2 
  -4   5   3 237.669 9.78072   1 
   3   5   0 71.5364 12.0547  -2 
  -3   5   3 71.5364 12.0547   1 
   2   5   1 210.742 4.88906  -2 
  -2   5   3 210.742 4.88906   1 
   1   5   2 301.265 6.37478  -2 
  -1   5   3 301.265 6.37478   1 
   0   5   3 7.71744 1.31559  -2 
   0   5   3 7.71744 1.31559   1 
  -1   5   4 95.8195 3.20632  -2 
   1   5   3 95.8195 3.20632   1 
  -2   5   5 95.6811 4.24151  -2 
   2   5   3 95.6811 4.24151   1 
  -3   5   6 203.311 8.95573  -2 
   3   5   3 203.311 8.95573   1 
  -4   5   6 23.7273 6.93466  -2 
   4   5   3 23.7273 6.93466   1 
  -5   5   7 108.595 6.14250  -2 
   5   5   3 108.595 6.14250   1 
  -6   5   8 233.493 10.3862  -2 
   6   5   3 233.493 10.3862   1 
  -7   5   9 37.9117 11.6429  -2 
   7   5   3 37.9117 11.6429   1 
  -9   6   3 13.2273 14.1424   1 
  -8   6   4 161.641 16.6370  -2 
  -8   6   3 161.641 16.6370   1 
  -7   6   3 -4.0861 7.60418  -2 
  -7   6   3 -4.0861 7.60418   1 
  -6   6   2 489.164 14.2772  -2 
  -6   6   3 489.164 14.2772   1 
  -5   6   1 60.5847 8.62216  -2 
  -5   6   3 60.5847 8.62216   1 
   4   6   0 23.4512 7.79421  -2 
  -4   6   3 23.4512 7.79421   1 
   3   6   0 31.4184 11.3641  -2 
  -3   6   3 31.4184 11.3641   1 
   2   6   1 50.4511 4.08075  -2 
  -2   6   3 50.4511 4.08075   1 
   1   6   2 5.89738 2.94804  -2 
  -1   6   3 5.89738 2.94804   1 
   0   6   3 48.0615 2.65098  -2 
   0   6   3 48.0615 2.65098   1 
  -1   6   4 3.50344 3.06084  -2 
   1   6   3 3.50344 3.06084   1 
  -2   6   5 8.21524 4.24604  -2 
   2   6   3 8.21524 4.24604   1 
  -3   6   6 121.942 17.9465  -2 
   3   6   3 121.942 17.9465   1 
  -4   6   6 42.6672 7.82808  -2 
   4   6   3 42.6672 7.82808   1 
  -5   6   7 130.025 8.48252  -2 
   5   6   3 130.025 8.48252   1 
  -6   6   8 17.4683 9.30706  -2 
   6   6   3 17.4683 9.30706   1 
  -7   6   9 89.5561 14.4889  -2 
   7   6   3 89.5561 14.4889   1 
  -8   7   4 -29.523 22.9943  -2 
  -8   7   3 -29.523 22.9943   1 
  -7   7   3 12.1829 8.26528  -2 
  -7   7   3 12.1829 8.26528   1 
  -6   7   2 36.0370 10.8640  -2 
  -6   7   3 36.0370 10.8640   1 
  -5   7   1 32.4376 9.81591  -2 
  -5   7   3 32.4376 9.81591   1 
   4   7   0 170.744 8.77332  -2 
  -4   7   3 170.744 8.77332   1 
   3   7   0 82.6311 12.6433  -2 
  -3   7   3 82.6311 12.6433   1 
   2   7   1 152.590 7.11706  -2 
  -2   7   3 152.590 7.11706   1 
   1   7   2 241.685 6.59466  -2 
  -1   7   3 241.685 6.59466   1 
   0   7   3 6.00922 2.31801  -2 
   0   7   3 6.00922 2.31801   1 
  -1   7   4 37.7907 4.66637  -2 
   1   7   3 37.7907 4.66637   1 
  -2   7   5 71.8218 5.93113  -2 
   2   7   3 71.8218 5.93113   1 
  -3   7   6 105.912 22.6654  -2 
   3   7   3 105.912 22.6654   1 
  -4   7   6 32.8583 10.5793  -2 
   4   7   3 32.8583 10.5793   1 
  -5   7   7 24.8243 11.3205  -2 
   5   7   3 24.8243 11.3205   1 
  -6   7   8 82.2349 13.2770  -2 
   6   7   3 82.2349 13.2770   1 
  -7   8   3 2.33753 18.5798  -2 
  -7   8   3 2.33753 18.5798   1 
  -6   8   2 180.475 14.0224  -2 
  -6   8   3 180.475 14.0224   1 
  -5   8   1 93.8287 13.3832  -2 
  -5   8   3 93.8287 13.3832   1 
   4   8   0 40.4824 10.9376  -2 
  -4   8   3 40.4824 10.9376   1 
   3   8   0 0.69343 17.6555  -2 
  -3   8   3 0.69343 17.6555   1 
   2   8   1 44.6048 7.26785  -2 
  -2   8   3 44.6048 7.26785   1 
   1   8   2 36.4470 5.86839  -2 
  -1   8   3 36.4470 5.86839   1 
   0   8   3 -3.5686 2.96565  -2 
   0   8   3 -3.5686 2.96565   1 
  -1   8   4 36.2099 5.47956  -2 
   1   8   3 36.2099 5.47956   1 
  -2   8   5 -15.128 8.06002  -2 
   2   8   3 -15.128 8.06002   1 
  -3   8   6 84.6031 28.3269  -2 
   3   8   3 84.6031 28.3269   1 
  -4   8   6 25.5245 16.1973  -2 
   4   8   3 25.5245 16.1973   1 
  -5   8   7 68.9704 15.4220  -2 
   5   8   3 68.9704 15.4220   1 
  -6   8   8 64.4019 20.6613  -2 
   6   8   3 64.4019 20.6613   1 
  -5   9   1 41.9673 26.7372  -2 
  -5   9   3 41.9673 26.7372   1 
   4   9   0 73.8730 23.1505  -2 
  -4   9   3 73.8730 23.1505   1 
   3   9   0 82.5961 44.7159  -2 
  -3   9   3 82.5961 44.7159   1 
   2   9   1 7.49041 12.8955  -2 
  -2   9   3 7.49041 12.8955   1 
   1   9   2 30.4243 9.27779  -2 
  -1   9   3 30.4243 9.27779   1 
   0   9   3 26.1823 4.60331  -2 
   0   9   3 26.1823 4.60331   1 
  -1   9   4 32.5981 8.62048  -2 
   1   9   3 32.5981 8.62048   1 
  -2   9   5 35.9960 15.1153  -2 
   2   9   3 35.9960 15.1153   1 
  -3   9   6 109.117 21.5670  -2 
   3   9   3 109.117 21.5670   1 
  -4   9   6 50.5350 28.9473  -2 
   4   9   3 50.5350 28.9473   1 
  -3  10   3 24.1289 13.9463   1 
   2  10   1 22.5926 32.8507  -2 
  -2  10   3 22.5926 32.8507   1 
   1  10   2 64.8378 20.7779  -2 
  -1  10   3 64.8378 20.7779   1 
   0  10   3 3.08111 7.67038  -2 
   0  10   3 3.08111 7.67038   1 
  -1  10   4 24.1874 16.4573  -2 
   1  10   3 24.1874 16.4573   1 
  -2  10   5 35.8560 38.7627  -2 
   2  10   3 35.8560 38.7627   1 
   3  10   3 4.82307 14.3365   1 
 -10   0   4 50.0124 13.9154   1 
  -9   0   4 12.8204 19.5146  -2 
  -9   0   4 12.8204 19.5146   1 
  -8   0   3 473.715 18.0612  -2 
  -8   0   4 473.715 18.0612   1 
  -7   0   2 150.010 8.90015  -2 
  -7   0   4 150.010 8.90015   1 
  -6   0   1 76.0993 5.76379  -2 
  -6   0   4 76.0993 5.76379   1 
   5   0   0 171.113 11.5535  -2 
  -5   0   4 171.113 11.5535   1 
  -4   0   4 8.05312 1.79729   1 
  -3   0   4 74.2703 3.63037   1 
   2   0   2 45.9324 5.83226  -2 
  -2   0   4 45.9324 5.83226   1 
   1   0   3 442.687 11.5227  -2 
  -1   0   4 442.687 11.5227   1 
   0   0   4 2055.37 56.0860  -2 
   0   0   4 2055.37 56.0860   1 
  -1   0   5 471.283 12.2205  -2 
   1   0   4 471.283 12.2205   1 
  -2   0   6 278.051 8.17834  -2 
   2   0   4 278.051 8.17834   1 
   3   0   4 1826.90 46.2884   1 
  -4   0   7 140.334 9.96913  -2 
   4   0   4 140.334 9.96913   1 
  -5   0   8 740.310 20.8157  -2 
   5   0   4 740.310 20.8157   1 
  -6   0   9 162.849 7.99752  -2 
   6   0   4 162.849 7.99752   1 
  -7   0  10 7.94449 8.05956  -2 
   7   0   4 7.94449 8.05956   1 
  -8   0  11 -18.330 17.6271  -2 
   8   0   4 -18.330 17.6271   1 
 -10   1   4 25.0252 26.8941  -2 
 -10   1   4 25.0252 26.8941   1 
  -9   1   4 254.616 16.9766  -2 
  -9   1   4 254.616 16.9766   1 
  -8   1   3 55.5200 8.07401  -2 
  -8   1   4 55.5200 8.07401   1 
  -7   1   2 50.0211 5.71292  -2 
  -7   1   4 50.0211 5.71292   1 
  -6   1   1 149.796 4.59510  -2 
  -6   1   4 149.796 4.59510   1 
   5   1   0 799.436 17.1913  -2 
  -5   1   4 799.436 17.1913   1 
   4   1   1 288.347 19.3867  -2 
  -4   1   4 288.347 19.3867   1 
  -3   1   4 263.394 6.73974   1 
   2   1   2 308.497 11.5642  -2 
  -2   1   4 308.497 11.5642   1 
   1   1   3 406.385 7.80367  -2 
  -1   1   4 406.385 7.80367   1 
   0   1   4 223.834 4.42476  -2 
   0   1   4 223.834 4.42476   1 
  -1   1   5 439.217 8.21361  -2 
   1   1   4 439.217 8.21361   1 
  -2   1   6 128.101 3.44661  -2 
   2   1   4 128.101 3.44661   1 
  -3   1   7 548.893 34.5052  -2 
   3   1   4 548.893 34.5052   1 
  -4   1   7 514.536 12.6512  -2 
   4   1   4 514.536 12.6512   1 
  -5   1   8 126.214 5.13398  -2 
   5   1   4 126.214 5.13398   1 
  -6   1   9 73.3964 5.15031  -2 
   6   1   4 73.3964 5.15031   1 
  -7   1  10 319.833 11.8150  -2 
   7   1   4 319.833 11.8150   1 
  -8   1  11 29.3183 10.8443  -2 
   8   1   4 29.3183 10.8443   1 
 -10   2   4 -25.976 57.6974  -2 
 -10   2   4 -25.976 57.6974   1 
  -9   2   4 21.1887 15.7779  -2 
  -9   2   4 21.1887 15.7779   1 
  -8   2   3 195.591 9.80056  -2 
  -8   2   4 195.591 9.80056   1 
  -7   2   2 199.695 6.93716  -2 
  -7   2   4 199.695 6.93716   1 
  -6   2   1 13.3892 3.00357  -2 
  -6   2   4 13.3892 3.00357   1 
   5   2   0 168.347 5.24849  -2 
  -5   2   4 168.347 5.24849   1 
   4   2   1 107.736 5.18709  -2 
  -4   2   4 107.736 5.18709   1 
   3   2   1 27.0038 5.42572  -2 
  -3   2   4 27.0038 5.42572   1 
   2   2   2 128.610 3.89225  -2 
  -2   2   4 128.610 3.89225   1 
   1   2   3 510.319 9.84733  -2 
  -1   2   4 510.319 9.84733   1 
   0   2   4 2.62886 0.77875  -2 
   0   2   4 2.62886 0.77875   1 
  -1   2   5 238.452 4.50274  -2 
   1   2   4 238.452 4.50274   1 
  -2   2   6 109.108 3.48679  -2 
   2   2   4 109.108 3.48679   1 
  -3   2   7 803.870 50.8885  -2 
   3   2   4 803.870 50.8885   1 
  -4   2   7 228.381 6.76485  -2 
   4   2   4 228.381 6.76485   1 
  -5   2   8 233.694 6.61748  -2 
   5   2   4 233.694 6.61748   1 
  -6   2   9 267.430 7.86876  -2 
   6   2   4 267.430 7.86876   1 
  -7   2  10 47.8176 7.81803  -2 
   7   2   4 47.8176 7.81803   1 
  -8   2  11 95.1763 12.0602  -2 
   8   2   4 95.1763 12.0602   1 
 -10   3   4 57.4651 27.5746  -2 
 -10   3   4 57.4651 27.5746   1 
  -9   3   4 289.532 18.3309  -2 
  -9   3   4 289.532 18.3309   1 
  -8   3   3 26.3173 8.96352  -2 
  -8   3   4 26.3173 8.96352   1 
  -7   3   2 3.15372 4.61452  -2 
  -7   3   4 3.15372 4.61452   1 
  -6   3   1 37.1207 3.51890  -2 
  -6   3   4 37.1207 3.51890   1 
   5   3   0 282.129 8.10157  -2 
  -5   3   4 282.129 8.10157   1 
   4   3   1 5.78174 3.56150  -2 
  -4   3   4 5.78174 3.56150   1 
   3   3   1 87.4206 8.31354  -2 
  -3   3   4 87.4206 8.31354   1 
   2   3   2 63.0889 3.51600  -2 
  -2   3   4 63.0889 3.51600   1 
   1   3   3 251.354 5.87469  -2 
  -1   3   4 251.354 5.87469   1 
   0   3   4 211.172 4.96424  -2 
   0   3   4 211.172 4.96424   1 
  -1   3   5 893.966 15.8460  -2 
   1   3   4 893.966 15.8460   1 
  -2   3   6 616.010 14.1761  -2 
   2   3   4 616.010 14.1761   1 
  -3   3   7 359.772 25.5573  -2 
   3   3   4 359.772 25.5573   1 
  -4   3   7 728.280 18.4111  -2 
   4   3   4 728.280 18.4111   1 
  -5   3   8 26.6926 5.20603  -2 
   5   3   4 26.6926 5.20603   1 
  -6   3   9 127.427 5.91786  -2 
   6   3   4 127.427 5.91786   1 
  -7   3  10 122.377 9.75887  -2 
   7   3   4 122.377 9.75887   1 
  -8   3  11 67.1865 14.1053  -2 
   8   3   4 67.1865 14.1053   1 
 -10   4   4 9.02221 31.7046  -2 
 -10   4   4 9.02221 31.7046   1 
  -9   4   4 53.2967 20.4958  -2 
  -9   4   4 53.2967 20.4958   1 
  -8   4   3 119.010 11.0164  -2 
  -8   4   4 119.010 11.0164   1 
  -7   4   2 117.538 7.01338  -2 
  -7   4   4 117.538 7.01338   1 
  -6   4   1 8.31285 4.32342  -2 
  -6   4   4 8.31285 4.32342   1 
   5   4   0 167.265 6.24427  -2 
  -5   4   4 167.265 6.24427   1 
   4   4   1 69.9088 6.14232  -2 
  -4   4   4 69.9088 6.14232   1 
   3   4   1 14.4069 12.4915  -2 
  -3   4   4 14.4069 12.4915   1 
   2   4   2 6.52784 4.23703  -2 
  -2   4   4 6.52784 4.23703   1 
   1   4   3 469.474 12.6055  -2 
  -1   4   4 469.474 12.6055   1 
   0   4   4 1.86875 1.24259  -2 
   0   4   4 1.86875 1.24259   1 
  -1   4   5 36.5618 2.63302  -2 
   1   4   4 36.5618 2.63302   1 
  -2   4   6 23.0926 2.93643  -2 
   2   4   4 23.0926 2.93643   1 
  -3   4   7 680.277 29.8034  -2 
   3   4   4 680.277 29.8034   1 
  -4   4   7 131.238 5.95215  -2 
   4   4   4 131.238 5.95215   1 
  -5   4   8 164.699 6.26616  -2 
   5   4   4 164.699 6.26616   1 
  -6   4   9 259.031 9.57655  -2 
   6   4   4 259.031 9.57655   1 
  -7   4  10 28.2094 9.52400  -2 
   7   4   4 28.2094 9.52400   1 
  -8   4  11 95.5937 17.6061  -2 
   8   4   4 95.5937 17.6061   1 
  -9   5   4 96.9888 24.6461  -2 
  -9   5   4 96.9888 24.6461   1 
  -8   5   3 51.3537 12.9686  -2 
  -8   5   4 51.3537 12.9686   1 
  -7   5   2 15.1582 8.77775  -2 
  -7   5   4 15.1582 8.77775   1 
  -6   5   1 78.5361 5.83893  -2 
  -6   5   4 78.5361 5.83893   1 
   5   5   0 253.397 9.67867  -2 
  -5   5   4 253.397 9.67867   1 
   4   5   1 105.169 7.46103  -2 
  -4   5   4 105.169 7.46103   1 
   3   5   1 252.168 17.6713  -2 
  -3   5   4 252.168 17.6713   1 
   2   5   2 50.0554 3.93138  -2 
  -2   5   4 50.0554 3.93138   1 
   1   5   3 91.0592 3.23359  -2 
  -1   5   4 91.0592 3.23359   1 
   0   5   4 7.99584 1.44745  -2 
   0   5   4 7.99584 1.44745   1 
  -1   5   5 356.602 7.39671  -2 
   1   5   4 356.602 7.39671   1 
  -2   5   6 78.6870 4.24152  -2 
   2   5   4 78.6870 4.24152   1 
  -3   5   7 148.946 8.54612  -2 
   3   5   4 148.946 8.54612   1 
  -4   5   7 180.992 9.58016  -2 
   4   5   4 180.992 9.58016   1 
  -5   5   8 44.0575 6.27985  -2 
   5   5   4 44.0575 6.27985   1 
  -6   5   9 62.6291 9.06038  -2 
   6   5   4 62.6291 9.06038   1 
  -7   5  10 123.342 11.8869  -2 
   7   5   4 123.342 11.8869   1 
  -9   6   4 -6.7038 26.8491  -2 
  -9   6   4 -6.7038 26.8491   1 
  -8   6   3 136.103 16.1483  -2 
  -8   6   4 136.103 16.1483   1 
  -7   6   2 55.7126 11.4786  -2 
  -7   6   4 55.7126 11.4786   1 
  -6   6   1 27.6856 6.24198  -2 
  -6   6   4 27.6856 6.24198   1 
   5   6   0 34.1025 7.15196  -2 
  -5   6   4 34.1025 7.15196   1 
   4   6   1 33.8319 6.99423  -2 
  -4   6   4 33.8319 6.99423   1 
   3   6   1 1.39982 19.3052  -2 
  -3   6   4 1.39982 19.3052   1 
   2   6   2 12.0978 4.49178  -2 
  -2   6   4 12.0978 4.49178   1 
   1   6   3 3.77918 3.14897  -2 
  -1   6   4 3.77918 3.14897   1 
   0   6   4 54.0319 2.87467  -2 
   0   6   4 54.0319 2.87467   1 
  -1   6   5 34.9553 3.44109  -2 
   1   6   4 34.9553 3.44109   1 
  -2   6   6 100.863 6.18061  -2 
   2   6   4 100.863 6.18061   1 
  -3   6   7 555.338 22.5240  -2 
   3   6   4 555.338 22.5240   1 
  -4   6   7 22.0688 7.39749  -2 
   4   6   4 22.0688 7.39749   1 
  -5   6   8 166.989 10.3296  -2 
   5   6   4 166.989 10.3296   1 
  -6   6   9 51.2167 10.4122  -2 
   6   6   4 51.2167 10.4122   1 
  -7   6  10 27.4958 18.5017  -2 
   7   6   4 27.4958 18.5017   1 
  -8   7   3 -1.5055 22.6209  -2 
  -8   7   4 -1.5055 22.6209   1 
  -7   7   2 16.5813 12.9566  -2 
  -7   7   4 16.5813 12.9566   1 
  -6   7   1 18.8843 8.35460  -2 
  -6   7   4 18.8843 8.35460   1 
   5   7   0 197.531 13.1861  -2 
  -5   7   4 197.531 13.1861   1 
   4   7   1 80.9426 10.4784  -2 
  -4   7   4 80.9426 10.4784   1 
   3   7   1 72.5196 13.0371  -2 
  -3   7   4 72.5196 13.0371   1 
   2   7   2 62.3912 5.13319  -2 
  -2   7   4 62.3912 5.13319   1 
   1   7   3 51.4864 4.52282  -2 
  -1   7   4 51.4864 4.52282   1 
   0   7   4 9.68545 2.53909  -2 
   0   7   4 9.68545 2.53909   1 
  -1   7   5 91.1866 5.86309  -2 
   1   7   4 91.1866 5.86309   1 
  -2   7   6 32.8065 5.43530  -2 
   2   7   4 32.8065 5.43530   1 
  -3   7   7 15.6354 12.7509  -2 
   3   7   4 15.6354 12.7509   1 
  -4   7   7 63.9068 10.8733  -2 
   4   7   4 63.9068 10.8733   1 
  -5   7   8 31.8551 12.0648  -2 
   5   7   4 31.8551 12.0648   1 
  -6   7   9 18.8000 12.4465  -2 
   6   7   4 18.8000 12.4465   1 
  -7   7  10 160.676 40.7361  -2 
   7   7   4 160.676 40.7361   1 
  -7   8   2 42.6980 21.0272  -2 
  -7   8   4 42.6980 21.0272   1 
  -6   8   1 15.4287 16.7792  -2 
  -6   8   4 15.4287 16.7792   1 
   5   8   0 18.9818 12.8579  -2 
  -5   8   4 18.9818 12.8579   1 
   4   8   1 52.9842 14.2633  -2 
  -4   8   4 52.9842 14.2633   1 
   3   8   1 46.8669 27.6795  -2 
  -3   8   4 46.8669 27.6795   1 
   2   8   2 7.00163 8.29172  -2 
  -2   8   4 7.00163 8.29172   1 
   1   8   3 29.4958 5.92983  -2 
  -1   8   4 29.4958 5.92983   1 
   0   8   4 1.77149 3.09461  -2 
   0   8   4 1.77149 3.09461   1 
  -1   8   5 9.80200 7.40363  -2 
   1   8   4 9.80200 7.40363   1 
  -2   8   6 9.09196 8.24414  -2 
   2   8   4 9.09196 8.24414   1 
  -3   8   7 148.481 30.5785  -2 
   3   8   4 148.481 30.5785   1 
  -4   8   7 52.5812 14.7430  -2 
   4   8   4 52.5812 14.7430   1 
  -5   8   8 86.8904 18.6597  -2 
   5   8   4 86.8904 18.6597   1 
  -6   8   9 58.0932 58.1478  -2 
   6   8   4 58.0932 58.1478   1 
   4   9   1 62.0931 21.7219  -2 
  -4   9   4 62.0931 21.7219   1 
  -3   9   4 -6.7243 6.84445   1 
   2   9   2 14.1294 15.6273  -2 
  -2   9   4 14.1294 15.6273   1 
   1   9   3 23.7156 9.55157  -2 
  -1   9   4 23.7156 9.55157   1 
   0   9   4 28.9067 5.41301  -2 
   0   9   4 28.9067 5.41301   1 
  -1   9   5 106.144 11.6338  -2 
   1   9   4 106.144 11.6338   1 
  -2   9   6 74.7624 16.0648  -2 
   2   9   4 74.7624 16.0648   1 
  -3   9   7 16.5277 22.6405  -2 
   3   9   4 16.5277 22.6405   1 
  -4   9   7 119.474 31.0856  -2 
   4   9   4 119.474 31.0856   1 
  -3  10   4 24.9162 15.6082   1 
   2  10   2 -29.042 32.8736  -2 
  -2  10   4 -29.042 32.8736   1 
   1  10   3 86.3798 29.1040  -2 
  -1  10   4 86.3798 29.1040   1 
   0  10   4 6.65023 13.8653  -2 
   0  10   4 6.65023 13.8653   1 
  -1  10   5 -29.950 22.9979  -2 
   1  10   4 -29.950 22.9979   1 
 -10   0   3 14.6176 28.8877  -2 
 -10   0   5 14.6176 28.8877   1 
  -9   0   3 32.4705 18.3931  -2 
  -9   0   5 32.4705 18.3931   1 
  -8   0   2 12.4939 8.02796  -2 
  -8   0   5 12.4939 8.02796   1 
  -7   0   1 78.5319 6.26961  -2 
  -7   0   5 78.5319 6.26961   1 
   6   0   0 14.6837 4.77355  -2 
  -6   0   5 14.6837 4.77355   1 
   5   0   1 18.1142 6.45750  -2 
  -5   0   5 18.1142 6.45750   1 
  -4   0   5 47.3295 3.38222   1 
  -3   0   5 345.661 10.4571   1 
   2   0   3 44.2825 4.77077  -2 
  -2   0   5 44.2825 4.77077   1 
   1   0   4 456.090 11.9634  -2 
  -1   0   5 456.090 11.9634   1 
   0   0   5 933.157 23.5881  -2 
   0   0   5 933.157 23.5881   1 
  -1   0   6 3502.95 85.6569  -2 
   1   0   5 3502.95 85.6569   1 
  -2   0   7 168.602 5.30419  -2 
   2   0   5 168.602 5.30419   1 
   3   0   5 462.996 11.5999   1 
  -4   0   8 845.831 30.4457  -2 
   4   0   5 845.831 30.4457   1 
  -5   0   9 26.3708 6.05636  -2 
   5   0   5 26.3708 6.05636   1 
  -6   0  10 11.0688 6.46962  -2 
   6   0   5 11.0688 6.46962   1 
  -7   0  11 81.5598 10.7326  -2 
   7   0   5 81.5598 10.7326   1 
  -8   0  12 -1.9782 20.3169  -2 
   8   0   5 -1.9782 20.3169   1 
  -9   0  13 48.0811 54.9357  -2 
   9   0   5 48.0811 54.9357   1 
 -10   1   3 52.4746 27.4754  -2 
 -10   1   5 52.4746 27.4754   1 
  -9   1   3 11.2467 14.5048  -2 
  -9   1   5 11.2467 14.5048   1 
  -8   1   2 128.231 7.52702  -2 
  -8   1   5 128.231 7.52702   1 
  -7   1   1 399.130 9.59125  -2 
  -7   1   5 399.130 9.59125   1 
   6   1   0 4.25128 3.47601  -2 
  -6   1   5 4.25128 3.47601   1 
   5   1   1 158.217 5.43745  -2 
  -5   1   5 158.217 5.43745   1 
   4   1   2 469.714 27.2053  -2 
  -4   1   5 469.714 27.2053   1 
   3   1   2 197.839 14.6599  -2 
  -3   1   5 197.839 14.6599   1 
   2   1   3 688.000 20.5852  -2 
  -2   1   5 688.000 20.5852   1 
   1   1   4 426.498 8.13301  -2 
  -1   1   5 426.498 8.13301   1 
   0   1   5 2979.77 48.3586  -2 
   0   1   5 2979.77 48.3586   1 
  -1   1   6 4.91917 1.23577  -2 
   1   1   5 4.91917 1.23577   1 
  -2   1   7 942.867 17.3820  -2 
   2   1   5 942.867 17.3820   1 
   3   1   5 185.066 4.81496   1 
  -4   1   8 140.730 6.58988  -2 
   4   1   5 140.730 6.58988   1 
  -5   1   9 472.179 10.9431  -2 
   5   1   5 472.179 10.9431   1 
  -6   1  10 168.504 6.32729  -2 
   6   1   5 168.504 6.32729   1 
  -7   1  11 5.36853 7.62839  -2 
   7   1   5 5.36853 7.62839   1 
  -8   1  12 46.5006 12.7742  -2 
   8   1   5 46.5006 12.7742   1 
 -10   2   5 14.4543 11.2425   1 
  -9   2   3 41.7553 14.1553  -2 
  -9   2   5 41.7553 14.1553   1 
  -8   2   2 24.8480 8.00208  -2 
  -8   2   5 24.8480 8.00208   1 
  -7   2   1 159.270 5.70559  -2 
  -7   2   5 159.270 5.70559   1 
   6   2   0 15.0220 3.30778  -2 
  -6   2   5 15.0220 3.30778   1 
   5   2   1 109.503 3.98726  -2 
  -5   2   5 109.503 3.98726   1 
   4   2   2 39.6356 7.28440  -2 
  -4   2   5 39.6356 7.28440   1 
   3   2   2 11.8690 5.34041  -2 
  -3   2   5 11.8690 5.34041   1 
   2   2   3 15.7807 2.13073  -2 
  -2   2   5 15.7807 2.13073   1 
   1   2   4 246.011 4.84362  -2 
  -1   2   5 246.011 4.84362   1 
   0   2   5 184.438 3.88380  -2 
   0   2   5 184.438 3.88380   1 
  -1   2   6 1014.00 18.5425  -2 
   1   2   5 1014.00 18.5425   1 
  -2   2   7 659.762 16.3630  -2 
   2   2   5 659.762 16.3630   1 
  -3   2   8 173.917 15.7340  -2 
   3   2   5 173.917 15.7340   1 
  -4   2   8 1061.06 22.2475  -2 
   4   2   5 1061.06 22.2475   1 
  -5   2   9 29.1567 4.74256  -2 
   5   2   5 29.1567 4.74256   1 
  -6   2  10 67.4145 5.22351  -2 
   6   2   5 67.4145 5.22351   1 
  -7   2  11 68.0557 8.86710  -2 
   7   2   5 68.0557 8.86710   1 
  -8   2  12 1.87983 13.0786  -2 
   8   2   5 1.87983 13.0786   1 
 -10   3   3 14.4832 24.1239  -2 
 -10   3   5 14.4832 24.1239   1 
  -9   3   3 30.4338 15.2442  -2 
  -9   3   5 30.4338 15.2442   1 
  -8   3   2 46.7190 8.40782  -2 
  -8   3   5 46.7190 8.40782   1 
  -7   3   1 162.280 7.16219  -2 
  -7   3   5 162.280 7.16219   1 
   6   3   0 25.3418 3.66177  -2 
  -6   3   5 25.3418 3.66177   1 
   5   3   1 26.1045 3.16601  -2 
  -5   3   5 26.1045 3.16601   1 
   4   3   2 76.7528 3.93199  -2 
  -4   3   5 76.7528 3.93199   1 
   3   3   2 65.1324 12.2944  -2 
  -3   3   5 65.1324 12.2944   1 
   2   3   3 38.2575 3.02305  -2 
  -2   3   5 38.2575 3.02305   1 
   1   3   4 944.893 16.9864  -2 
  -1   3   5 944.893 16.9864   1 
   0   3   5 1597.45 30.9099  -2 
   0   3   5 1597.45 30.9099   1 
  -1   3   6 447.343 8.78475  -2 
   1   3   5 447.343 8.78475   1 
  -2   3   7 889.578 17.3959  -2 
   2   3   5 889.578 17.3959   1 
   3   3   5 8.60541 1.49474   1 
  -4   3   8 94.3827 5.18045  -2 
   4   3   5 94.3827 5.18045   1 
  -5   3   9 61.8485 5.01281  -2 
   5   3   5 61.8485 5.01281   1 
  -6   3  10 100.171 8.04276  -2 
   6   3   5 100.171 8.04276   1 
  -7   3  11 14.5449 9.81906  -2 
   7   3   5 14.5449 9.81906   1 
  -8   3  12 84.3182 17.0021  -2 
   8   3   5 84.3182 17.0021   1 
 -10   4   3 48.8060 32.1534  -2 
 -10   4   5 48.8060 32.1534   1 
  -9   4   3 72.1871 20.6181  -2 
  -9   4   5 72.1871 20.6181   1 
  -8   4   2 18.5676 10.1981  -2 
  -8   4   5 18.5676 10.1981   1 
  -7   4   1 125.916 5.86479  -2 
  -7   4   5 125.916 5.86479   1 
   6   4   0 22.1367 4.19236  -2 
  -6   4   5 22.1367 4.19236   1 
   5   4   1 67.1344 4.62125  -2 
  -5   4   5 67.1344 4.62125   1 
   4   4   2 1.36340 5.20202  -2 
  -4   4   5 1.36340 5.20202   1 
   3   4   2 8.92535 9.66641  -2 
  -3   4   5 8.92535 9.66641   1 
   2   4   3 5.28740 3.48406  -2 
  -2   4   5 5.28740 3.48406   1 
   1   4   4 36.3853 3.10024  -2 
  -1   4   5 36.3853 3.10024   1 
   0   4   5 29.5546 2.32051  -2 
   0   4   5 29.5546 2.32051   1 
  -1   4   6 569.832 11.7242  -2 
   1   4   5 569.832 11.7242   1 
  -2   4   7 531.829 10.8048  -2 
   2   4   5 531.829 10.8048   1 
  -3   4   8 186.506 13.7138  -2 
   3   4   5 186.506 13.7138   1 
  -4   4   8 758.573 21.2540  -2 
   4   4   5 758.573 21.2540   1 
  -5   4   9 18.5547 4.96752  -2 
   5   4   5 18.5547 4.96752   1 
  -6   4  10 46.2489 7.44799  -2 
   6   4   5 46.2489 7.44799   1 
  -7   4  11 39.0188 10.5409  -2 
   7   4   5 39.0188 10.5409   1 
  -8   4  12 -5.9928 34.7439  -2 
   8   4   5 -5.9928 34.7439   1 
  -9   5   3 56.2460 23.7561  -2 
  -9   5   5 56.2460 23.7561   1 
  -8   5   2 56.1930 11.8383  -2 
  -8   5   5 56.1930 11.8383   1 
  -7   5   1 151.655 7.80231  -2 
  -7   5   5 151.655 7.80231   1 
   6   5   0 3.00106 5.18367  -2 
  -6   5   5 3.00106 5.18367   1 
   5   5   1 91.7501 6.69580  -2 
  -5   5   5 91.7501 6.69580   1 
   4   5   2 68.4407 5.55881  -2 
  -4   5   5 68.4407 5.55881   1 
   3   5   2 41.6973 8.48422  -2 
  -3   5   5 41.6973 8.48422   1 
   2   5   3 88.5072 4.22676  -2 
  -2   5   5 88.5072 4.22676   1 
   1   5   4 355.131 9.13856  -2 
  -1   5   5 355.131 9.13856   1 
   0   5   5 661.116 14.8143  -2 
   0   5   5 661.116 14.8143   1 
  -1   5   6 5.02400 2.91970  -2 
   1   5   5 5.02400 2.91970   1 
  -2   5   7 327.911 8.08490  -2 
   2   5   5 327.911 8.08490   1 
  -3   5   8 130.649 13.8405  -2 
   3   5   5 130.649 13.8405   1 
  -4   5   8 51.8890 6.69085  -2 
   4   5   5 51.8890 6.69085   1 
  -5   5   9 191.566 10.7369  -2 
   5   5   5 191.566 10.7369   1 
  -6   5  10 80.1864 10.2056  -2 
   6   5   5 80.1864 10.2056   1 
  -7   5  11 -17.324 11.8515  -2 
   7   5   5 -17.324 11.8515   1 
  -8   6   2 33.1111 15.8942  -2 
  -8   6   5 33.1111 15.8942   1 
  -7   6   1 17.8735 9.42483  -2 
  -7   6   5 17.8735 9.42483   1 
   6   6   0 5.41829 6.61236  -2 
  -6   6   5 5.41829 6.61236   1 
   5   6   1 12.1536 7.28087  -2 
  -5   6   5 12.1536 7.28087   1 
   4   6   2 15.1629 6.24870  -2 
  -4   6   5 15.1629 6.24870   1 
   3   6   2 64.6917 22.0532  -2 
  -3   6   5 64.6917 22.0532   1 
   2   6   3 16.3174 5.11325  -2 
  -2   6   5 16.3174 5.11325   1 
   1   6   4 39.6555 3.22344  -2 
  -1   6   5 39.6555 3.22344   1 
   0   6   5 160.410 5.77729  -2 
   0   6   5 160.410 5.77729   1 
  -1   6   6 402.595 9.66465  -2 
   1   6   5 402.595 9.66465   1 
  -2   6   7 58.3394 5.93274  -2 
   2   6   5 58.3394 5.93274   1 
  -3   6   8 143.288 12.0165  -2 
   3   6   5 143.288 12.0165   1 
  -4   6   8 215.189 11.9714  -2 
   4   6   5 215.189 11.9714   1 
  -5   6   9 -4.0080 13.1030  -2 
   5   6   5 -4.0080 13.1030   1 
  -6   6  10 -15.749 14.5690  -2 
   6   6   5 -15.749 14.5690   1 
  -7   6  11 61.0493 32.0004  -2 
   7   6   5 61.0493 32.0004   1 
  -7   7   1 70.3174 14.4449  -2 
  -7   7   5 70.3174 14.4449   1 
   6   7   0 10.8609 8.65303  -2 
  -6   7   5 10.8609 8.65303   1 
   5   7   1 52.7090 10.9883  -2 
  -5   7   5 52.7090 10.9883   1 
   4   7   2 82.6157 14.2331  -2 
  -4   7   5 82.6157 14.2331   1 
   3   7   2 55.4990 10.7445  -2 
  -3   7   5 55.4990 10.7445   1 
   2   7   3 70.4057 5.41191  -2 
  -2   7   5 70.4057 5.41191   1 
   1   7   4 99.1647 5.47985  -2 
  -1   7   5 99.1647 5.47985   1 
   0   7   5 114.832 4.64506  -2 
   0   7   5 114.832 4.64506   1 
  -1   7   6 5.07476 5.18543  -2 
   1   7   5 5.07476 5.18543   1 
  -2   7   7 107.457 7.91051  -2 
   2   7   5 107.457 7.91051   1 
  -3   7   8 116.073 14.4097  -2 
   3   7   5 116.073 14.4097   1 
  -4   7   8 42.5412 15.7581  -2 
   4   7   5 42.5412 15.7581   1 
  -5   7   9 97.2725 14.4268  -2 
   5   7   5 97.2725 14.4268   1 
  -6   7  10 112.482 32.4079  -2 
   6   7   5 112.482 32.4079   1 
  -7   8   1 29.5873 20.1866  -2 
  -7   8   5 29.5873 20.1866   1 
   6   8   0 -2.7775 16.1056  -2 
  -6   8   5 -2.7775 16.1056   1 
   5   8   1 -4.4562 15.3610  -2 
  -5   8   5 -4.4562 15.3610   1 
   4   8   2 41.1953 20.6495  -2 
  -4   8   5 41.1953 20.6495   1 
   3   8   2 8.19812 18.5645  -2 
  -3   8   5 8.19812 18.5645   1 
   2   8   3 4.76730 8.34437  -2 
  -2   8   5 4.76730 8.34437   1 
   1   8   4 -0.0932 7.05296  -2 
  -1   8   5 -0.0932 7.05296   1 
   0   8   5 48.6652 5.19330  -2 
   0   8   5 48.6652 5.19330   1 
  -1   8   6 105.248 9.27514  -2 
   1   8   5 105.248 9.27514   1 
  -2   8   7 82.0398 11.1091  -2 
   2   8   5 82.0398 11.1091   1 
  -3   8   8 38.8433 18.3466  -2 
   3   8   5 38.8433 18.3466   1 
  -4   8   8 200.130 19.8652  -2 
   4   8   5 200.130 19.8652   1 
  -5   8   9 77.5792 28.1455  -2 
   5   8   5 77.5792 28.1455   1 
   5   9   1 147.967 47.5525  -2 
  -5   9   5 147.967 47.5525   1 
   4   9   2 102.442 26.7231  -2 
  -4   9   5 102.442 26.7231   1 
  -3   9   5 21.4036 12.0485   1 
   2   9   3 -12.455 15.8835  -2 
  -2   9   5 -12.455 15.8835   1 
   1   9   4 84.1579 13.5141  -2 
  -1   9   5 84.1579 13.5141   1 
   0   9   5 176.303 10.3545  -2 
   0   9   5 176.303 10.3545   1 
  -1   9   6 -1.6807 14.4593  -2 
   1   9   5 -1.6807 14.4593   1 
  -2   9   7 68.5947 15.8751  -2 
   2   9   5 68.5947 15.8751   1 
  -3   9   8 1.50116 28.4827  -2 
   3   9   5 1.50116 28.4827   1 
  -4   9   8 93.7543 42.5262  -2 
   4   9   5 93.7543 42.5262   1 
   1  10   4 19.5562 29.1511  -2 
  -1  10   5 19.5562 29.1511   1 
   0  10   5 -5.7681 14.1120  -2 
   0  10   5 -5.7681 14.1120   1 
 -10   0   2 57.0157 28.2281  -2 
 -10   0   6 57.0157 28.2281   1 
  -9   0   2 0.43877 17.8389  -2 
  -9   0   6 0.43877 17.8389   1 
  -8   0   1 0.01058 11.2580  -2 
  -8   0   6 0.01058 11.2580   1 
   7   0   0 3.22616 4.92749  -2 
  -7   0   6 3.22616 4.92749   1 
   6   0   1 17.7462 5.11286  -2 
  -6   0   6 17.7462 5.11286   1 
   5   0   2 1.69875 6.41132  -2 
  -5   0   6 1.69875 6.41132   1 
   4   0   2 135.573 14.1745  -2 
   4   0   3 135.573 14.1745  -2 
  -4   0   6 135.573 14.1745   1 
  -3   0   6 463.837 13.6773   1 
   2   0   4 263.372 8.79960  -2 
  -2   0   6 263.372 8.79960   1 
   1   0   5 3353.37 83.0868  -2 
  -1   0   6 3353.37 83.0868   1 
   0   0   6 206.768 5.91491  -2 
   0   0   6 206.768 5.91491   1 
  -1   0   7 36.3268 2.44758  -2 
   1   0   6 36.3268 2.44758   1 
  -2   0   8 1516.14 34.8377  -2 
   2   0   6 1516.14 34.8377   1 
  -3   0   9 675.612 43.7124  -2 
   3   0   6 675.612 43.7124   1 
  -4   0   9 295.646 14.3637  -2 
   4   0   6 295.646 14.3637   1 
  -5   0  10 234.986 11.0771  -2 
   5   0   6 234.986 11.0771   1 
  -6   0  11 152.279 9.45000  -2 
   6   0   6 152.279 9.45000   1 
  -7   0  12 17.6632 10.2783  -2 
   7   0   6 17.6632 10.2783   1 
  -8   0  13 29.2366 20.6708  -2 
   8   0   6 29.2366 20.6708   1 
   9   0   6 18.8394 27.3988   1 
 -10   1   2 34.4485 25.1994  -2 
 -10   1   6 34.4485 25.1994   1 
  -9   1   2 84.2096 10.9211  -2 
  -9   1   6 84.2096 10.9211   1 
  -8   1   1 41.0747 8.18476  -2 
  -8   1   6 41.0747 8.18476   1 
   7   1   0 77.5456 4.53292  -2 
  -7   1   6 77.5456 4.53292   1 
   6   1   1 9.76762 3.41214  -2 
  -6   1   6 9.76762 3.41214   1 
   5   1   2 195.159 5.79488  -2 
  -5   1   6 195.159 5.79488   1 
   4   1   3 99.5584 8.28969  -2 
  -4   1   6 99.5584 8.28969   1 
   3   1   3 769.788 48.5258  -2 
  -3   1   6 769.788 48.5258   1 
   2   1   4 128.288 4.22545  -2 
  -2   1   6 128.288 4.22545   1 
   1   1   5 2.35861 1.16215  -2 
  -1   1   6 2.35861 1.16215   1 
   0   1   6 1032.97 18.5125  -2 
   0   1   6 1032.97 18.5125   1 
  -1   1   7 1442.20 26.6891  -2 
   1   1   6 1442.20 26.6891   1 
  -2   1   8 78.7071 3.39506  -2 
   2   1   6 78.7071 3.39506   1 
   3   1   6 30.2320 1.79093   1 
  -4   1   9 135.347 5.60885  -2 
   4   1   6 135.347 5.60885   1 
  -5   1  10 -1.7023 6.83714  -2 
   5   1   6 -1.7023 6.83714   1 
  -6   1  11 136.149 6.41009  -2 
   6   1   6 136.149 6.41009   1 
  -7   1  12 -6.0812 8.24740  -2 
   7   1   6 -6.0812 8.24740   1 
  -8   1  13 -1.1118 13.4042  -2 
   8   1   6 -1.1118 13.4042   1 
 -10   2   2 54.3362 25.5089  -2 
 -10   2   6 54.3362 25.5089   1 
  -9   2   2 83.2451 20.2865  -2 
  -9   2   6 83.2451 20.2865   1 
  -8   2   1 20.2296 7.50672  -2 
  -8   2   6 20.2296 7.50672   1 
   7   2   0 69.4562 4.18953  -2 
  -7   2   6 69.4562 4.18953   1 
   6   2   1 -3.9766 3.31204  -2 
  -6   2   6 -3.9766 3.31204   1 
   5   2   2 102.565 4.24405  -2 
  -5   2   6 102.565 4.24405   1 
   4   2   3 60.9986 5.68428  -2 
  -4   2   6 60.9986 5.68428   1 
   3   2   3 75.5903 7.29367  -2 
  -3   2   6 75.5903 7.29367   1 
   2   2   4 114.303 3.74943  -2 
  -2   2   6 114.303 3.74943   1 
   1   2   5 1049.80 18.6990  -2 
  -1   2   6 1049.80 18.6990   1 
   0   2   6 193.124 4.13476  -2 
   0   2   6 193.124 4.13476   1 
  -1   2   7 146.126 3.65616  -2 
   1   2   6 146.126 3.65616   1 
  -2   2   8 1998.65 45.7136  -2 
   2   2   6 1998.65 45.7136   1 
  -3   2   9 349.372 17.8108  -2 
   3   2   6 349.372 17.8108   1 
  -4   2   9 429.869 9.85594  -2 
   4   2   6 429.869 9.85594   1 
  -5   2  10 132.092 5.46311  -2 
   5   2   6 132.092 5.46311   1 
  -6   2  11 23.6229 5.97845  -2 
   6   2   6 23.6229 5.97845   1 
  -7   2  12 0.56337 11.1992  -2 
   7   2   6 0.56337 11.1992   1 
  -8   2  13 -0.6333 23.6196  -2 
   8   2   6 -0.6333 23.6196   1 
 -10   3   2 18.6645 26.2335  -2 
 -10   3   6 18.6645 26.2335   1 
  -9   3   2 28.9045 15.1437  -2 
  -9   3   6 28.9045 15.1437   1 
  -8   3   1 19.6236 10.1347  -2 
  -8   3   6 19.6236 10.1347   1 
   7   3   0 50.9022 4.41444  -2 
  -7   3   6 50.9022 4.41444   1 
   6   3   1 46.7641 4.05867  -2 
  -6   3   6 46.7641 4.05867   1 
   5   3   2 204.695 5.89399  -2 
  -5   3   6 204.695 5.89399   1 
   4   3   3 129.116 5.28477  -2 
  -4   3   6 129.116 5.28477   1 
   3   3   3 757.148 35.1256  -2 
  -3   3   6 757.148 35.1256   1 
   2   3   4 617.441 15.7369  -2 
  -2   3   6 617.441 15.7369   1 
   1   3   5 450.197 8.36951  -2 
  -1   3   6 450.197 8.36951   1 
   0   3   6 1820.91 33.4135  -2 
   0   3   6 1820.91 33.4135   1 
  -1   3   7 432.283 9.35264  -2 
   1   3   6 432.283 9.35264   1 
  -2   3   8 111.350 4.17303  -2 
   2   3   6 111.350 4.17303   1 
  -3   3   9 87.7397 10.7594  -2 
   3   3   6 87.7397 10.7594   1 
  -4   3   9 64.7202 5.90439  -2 
   4   3   6 64.7202 5.90439   1 
  -5   3  10 48.1606 5.25803  -2 
   5   3   6 48.1606 5.25803   1 
  -6   3  11 155.539 8.34158  -2 
   6   3   6 155.539 8.34158   1 
  -7   3  12 28.6555 11.2929  -2 
   7   3   6 28.6555 11.2929   1 
  -8   3  13 54.2795 33.7351  -2 
   8   3   6 54.2795 33.7351   1 
 -10   4   6 19.1578 13.4870   1 
  -9   4   2 43.8611 19.1214  -2 
  -9   4   6 43.8611 19.1214   1 
  -8   4   1 4.08752 9.46685  -2 
  -8   4   6 4.08752 9.46685   1 
   7   4   0 51.3366 4.95114  -2 
  -7   4   6 51.3366 4.95114   1 
   6   4   1 2.90553 4.07082  -2 
  -6   4   6 2.90553 4.07082   1 
   5   4   2 63.5684 4.55067  -2 
  -5   4   6 63.5684 4.55067   1 
   4   4   3 35.8666 4.48774  -2 
  -4   4   6 35.8666 4.48774   1 
   3   4   3 59.4110 14.4536  -2 
  -3   4   6 59.4110 14.4536   1 
   2   4   4 26.4615 3.52581  -2 
  -2   4   6 26.4615 3.52581   1 
   1   4   5 587.255 12.4100  -2 
  -1   4   6 587.255 12.4100   1 
   0   4   6 424.992 9.93844  -2 
   0   4   6 424.992 9.93844   1 
  -1   4   7 40.0529 2.56143  -2 
   1   4   6 40.0529 2.56143   1 
  -2   4   8 1168.46 22.8076  -2 
   2   4   6 1168.46 22.8076   1 
  -3   4   9 213.648 17.5512  -2 
   3   4   6 213.648 17.5512   1 
  -4   4   9 352.573 12.0604  -2 
   4   4   6 352.573 12.0604   1 
  -5   4  10 101.495 8.19186  -2 
   5   4   6 101.495 8.19186   1 
  -6   4  11 11.5594 8.16347  -2 
   6   4   6 11.5594 8.16347   1 
  -7   4  12 -17.388 14.7102  -2 
   7   4   6 -17.388 14.7102   1 
  -9   5   2 70.2629 23.5153  -2 
  -9   5   6 70.2629 23.5153   1 
  -8   5   1 4.07501 11.9839  -2 
  -8   5   6 4.07501 11.9839   1 
   7   5   0 51.3772 6.28117  -2 
  -7   5   6 51.3772 6.28117   1 
   6   5   1 26.5480 5.51370  -2 
  -6   5   6 26.5480 5.51370   1 
   5   5   2 70.6375 5.42588  -2 
  -5   5   6 70.6375 5.42588   1 
   4   5   3 -6.5346 12.6154  -2 
  -4   5   6 -6.5346 12.6154   1 
   3   5   3 204.897 13.2829  -2 
  -3   5   6 204.897 13.2829   1 
   2   5   4 88.0340 5.28345  -2 
  -2   5   6 88.0340 5.28345   1 
   1   5   5 6.40494 3.91085  -2 
  -1   5   6 6.40494 3.91085   1 
   0   5   6 460.917 10.3896  -2 
   0   5   6 460.917 10.3896   1 
  -1   5   7 380.968 8.10900  -2 
   1   5   6 380.968 8.10900   1 
  -2   5   8 27.3813 4.76134  -2 
   2   5   6 27.3813 4.76134   1 
   3   5   6 7.67149 2.43820   1 
  -4   5   9 84.4310 7.27209  -2 
   4   5   6 84.4310 7.27209   1 
  -5   5  10 19.6718 7.99280  -2 
   5   5   6 19.6718 7.99280   1 
  -6   5  11 56.0048 9.91929  -2 
   6   5   6 56.0048 9.91929   1 
  -8   6   1 37.6241 27.0309  -2 
  -8   6   6 37.6241 27.0309   1 
   7   6   0 12.1653 12.6278  -2 
  -7   6   6 12.1653 12.6278   1 
   6   6   1 18.1338 6.86420  -2 
  -6   6   6 18.1338 6.86420   1 
   5   6   2 15.3218 7.21529  -2 
  -5   6   6 15.3218 7.21529   1 
   4   6   3 23.2233 8.30344  -2 
  -4   6   6 23.2233 8.30344   1 
   3   6   3 125.995 23.5623  -2 
  -3   6   6 125.995 23.5623   1 
   2   6   4 91.7336 8.67472  -2 
  -2   6   6 91.7336 8.67472   1 
   1   6   5 404.731 12.5297  -2 
  -1   6   6 404.731 12.5297   1 
   0   6   6 15.4200 3.94520  -2 
   0   6   6 15.4200 3.94520   1 
  -1   6   7 54.9611 4.76668  -2 
   1   6   6 54.9611 4.76668   1 
  -2   6   8 265.844 8.91204  -2 
   2   6   6 265.844 8.91204   1 
  -3   6   9 109.172 17.6500  -2 
   3   6   6 109.172 17.6500   1 
  -4   6   9 59.0857 11.3834  -2 
   4   6   6 59.0857 11.3834   1 
  -5   6  10 86.7265 11.0464  -2 
   5   6   6 86.7265 11.0464   1 
  -6   6  11 21.0960 11.9180  -2 
   6   6   6 21.0960 11.9180   1 
  -7   6  12 5.10329 36.7566  -2 
   7   6   6 5.10329 36.7566   1 
   7   7   0 35.4075 16.5089  -2 
  -7   7   6 35.4075 16.5089   1 
   6   7   1 13.5985 8.56995  -2 
  -6   7   6 13.5985 8.56995   1 
   5   7   2 37.8225 11.4918  -2 
  -5   7   6 37.8225 11.4918   1 
   4   7   3 26.4821 16.3122  -2 
  -4   7   6 26.4821 16.3122   1 
   3   7   3 170.809 17.6509  -2 
  -3   7   6 170.809 17.6509   1 
   2   7   4 35.9912 6.53368  -2 
  -2   7   6 35.9912 6.53368   1 
   1   7   5 8.68540 7.46587  -2 
  -1   7   6 8.68540 7.46587   1 
   0   7   6 246.939 8.33917  -2 
   0   7   6 246.939 8.33917   1 
  -1   7   7 286.489 9.90918  -2 
   1   7   6 286.489 9.90918   1 
  -2   7   8 20.0990 10.3010  -2 
   2   7   6 20.0990 10.3010   1 
  -3   7   9 7.44051 16.3344  -2 
   3   7   6 7.44051 16.3344   1 
  -4   7   9 10.1648 13.5891  -2 
   4   7   6 10.1648 13.5891   1 
  -5   7  10 7.20777 16.4328  -2 
   5   7   6 7.20777 16.4328   1 
  -6   7  11 84.0517 33.1375  -2 
   6   7   6 84.0517 33.1375   1 
   6   8   1 -24.112 21.9176  -2 
  -6   8   6 -24.112 21.9176   1 
   5   8   2 27.8064 20.7754  -2 
  -5   8   6 27.8064 20.7754   1 
   4   8   3 -6.5041 19.9448  -2 
  -4   8   6 -6.5041 19.9448   1 
   3   8   3 36.6075 13.5502  -2 
  -3   8   6 36.6075 13.5502   1 
   2   8   4 7.38370 12.9703  -2 
  -2   8   6 7.38370 12.9703   1 
   1   8   5 102.516 7.76845  -2 
  -1   8   6 102.516 7.76845   1 
   0   8   6 37.0611 6.63870  -2 
   0   8   6 37.0611 6.63870   1 
  -1   8   7 21.5395 11.4808  -2 
   1   8   6 21.5395 11.4808   1 
  -2   8   8 196.537 14.8877  -2 
   2   8   6 196.537 14.8877   1 
  -3   8   9 99.2628 31.0267  -2 
   3   8   6 99.2628 31.0267   1 
  -4   8   9 112.803 29.0236  -2 
   4   8   6 112.803 29.0236   1 
  -5   8  10 26.2165 60.6641  -2 
   5   8   6 26.2165 60.6641   1 
   3   9   3 110.876 25.4788  -2 
  -3   9   6 110.876 25.4788   1 
   2   9   4 90.8493 17.3641  -2 
  -2   9   6 90.8493 17.3641   1 
   1   9   5 28.2977 15.5609  -2 
  -1   9   6 28.2977 15.5609   1 
   0   9   6 129.806 10.8243  -2 
   0   9   6 129.806 10.8243   1 
  -1   9   7 5.70669 15.3112  -2 
   1   9   6 5.70669 15.3112   1 
  -2   9   8 35.1295 19.2267  -2 
   2   9   6 35.1295 19.2267   1 
  -3   9   9 75.0582 39.1045  -2 
   3   9   6 75.0582 39.1045   1 
 -10   0   1 49.7687 25.9281  -2 
 -10   0   7 49.7687 25.9281   1 
  -9   0   1 81.5893 14.0138  -2 
  -9   0   7 81.5893 14.0138   1 
   8   0   0 14.8752 9.23850  -2 
  -8   0   7 14.8752 9.23850   1 
   7   0   1 8.85704 5.23688  -2 
  -7   0   7 8.85704 5.23688   1 
   6   0   2 101.311 7.08431  -2 
  -6   0   7 101.311 7.08431   1 
   5   0   3 405.127 15.7362  -2 
  -5   0   7 405.127 15.7362   1 
   4   0   4 150.856 10.0620  -2 
  -4   0   7 150.856 10.0620   1 
  -3   0   7 773.605 24.9110   1 
   2   0   5 168.235 6.52821  -2 
  -2   0   7 168.235 6.52821   1 
   1   0   6 33.2997 2.42046  -2 
  -1   0   7 33.2997 2.42046   1 
   0   0   7 95.7062 3.44856  -2 
   0   0   7 95.7062 3.44856   1 
  -1   0   8 201.873 6.28823  -2 
   1   0   7 201.873 6.28823   1 
  -2   0   9 56.5208 4.09664  -2 
   2   0   7 56.5208 4.09664   1 
   3   0   7 87.4338 4.34838   1 
  -4   0  10 22.9758 7.01357  -2 
   4   0   7 22.9758 7.01357   1 
  -5   0  11 53.8547 9.32006  -2 
   5   0   7 53.8547 9.32006   1 
  -6   0  12 4.72009 8.28965  -2 
   6   0   7 4.72009 8.28965   1 
  -7   0  13 37.9142 13.5159  -2 
   7   0   7 37.9142 13.5159   1 
 -10   1   1 43.0169 23.4168  -2 
 -10   1   7 43.0169 23.4168   1 
  -9   1   1 56.9292 12.3642  -2 
  -9   1   7 56.9292 12.3642   1 
   8   1   0 54.5238 6.74162  -2 
  -8   1   7 54.5238 6.74162   1 
   7   1   1 61.3268 5.89264  -2 
  -7   1   7 61.3268 5.89264   1 
   6   1   2 35.6841 3.62510  -2 
  -6   1   7 35.6841 3.62510   1 
   5   1   3 240.774 6.66124  -2 
  -5   1   7 240.774 6.66124   1 
   4   1   4 488.929 16.1232  -2 
  -4   1   7 488.929 16.1232   1 
  -3   1   7 140.013 3.97895   1 
   2   1   5 898.877 18.7367  -2 
  -2   1   7 898.877 18.7367   1 
   1   1   6 1414.44 25.2356  -2 
  -1   1   7 1414.44 25.2356   1 
   0   1   7 76.4692 2.17268  -2 
   0   1   7 76.4692 2.17268   1 
  -1   1   8 257.703 5.94774  -2 
   1   1   7 257.703 5.94774   1 
  -2   1   9 533.620 11.7774  -2 
   2   1   7 533.620 11.7774   1 
  -3   1  10 386.046 27.4529  -2 
   3   1   7 386.046 27.4529   1 
  -4   1  10 103.087 5.24987  -2 
   4   1   7 103.087 5.24987   1 
  -5   1  11 13.5971 6.38171  -2 
   5   1   7 13.5971 6.38171   1 
  -6   1  12 32.3894 6.77162  -2 
   6   1   7 32.3894 6.77162   1 
  -7   1  13 22.4178 10.0616  -2 
   7   1   7 22.4178 10.0616   1 
  -8   1  14 20.3375 30.8809  -2 
   8   1   7 20.3375 30.8809   1 
 -10   2   1 16.0195 24.8116  -2 
 -10   2   7 16.0195 24.8116   1 
  -9   2   1 18.3549 15.2530  -2 
  -9   2   7 18.3549 15.2530   1 
   8   2   0 5.11634 8.67759  -2 
  -8   2   7 5.11634 8.67759   1 
   7   2   1 72.5967 4.52858  -2 
  -7   2   7 72.5967 4.52858   1 
   6   2   2 89.2578 4.30335  -2 
  -6   2   7 89.2578 4.30335   1 
   5   2   3 186.026 5.34273  -2 
  -5   2   7 186.026 5.34273   1 
   4   2   4 207.582 8.87272  -2 
  -4   2   7 207.582 8.87272   1 
   3   2   4 1143.20 72.2320  -2 
  -3   2   7 1143.20 72.2320   1 
   2   2   5 658.768 15.5024  -2 
  -2   2   7 658.768 15.5024   1 
   1   2   6 136.281 3.68938  -2 
  -1   2   7 136.281 3.68938   1 
   0   2   7 1281.80 23.6681  -2 
   0   2   7 1281.80 23.6681   1 
  -1   2   8 473.269 10.4657  -2 
   1   2   7 473.269 10.4657   1 
  -2   2   9 78.8289 3.54597  -2 
   2   2   7 78.8289 3.54597   1 
  -3   2  10 231.967 20.0150  -2 
   3   2   7 231.967 20.0150   1 
  -4   2  10 45.6858 5.18976  -2 
   4   2   7 45.6858 5.18976   1 
  -5   2  11 44.6960 5.35434  -2 
   5   2   7 44.6960 5.35434   1 
  -6   2  12 18.6590 7.88647  -2 
   6   2   7 18.6590 7.88647   1 
  -7   2  13 14.9260 10.9895  -2 
   7   2   7 14.9260 10.9895   1 
  -9   3   1 24.4457 17.6104  -2 
  -9   3   7 24.4457 17.6104   1 
   8   3   0 22.9414 9.44481  -2 
  -8   3   7 22.9414 9.44481   1 
   7   3   1 63.6717 4.68939  -2 
  -7   3   7 63.6717 4.68939   1 
   6   3   2 160.723 6.67477  -2 
  -6   3   7 160.723 6.67477   1 
   5   3   3 229.112 6.85229  -2 
  -5   3   7 229.112 6.85229   1 
   4   3   4 655.446 17.3117  -2 
  -4   3   7 655.446 17.3117   1 
   3   3   4 315.587 17.3209  -2 
  -3   3   7 315.587 17.3209   1 
   2   3   5 882.399 17.7885  -2 
  -2   3   7 882.399 17.7885   1 
   1   3   6 430.153 10.0527  -2 
  -1   3   7 430.153 10.0527   1 
   0   3   7 46.9354 2.42444  -2 
   0   3   7 46.9354 2.42444   1 
  -1   3   8 61.7264 2.49329  -2 
   1   3   7 61.7264 2.49329   1 
  -2   3   9 424.488 9.21075  -2 
   2   3   7 424.488 9.21075   1 
  -3   3  10 484.542 33.4721  -2 
   3   3   7 484.542 33.4721   1 
  -4   3  10 138.345 7.64087  -2 
   4   3   7 138.345 7.64087   1 
  -5   3  11 48.2792 7.60054  -2 
   5   3   7 48.2792 7.60054   1 
  -6   3  12 92.6740 9.44839  -2 
   6   3   7 92.6740 9.44839   1 
  -7   3  13 10.9799 11.9511  -2 
   7   3   7 10.9799 11.9511   1 
  -9   4   1 51.3505 19.0178  -2 
  -9   4   7 51.3505 19.0178   1 
   8   4   0 12.6778 16.4627  -2 
  -8   4   7 12.6778 16.4627   1 
   7   4   1 59.9702 5.57203  -2 
  -7   4   7 59.9702 5.57203   1 
   6   4   2 37.4819 4.12739  -2 
  -6   4   7 37.4819 4.12739   1 
   5   4   3 79.2624 6.24620  -2 
  -5   4   7 79.2624 6.24620   1 
   4   4   4 120.266 6.61584  -2 
  -4   4   7 120.266 6.61584   1 
   3   4   4 642.327 45.0096  -2 
  -3   4   7 642.327 45.0096   1 
   2   4   5 510.653 12.8205  -2 
  -2   4   7 510.653 12.8205   1 
   1   4   6 48.3001 3.26878  -2 
  -1   4   7 48.3001 3.26878   1 
   0   4   7 584.646 12.4185  -2 
   0   4   7 584.646 12.4185   1 
  -1   4   8 172.620 4.47551  -2 
   1   4   7 172.620 4.47551   1 
  -2   4   9 46.8415 3.94733  -2 
   2   4   7 46.8415 3.94733   1 
   3   4   7 42.9314 3.23549   1 
  -4   4  10 26.2451 6.11740  -2 
   4   4   7 26.2451 6.11740   1 
  -5   4  11 10.8695 7.69413  -2 
   5   4   7 10.8695 7.69413   1 
  -6   4  12 11.8647 8.96803  -2 
   6   4   7 11.8647 8.96803   1 
  -7   4  13 35.9559 22.0284  -2 
   7   4   7 35.9559 22.0284   1 
  -9   5   1 55.8271 23.3598  -2 
  -9   5   7 55.8271 23.3598   1 
   8   5   0 53.4514 16.5622  -2 
  -8   5   7 53.4514 16.5622   1 
   7   5   1 46.9425 7.16041  -2 
  -7   5   7 46.9425 7.16041   1 
   6   5   2 30.9646 5.36696  -2 
  -6   5   7 30.9646 5.36696   1 
   5   5   3 123.129 7.33006  -2 
  -5   5   7 123.129 7.33006   1 
   4   5   4 172.708 10.1762  -2 
  -4   5   7 172.708 10.1762   1 
   3   5   4 171.399 20.6157  -2 
  -3   5   7 171.399 20.6157   1 
   2   5   5 332.551 8.84465  -2 
  -2   5   7 332.551 8.84465   1 
   1   5   6 389.966 9.01137  -2 
  -1   5   7 389.966 9.01137   1 
   0   5   7 6.98010 2.29916  -2 
   0   5   7 6.98010 2.29916   1 
  -1   5   8 90.6898 4.33755  -2 
   1   5   7 90.6898 4.33755   1 
  -2   5   9 197.730 6.74021  -2 
   2   5   7 197.730 6.74021   1 
  -3   5  10 81.5223 22.1281  -2 
   3   5   7 81.5223 22.1281   1 
  -4   5  10 58.7615 12.4656  -2 
   4   5   7 58.7615 12.4656   1 
  -5   5  11 -2.4865 8.68050  -2 
   5   5   7 -2.4865 8.68050   1 
  -6   5  12 6.24443 10.5907  -2 
   6   5   7 6.24443 10.5907   1 
  -7   5  13 7.48080 32.5243  -2 
   7   5   7 7.48080 32.5243   1 
   8   6   0 30.2800 27.9123  -2 
  -8   6   7 30.2800 27.9123   1 
   7   6   1 6.46124 9.57225  -2 
  -7   6   7 6.46124 9.57225   1 
   6   6   2 49.0920 8.33597  -2 
  -6   6   7 49.0920 8.33597   1 
   5   6   3 126.906 9.52845  -2 
  -5   6   7 126.906 9.52845   1 
   4   6   4 15.8185 9.77191  -2 
  -4   6   7 15.8185 9.77191   1 
   3   6   4 592.656 26.2559  -2 
  -3   6   7 592.656 26.2559   1 
   2   6   5 74.9332 6.71119  -2 
  -2   6   7 74.9332 6.71119   1 
   1   6   6 55.5061 6.97266  -2 
  -1   6   7 55.5061 6.97266   1 
   0   6   7 74.6329 4.82163  -2 
   0   6   7 74.6329 4.82163   1 
  -1   6   8 135.421 5.76838  -2 
   1   6   7 135.421 5.76838   1 
  -2   6   9 18.1133 7.45258  -2 
   2   6   7 18.1133 7.45258   1 
  -3   6  10 97.5803 19.2981  -2 
   3   6   7 97.5803 19.2981   1 
  -4   6  10 -5.4414 13.0806  -2 
   4   6   7 -5.4414 13.0806   1 
  -5   6  11 14.8829 10.2723  -2 
   5   6   7 14.8829 10.2723   1 
  -6   6  12 -23.899 22.8242  -2 
   6   6   7 -23.899 22.8242   1 
   7   7   1 19.0991 15.7518  -2 
  -7   7   7 19.0991 15.7518   1 
   6   7   2 5.31170 14.8080  -2 
  -6   7   7 5.31170 14.8080   1 
   5   7   3 36.2476 20.3326  -2 
  -5   7   7 36.2476 20.3326   1 
   4   7   4 53.7069 16.8225  -2 
  -4   7   7 53.7069 16.8225   1 
   3   7   4 23.0586 16.6565  -2 
  -3   7   7 23.0586 16.6565   1 
   2   7   5 121.630 11.6838  -2 
  -2   7   7 121.630 11.6838   1 
   1   7   6 312.638 13.1425  -2 
  -1   7   7 312.638 13.1425   1 
   0   7   7 5.77890 4.85525  -2 
   0   7   7 5.77890 4.85525   1 
  -1   7   8 105.124 8.95088  -2 
   1   7   7 105.124 8.95088   1 
  -2   7   9 65.0153 11.3560  -2 
   2   7   7 65.0153 11.3560   1 
  -3   7  10 31.1103 18.4960  -2 
   3   7   7 31.1103 18.4960   1 
  -4   7  10 53.6121 20.3045  -2 
   4   7   7 53.6121 20.3045   1 
  -5   7  11 15.1467 26.4827  -2 
   5   7   7 15.1467 26.4827   1 
   6   8   2 42.3008 44.0662  -2 
  -6   8   7 42.3008 44.0662   1 
   5   8   3 39.3685 17.2921  -2 
  -5   8   7 39.3685 17.2921   1 
   4   8   4 15.8995 21.3411  -2 
  -4   8   7 15.8995 21.3411   1 
   3   8   4 160.378 19.0366  -2 
  -3   8   7 160.378 19.0366   1 
   2   8   5 104.537 12.9843  -2 
  -2   8   7 104.537 12.9843   1 
   1   8   6 28.9541 11.3327  -2 
  -1   8   7 28.9541 11.3327   1 
   0   8   7 135.278 10.4840  -2 
   0   8   7 135.278 10.4840   1 
  -1   8   8 48.0789 12.6647  -2 
   1   8   7 48.0789 12.6647   1 
  -2   8   9 -4.2134 15.5404  -2 
   2   8   7 -4.2134 15.5404   1 
  -3   8  10 77.4866 28.7297  -2 
   3   8   7 77.4866 28.7297   1 
  -4   8  10 160.186 62.3012  -2 
   4   8   7 160.186 62.3012   1 
   3   9   4 52.1161 35.2100  -2 
  -3   9   7 52.1161 35.2100   1 
   2   9   5 96.7222 18.1993  -2 
  -2   9   7 96.7222 18.1993   1 
   1   9   6 16.9826 19.4682  -2 
  -1   9   7 16.9826 19.4682   1 
   0   9   7 -7.1245 8.55781  -2 
   0   9   7 -7.1245 8.55781   1 
  -1   9   8 -14.745 22.1786  -2 
   1   9   7 -14.745 22.1786   1 
  -2   9   9 32.9649 31.8395  -2 
   2   9   7 32.9649 31.8395   1 
  -3   9  10 -14.355 56.9933  -2 
   3   9   7 -14.355 56.9933   1 
  10   0   0 159.850 68.4484  -2 
 -10   0   8 159.850 68.4484   1 
   9   0   0 90.2838 23.8509  -2 
  -9   0   8 90.2838 23.8509   1 
   8   0   1 46.2009 10.8552  -2 
  -8   0   8 46.2009 10.8552   1 
   7   0   2 129.418 9.87611  -2 
  -7   0   8 129.418 9.87611   1 
   6   0   3 112.631 7.78241  -2 
  -6   0   8 112.631 7.78241   1 
   5   0   4 740.889 26.3035  -2 
  -5   0   8 740.889 26.3035   1 
   4   0   5 799.678 24.5127  -2 
  -4   0   8 799.678 24.5127   1 
  -3   0   8 113.280 5.26766   1 
   2   0   6 1413.16 39.5832  -2 
  -2   0   8 1413.16 39.5832   1 
   1   0   7 193.379 6.68627  -2 
  -1   0   8 193.379 6.68627   1 
   0   0   8 162.394 5.71412  -2 
   0   0   8 162.394 5.71412   1 
  -1   0   9 327.666 10.5687  -2 
   1   0   8 327.666 10.5687   1 
  -2   0  10 13.4867 5.07028  -2 
   2   0   8 13.4867 5.07028   1 
   3   0   8 100.661 4.51172   1 
  -4   0  11 49.5813 7.87233  -2 
   4   0   8 49.5813 7.87233   1 
  -5   0  12 32.9283 9.24611  -2 
   5   0   8 32.9283 9.24611   1 
  -6   0  13 34.4166 10.2229  -2 
   6   0   8 34.4166 10.2229   1 
  -7   0  14 -2.8001 20.2873  -2 
   7   0   8 -2.8001 20.2873   1 
  -8   0  15 12.8927 49.0888  -2 
   8   0   8 12.8927 49.0888   1 
  10   1   0 36.4465 25.9188  -2 
 -10   1   8 36.4465 25.9188   1 
   9   1   0 109.387 14.9890  -2 
  -9   1   8 109.387 14.9890   1 
   8   1   1 4.78502 6.72288  -2 
  -8   1   8 4.78502 6.72288   1 
   7   1   2 70.0136 5.29583  -2 
  -7   1   8 70.0136 5.29583   1 
   6   1   3 426.723 10.3069  -2 
  -6   1   8 426.723 10.3069   1 
   5   1   4 123.450 4.96786  -2 
  -5   1   8 123.450 4.96786   1 
   4   1   5 148.444 5.57933  -2 
  -4   1   8 148.444 5.57933   1 
   3   1   5 381.771 26.7500  -2 
  -3   1   8 381.771 26.7500   1 
   2   1   6 70.5652 3.61112  -2 
  -2   1   8 70.5652 3.61112   1 
   1   1   7 249.725 5.53327  -2 
  -1   1   8 249.725 5.53327   1 
   0   1   8 260.343 5.91541  -2 
   0   1   8 260.343 5.91541   1 
  -1   1   9 87.3241 3.47692  -2 
   1   1   8 87.3241 3.47692   1 
  -2   1  10 10.3315 3.10361  -2 
   2   1   8 10.3315 3.10361   1 
  -3   1  11 12.9386 9.92825  -2 
   3   1   8 12.9386 9.92825   1 
  -4   1  11 12.9434 5.65791  -2 
   4   1   8 12.9434 5.65791   1 
  -5   1  12 17.3586 6.67683  -2 
   5   1   8 17.3586 6.67683   1 
  -6   1  13 37.0378 7.90621  -2 
   6   1   8 37.0378 7.90621   1 
  -7   1  14 191.093 13.2264  -2 
   7   1   8 191.093 13.2264   1 
  10   2   0 28.2305 25.6061  -2 
 -10   2   8 28.2305 25.6061   1 
   9   2   0 14.6893 14.7581  -2 
  -9   2   8 14.6893 14.7581   1 
   8   2   1 61.1013 9.75968  -2 
  -8   2   8 61.1013 9.75968   1 
   7   2   2 35.6721 3.80588  -2 
  -7   2   8 35.6721 3.80588   1 
   6   2   3 22.9817 3.94057  -2 
  -6   2   8 22.9817 3.94057   1 
   5   2   4 221.762 7.00773  -2 
  -5   2   8 221.762 7.00773   1 
   4   2   5 1039.05 28.2001  -2 
  -4   2   8 1039.05 28.2001   1 
   3   2   5 158.728 10.8878  -2 
  -3   2   8 158.728 10.8878   1 
   2   2   6 1869.64 54.0886  -2 
  -2   2   8 1869.64 54.0886   1 
   1   2   7 468.153 10.5086  -2 
  -1   2   8 468.153 10.5086   1 
   0   2   8 40.3335 2.64867  -2 
   0   2   8 40.3335 2.64867   1 
  -1   2   9 213.722 5.96957  -2 
   1   2   8 213.722 5.96957   1 
  -2   2  10 72.3660 4.16639  -2 
   2   2   8 72.3660 4.16639   1 
  -3   2  11 46.2890 9.06628  -2 
   3   2   8 46.2890 9.06628   1 
  -4   2  11 80.9511 9.10149  -2 
   4   2   8 80.9511 9.10149   1 
  -5   2  12 -4.6800 6.86440  -2 
   5   2   8 -4.6800 6.86440   1 
  -6   2  13 16.2287 10.3503  -2 
   6   2   8 16.2287 10.3503   1 
  -7   2  14 55.7585 16.8357  -2 
   7   2   8 55.7585 16.8357   1 
  -8   2  15 37.4128 44.4883  -2 
   8   2   8 37.4128 44.4883   1 
  10   3   0 8.97142 24.6789  -2 
 -10   3   8 8.97142 24.6789   1 
   9   3   0 140.516 28.9156  -2 
  -9   3   8 140.516 28.9156   1 
   8   3   1 54.3092 10.6395  -2 
  -8   3   8 54.3092 10.6395   1 
   7   3   2 117.252 5.79878  -2 
  -7   3   8 117.252 5.79878   1 
   6   3   3 558.729 12.1534  -2 
  -6   3   8 558.729 12.1534   1 
   5   3   4 35.3743 3.48194  -2 
  -5   3   8 35.3743 3.48194   1 
   4   3   5 113.890 6.54956  -2 
  -4   3   8 113.890 6.54956   1 
   3   3   5 26.9744 9.10249  -2 
  -3   3   8 26.9744 9.10249   1 
   2   3   6 120.108 5.19627  -2 
  -2   3   8 120.108 5.19627   1 
   1   3   7 56.3427 3.31013  -2 
  -1   3   8 56.3427 3.31013   1 
   0   3   8 573.098 11.9710  -2 
   0   3   8 573.098 11.9710   1 
  -1   3   9 329.422 7.33769  -2 
   1   3   8 329.422 7.33769   1 
  -2   3  10 68.5217 3.80990  -2 
   2   3   8 68.5217 3.80990   1 
   3   3   8 32.8844 2.69350   1 
  -4   3  11 48.2430 6.44687  -2 
   4   3   8 48.2430 6.44687   1 
  -5   3  12 21.3916 8.23714  -2 
   5   3   8 21.3916 8.23714   1 
  -6   3  13 66.1460 10.2159  -2 
   6   3   8 66.1460 10.2159   1 
  -7   3  14 115.061 22.2835  -2 
   7   3   8 115.061 22.2835   1 
   9   4   0 49.9489 19.1612  -2 
  -9   4   8 49.9489 19.1612   1 
   8   4   1 27.6125 9.48969  -2 
  -8   4   8 27.6125 9.48969   1 
   7   4   2 20.0622 5.46956  -2 
  -7   4   8 20.0622 5.46956   1 
   6   4   3 8.92800 4.17608  -2 
  -6   4   8 8.92800 4.17608   1 
   5   4   4 150.173 8.27185  -2 
  -5   4   8 150.173 8.27185   1 
   4   4   5 722.266 20.9487  -2 
  -4   4   8 722.266 20.9487   1 
   3   4   5 128.251 13.1288  -2 
  -3   4   8 128.251 13.1288   1 
   2   4   6 1130.95 23.9533  -2 
  -2   4   8 1130.95 23.9533   1 
   1   4   7 175.532 5.33505  -2 
  -1   4   8 175.532 5.33505   1 
   0   4   8 4.59063 1.74562  -2 
   0   4   8 4.59063 1.74562   1 
  -1   4   9 58.4858 3.09516  -2 
   1   4   8 58.4858 3.09516   1 
  -2   4  10 30.6795 5.39284  -2 
   2   4   8 30.6795 5.39284   1 
  -3   4  11 23.0439 17.0311  -2 
   3   4   8 23.0439 17.0311   1 
  -4   4  11 61.3661 8.43460  -2 
   4   4   8 61.3661 8.43460   1 
  -5   4  12 18.7856 11.2108  -2 
   5   4   8 18.7856 11.2108   1 
  -6   4  13 1.20460 10.1347  -2 
   6   4   8 1.20460 10.1347   1 
  -7   4  14 39.5361 29.0648  -2 
   7   4   8 39.5361 29.0648   1 
   8   5   1 36.2761 12.3539  -2 
  -8   5   8 36.2761 12.3539   1 
   7   5   2 52.3710 7.31507  -2 
  -7   5   8 52.3710 7.31507   1 
   6   5   3 224.661 10.2939  -2 
  -6   5   8 224.661 10.2939   1 
   5   5   4 51.3994 8.83825  -2 
  -5   5   8 51.3994 8.83825   1 
   4   5   5 60.1032 6.89809  -2 
  -4   5   8 60.1032 6.89809   1 
   3   5   5 116.380 14.9875  -2 
  -3   5   8 116.380 14.9875   1 
   2   5   6 30.2801 6.11615  -2 
  -2   5   8 30.2801 6.11615   1 
   1   5   7 103.666 5.78579  -2 
  -1   5   8 103.666 5.78579   1 
   0   5   8 125.658 5.71661  -2 
   0   5   8 125.658 5.71661   1 
  -1   5   9 17.3001 3.79139  -2 
   1   5   8 17.3001 3.79139   1 
  -2   5  10 16.0280 6.76456  -2 
   2   5   8 16.0280 6.76456   1 
   3   5   8 2.58129 3.85506   1 
  -4   5  11 8.81129 8.79067  -2 
   4   5   8 8.81129 8.79067   1 
  -5   5  12 12.2751 13.1570  -2 
   5   5   8 12.2751 13.1570   1 
  -6   5  13 57.4977 20.7425  -2 
   6   5   8 57.4977 20.7425   1 
  -7   5  14 65.9763 37.4706  -2 
   7   5   8 65.9763 37.4706   1 
   8   6   1 8.43706 47.1026  -2 
  -8   6   8 8.43706 47.1026   1 
   7   6   2 62.8705 13.7583  -2 
  -7   6   8 62.8705 13.7583   1 
   6   6   3 39.8821 11.4838  -2 
  -6   6   8 39.8821 11.4838   1 
   5   6   4 164.357 15.0730  -2 
  -5   6   8 164.357 15.0730   1 
   4   6   5 211.161 12.6312  -2 
  -4   6   8 211.161 12.6312   1 
   3   6   5 146.080 11.2790  -2 
  -3   6   8 146.080 11.2790   1 
   2   6   6 279.841 9.10578  -2 
  -2   6   8 279.841 9.10578   1 
   1   6   7 124.419 7.31395  -2 
  -1   6   8 124.419 7.31395   1 
   0   6   8 36.9183 4.64999  -2 
   0   6   8 36.9183 4.64999   1 
  -1   6   9 117.968 6.09955  -2 
   1   6   8 117.968 6.09955   1 
  -2   6  10 0.63228 8.26777  -2 
   2   6   8 0.63228 8.26777   1 
  -3   6  11 48.3362 30.2643  -2 
   3   6   8 48.3362 30.2643   1 
  -4   6  11 16.0310 10.1574  -2 
   4   6   8 16.0310 10.1574   1 
  -5   6  12 1.86541 14.5528  -2 
   5   6   8 1.86541 14.5528   1 
  -6   6  13 60.0583 33.5927  -2 
   6   6   8 60.0583 33.5927   1 
   7   7   2 2.70015 34.7260  -2 
  -7   7   8 2.70015 34.7260   1 
   6   7   3 79.0436 15.1713  -2 
  -6   7   8 79.0436 15.1713   1 
   5   7   4 49.9967 13.7715  -2 
  -5   7   8 49.9967 13.7715   1 
   4   7   5 8.86688 18.2353  -2 
  -4   7   8 8.86688 18.2353   1 
   3   7   5 43.4828 29.9658  -2 
  -3   7   8 43.4828 29.9658   1 
   2   7   6 21.6255 11.0453  -2 
  -2   7   8 21.6255 11.0453   1 
   1   7   7 96.9020 10.3554  -2 
  -1   7   8 96.9020 10.3554   1 
   0   7   8 94.1025 7.67468  -2 
   0   7   8 94.1025 7.67468   1 
  -1   7   9 -7.6704 9.25937  -2 
   1   7   8 -7.6704 9.25937   1 
  -2   7  10 -3.4105 14.0987  -2 
   2   7   8 -3.4105 14.0987   1 
   3   7   8 2.42290 7.38128   1 
  -4   7  11 19.9533 21.0674  -2 
   4   7   8 19.9533 21.0674   1 
   6   8   3 -16.562 47.1575  -2 
  -6   8   8 -16.562 47.1575   1 
   5   8   4 83.6097 43.3973  -2 
  -5   8   8 83.6097 43.3973   1 
   4   8   5 83.6313 29.5962  -2 
  -4   8   8 83.6313 29.5962   1 
   3   8   5 6.99698 18.2993  -2 
  -3   8   8 6.99698 18.2993   1 
   2   8   6 204.806 16.4615  -2 
  -2   8   8 204.806 16.4615   1 
   1   8   7 63.7357 12.1752  -2 
  -1   8   8 63.7357 12.1752   1 
   0   8   8 -6.0136 6.79835  -2 
   0   8   8 -6.0136 6.79835   1 
  -1   8   9 -10.496 13.0146  -2 
   1   8   8 -10.496 13.0146   1 
  -2   8  10 0.10319 18.0603  -2 
   2   8   8 0.10319 18.0603   1 
   1   9   7 -1.0632 26.0928  -2 
  -1   9   8 -1.0632 26.0928   1 
   0   9   8 26.1459 12.2441  -2 
   0   9   8 26.1459 12.2441   1 
  -1   9   9 -40.612 35.2425  -2 
   1   9   8 -40.612 35.2425   1 
  -2   9  10 8.97644 44.7078  -2 
   2   9   8 8.97644 44.7078   1 
  10   0   1 39.7768 29.8762  -2 
 -10   0   9 39.7768 29.8762   1 
   9   0   1 219.496 26.6147  -2 
  -9   0   9 219.496 26.6147   1 
   8   0   2 -6.8676 12.6761  -2 
  -8   0   9 -6.8676 12.6761   1 
   7   0   3 239.710 11.2830  -2 
  -7   0   9 239.710 11.2830   1 
   6   0   4 165.409 8.85392  -2 
  -6   0   9 165.409 8.85392   1 
   5   0   5 24.8771 7.53852  -2 
  -5   0   9 24.8771 7.53852   1 
   4   0   6 302.507 11.4590  -2 
  -4   0   9 302.507 11.4590   1 
  -3   0   9 288.956 10.5753   1 
   2   0   7 53.6231 3.88998  -2 
  -2   0   9 53.6231 3.88998   1 
   1   0   8 328.188 9.54590  -2 
  -1   0   9 328.188 9.54590   1 
   0   0   9 8.09950 1.70835  -2 
   0   0   9 8.09950 1.70835   1 
  -1   0  10 66.1451 4.62488  -2 
   1   0   9 66.1451 4.62488   1 
  -2   0  11 114.400 5.71265  -2 
   2   0   9 114.400 5.71265   1 
  -3   0  12 434.515 32.6169  -2 
   3   0   9 434.515 32.6169   1 
  -4   0  12 70.7934 15.9186  -2 
   4   0   9 70.7934 15.9186   1 
  -5   0  13 12.6043 10.5213  -2 
   5   0   9 12.6043 10.5213   1 
  -6   0  14 79.0294 16.4040  -2 
   6   0   9 79.0294 16.4040   1 
  -7   0  15 56.7232 20.7206  -2 
   7   0   9 56.7232 20.7206   1 
  10   1   1 205.332 70.0581  -2 
 -10   1   9 205.332 70.0581   1 
   9   1   1 82.4466 15.4319  -2 
  -9   1   9 82.4466 15.4319   1 
   8   1   2 121.668 11.4230  -2 
  -8   1   9 121.668 11.4230   1 
   7   1   3 114.323 6.46130  -2 
  -7   1   9 114.323 6.46130   1 
   6   1   4 90.5359 5.28877  -2 
  -6   1   9 90.5359 5.28877   1 
   5   1   5 456.546 10.8507  -2 
  -5   1   9 456.546 10.8507   1 
   4   1   6 126.214 5.35972  -2 
  -4   1   9 126.214 5.35972   1 
   3   1   6 39.6445 10.3864  -2 
  -3   1   9 39.6445 10.3864   1 
   2   1   7 499.950 9.77758  -2 
  -2   1   9 499.950 9.77758   1 
   1   1   8 88.1047 3.08408  -2 
  -1   1   9 88.1047 3.08408   1 
   0   1   9 216.042 5.03058  -2 
   0   1   9 216.042 5.03058   1 
  -1   1  10 31.9638 2.85197  -2 
   1   1   9 31.9638 2.85197   1 
  -2   1  11 2.74381 3.58960  -2 
   2   1   9 2.74381 3.58960   1 
  -3   1  12 137.865 19.0118  -2 
   3   1   9 137.865 19.0118   1 
  -4   1  12 26.7328 7.02551  -2 
   4   1   9 26.7328 7.02551   1 
  -5   1  13 322.899 12.7052  -2 
   5   1   9 322.899 12.7052   1 
  -6   1  14 21.9011 8.94522  -2 
   6   1   9 21.9011 8.94522   1 
  -7   1  15 88.1977 15.1852  -2 
   7   1   9 88.1977 15.1852   1 
  10   2   1 179.825 73.8989  -2 
 -10   2   9 179.825 73.8989   1 
   9   2   1 95.7297 12.8688  -2 
  -9   2   9 95.7297 12.8688   1 
   8   2   2 -16.074 11.1104  -2 
  -8   2   9 -16.074 11.1104   1 
   7   2   3 120.027 5.48570  -2 
  -7   2   9 120.027 5.48570   1 
   6   2   4 259.706 9.31990  -2 
  -6   2   9 259.706 9.31990   1 
   5   2   5 27.6166 4.60879  -2 
  -5   2   9 27.6166 4.60879   1 
   4   2   6 433.819 13.7674  -2 
  -4   2   9 433.819 13.7674   1 
   3   2   6 312.968 17.0802  -2 
  -3   2   9 312.968 17.0802   1 
   2   2   7 72.9880 4.09146  -2 
  -2   2   9 72.9880 4.09146   1 
   1   2   8 204.274 5.78328  -2 
  -1   2   9 204.274 5.78328   1 
   0   2   9 2.78135 1.65651  -2 
   0   2   9 2.78135 1.65651   1 
  -1   2  10 12.7715 2.94043  -2 
   1   2   9 12.7715 2.94043   1 
  -2   2  11 160.120 5.29989  -2 
   2   2   9 160.120 5.29989   1 
  -3   2  12 69.9666 14.8755  -2 
   3   2   9 69.9666 14.8755   1 
  -4   2  12 27.1981 7.25692  -2 
   4   2   9 27.1981 7.25692   1 
  -5   2  13 3.18352 9.37556  -2 
   5   2   9 3.18352 9.37556   1 
  -6   2  14 136.110 11.5408  -2 
   6   2   9 136.110 11.5408   1 
  -7   2  15 201.925 30.2018  -2 
   7   2   9 201.925 30.2018   1 
 -10   3   9 -3.1199 12.0785   1 
   9   3   1 197.191 32.8799  -2 
  -9   3   9 197.191 32.8799   1 
   8   3   2 190.743 10.5069  -2 
  -8   3   9 190.743 10.5069   1 
   7   3   3 18.2755 5.00695  -2 
  -7   3   9 18.2755 5.00695   1 
   6   3   4 120.568 5.45451  -2 
  -6   3   9 120.568 5.45451   1 
   5   3   5 74.3772 6.77925  -2 
  -5   3   9 74.3772 6.77925   1 
   4   3   6 78.8163 7.29920  -2 
  -4   3   9 78.8163 7.29920   1 
   3   3   6 84.9168 10.9690  -2 
  -3   3   9 84.9168 10.9690   1 
   2   3   7 418.880 9.73375  -2 
  -2   3   9 418.880 9.73375   1 
   1   3   8 317.988 7.38388  -2 
  -1   3   9 317.988 7.38388   1 
   0   3   9 154.410 4.92422  -2 
   0   3   9 154.410 4.92422   1 
  -1   3  10 22.7304 2.89510  -2 
   1   3   9 22.7304 2.89510   1 
  -2   3  11 50.3292 4.47578  -2 
   2   3   9 50.3292 4.47578   1 
  -3   3  12 173.301 16.3508  -2 
   3   3   9 173.301 16.3508   1 
  -4   3  12 9.29969 8.63558  -2 
   4   3   9 9.29969 8.63558   1 
  -5   3  13 187.254 10.6703  -2 
   5   3   9 187.254 10.6703   1 
  -6   3  14 23.0341 11.0386  -2 
   6   3   9 23.0341 11.0386   1 
  -7   3  15 98.7354 28.8382  -2 
   7   3   9 98.7354 28.8382   1 
   9   4   1 22.3605 42.5947  -2 
  -9   4   9 22.3605 42.5947   1 
   8   4   2 46.3252 10.7461  -2 
  -8   4   9 46.3252 10.7461   1 
   7   4   3 78.9732 6.49705  -2 
  -7   4   9 78.9732 6.49705   1 
   6   4   4 235.058 14.3433  -2 
  -6   4   9 235.058 14.3433   1 
   5   4   5 34.9680 7.16770  -2 
  -5   4   9 34.9680 7.16770   1 
   4   4   6 381.981 15.2522  -2 
  -4   4   9 381.981 15.2522   1 
   3   4   6 146.683 11.4015  -2 
  -3   4   9 146.683 11.4015   1 
   2   4   7 47.6468 4.57677  -2 
  -2   4   9 47.6468 4.57677   1 
   1   4   8 63.2447 4.33164  -2 
  -1   4   9 63.2447 4.33164   1 
   0   4   9 3.50547 2.04312  -2 
   0   4   9 3.50547 2.04312   1 
  -1   4  10 2.74958 4.07865  -2 
   1   4   9 2.74958 4.07865   1 
  -2   4  11 90.5458 6.78764  -2 
   2   4   9 90.5458 6.78764   1 
   3   4   9 21.1430 3.24859   1 
  -4   4  12 3.30029 12.5903  -2 
   4   4   9 3.30029 12.5903   1 
  -5   4  13 15.5266 11.5612  -2 
   5   4   9 15.5266 11.5612   1 
  -6   4  14 90.1958 13.0190  -2 
   6   4   9 90.1958 13.0190   1 
  -7   4  15 131.673 34.6751  -2 
   7   4   9 131.673 34.6751   1 
   8   5   2 105.706 21.9489  -2 
  -8   5   9 105.706 21.9489   1 
   7   5   3 45.5140 9.07627  -2 
  -7   5   9 45.5140 9.07627   1 
   6   5   4 62.2665 10.6606  -2 
  -6   5   9 62.2665 10.6606   1 
   5   5   5 179.903 12.3902  -2 
  -5   5   9 179.903 12.3902   1 
   4   5   6 88.2309 13.2590  -2 
  -4   5   9 88.2309 13.2590   1 
   3   5   6 17.3679 9.73990  -2 
  -3   5   9 17.3679 9.73990   1 
   2   5   7 211.151 9.57363  -2 
  -2   5   9 211.151 9.57363   1 
   1   5   8 21.2666 4.92383  -2 
  -1   5   9 21.2666 4.92383   1 
   0   5   9 127.665 5.28449  -2 
   0   5   9 127.665 5.28449   1 
  -1   5  10 8.62000 5.95591  -2 
   1   5   9 8.62000 5.95591   1 
  -2   5  11 24.2350 10.7282  -2 
   2   5   9 24.2350 10.7282   1 
  -3   5  12 72.4838 17.8390  -2 
   3   5   9 72.4838 17.8390   1 
  -4   5  12 14.0429 12.0737  -2 
   4   5   9 14.0429 12.0737   1 
  -5   5  13 193.607 16.9383  -2 
   5   5   9 193.607 16.9383   1 
  -6   5  14 -11.867 27.2822  -2 
   6   5   9 -11.867 27.2822   1 
   8   6   2 7.12846 47.5353  -2 
  -8   6   9 7.12846 47.5353   1 
   7   6   3 70.5160 14.3151  -2 
  -7   6   9 70.5160 14.3151   1 
   6   6   4 68.4847 12.5977  -2 
  -6   6   9 68.4847 12.5977   1 
   5   6   5 30.8890 19.1072  -2 
  -5   6   9 30.8890 19.1072   1 
   4   6   6 67.1771 11.4324  -2 
  -4   6   9 67.1771 11.4324   1 
   3   6   6 127.719 21.2664  -2 
  -3   6   9 127.719 21.2664   1 
   2   6   7 9.68749 8.47635  -2 
  -2   6   9 9.68749 8.47635   1 
   1   6   8 124.209 8.11068  -2 
  -1   6   9 124.209 8.11068   1 
   0   6   9 33.3927 4.71548  -2 
   0   6   9 33.3927 4.71548   1 
  -1   6  10 11.3456 7.77607  -2 
   1   6   9 11.3456 7.77607   1 
  -2   6  11 20.3102 11.6058  -2 
   2   6   9 20.3102 11.6058   1 
  -3   6  12 138.955 34.2160  -2 
   3   6   9 138.955 34.2160   1 
  -4   6  12 53.5923 28.2238  -2 
   4   6   9 53.5923 28.2238   1 
  -5   6  13 -0.7368 30.7004  -2 
   5   6   9 -0.7368 30.7004   1 
   7   7   3 43.4218 38.3302  -2 
  -7   7   9 43.4218 38.3302   1 
   6   7   4 49.4412 20.9494  -2 
  -6   7   9 49.4412 20.9494   1 
   5   7   5 131.261 25.4131  -2 
  -5   7   9 131.261 25.4131   1 
   4   7   6 11.9860 16.0738  -2 
  -4   7   9 11.9860 16.0738   1 
   3   7   6 -9.5468 20.2002  -2 
  -3   7   9 -9.5468 20.2002   1 
   2   7   7 55.8656 13.9430  -2 
  -2   7   9 55.8656 13.9430   1 
   1   7   8 4.27528 9.84727  -2 
  -1   7   9 4.27528 9.84727   1 
   0   7   9 10.2915 5.66923  -2 
   0   7   9 10.2915 5.66923   1 
  -1   7  10 10.7259 10.7665  -2 
   1   7   9 10.7259 10.7665   1 
  -2   7  11 -13.514 14.0995  -2 
   2   7   9 -13.514 14.0995   1 
  -3   7  12 130.573 44.9615  -2 
   3   7   9 130.573 44.9615   1 
  -4   7  12 46.0222 45.3913  -2 
   4   7   9 46.0222 45.3913   1 
   5   8   5 -36.919 43.9369  -2 
  -5   8   9 -36.919 43.9369   1 
   3   8   6 28.3292 19.8933  -2 
  -3   8   9 28.3292 19.8933   1 
   2   8   7 33.9911 15.5210  -2 
  -2   8   9 33.9911 15.5210   1 
   1   8   8 12.3187 12.9250  -2 
  -1   8   9 12.3187 12.9250   1 
   0   8   9 5.23941 7.33705  -2 
   0   8   9 5.23941 7.33705   1 
  -1   8  10 8.82686 16.3654  -2 
   1   8   9 8.82686 16.3654   1 
  -2   8  11 31.7776 30.5121  -2 
   2   8   9 31.7776 30.5121   1 
  -3   8  12 91.1224 58.6201  -2 
   3   8   9 91.1224 58.6201   1 
   0   9   9 30.9347 25.2343  -2 
   0   9   9 30.9347 25.2343   1 
  10   0   2 126.468 32.0383  -2 
 -10   0  10 126.468 32.0383   1 
   9   0   2 120.161 25.6083  -2 
  -9   0  10 120.161 25.6083   1 
   8   0   3 136.548 17.1096  -2 
  -8   0  10 136.548 17.1096   1 
   7   0   4 11.0588 6.94091  -2 
  -7   0  10 11.0588 6.94091   1 
   6   0   5 11.2674 5.37890  -2 
  -6   0  10 11.2674 5.37890   1 
   5   0   6 225.090 12.7285  -2 
  -5   0  10 225.090 12.7285   1 
   4   0   7 27.7104 6.47564  -2 
  -4   0  10 27.7104 6.47564   1 
  -3   0  10 234.249 9.27636   1 
   2   0   8 7.60310 3.82105  -2 
  -2   0  10 7.60310 3.82105   1 
   1   0   9 63.8299 4.15848  -2 
  -1   0  10 63.8299 4.15848   1 
   0   0  10 13.7549 2.17974  -2 
   0   0  10 13.7549 2.17974   1 
  -1   0  11 10.5321 4.44814  -2 
   1   0  10 10.5321 4.44814   1 
  -2   0  12 374.515 12.1444  -2 
   2   0  10 374.515 12.1444   1 
  -3   0  13 12.8486 19.4769  -2 
   3   0  10 12.8486 19.4769   1 
  -4   0  13 209.829 13.1469  -2 
   4   0  10 209.829 13.1469   1 
  -5   0  14 123.947 13.9666  -2 
   5   0  10 123.947 13.9666   1 
  -6   0  15 83.4730 14.2094  -2 
   6   0  10 83.4730 14.2094   1 
  10   1   2 -7.1152 29.4941  -2 
 -10   1  10 -7.1152 29.4941   1 
   9   1   2 15.0631 15.9247  -2 
  -9   1  10 15.0631 15.9247   1 
   8   1   3 20.1238 11.3473  -2 
  -8   1  10 20.1238 11.3473   1 
   7   1   4 279.705 9.23385  -2 
  -7   1  10 279.705 9.23385   1 
   6   1   5 167.666 6.13147  -2 
  -6   1  10 167.666 6.13147   1 
   5   1   6 9.87268 5.25176  -2 
  -5   1  10 9.87268 5.25176   1 
   4   1   7 99.1498 4.99151  -2 
  -4   1  10 99.1498 4.99151   1 
   3   1   7 350.337 19.4120  -2 
  -3   1  10 350.337 19.4120   1 
   2   1   8 8.66935 2.75171  -2 
  -2   1  10 8.66935 2.75171   1 
   1   1   9 29.0014 2.78447  -2 
  -1   1  10 29.0014 2.78447   1 
   0   1  10 13.6618 1.56564  -2 
   0   1  10 13.6618 1.56564   1 
  -1   1  11 148.224 4.93962  -2 
   1   1  10 148.224 4.93962   1 
  -2   1  12 -1.3899 5.58061  -2 
   2   1  10 -1.3899 5.58061   1 
  -3   1  13 563.372 42.0035  -2 
   3   1  10 563.372 42.0035   1 
  -4   1  13 123.363 9.37589  -2 
   4   1  10 123.363 9.37589   1 
  -5   1  14 163.323 11.7538  -2 
   5   1  10 163.323 11.7538   1 
  -6   1  15 90.1873 10.9613  -2 
   6   1  10 90.1873 10.9613   1 
 -10   2  10 -3.6805 12.5511   1 
   9   2   2 90.8822 12.9495  -2 
  -9   2  10 90.8822 12.9495   1 
   8   2   3 210.057 14.6827  -2 
  -8   2  10 210.057 14.6827   1 
   7   2   4 32.1755 4.72395  -2 
  -7   2  10 32.1755 4.72395   1 
   6   2   5 71.3414 5.52392  -2 
  -6   2  10 71.3414 5.52392   1 
   5   2   6 141.559 6.39165  -2 
  -5   2  10 141.559 6.39165   1 
   4   2   7 29.7758 6.70832  -2 
  -4   2  10 29.7758 6.70832   1 
   3   2   7 198.255 11.5717  -2 
  -3   2  10 198.255 11.5717   1 
   2   2   8 76.1787 4.61704  -2 
  -2   2  10 76.1787 4.61704   1 
   1   2   9 13.0075 3.34410  -2 
  -1   2  10 13.0075 3.34410   1 
   0   2  10 70.6451 3.18035  -2 
   0   2  10 70.6451 3.18035   1 
  -1   2  11 10.2591 4.01970  -2 
   1   2  10 10.2591 4.01970   1 
  -2   2  12 300.567 8.56953  -2 
   2   2  10 300.567 8.56953   1 
  -3   2  13 10.3333 13.2967  -2 
   3   2  10 10.3333 13.2967   1 
  -4   2  13 135.895 11.3564  -2 
   4   2  10 135.895 11.3564   1 
  -5   2  14 170.860 12.5328  -2 
   5   2  10 170.860 12.5328   1 
  -6   2  15 22.8855 12.2099  -2 
   6   2  10 22.8855 12.2099   1 
   9   3   2 -44.040 18.9012  -2 
  -9   3  10 -44.040 18.9012   1 
   8   3   3 42.5100 9.00950  -2 
  -8   3  10 42.5100 9.00950   1 
   7   3   4 98.1990 6.23670  -2 
  -7   3  10 98.1990 6.23670   1 
   6   3   5 104.787 6.97451  -2 
  -6   3  10 104.787 6.97451   1 
   5   3   6 77.1730 7.31667  -2 
  -5   3  10 77.1730 7.31667   1 
   4   3   7 145.769 8.12350  -2 
  -4   3  10 145.769 8.12350   1 
   3   3   7 382.069 21.2141  -2 
  -3   3  10 382.069 21.2141   1 
   2   3   8 77.8107 4.86714  -2 
  -2   3  10 77.8107 4.86714   1 
   1   3   9 24.5966 3.63553  -2 
  -1   3  10 24.5966 3.63553   1 
   0   3  10 187.694 6.18809  -2 
   0   3  10 187.694 6.18809   1 
  -1   3  11 180.570 6.31365  -2 
   1   3  10 180.570 6.31365   1 
  -2   3  12 40.0807 5.91997  -2 
   2   3  10 40.0807 5.91997   1 
  -3   3  13 361.587 33.8171  -2 
   3   3  10 361.587 33.8171   1 
  -4   3  13 9.41807 9.65056  -2 
   4   3  10 9.41807 9.65056   1 
  -5   3  14 91.3007 11.6223  -2 
   5   3  10 91.3007 11.6223   1 
  -6   3  15 59.2604 14.8308  -2 
   6   3  10 59.2604 14.8308   1 
   8   4   3 187.082 13.1545  -2 
  -8   4  10 187.082 13.1545   1 
   7   4   4 15.1736 9.70929  -2 
  -7   4  10 15.1736 9.70929   1 
   6   4   5 103.365 13.6612  -2 
  -6   4  10 103.365 13.6612   1 
   5   4   6 128.925 12.7156  -2 
  -5   4  10 128.925 12.7156   1 
   4   4   7 34.5396 8.52663  -2 
  -4   4  10 34.5396 8.52663   1 
   3   4   7 90.2910 13.2108  -2 
  -3   4  10 90.2910 13.2108   1 
   2   4   8 31.0230 5.90312  -2 
  -2   4  10 31.0230 5.90312   1 
   1   4   9 0.08300 4.35516  -2 
  -1   4  10 0.08300 4.35516   1 
   0   4  10 2.97507 2.74786  -2 
   0   4  10 2.97507 2.74786   1 
  -1   4  11 9.94055 4.88953  -2 
   1   4  10 9.94055 4.88953   1 
  -2   4  12 194.246 9.06343  -2 
   2   4  10 194.246 9.06343   1 
  -3   4  13 27.8813 19.2144  -2 
   3   4  10 27.8813 19.2144   1 
  -4   4  13 83.5264 13.6044  -2 
   4   4  10 83.5264 13.6044   1 
  -5   4  14 134.354 14.2439  -2 
   5   4  10 134.354 14.2439   1 
  -6   4  15 30.6034 21.9716  -2 
   6   4  10 30.6034 21.9716   1 
   8   5   3 -22.328 40.1347  -2 
  -8   5  10 -22.328 40.1347   1 
   7   5   4 115.334 13.3386  -2 
  -7   5  10 115.334 13.3386   1 
   6   5   5 71.2077 13.3684  -2 
  -6   5  10 71.2077 13.3684   1 
   5   5   6 24.9072 16.3181  -2 
  -5   5  10 24.9072 16.3181   1 
   4   5   7 52.3390 17.2126  -2 
  -4   5  10 52.3390 17.2126   1 
   3   5   7 217.624 18.4239  -2 
  -3   5  10 217.624 18.4239   1 
   2   5   8 7.00075 6.95612  -2 
  -2   5  10 7.00075 6.95612   1 
   1   5   9 18.3129 6.78895  -2 
  -1   5  10 18.3129 6.78895   1 
   0   5  10 20.7248 3.34390  -2 
   0   5  10 20.7248 3.34390   1 
  -1   5  11 70.7337 7.66933  -2 
   1   5  10 70.7337 7.66933   1 
  -2   5  12 2.32652 7.09015  -2 
   2   5  10 2.32652 7.09015   1 
   3   5  10 172.901 11.4510   1 
  -4   5  13 73.6175 19.8414  -2 
   4   5  10 73.6175 19.8414   1 
  -5   5  14 69.7630 27.2028  -2 
   5   5  10 69.7630 27.2028   1 
   8   6   3 -11.840 48.1028  -2 
  -8   6  10 -11.840 48.1028   1 
   7   6   4 127.288 47.1540  -2 
  -7   6  10 127.288 47.1540   1 
   6   6   5 24.6606 14.5158  -2 
  -6   6  10 24.6606 14.5158   1 
   5   6   6 115.846 21.5745  -2 
  -5   6  10 115.846 21.5745   1 
   4   6   7 28.0392 23.7846  -2 
  -4   6  10 28.0392 23.7846   1 
   3   6   7 133.275 19.0263  -2 
  -3   6  10 133.275 19.0263   1 
   2   6   8 24.4396 10.5806  -2 
  -2   6  10 24.4396 10.5806   1 
   1   6   9 27.8599 8.94450  -2 
  -1   6  10 27.8599 8.94450   1 
   0   6  10 7.01289 4.41174  -2 
   0   6  10 7.01289 4.41174   1 
  -1   6  11 37.2387 9.91994  -2 
   1   6  10 37.2387 9.91994   1 
  -2   6  12 124.184 13.7298  -2 
   2   6  10 124.184 13.7298   1 
  -3   6  13 -18.535 34.6804  -2 
   3   6  10 -18.535 34.6804   1 
  -4   6  13 114.091 36.3860  -2 
   4   6  10 114.091 36.3860   1 
   6   7   5 60.4725 26.2398  -2 
  -6   7  10 60.4725 26.2398   1 
   5   7   6 25.1061 25.8368  -2 
  -5   7  10 25.1061 25.8368   1 
   4   7   7 28.9245 19.6805  -2 
  -4   7  10 28.9245 19.6805   1 
   3   7   7 10.8355 21.6593  -2 
  -3   7  10 10.8355 21.6593   1 
   2   7   8 5.85049 12.8157  -2 
  -2   7  10 5.85049 12.8157   1 
   1   7   9 3.77579 13.0767  -2 
  -1   7  10 3.77579 13.0767   1 
   0   7  10 5.10814 5.71464  -2 
   0   7  10 5.10814 5.71464   1 
  -1   7  11 32.1353 11.8318  -2 
   1   7  10 32.1353 11.8318   1 
  -2   7  12 -5.7510 22.9628  -2 
   2   7  10 -5.7510 22.9628   1 
  -3   7  13 129.200 49.7480  -2 
   3   7  10 129.200 49.7480   1 
  -4   7  13 52.0805 50.9085  -2 
   4   7  10 52.0805 50.9085   1 
   3   8   7 -23.295 46.5061  -2 
  -3   8  10 -23.295 46.5061   1 
   2   8   8 23.6818 18.0939  -2 
  -2   8  10 23.6818 18.0939   1 
   1   8   9 -14.727 16.8964  -2 
  -1   8  10 -14.727 16.8964   1 
   0   8  10 3.33102 8.50232  -2 
   0   8  10 3.33102 8.50232   1 
  -1   8  11 -4.3563 23.9148  -2 
   1   8  10 -4.3563 23.9148   1 
  -2   8  12 -23.250 50.2410  -2 
   2   8  10 -23.250 50.2410   1 
   9   0   3 -1.9625 24.5448  -2 
  -9   0  11 -1.9625 24.5448   1 
   8   0   4 44.6649 16.7330  -2 
  -8   0  11 44.6649 16.7330   1 
   7   0   5 84.0712 12.8197  -2 
  -7   0  11 84.0712 12.8197   1 
   6   0   6 143.137 8.00117  -2 
  -6   0  11 143.137 8.00117   1 
   5   0   7 40.6277 6.16896  -2 
  -5   0  11 40.6277 6.16896   1 
   4   0   8 29.1847 11.3319  -2 
  -4   0  11 29.1847 11.3319   1 
  -3   0  11 13.0682 2.96946   1 
   2   0   9 103.382 5.31872  -2 
  -2   0  11 103.382 5.31872   1 
   1   0  10 15.9820 3.93590  -2 
  -1   0  11 15.9820 3.93590   1 
   0   0  11 198.240 9.54795  -2 
   0   0  11 198.240 9.54795   1 
  -1   0  12 6.64796 6.33846  -2 
   1   0  11 6.64796 6.33846   1 
  -2   0  13 66.5002 9.23013  -2 
   2   0  11 66.5002 9.23013   1 
   3   0  11 32.2808 6.12751   1 
  -4   0  14 83.6380 14.2262  -2 
   4   0  11 83.6380 14.2262   1 
  -5   0  15 90.8975 18.3498  -2 
   5   0  11 90.8975 18.3498   1 
  -6   0  16 301.878 23.2488  -2 
   6   0  11 301.878 23.2488   1 
 -10   1  11 9.42276 13.7185   1 
   9   1   3 35.0503 19.2792  -2 
  -9   1  11 35.0503 19.2792   1 
   8   1   4 63.4518 13.2729  -2 
  -8   1  11 63.4518 13.2729   1 
   7   1   5 -2.5332 6.12009  -2 
  -7   1  11 -2.5332 6.12009   1 
   6   1   6 126.644 5.91466  -2 
  -6   1  11 126.644 5.91466   1 
   5   1   7 3.86921 4.58537  -2 
  -5   1  11 3.86921 4.58537   1 
   4   1   8 2.58684 5.67215  -2 
  -4   1  11 2.58684 5.67215   1 
   3   1   8 17.9161 8.76323  -2 
  -3   1  11 17.9161 8.76323   1 
   2   1   9 6.95754 4.32023  -2 
  -2   1  11 6.95754 4.32023   1 
   1   1  10 161.272 4.54052  -2 
  -1   1  11 161.272 4.54052   1 
   0   1  11 20.1623 2.15992  -2 
   0   1  11 20.1623 2.15992   1 
  -1   1  12 724.911 18.0276  -2 
   1   1  11 724.911 18.0276   1 
  -2   1  13 479.302 12.7564  -2 
   2   1  11 479.302 12.7564   1 
  -3   1  14 23.3127 14.3638  -2 
   3   1  11 23.3127 14.3638   1 
  -4   1  14 303.393 13.8171  -2 
   4   1  11 303.393 13.8171   1 
  -5   1  15 75.2736 12.6542  -2 
   5   1  11 75.2736 12.6542   1 
  -6   1  16 15.9448 13.9332  -2 
   6   1  11 15.9448 13.9332   1 
   9   2   3 -4.8412 13.2372  -2 
  -9   2  11 -4.8412 13.2372   1 
   8   2   4 78.2463 9.20241  -2 
  -8   2  11 78.2463 9.20241   1 
   7   2   5 64.4133 5.36675  -2 
  -7   2  11 64.4133 5.36675   1 
   6   2   6 32.5961 5.57689  -2 
  -6   2  11 32.5961 5.57689   1 
   5   2   7 40.8504 5.14563  -2 
  -5   2  11 40.8504 5.14563   1 
   4   2   8 54.1313 7.57356  -2 
  -4   2  11 54.1313 7.57356   1 
   3   2   8 17.7966 11.7899  -2 
  -3   2  11 17.7966 11.7899   1 
   2   2   9 153.954 6.21624  -2 
  -2   2  11 153.954 6.21624   1 
   1   2  10 8.93924 3.95402  -2 
  -1   2  11 8.93924 3.95402   1 
   0   2  11 358.993 8.80045  -2 
   0   2  11 358.993 8.80045   1 
  -1   2  12 111.463 5.44294  -2 
   1   2  11 111.463 5.44294   1 
  -2   2  13 128.610 8.75983  -2 
   2   2  11 128.610 8.75983   1 
  -3   2  14 189.630 29.3235  -2 
   3   2  11 189.630 29.3235   1 
  -4   2  14 17.8285 11.7834  -2 
   4   2  11 17.8285 11.7834   1 
  -5   2  15 124.152 12.5509  -2 
   5   2  11 124.152 12.5509   1 
  -6   2  16 199.157 30.0981  -2 
   6   2  11 199.157 30.0981   1 
   9   3   3 -17.257 64.0647  -2 
  -9   3  11 -17.257 64.0647   1 
   8   3   4 56.1271 10.4737  -2 
  -8   3  11 56.1271 10.4737   1 
   7   3   5 30.0343 6.16198  -2 
  -7   3  11 30.0343 6.16198   1 
   6   3   6 174.239 9.62850  -2 
  -6   3  11 174.239 9.62850   1 
   5   3   7 44.4784 7.65941  -2 
  -5   3  11 44.4784 7.65941   1 
   4   3   8 45.6569 8.14729  -2 
  -4   3  11 45.6569 8.14729   1 
   3   3   8 68.1022 17.7922  -2 
  -3   3  11 68.1022 17.7922   1 
   2   3   9 58.9936 5.41237  -2 
  -2   3  11 58.9936 5.41237   1 
   1   3  10 184.678 6.65244  -2 
  -1   3  11 184.678 6.65244   1 
   0   3  11 120.025 6.24650  -2 
   0   3  11 120.025 6.24650   1 
  -1   3  12 606.875 17.0287  -2 
   1   3  11 606.875 17.0287   1 
  -2   3  13 132.233 8.89762  -2 
   2   3  11 132.233 8.89762   1 
  -3   3  14 46.3126 14.3275  -2 
   3   3  11 46.3126 14.3275   1 
  -4   3  14 150.718 29.4837  -2 
   4   3  11 150.718 29.4837   1 
  -5   3  15 89.2585 16.0282  -2 
   5   3  11 89.2585 16.0282   1 
  -6   3  16 67.4532 29.6685  -2 
   6   3  11 67.4532 29.6685   1 
   9   4   3 -53.844 68.9258  -2 
  -9   4  11 -53.844 68.9258   1 
   8   4   4 86.6938 18.7821  -2 
  -8   4  11 86.6938 18.7821   1 
   7   4   5 58.9266 10.9602  -2 
  -7   4  11 58.9266 10.9602   1 
   6   4   6 57.1668 13.4273  -2 
  -6   4  11 57.1668 13.4273   1 
   5   4   7 -15.264 14.2462  -2 
  -5   4  11 -15.264 14.2462   1 
   4   4   8 52.0497 10.7092  -2 
  -4   4  11 52.0497 10.7092   1 
   3   4   8 21.7031 9.95608  -2 
  -3   4  11 21.7031 9.95608   1 
   2   4   9 63.6472 7.64938  -2 
  -2   4  11 63.6472 7.64938   1 
   1   4  10 -4.1488 6.20036  -2 
  -1   4  11 -4.1488 6.20036   1 
   0   4  11 176.266 6.18955  -2 
   0   4  11 176.266 6.18955   1 
  -1   4  12 101.770 7.68834  -2 
   1   4  11 101.770 7.68834   1 
  -2   4  13 100.425 10.3432  -2 
   2   4  11 100.425 10.3432   1 
   3   4  11 55.3534 5.99145   1 
  -4   4  14 76.0480 29.6786  -2 
   4   4  11 76.0480 29.6786   1 
  -5   4  15 116.231 21.8106  -2 
   5   4  11 116.231 21.8106   1 
  -6   4  16 141.620 34.6716  -2 
   6   4  11 141.620 34.6716   1 
   7   5   5 16.1497 11.5650  -2 
  -7   5  11 16.1497 11.5650   1 
   6   5   6 57.4025 13.8553  -2 
  -6   5  11 57.4025 13.8553   1 
   5   5   7 -11.468 16.3349  -2 
  -5   5  11 -11.468 16.3349   1 
   4   5   8 -23.879 17.5308  -2 
  -4   5  11 -23.879 17.5308   1 
   3   5   8 39.8416 24.3349  -2 
  -3   5  11 39.8416 24.3349   1 
   2   5   9 3.08627 9.12160  -2 
  -2   5  11 3.08627 9.12160   1 
   1   5  10 70.9744 7.32311  -2 
  -1   5  11 70.9744 7.32311   1 
   0   5  11 7.28987 4.56666  -2 
   0   5  11 7.28987 4.56666   1 
  -1   5  12 320.849 12.7303  -2 
   1   5  11 320.849 12.7303   1 
  -2   5  13 187.788 10.9489  -2 
   2   5  11 187.788 10.9489   1 
   3   5  11 8.63943 8.91190   1 
  -4   5  14 126.962 24.3805  -2 
   4   5  11 126.962 24.3805   1 
   6   6   6 29.3545 16.3865  -2 
  -6   6  11 29.3545 16.3865   1 
   5   6   7 39.1527 15.5833  -2 
  -5   6  11 39.1527 15.5833   1 
   4   6   8 -21.616 25.0008  -2 
  -4   6  11 -21.616 25.0008   1 
   3   6   8 88.3162 19.9908  -2 
  -3   6  11 88.3162 19.9908   1 
   2   6   9 11.8516 10.0593  -2 
  -2   6  11 11.8516 10.0593   1 
   1   6  10 19.2314 10.4999  -2 
  -1   6  11 19.2314 10.4999   1 
   0   6  11 87.9446 7.22507  -2 
   0   6  11 87.9446 7.22507   1 
  -1   6  12 -5.6908 12.6562  -2 
   1   6  11 -5.6908 12.6562   1 
  -2   6  13 12.6842 17.1310  -2 
   2   6  11 12.6842 17.1310   1 
  -3   6  14 14.4386 38.5887  -2 
   3   6  11 14.4386 38.5887   1 
   5   7   7 3.73809 38.4322  -2 
  -5   7  11 3.73809 38.4322   1 
   4   7   8 21.0379 30.0920  -2 
  -4   7  11 21.0379 30.0920   1 
   3   7   8 -21.804 23.0128  -2 
  -3   7  11 -21.804 23.0128   1 
   2   7   9 -4.5258 15.2845  -2 
  -2   7  11 -4.5258 15.2845   1 
   1   7  10 49.2161 13.3667  -2 
  -1   7  11 49.2161 13.3667   1 
   0   7  11 2.97634 7.62234  -2 
   0   7  11 2.97634 7.62234   1 
  -1   7  12 179.902 18.3368  -2 
   1   7  11 179.902 18.3368   1 
  -2   7  13 179.811 45.4759  -2 
   2   7  11 179.811 45.4759   1 
  -3   7  14 -2.2760 54.3492  -2 
   3   7  11 -2.2760 54.3492   1 
   2   8   9 -13.685 29.0311  -2 
  -2   8  11 -13.685 29.0311   1 
   1   8  10 -14.232 21.1961  -2 
  -1   8  11 -14.232 21.1961   1 
   0   8  11 45.8718 19.5042  -2 
   0   8  11 45.8718 19.5042   1 
  -1   8  12 -1.7930 27.3190  -2 
   1   8  11 -1.7930 27.3190   1 
   9   0   4 11.5855 31.4163  -2 
  -9   0  12 11.5855 31.4163   1 
   8   0   5 0.96340 17.7143  -2 
  -8   0  12 0.96340 17.7143   1 
   7   0   6 -12.597 12.5727  -2 
  -7   0  12 -12.597 12.5727   1 
   6   0   7 10.7896 7.00729  -2 
  -6   0  12 10.7896 7.00729   1 
   5   0   8 22.3412 6.44880  -2 
  -5   0  12 22.3412 6.44880   1 
   4   0   9 89.6843 10.3668  -2 
  -4   0  12 89.6843 10.3668   1 
   3   0   9 389.903 19.7778  -2 
  -3   0  12 389.903 19.7778   1 
   2   0  10 389.050 12.2755  -2 
  -2   0  12 389.050 12.2755   1 
   1   0  11 9.43389 7.26875  -2 
  -1   0  12 9.43389 7.26875   1 
   0   0  12 37.1555 4.66230  -2 
   0   0  12 37.1555 4.66230   1 
  -1   0  13 318.787 12.2588  -2 
   1   0  12 318.787 12.2588   1 
  -2   0  14 404.173 15.7293  -2 
   2   0  12 404.173 15.7293   1 
  -3   0  15 33.9545 27.7608  -2 
   3   0  12 33.9545 27.7608   1 
  -4   0  15 301.526 23.3091  -2 
   4   0  12 301.526 23.3091   1 
  -5   0  16 -9.0920 34.0843  -2 
   5   0  12 -9.0920 34.0843   1 
   9   1   4 49.2969 15.3764  -2 
  -9   1  12 49.2969 15.3764   1 
   8   1   5 6.20659 18.4067  -2 
  -8   1  12 6.20659 18.4067   1 
   7   1   6 -6.4063 7.48267  -2 
  -7   1  12 -6.4063 7.48267   1 
   6   1   7 30.3010 5.79311  -2 
  -6   1  12 30.3010 5.79311   1 
   5   1   8 7.55217 4.64863  -2 
  -5   1  12 7.55217 4.64863   1 
   4   1   9 16.2091 5.44846  -2 
  -4   1  12 16.2091 5.44846   1 
   3   1   9 148.311 10.6958  -2 
  -3   1  12 148.311 10.6958   1 
   2   1  10 6.34275 4.26881  -2 
  -2   1  12 6.34275 4.26881   1 
   1   1  11 767.616 15.6564  -2 
  -1   1  12 767.616 15.6564   1 
   0   1  12 149.223 5.33184  -2 
   0   1  12 149.223 5.33184   1 
  -1   1  13 14.3233 4.79021  -2 
   1   1  12 14.3233 4.79021   1 
  -2   1  14 198.427 11.6258  -2 
   2   1  12 198.427 11.6258   1 
  -3   1  15 269.198 26.0802  -2 
   3   1  12 269.198 26.0802   1 
  -4   1  15 26.8157 17.6310  -2 
   4   1  12 26.8157 17.6310   1 
  -5   1  16 28.2196 18.9516  -2 
   5   1  12 28.2196 18.9516   1 
  -6   1  17 37.1127 22.3236  -2 
   6   1  12 37.1127 22.3236   1 
   9   2   4 4.29965 16.7005  -2 
  -9   2  12 4.29965 16.7005   1 
   8   2   5 14.9572 10.2149  -2 
  -8   2  12 14.9572 10.2149   1 
   7   2   6 4.86491 4.70274  -2 
  -7   2  12 4.86491 4.70274   1 
   6   2   7 26.5583 5.91121  -2 
  -6   2  12 26.5583 5.91121   1 
   5   2   8 12.4800 8.15641  -2 
  -5   2  12 12.4800 8.15641   1 
   4   2   9 5.46846 7.93071  -2 
  -4   2  12 5.46846 7.93071   1 
   3   2   9 51.2977 11.9349  -2 
  -3   2  12 51.2977 11.9349   1 
   2   2  10 300.367 10.3810  -2 
  -2   2  12 300.367 10.3810   1 
   1   2  11 120.786 6.32047  -2 
  -1   2  12 120.786 6.32047   1 
   0   2  12 55.6675 3.74548  -2 
   0   2  12 55.6675 3.74548   1 
  -1   2  13 518.863 17.2747  -2 
   1   2  12 518.863 17.2747   1 
  -2   2  14 239.527 12.1695  -2 
   2   2  12 239.527 12.1695   1 
  -3   2  15 64.5824 30.3733  -2 
   3   2  12 64.5824 30.3733   1 
  -4   2  15 182.896 19.7904  -2 
   4   2  12 182.896 19.7904   1 
  -5   2  16 46.1903 17.0575  -2 
   5   2  12 46.1903 17.0575   1 
  -6   2  17 60.8963 32.3549  -2 
   6   2  12 60.8963 32.3549   1 
   8   3   5 45.1098 16.1706  -2 
  -8   3  12 45.1098 16.1706   1 
   7   3   6 42.5727 14.4171  -2 
  -7   3  12 42.5727 14.4171   1 
   6   3   7 70.5099 10.7017  -2 
  -6   3  12 70.5099 10.7017   1 
   5   3   8 -3.2998 9.00898  -2 
  -5   3  12 -3.2998 9.00898   1 
   4   3   9 -3.8537 10.5641  -2 
  -4   3  12 -3.8537 10.5641   1 
   3   3   9 193.960 16.4178  -2 
  -3   3  12 193.960 16.4178   1 
   2   3  10 47.5108 7.19672  -2 
  -2   3  12 47.5108 7.19672   1 
   1   3  11 550.500 15.8734  -2 
  -1   3  12 550.500 15.8734   1 
   0   3  12 65.6255 5.36731  -2 
   0   3  12 65.6255 5.36731   1 
  -1   3  13 -0.5373 5.21041  -2 
   1   3  12 -0.5373 5.21041   1 
  -2   3  14 62.0509 8.66648  -2 
   2   3  12 62.0509 8.66648   1 
  -3   3  15 298.525 14.8984  -2 
   3   3  12 298.525 14.8984   1 
  -4   3  15 35.1832 13.4157  -2 
   4   3  12 35.1832 13.4157   1 
  -5   3  16 117.706 23.6322  -2 
   5   3  12 117.706 23.6322   1 
   8   4   5 -1.6230 37.3163  -2 
  -8   4  12 -1.6230 37.3163   1 
   7   4   6 28.2826 10.9206  -2 
  -7   4  12 28.2826 10.9206   1 
   6   4   7 67.8222 14.6355  -2 
  -6   4  12 67.8222 14.6355   1 
   5   4   8 15.8124 13.4045  -2 
  -5   4  12 15.8124 13.4045   1 
   4   4   9 47.5309 12.2660  -2 
  -4   4  12 47.5309 12.2660   1 
   3   4   9 65.6837 12.3002  -2 
  -3   4  12 65.6837 12.3002   1 
   3   4  10 45.6553 23.4196  -2 
  -3   4  12 45.6553 23.4196   1 
   2   4  10 148.021 9.27039  -2 
  -2   4  12 148.021 9.27039   1 
   1   4  11 93.2981 8.07681  -2 
  -1   4  12 93.2981 8.07681   1 
   0   4  12 38.5744 4.89228  -2 
   0   4  12 38.5744 4.89228   1 
  -1   4  13 342.443 17.5217  -2 
   1   4  12 342.443 17.5217   1 
  -2   4  14 135.264 12.8590  -2 
   2   4  12 135.264 12.8590   1 
  -3   4  15 61.8760 36.7790  -2 
   3   4  12 61.8760 36.7790   1 
  -4   4  15 105.968 20.9719  -2 
   4   4  12 105.968 20.9719   1 
   7   5   6 -0.5265 23.5318  -2 
  -7   5  12 -0.5265 23.5318   1 
   6   5   7 13.8131 14.6794  -2 
  -6   5  12 13.8131 14.6794   1 
   5   5   8 4.01952 14.8639  -2 
  -5   5  12 4.01952 14.8639   1 
   4   5   9 22.2841 24.5493  -2 
  -4   5  12 22.2841 24.5493   1 
   3   5   9 97.4317 27.9960  -2 
  -3   5  12 97.4317 27.9960   1 
   2   5  10 12.0595 9.53876  -2 
  -2   5  12 12.0595 9.53876   1 
   1   5  11 294.435 17.8284  -2 
  -1   5  12 294.435 17.8284   1 
   0   5  12 38.9356 5.59313  -2 
   0   5  12 38.9356 5.59313   1 
  -1   5  13 -4.4860 12.7794  -2 
   1   5  12 -4.4860 12.7794   1 
  -2   5  14 88.2276 20.6976  -2 
   2   5  12 88.2276 20.6976   1 
   6   6   7 -43.879 38.8703  -2 
  -6   6  12 -43.879 38.8703   1 
   5   6   8 29.2488 16.7759  -2 
  -5   6  12 29.2488 16.7759   1 
   4   6   9 20.2248 28.3702  -2 
  -4   6  12 20.2248 28.3702   1 
   3   6   9 112.286 35.4301  -2 
  -3   6  12 112.286 35.4301   1 
   2   6  10 65.9787 15.7190  -2 
  -2   6  12 65.9787 15.7190   1 
   1   6  11 20.5447 12.2233  -2 
  -1   6  12 20.5447 12.2233   1 
   0   6  12 6.69058 6.55805  -2 
   0   6  12 6.69058 6.55805   1 
  -1   6  13 81.9308 15.2010  -2 
   1   6  12 81.9308 15.2010   1 
  -2   6  14 193.440 27.3320  -2 
   2   6  12 193.440 27.3320   1 
   3   7   9 90.5055 25.7428  -2 
  -3   7  12 90.5055 25.7428   1 
   2   7  10 -1.8413 15.9670  -2 
  -2   7  12 -1.8413 15.9670   1 
   1   7  11 184.043 16.7752  -2 
  -1   7  12 184.043 16.7752   1 
   0   7  12 72.9908 10.5079  -2 
   0   7  12 72.9908 10.5079   1 
  -1   7  13 -0.4925 20.1150  -2 
   1   7  12 -0.4925 20.1150   1 
  -2   7  14 72.5899 48.4200  -2 
   2   7  12 72.5899 48.4200   1 
   0   8  12 26.7381 17.5539  -2 
   0   8  12 26.7381 17.5539   1 
   8   0   6 36.6384 20.6322  -2 
  -8   0  13 36.6384 20.6322   1 
   7   0   7 29.6469 14.3869  -2 
  -7   0  13 29.6469 14.3869   1 
   6   0   8 28.8958 8.22561  -2 
  -6   0  13 28.8958 8.22561   1 
   5   0   9 -1.7865 9.92857  -2 
  -5   0  13 -1.7865 9.92857   1 
   4   0  10 200.832 10.6631  -2 
  -4   0  13 200.832 10.6631   1 
   3   0  10 12.2514 11.9223  -2 
  -3   0  13 12.2514 11.9223   1 
   2   0  11 53.3147 9.36419  -2 
  -2   0  13 53.3147 9.36419   1 
   1   0  12 352.625 11.1022  -2 
  -1   0  13 352.625 11.1022   1 
   0   0  13 437.641 14.8527  -2 
   0   0  13 437.641 14.8527   1 
  -1   0  14 5.93521 8.92179  -2 
   1   0  13 5.93521 8.92179   1 
  -2   0  15 248.707 18.8565  -2 
   2   0  13 248.707 18.8565   1 
  -4   0  16 130.427 39.2781  -2 
   4   0  13 130.427 39.2781   1 
  -5   0  17 26.0460 42.5136  -2 
   5   0  13 26.0460 42.5136   1 
   9   1   5 30.6040 18.3456  -2 
  -9   1  13 30.6040 18.3456   1 
   8   1   6 42.5294 19.8601  -2 
  -8   1  13 42.5294 19.8601   1 
   7   1   7 15.2016 8.07175  -2 
  -7   1  13 15.2016 8.07175   1 
   6   1   8 36.1643 7.34789  -2 
  -6   1  13 36.1643 7.34789   1 
   5   1   9 276.597 9.95287  -2 
  -5   1  13 276.597 9.95287   1 
   4   1  10 130.615 7.63811  -2 
  -4   1  13 130.615 7.63811   1 
   3   1  10 534.977 18.8541  -2 
  -3   1  13 534.977 18.8541   1 
   2   1  11 451.441 11.4257  -2 
  -2   1  13 451.441 11.4257   1 
   1   1  12 15.6557 4.33879  -2 
  -1   1  13 15.6557 4.33879   1 
   0   1  13 173.950 5.66541  -2 
   0   1  13 173.950 5.66541   1 
  -1   1  14 189.561 8.40034  -2 
   1   1  13 189.561 8.40034   1 
  -2   1  15 23.0464 10.9703  -2 
   2   1  13 23.0464 10.9703   1 
  -4   1  16 16.1527 21.2787  -2 
   4   1  13 16.1527 21.2787   1 
  -5   1  17 -18.170 19.5541  -2 
   5   1  13 -18.170 19.5541   1 
   8   2   6 10.8377 21.1637  -2 
  -8   2  13 10.8377 21.1637   1 
   7   2   7 19.8490 5.72434  -2 
  -7   2  13 19.8490 5.72434   1 
   6   2   8 16.0304 8.06680  -2 
  -6   2  13 16.0304 8.06680   1 
   5   2   9 21.5315 6.87702  -2 
  -5   2  13 21.5315 6.87702   1 
   4   2  10 164.209 12.7131  -2 
  -4   2  13 164.209 12.7131   1 
   3   2  10 -4.9509 13.1764  -2 
  -3   2  13 -4.9509 13.1764   1 
   2   2  11 131.023 8.38467  -2 
  -2   2  13 131.023 8.38467   1 
   1   2  12 502.408 12.8588  -2 
  -1   2  13 502.408 12.8588   1 
   0   2  13 389.556 11.9272  -2 
   0   2  13 389.556 11.9272   1 
  -1   2  14 11.9437 7.50125  -2 
   1   2  13 11.9437 7.50125   1 
  -2   2  15 97.7864 11.3538  -2 
   2   2  13 97.7864 11.3538   1 
  -3   2  16 150.611 38.5101  -2 
   3   2  13 150.611 38.5101   1 
  -4   2  16 64.9531 24.2118  -2 
   4   2  13 64.9531 24.2118   1 
  -5   2  17 -37.979 24.2363  -2 
   5   2  13 -37.979 24.2363   1 
   8   3   6 3.81334 34.8879  -2 
  -8   3  13 3.81334 34.8879   1 
   7   3   7 28.4689 10.0215  -2 
  -7   3  13 28.4689 10.0215   1 
   6   3   8 89.0094 10.7588  -2 
  -6   3  13 89.0094 10.7588   1 
   5   3   9 149.568 16.9246  -2 
  -5   3  13 149.568 16.9246   1 
   4   3  10 39.8958 12.9857  -2 
  -4   3  13 39.8958 12.9857   1 
   3   3  10 289.339 34.0335  -2 
  -3   3  13 289.339 34.0335   1 
   2   3  11 142.226 8.43371  -2 
  -2   3  13 142.226 8.43371   1 
   1   3  12 10.1334 8.57761  -2 
  -1   3  13 10.1334 8.57761   1 
   0   3  13 13.7690 3.92987  -2 
   0   3  13 13.7690 3.92987   1 
  -1   3  14 208.658 9.90947  -2 
   1   3  13 208.658 9.90947   1 
  -2   3  15 77.0592 15.8925  -2 
   2   3  13 77.0592 15.8925   1 
   3   3  13 44.2612 12.9266   1 
  -4   3  16 25.1181 21.4043  -2 
   4   3  13 25.1181 21.4043   1 
   7   4   7 71.7882 25.2109  -2 
  -7   4  13 71.7882 25.2109   1 
   6   4   8 37.9159 13.7380  -2 
  -6   4  13 37.9159 13.7380   1 
   5   4   9 12.6530 18.1446  -2 
  -5   4  13 12.6530 18.1446   1 
   4   4   9 208.746 34.2474  -2 
  -4   4  13 208.746 34.2474   1 
   4   4  10 110.897 14.9742  -2 
  -4   4  13 110.897 14.9742   1 
   3   4  10 44.4563 16.9118  -2 
  -3   4  13 44.4563 16.9118   1 
   2   4  11 82.4720 12.0721  -2 
  -2   4  13 82.4720 12.0721   1 
   1   4  12 270.184 14.7625  -2 
  -1   4  13 270.184 14.7625   1 
   0   4  13 145.772 16.0710  -2 
   0   4  13 145.772 16.0710   1 
  -1   4  14 3.90308 12.7251  -2 
   1   4  13 3.90308 12.7251   1 
  -2   4  15 37.2371 20.5029  -2 
   2   4  13 37.2371 20.5029   1 
   6   5   8 27.6525 22.8141  -2 
  -6   5  13 27.6525 22.8141   1 
   5   5   9 122.207 22.3285  -2 
  -5   5  13 122.207 22.3285   1 
   4   5  10 60.9737 17.2473  -2 
  -4   5  13 60.9737 17.2473   1 
   3   5  10 248.447 35.0657  -2 
  -3   5  13 248.447 35.0657   1 
   2   5  11 189.802 13.6191  -2 
  -2   5  13 189.802 13.6191   1 
   1   5  12 40.2696 14.5015  -2 
  -1   5  13 40.2696 14.5015   1 
   0   5  13 104.775 10.7201  -2 
   0   5  13 104.775 10.7201   1 
  -1   5  14 94.3516 15.7318  -2 
   1   5  13 94.3516 15.7318   1 
  -2   5  15 36.1758 23.7349  -2 
   2   5  13 36.1758 23.7349   1 
   5   6   9 104.712 37.9136  -2 
  -5   6  13 104.712 37.9136   1 
   4   6  10 61.8047 23.9620  -2 
  -4   6  13 61.8047 23.9620   1 
   3   6  10 63.1894 37.4047  -2 
  -3   6  13 63.1894 37.4047   1 
   2   6  11 45.3732 19.5929  -2 
  -2   6  13 45.3732 19.5929   1 
   1   6  12 127.816 21.3414  -2 
  -1   6  13 127.816 21.3414   1 
   0   6  13 242.283 13.3423  -2 
   0   6  13 242.283 13.3423   1 
  -1   6  14 18.8186 30.1004  -2 
   1   6  13 18.8186 30.1004   1 
   2   7  11 88.5627 29.1897  -2 
  -2   7  13 88.5627 29.1897   1 
   1   7  12 -27.342 25.8753  -2 
  -1   7  13 -27.342 25.8753   1 
   0   7  13 19.0128 12.7754  -2 
   0   7  13 19.0128 12.7754   1 
   7   0   8 -5.8698 14.1132  -2 
  -7   0  14 -5.8698 14.1132   1 
   6   0   9 81.4808 9.08013  -2 
  -6   0  14 81.4808 9.08013   1 
   5   0  10 106.479 10.1773  -2 
  -5   0  14 106.479 10.1773   1 
   4   0  11 76.7657 9.73212  -2 
  -4   0  14 76.7657 9.73212   1 
   3   0  11 143.460 15.1791  -2 
  -3   0  14 143.460 15.1791   1 
   2   0  12 467.445 15.4819  -2 
  -2   0  14 467.445 15.4819   1 
   1   0  13 10.9769 8.53159  -2 
  -1   0  14 10.9769 8.53159   1 
   0   0  14 742.986 26.0889  -2 
   0   0  14 742.986 26.0889   1 
  -1   0  15 125.556 14.8642  -2 
   1   0  14 125.556 14.8642   1 
  -2   0  16 4.41618 16.5828  -2 
   2   0  14 4.41618 16.5828   1 
   7   1   8 164.099 13.9764  -2 
  -7   1  14 164.099 13.9764   1 
   6   1   9 13.1740 7.11395  -2 
  -6   1  14 13.1740 7.11395   1 
   5   1  10 130.584 11.4082  -2 
  -5   1  14 130.584 11.4082   1 
   4   1  11 278.579 10.5903  -2 
  -4   1  14 278.579 10.5903   1 
   3   1  11 -1.3023 10.6443  -2 
  -3   1  14 -1.3023 10.6443   1 
   2   1  12 183.761 7.23195  -2 
  -2   1  14 183.761 7.23195   1 
   1   1  13 188.643 8.64697  -2 
  -1   1  14 188.643 8.64697   1 
   0   1  14 60.2360 4.51889  -2 
   0   1  14 60.2360 4.51889   1 
  -1   1  15 29.1490 9.45862  -2 
   1   1  14 29.1490 9.45862   1 
  -2   1  16 11.4185 17.9348  -2 
   2   1  14 11.4185 17.9348   1 
  -4   1  17 14.1168 25.6770  -2 
   4   1  14 14.1168 25.6770   1 
   8   2   7 8.68884 34.4269  -2 
  -8   2  14 8.68884 34.4269   1 
   7   2   8 37.5340 13.2449  -2 
  -7   2  14 37.5340 13.2449   1 
   6   2   9 96.0855 11.2062  -2 
  -6   2  14 96.0855 11.2062   1 
   5   2  10 149.794 11.6328  -2 
  -5   2  14 149.794 11.6328   1 
   4   2  11 41.9389 11.1476  -2 
  -4   2  14 41.9389 11.1476   1 
   3   2  11 278.767 32.3896  -2 
  -3   2  14 278.767 32.3896   1 
   2   2  12 218.719 11.8546  -2 
  -2   2  14 218.719 11.8546   1 
   1   2  13 17.2961 9.09176  -2 
  -1   2  14 17.2961 9.09176   1 
   0   2  14 260.210 9.49947  -2 
   0   2  14 260.210 9.49947   1 
  -1   2  15 48.2135 10.6669  -2 
   1   2  14 48.2135 10.6669   1 
  -2   2  16 45.9193 20.6934  -2 
   2   2  14 45.9193 20.6934   1 
  -3   2  17 32.7388 37.6823  -2 
   3   2  14 32.7388 37.6823   1 
  -4   2  17 19.6484 40.3410  -2 
   4   2  14 19.6484 40.3410   1 
   8   3   7 -9.2646 38.6454  -2 
  -8   3  14 -9.2646 38.6454   1 
   7   3   8 201.327 28.7517  -2 
  -7   3  14 201.327 28.7517   1 
   6   3   9 20.7887 11.1104  -2 
  -6   3  14 20.7887 11.1104   1 
   5   3  10 83.2989 13.3395  -2 
  -5   3  14 83.2989 13.3395   1 
   4   3  11 107.648 20.1452  -2 
  -4   3  14 107.648 20.1452   1 
   3   3  11 27.6800 30.7793  -2 
  -3   3  14 27.6800 30.7793   1 
   2   3  12 80.0259 10.7842  -2 
  -2   3  14 80.0259 10.7842   1 
   1   3  13 224.513 11.1402  -2 
  -1   3  14 224.513 11.1402   1 
   0   3  14 37.4535 6.39808  -2 
   0   3  14 37.4535 6.39808   1 
  -1   3  15 28.7851 11.8421  -2 
   1   3  14 28.7851 11.8421   1 
  -2   3  16 32.7500 21.8143  -2 
   2   3  14 32.7500 21.8143   1 
   7   4   8 128.451 33.3252  -2 
  -7   4  14 128.451 33.3252   1 
   6   4   9 90.5689 16.6114  -2 
  -6   4  14 90.5689 16.6114   1 
   5   4  10 159.767 22.9578  -2 
  -5   4  14 159.767 22.9578   1 
   4   4  11 10.9672 18.8435  -2 
  -4   4  14 10.9672 18.8435   1 
   3   4  11 193.002 35.2760  -2 
  -3   4  14 193.002 35.2760   1 
   2   4  12 88.3699 19.2790  -2 
  -2   4  14 88.3699 19.2790   1 
   1   4  13 26.8486 14.3217  -2 
  -1   4  14 26.8486 14.3217   1 
   0   4  14 224.689 18.2214  -2 
   0   4  14 224.689 18.2214   1 
  -1   4  15 3.03597 26.0093  -2 
   1   4  14 3.03597 26.0093   1 
  -2   4  16 26.1616 24.2192  -2 
   2   4  14 26.1616 24.2192   1 
   5   5  10 64.5576 24.0411  -2 
  -5   5  14 64.5576 24.0411   1 
   4   5  11 110.716 26.4734  -2 
  -4   5  14 110.716 26.4734   1 
   3   5  11 91.3994 35.8445  -2 
  -3   5  14 91.3994 35.8445   1 
   2   5  12 93.0850 18.6967  -2 
  -2   5  14 93.0850 18.6967   1 
   1   5  13 111.060 17.6970  -2 
  -1   5  14 111.060 17.6970   1 
   0   5  14 22.9704 10.7902  -2 
   0   5  14 22.9704 10.7902   1 
  -1   5  15 -31.273 30.1586  -2 
   1   5  14 -31.273 30.1586   1 
  -2   5  16 -14.291 38.9683  -2 
   2   5  14 -14.291 38.9683   1 
   3   6  11 84.8667 43.0903  -2 
  -3   6  14 84.8667 43.0903   1 
   2   6  12 226.885 32.8634  -2 
  -2   6  14 226.885 32.8634   1 
   1   6  13 44.1833 23.9756  -2 
  -1   6  14 44.1833 23.9756   1 
   0   6  14 288.016 38.8695  -2 
   0   6  14 288.016 38.8695   1 
  -1   6  15 -5.8868 36.5146  -2 
   1   6  14 -5.8868 36.5146   1 
   2   7  12 32.8499 35.8680  -2 
  -2   7  14 32.8499 35.8680   1 
   1   7  13 24.6741 47.4652  -2 
  -1   7  14 24.6741 47.4652   1 
   6   0  10 77.9383 13.9872  -2 
  -6   0  15 77.9383 13.9872   1 
   5   0  11 64.5101 11.9884  -2 
  -5   0  15 64.5101 11.9884   1 
   4   0  12 283.116 14.2185  -2 
  -4   0  15 283.116 14.2185   1 
   3   0  12 57.3533 26.9155  -2 
  -3   0  15 57.3533 26.9155   1 
   2   0  13 255.016 12.5193  -2 
  -2   0  15 255.016 12.5193   1 
   1   0  14 64.5106 9.42935  -2 
  -1   0  15 64.5106 9.42935   1 
   0   0  15 14.1820 6.32541  -2 
   0   0  15 14.1820 6.32541   1 
  -1   0  16 6.89543 16.1415  -2 
   1   0  15 6.89543 16.1415   1 
  -2   0  17 84.3260 30.4449  -2 
   2   0  15 84.3260 30.4449   1 
   7   1   9 95.7264 23.6207  -2 
  -7   1  15 95.7264 23.6207   1 
   6   1  10 90.3048 10.2997  -2 
  -6   1  15 90.3048 10.2997   1 
   5   1  11 1.28061 13.8334  -2 
  -5   1  15 1.28061 13.8334   1 
   4   1  12 21.2594 12.0242  -2 
  -4   1  15 21.2594 12.0242   1 
  -3   1  15 101.881 6.20575   1 
   2   1  13 37.9787 7.92659  -2 
  -2   1  15 37.9787 7.92659   1 
   1   1  14 27.2945 7.85825  -2 
  -1   1  15 27.2945 7.85825   1 
   0   1  15 7.27660 4.05467  -2 
   0   1  15 7.27660 4.05467   1 
  -1   1  16 90.7302 12.8625  -2 
   1   1  15 90.7302 12.8625   1 
  -2   1  17 2.64625 22.3110  -2 
   2   1  15 2.64625 22.3110   1 
  -4   1  18 -40.376 39.3993  -2 
   4   1  15 -40.376 39.3993   1 
   8   2   8 2.03234 39.9123  -2 
  -8   2  15 2.03234 39.9123   1 
   7   2   9 142.194 28.3356  -2 
  -7   2  15 142.194 28.3356   1 
   6   2  10 37.9210 12.0122  -2 
  -6   2  15 37.9210 12.0122   1 
   5   2  11 134.397 14.7908  -2 
  -5   2  15 134.397 14.7908   1 
   4   2  12 161.123 13.9485  -2 
  -4   2  15 161.123 13.9485   1 
   3   2  12 19.9530 21.1971  -2 
  -3   2  15 19.9530 21.1971   1 
   2   2  13 91.5054 11.4969  -2 
  -2   2  15 91.5054 11.4969   1 
   1   2  14 53.2557 8.82410  -2 
  -1   2  15 53.2557 8.82410   1 
   0   2  15 4.74037 4.95061  -2 
   0   2  15 4.74037 4.95061   1 
  -1   2  16 13.8114 12.5944  -2 
   1   2  15 13.8114 12.5944   1 
  -2   2  17 30.1989 25.1964  -2 
   2   2  15 30.1989 25.1964   1 
   7   3   9 89.8576 29.6382  -2 
  -7   3  15 89.8576 29.6382   1 
   6   3  10 28.0376 19.1209  -2 
  -6   3  15 28.0376 19.1209   1 
   5   3  11 95.8962 19.0323  -2 
  -5   3  15 95.8962 19.0323   1 
   4   3  12 64.1758 19.0571  -2 
  -4   3  15 64.1758 19.0571   1 
   3   3  12 353.346 23.2814  -2 
  -3   3  15 353.346 23.2814   1 
   2   3  13 35.0587 14.5031  -2 
  -2   3  15 35.0587 14.5031   1 
   1   3  14 30.4809 13.3775  -2 
  -1   3  15 30.4809 13.3775   1 
   0   3  15 10.3745 7.86404  -2 
   0   3  15 10.3745 7.86404   1 
  -1   3  16 8.22692 19.2903  -2 
   1   3  15 8.22692 19.2903   1 
  -2   3  17 62.3785 38.4034  -2 
   2   3  15 62.3785 38.4034   1 
   6   4  10 11.6624 21.2655  -2 
  -6   4  15 11.6624 21.2655   1 
   5   4  11 140.967 21.1285  -2 
  -5   4  15 140.967 21.1285   1 
   4   4  12 82.1305 26.6486  -2 
  -4   4  15 82.1305 26.6486   1 
   3   4  12 25.7340 36.8075  -2 
  -3   4  15 25.7340 36.8075   1 
   2   4  13 84.6284 16.8362  -2 
  -2   4  15 84.6284 16.8362   1 
   1   4  14 23.4816 16.5147  -2 
  -1   4  15 23.4816 16.5147   1 
   0   4  15 12.4010 11.0848  -2 
   0   4  15 12.4010 11.0848   1 
   6   5  10 1.54401 44.0700  -2 
  -6   5  15 1.54401 44.0700   1 
   4   5  12 -16.012 31.0551  -2 
  -4   5  15 -16.012 31.0551   1 
   3   5  12 137.868 42.7071  -2 
  -3   5  15 137.868 42.7071   1 
   2   5  13 0.18833 21.5024  -2 
  -2   5  15 0.18833 21.5024   1 
   1   5  14 10.1950 23.4647  -2 
  -1   5  15 10.1950 23.4647   1 
   0   5  15 16.6896 12.4512  -2 
   0   5  15 16.6896 12.4512   1 
  -4   6  15 12.3990 25.8475   1 
   2   6  13 84.0649 30.1162  -2 
  -2   6  15 84.0649 30.1162   1 
   1   6  14 17.2441 45.6036  -2 
  -1   6  15 17.2441 45.6036   1 
   5   0  12 56.2489 16.1846  -2 
  -5   0  16 56.2489 16.1846   1 
   4   0  13 103.719 19.4847  -2 
  -4   0  16 103.719 19.4847   1 
   3   0  13 74.3110 32.4341  -2 
  -3   0  16 74.3110 32.4341   1 
   2   0  14 7.48363 12.3405  -2 
  -2   0  16 7.48363 12.3405   1 
   1   0  15 10.5167 14.6495  -2 
  -1   0  16 10.5167 14.6495   1 
   0   0  16 54.3605 8.55649  -2 
   0   0  16 54.3605 8.55649   1 
  -1   0  17 58.9858 20.8532  -2 
   1   0  16 58.9858 20.8532   1 
  -2   0  18 101.054 38.2980  -2 
   2   0  16 101.054 38.2980   1 
   6   1  11 45.7910 22.0547  -2 
  -6   1  16 45.7910 22.0547   1 
   5   1  12 29.2226 13.9193  -2 
  -5   1  16 29.2226 13.9193   1 
   4   1  13 40.2145 13.5675  -2 
  -4   1  16 40.2145 13.5675   1 
   3   1  13 7.13431 31.8503  -2 
  -3   1  16 7.13431 31.8503   1 
   2   1  14 20.5771 10.4146  -2 
  -2   1  16 20.5771 10.4146   1 
   1   1  15 68.9458 9.73337  -2 
  -1   1  16 68.9458 9.73337   1 
   0   1  16 6.61397 6.62568  -2 
   0   1  16 6.61397 6.62568   1 
  -1   1  17 28.6072 17.9895  -2 
   1   1  16 28.6072 17.9895   1 
  -2   1  18 141.597 39.7064  -2 
   2   1  16 141.597 39.7064   1 
   7   2  10 80.3214 30.9971  -2 
  -7   2  16 80.3214 30.9971   1 
   6   2  11 163.514 27.9754  -2 
  -6   2  16 163.514 27.9754   1 
   5   2  12 28.6148 16.4177  -2 
  -5   2  16 28.6148 16.4177   1 
   4   2  13 32.8182 18.0040  -2 
  -4   2  16 32.8182 18.0040   1 
   3   2  13 74.5684 20.1746  -2 
  -3   2  16 74.5684 20.1746   1 
   2   2  14 6.64011 15.8371  -2 
  -2   2  16 6.64011 15.8371   1 
   1   2  15 48.9488 13.2465  -2 
  -1   2  16 48.9488 13.2465   1 
   0   2  16 25.3935 8.70202  -2 
   0   2  16 25.3935 8.70202   1 
  -1   2  17 17.9176 23.0635  -2 
   1   2  16 17.9176 23.0635   1 
  -2   2  18 43.6128 31.0924  -2 
   2   2  16 43.6128 31.0924   1 
   6   3  11 42.8797 28.8109  -2 
  -6   3  16 42.8797 28.8109   1 
   5   3  12 41.8687 25.1169  -2 
  -5   3  16 41.8687 25.1169   1 
   4   3  13 92.0557 23.5307  -2 
  -4   3  16 92.0557 23.5307   1 
   3   3  13 143.001 28.7863  -2 
  -3   3  16 143.001 28.7863   1 
   2   3  14 37.6561 17.3291  -2 
  -2   3  16 37.6561 17.3291   1 
   1   3  15 15.2453 15.6397  -2 
  -1   3  16 15.2453 15.6397   1 
   0   3  16 -0.9922 11.7782  -2 
   0   3  16 -0.9922 11.7782   1 
  -1   3  17 17.1119 24.1236  -2 
   1   3  16 17.1119 24.1236   1 
  -2   3  18 26.9862 46.8952  -2 
   2   3  16 26.9862 46.8952   1 
   5   4  12 -41.124 36.0342  -2 
  -5   4  16 -41.124 36.0342   1 
   4   4  13 42.3256 41.7918  -2 
  -4   4  16 42.3256 41.7918   1 
  -3   4  16 19.2210 16.7315   1 
   2   4  14 -3.7234 22.0599  -2 
  -2   4  16 -3.7234 22.0599   1 
   1   4  15 22.1855 33.0884  -2 
  -1   4  16 22.1855 33.0884   1 
   0   4  16 -2.0830 17.2015  -2 
   0   4  16 -2.0830 17.2015   1 
   2   5  14 5.52302 43.8976  -2 
  -2   5  16 5.52302 43.8976   1 
   1   5  15 16.4330 43.4219  -2 
  -1   5  16 16.4330 43.4219   1 
   3   0  14 60.2127 40.9862  -2 
  -3   0  17 60.2127 40.9862   1 
   2   0  15 70.8126 19.8994  -2 
  -2   0  17 70.8126 19.8994   1 
   1   0  16 20.8742 24.2413  -2 
  -1   0  17 20.8742 24.2413   1 
   0   0  17 25.8245 12.3778  -2 
   0   0  17 25.8245 12.3778   1 
   3   1  14 52.9146 34.1393  -2 
  -3   1  17 52.9146 34.1393   1 
   2   1  15 43.2139 17.6405  -2 
  -2   1  17 43.2139 17.6405   1 
   1   1  16 19.6152 19.2351  -2 
  -1   1  17 19.6152 19.2351   1 
   0   1  17 56.9973 13.6246  -2 
   0   1  17 56.9973 13.6246   1 
  -1   1  18 106.622 37.0179  -2 
   1   1  17 106.622 37.0179   1 
   5   2  13 113.764 34.6761  -2 
  -5   2  17 113.764 34.6761   1 
   4   2  14 -33.683 37.7110  -2 
  -4   2  17 -33.683 37.7110   1 
   3   2  14 3.98703 28.8264  -2 
  -3   2  17 3.98703 28.8264   1 
   2   2  15 22.5883 23.0743  -2 
  -2   2  17 22.5883 23.0743   1 
   1   2  16 84.2222 21.2563  -2 
  -1   2  17 84.2222 21.2563   1 
   0   2  17 9.02183 13.0106  -2 
   0   2  17 9.02183 13.0106   1 
  -1   2  18 -59.306 38.2387  -2 
   1   2  17 -59.306 38.2387   1 
   4   3  14 -15.412 45.1587  -2 
  -4   3  17 -15.412 45.1587   1 
   3   3  14 108.846 33.8548  -2 
  -3   3  17 108.846 33.8548   1 
   2   3  15 96.9656 26.2035  -2 
  -2   3  17 96.9656 26.2035   1 
   1   3  16 15.8463 23.6932  -2 
  -1   3  17 15.8463 23.6932   1 
   0   3  17 17.2341 14.3992  -2 
   0   3  17 17.2341 14.3992   1 
   1   3  17 36.4936 22.5007   1 
  -4   4  17 18.0200 21.0487   1 
  -3   4  17 15.7153 19.1719   1 
   2   4  15 14.4735 34.6004  -2 
  -2   4  17 14.4735 34.6004   1 
   1   4  16 28.5465 42.4305  -2 
  -1   4  17 28.5465 42.4305   1 
   2   0  16 -0.6857 47.1231  -2 
  -2   0  18 -0.6857 47.1231   1 
   2   1  16 124.619 49.9862  -2 
  -2   1  18 124.619 49.9862   1 
   3   2  15 -8.9406 45.9847  -2 
  -3   2  18 -8.9406 45.9847   1 
   2   2  16 30.9854 26.8509  -2 
  -2   2  18 30.9854 26.8509   1 
   1   2  17 41.6142 30.5185  -2 
  -1   2  18 41.6142 30.5185   1 
   3   3  15 17.8567 52.0889  -2 
  -3   3  18 17.8567 52.0889   1 
   2   3  16 160.626 36.7196  -2 
  -2   3  18 160.626 36.7196   1 
   0   0   0    0.00    0.00   0 
;
_shelx_hkl_checksum              39153
loop_
_space_group_symop_operation_xyz
'x, y, z'
'-x, y+1/2, -z'
'-x, -y, -z'
'x, -y-1/2, z'
loop_
_atom_site_label
_atom_site_type_symbol
_atom_site_fract_x
_atom_site_fract_y
_atom_site_fract_z
_atom_site_U_iso_or_equiv
_atom_site_adp_type
_atom_site_occupancy
_atom_site_site_symmetry_order
_atom_site_calc_flag
_atom_site_refinement_flags_posn
_atom_site_refinement_flags_adp
_atom_site_refinement_flags_occupancy
C1 C 0.6171(7) 0.2500 0.0682(5) 0.0251(16) Uani 1 2 d S T P
H1A H 0.4933 0.2500 0.0243 0.038 Uiso 1 2 d R U P
H1B H 0.6361 0.1451 0.1123 0.038 Uiso 1 1 d R U .
C2 C 0.9356(7) 0.2500 0.0678(6) 0.0243(15) Uani 1 2 d S T P
H2A H 1.0231 0.2500 0.0244 0.036 Uiso 1 2 d R U P
H2B H 0.9531 0.1455 0.1122 0.036 Uiso 1 1 d R U .
C3 C 0.7221(6) 0.0914(3) -0.06780(19) 0.0248(6) Uani 1 1 d . . .
H3A H 0.5981 0.0903 -0.1114 0.037 Uiso 1 1 calc R U .
H3B H 0.7426 -0.0140 -0.0241 0.037 Uiso 1 1 calc R U .
H3C H 0.8076 0.0934 -0.1124 0.037 Uiso 1 1 calc R U .
C4 C -0.1381(9) 0.2500 0.6451(5) 0.072(2) Uani 1 2 d S T P
H4A H -0.1663 0.2500 0.5688 0.108 Uiso 1 2 d R U P
H4C H -0.1899 0.1463 0.6706 0.108 Uiso 1 1 d R U .
C5 C 0.2010(9) 0.0515(8) 0.6425(4) 0.089(2) Uani 1 1 d . . .
H5A H 0.1502 -0.0545 0.6662 0.134 Uiso 1 1 calc R U .
H5B H 0.3332 0.0482 0.6660 0.134 Uiso 1 1 calc R U .
H5C H 0.1654 0.0570 0.5661 0.134 Uiso 1 1 calc R U .
C6 C 0.3697(10) 0.2500 0.3052(4) 0.0435(12) Uani 1 2 d S T P
C7 C 0.4140(15) 0.2500 0.4185(5) 0.087(3) Uani 1 2 d S T P
H7A H 0.5310 0.1923 0.4452 0.131 Uiso 0.5 1 calc R U P
H7B H 0.3202 0.1866 0.4428 0.131 Uiso 0.5 1 calc R U P
H7C H 0.4206 0.3711 0.4439 0.131 Uiso 0.5 1 calc R U P
N1 N 0.7493(7) 0.2500 -0.0002(2) 0.0183(6) Uani 1 2 d S T P
N2 N 0.3343(9) 0.2500 0.2174(4) 0.0491(11) Uani 1 2 d S T P
Si1 Si 0.1130(3) 0.2500 0.69812(9) 0.0335(3) Uani 1 2 d S T P
S1 S 0.1880(2) 0.2500 0.85802(7) 0.0240(2) Uani 1 2 d S T P
loop_
_atom_site_aniso_label
_atom_site_aniso_U_11
_atom_site_aniso_U_22
_atom_site_aniso_U_33
_atom_site_aniso_U_23
_atom_site_aniso_U_13
_atom_site_aniso_U_12
C1 0.017(3) 0.043(5) 0.019(3) 0.000 0.011(2) 0.000
C2 0.016(3) 0.020(4) 0.039(4) 0.000 0.010(2) 0.000
C3 0.0288(16) 0.0162(11) 0.0286(13) -0.0026(10) 0.005(2) 0.000(2)
C4 0.053(4) 0.115(7) 0.036(3) 0.000 -0.013(3) 0.000
C5 0.124(5) 0.096(5) 0.042(3) -0.022(3) 0.012(3) 0.040(4)
C6 0.034(3) 0.051(3) 0.043(3) 0.000 0.005(4) 0.000
C7 0.097(6) 0.116(6) 0.044(3) 0.000 0.008(5) 0.000
N1 0.0129(16) 0.0171(14) 0.0236(14) 0.000 0.002(2) 0.000
N2 0.036(2) 0.049(2) 0.053(3) 0.000 -0.008(4) 0.000
Si1 0.0358(8) 0.0444(7) 0.0192(5) 0.000 0.0046(8) 0.000
S1 0.0245(6) 0.0272(5) 0.0197(4) 0.000 0.0039(8) 0.000
loop_
_atom_type_symbol
_atom_type_description
_atom_type_scat_dispersion_real
_atom_type_scat_dispersion_imag
_atom_type_scat_source
C C 0.0033 0.0016 'International Tables Vol C Tables 4.2.6.8 and 6.1.1.4'
H H 0.0000 0.0000 'International Tables Vol C Tables 4.2.6.8 and 6.1.1.4'
N N 0.0061 0.0033 'International Tables Vol C Tables 4.2.6.8 and 6.1.1.4'
Si Si 0.0817 0.0704 'International Tables Vol C Tables 4.2.6.8 and 6.1.1.4'
S S 0.1246 0.1234 'International Tables Vol C Tables 4.2.6.8 and 6.1.1.4'
loop_
_geom_angle_atom_site_label_1
_geom_angle_atom_site_label_2
_geom_angle_atom_site_label_3
_geom_angle
_geom_angle_site_symmetry_1
_geom_angle_site_symmetry_3
N1 C1 H1A 109.5 . .
N1 C1 H1B 109.5 . .
H1A C1 H1B 109.5 . .
N1 C2 H2A 109.5 . .
N1 C2 H2B 109.5 . .
H2A C2 H2B 109.7 . .
N1 C3 H3A 109.5 . .
N1 C3 H3B 109.5 . .
H3A C3 H3B 109.5 . .
N1 C3 H3C 109.5 . .
H3A C3 H3C 109.5 . .
H3B C3 H3C 109.5 . .
Si1 C4 H4A 109.5 . .
Si1 C4 H4C 109.5 . .
H4A C4 H4C 110.3 . .
Si1 C5 H5A 109.5 . .
Si1 C5 H5B 109.5 . .
H5A C5 H5B 109.5 . .
Si1 C5 H5C 109.5 . .
H5A C5 H5C 109.5 . .
H5B C5 H5C 109.5 . .
N2 C6 C7 179.6(9) . .
C6 C7 H7A 109.5 . .
C6 C7 H7B 109.5 . .
H7A C7 H7B 109.5 . .
C6 C7 H7C 109.5 . .
H7A C7 H7C 109.5 . .
H7B C7 H7C 109.5 . .
C2 N1 C3 109.6(3) . 4_565
C2 N1 C3 109.6(3) . .
C3 N1 C3 108.7(3) 4_565 .
C2 N1 C1 108.5(3) . .
C3 N1 C1 110.1(3) 4_565 .
C3 N1 C1 110.1(3) . .
C4 Si1 C5 106.5(2) . .
C4 Si1 C5 106.5(2) . 4_565
C5 Si1 C5 107.5(5) . 4_565
C4 Si1 S1 112.9(2) . .
C5 Si1 S1 111.57(17) . .
C5 Si1 S1 111.57(17) 4_565 .
loop_
_geom_bond_atom_site_label_1
_geom_bond_atom_site_label_2
_geom_bond_distance
_geom_bond_site_symmetry_2
C1 N1 1.508(7) .
C1 H1A 0.9800 .
C1 H1B 0.9800 .
C2 N1 1.484(8) .
C2 H2A 0.9800 .
C2 H2B 0.9800 .
C3 N1 1.489(3) .
C3 H3A 0.9800 .
C3 H3B 0.9800 .
C3 H3C 0.9800 .
C4 Si1 1.872(7) .
C4 H4A 0.9798 .
C4 H4C 0.9800 .
C5 Si1 1.877(5) .
C5 H5A 0.9800 .
C5 H5B 0.9800 .
C5 H5C 0.9800 .
C6 N2 1.126(6) .
C6 C7 1.453(8) .
C7 H7A 0.9800 .
C7 H7B 0.9800 .
C7 H7C 0.9800 .
N1 C3 1.489(3) 4_565
Si1 C5 1.877(5) 4_565
Si1 S1 2.0515(14) .
