#------------------------------------------------------------------------------
#$Date: 2019-11-23 08:51:47 +0200 (Sat, 23 Nov 2019) $
#$Revision: 232598 $
#$URL: file:///home/coder/svn-repositories/cod/cif/4/34/79/4347969.cif $
#------------------------------------------------------------------------------
#
# This file is available in the Crystallography Open Database (COD),
# http://www.crystallography.net/
#
# All data on this site have been placed in the public domain by the
# contributors.
#
data_4347969
loop_
_publ_author_name
'Nguyen, Nhung T. T.'
'Lo, Tien N. H.'
'Kim, Jaheon'
'Nguyen, Huong T. D.'
'Le, Toan B.'
'Cordova, Kyle E.'
'Furukawa, Hiroyasu'
_publ_section_title
;
 Mixed-Metal Zeolitic Imidazolate Frameworks and their Selective Capture
 of Wet Carbon Dioxide over Methane.
;
_journal_issue                   12
_journal_name_full               'Inorganic chemistry'
_journal_page_first              6201
_journal_page_last               6207
_journal_paper_doi               10.1021/acs.inorgchem.6b00814
_journal_volume                  55
_journal_year                    2016
_chemical_formula_sum            'C12 H12 Cu2 N8 Zn'
_chemical_formula_weight         460.75
_space_group_crystal_system      tetragonal
_space_group_IT_number           114
_space_group_name_Hall           'P -4 2n'
_space_group_name_H-M_alt        'P -4 21 c'
_atom_sites_solution_hydrogens   geom
_audit_creation_method           SHELXL-2014/7
_cell_angle_alpha                90
_cell_angle_beta                 90
_cell_angle_gamma                90
_cell_formula_units_Z            2
_cell_length_a                   10.9562(4)
_cell_length_b                   10.9562(4)
_cell_length_c                   6.2181(2)
_cell_measurement_reflns_used    4776
_cell_measurement_temperature    100(2)
_cell_measurement_theta_max      72.53
_cell_measurement_theta_min      5.71
_cell_volume                     746.41(5)
_computing_cell_refinement       'SAINT v8.34A (Bruker, 2013)'
_computing_data_collection       'APEX 2'
_computing_data_reduction        'SAINT v8.34A (Bruker, 2013)'
_computing_structure_refinement  'SHELXL-2014/7 (Sheldrick, 2014)'
_computing_structure_solution    'ShelXS (Sheldrick, 2008)'
_diffrn_ambient_temperature      100(2)
_diffrn_measured_fraction_theta_full 1.000
_diffrn_measured_fraction_theta_max 0.998
_diffrn_measurement_device_type  'Bruker D8 Venture'
_diffrn_measurement_method       'phi and omega scans'
_diffrn_radiation_type           CuK\a
_diffrn_radiation_wavelength     1.54178
_diffrn_reflns_av_R_equivalents  0.0256
_diffrn_reflns_av_unetI/netI     0.0187
_diffrn_reflns_Laue_measured_fraction_full 1.000
_diffrn_reflns_Laue_measured_fraction_max 0.998
_diffrn_reflns_limit_h_max       12
_diffrn_reflns_limit_h_min       -12
_diffrn_reflns_limit_k_max       13
_diffrn_reflns_limit_k_min       -10
_diffrn_reflns_limit_l_max       7
_diffrn_reflns_limit_l_min       -7
_diffrn_reflns_number            4669
_diffrn_reflns_point_group_measured_fraction_full 0.987
_diffrn_reflns_point_group_measured_fraction_max 0.970
_diffrn_reflns_theta_full        67.679
_diffrn_reflns_theta_max         72.519
_diffrn_reflns_theta_min         5.711
_diffrn_source                   'fine-focus sealed tube'
_exptl_absorpt_coefficient_mu    5.279
_exptl_absorpt_correction_T_max  0.7536
_exptl_absorpt_correction_T_min  0.6256
_exptl_absorpt_correction_type   multi-scan
_exptl_absorpt_process_details   SADABS-2012/1
_exptl_crystal_colour            'light blue'
_exptl_crystal_density_diffrn    2.050
_exptl_crystal_description       block
_exptl_crystal_F_000             456
_exptl_crystal_size_max          0.210
_exptl_crystal_size_mid          0.150
_exptl_crystal_size_min          0.150
_refine_diff_density_max         0.482
_refine_diff_density_min         -0.371
_refine_diff_density_rms         0.111
_refine_ls_abs_structure_details
;
 Flack x determined using 272 quotients [(I+)-(I-)]/[(I+)+(I-)]
 (Parsons, Flack and Wagner, Acta Cryst. B69 (2013) 249-259).
;
_refine_ls_abs_structure_Flack   0.02(2)
_refine_ls_extinction_coef       0.0061(7)
_refine_ls_extinction_expression Fc^*^=kFc[1+0.001xFc^2^\l^3^/sin(2\q)]^-1/4^
_refine_ls_extinction_method     'SHELXL-2014/7 (Sheldrick 2014'
_refine_ls_goodness_of_fit_ref   1.128
_refine_ls_hydrogen_treatment    constr
_refine_ls_matrix_type           full
_refine_ls_number_parameters     54
_refine_ls_number_reflns         723
_refine_ls_number_restraints     0
_refine_ls_restrained_S_all      1.128
_refine_ls_R_factor_all          0.0204
_refine_ls_R_factor_gt           0.0204
_refine_ls_shift/su_max          0.000
_refine_ls_shift/su_mean         0.000
_refine_ls_structure_factor_coef Fsqd
_refine_ls_weighting_details
'w=1/[\s^2^(Fo^2^)+(0.0391P)^2^+0.3140P] where P=(Fo^2^+2Fc^2^)/3'
_refine_ls_weighting_scheme      calc
_refine_ls_wR_factor_gt          0.0589
_refine_ls_wR_factor_ref         0.0589
_reflns_Friedel_coverage         0.617
_reflns_Friedel_fraction_full    0.966
_reflns_Friedel_fraction_max     0.929
_reflns_number_gt                723
_reflns_number_total             723
_reflns_threshold_expression     'I > 2\s(I)'
_cod_data_source_file            ic6b00814_si_003.cif
_cod_data_source_block           ZIF-202
_cod_original_cell_volume        746.41(6)
_cod_database_code               4347969
_shelx_shelxl_version_number     2014/7
_shelx_space_group_comment
;
The symmetry employed for this shelxl refinement is uniquely defined
by the following loop, which should always be used as a source of
symmetry information in preference to the above space-group names.
They are only intended as comments.
;
_shelx_estimated_absorpt_t_min   0.404
_shelx_estimated_absorpt_t_max   0.505
_shelx_res_file
;

    ZIF-202.res created by SHELXL-2014/7


TITL ZIF-202 in P-42(1)c
CELL  1.54178  10.9562  10.9562   6.2181   90.000   90.000   90.000
ZERR  2.00      0.0004   0.0004   0.0002    0.000    0.000    0.000
LATT -1
SYMM -X, -Y, Z
SYMM Y, -X, -Z
SYMM -Y, X, -Z
SYMM 1/2-X, 1/2+Y, 1/2-Z
SYMM 1/2+X, 1/2-Y, 1/2-Z
SYMM 1/2-Y, 1/2-X, 1/2+Z
SYMM 1/2+Y, 1/2+X, 1/2+Z
SFAC C H N CU ZN
UNIT 24 24 16 4 2
SHEL 999 0.808
L.S. 24
ACTA
CONF
XNPD
BOND
LIST 6
FMAP 2
PLAN 5
TEMP -173
SIZE 0.15 0.15 0.21
WGHT    0.039100    0.314000
EXTI    0.006132
FVAR       0.72144
ZN1   5    0.000000    0.000000    0.500000    10.25000    0.00570    0.00570 =
         0.00829    0.00000    0.00000    0.00000
CU1   4   -0.500000    0.000000    0.159301    10.50000    0.00553    0.01179 =
         0.01396    0.00000    0.00000    0.00023
N1    3   -0.144968   -0.032463    0.315843    11.00000    0.00819    0.01014 =
         0.01010   -0.00059   -0.00010   -0.00039
N2    3   -0.331874   -0.026053    0.171740    11.00000    0.00800    0.01155 =
         0.01036   -0.00014    0.00036    0.00028
C1    1   -0.254144    0.022272    0.315004    11.00000    0.00926    0.00904 =
         0.01264   -0.00082    0.00196   -0.00054
AFIX  43
H1    2   -0.274533    0.088618    0.406574    11.00000   -1.20000
AFIX   0
C2    1   -0.152605   -0.122590    0.161043    11.00000    0.00972    0.00972 =
         0.01145   -0.00104    0.00136    0.00030
AFIX  43
H2    2   -0.089200   -0.177471    0.122186    11.00000   -1.20000
AFIX   0
C3    1   -0.266687   -0.119332    0.073536    11.00000    0.01109    0.01019 =
         0.01058   -0.00104    0.00074   -0.00159
AFIX  43
H3    2   -0.296483   -0.171938   -0.035981    11.00000   -1.20000
AFIX   0
HKLF 4

REM  ZIF-202 in P-42(1)c
REM R1 =  0.0204 for     723 Fo > 4sig(Fo)  and  0.0204 for all     723 data
REM     54 parameters refined using      0 restraints

END

WGHT      0.0312      0.3039

REM Highest difference peak  0.482,  deepest hole -0.371,  1-sigma level  0.111
Q1    1   0.0000  0.0000  0.0000  10.25000  0.05    0.48
Q2    1  -0.1853 -0.1568  0.1624  11.00000  0.05    0.34
Q3    1  -0.3606 -0.0257  0.1645  11.00000  0.05    0.29
Q4    1  -0.2365 -0.1342  0.1080  11.00000  0.05    0.28
Q5    1  -0.1625 -0.1656 -0.1699  11.00000  0.05    0.23
;
_shelx_res_checksum              51865
_shelx_hkl_file
;
   1   0   0    0.00    0.10
  -1   0   0    0.00    0.10
  -1  -1   0  358.06   15.80
  -2  -1   0  549.45   24.30
   2   0   0 4622.34  190.68
  -2   0   0 4325.37  190.58
   2  -1   0  667.23   29.10
  -2  -2   0 2327.07  100.39
  -3  -2   0   87.19    4.30
  -3  -1   0 1418.36   61.49
   3  -1   0 1393.46   60.09
   3  -2   0   96.79    4.60
  -3   3   0  244.18   10.00
  -3   4   0   77.79    3.50
  -3   4   0   75.89    3.00
  -4  -2   0 5663.03  246.08
  -2   4   0 5837.42  223.08
  -4  -1   0   76.99    3.70
  -4   0   0 6200.48  264.27
  -4   1   0   52.99    2.60
   4  -1   0   55.49    2.60
  -4   2   0 5815.92  225.48
  -4   3   0   76.39    3.20
  -4   3   0   79.89    3.70
   4  -3   0   86.59    3.80
  -4   4   0 4319.07  173.78
  -4   4   0 4306.17  150.28
   4   4   0 4425.46  159.88
   4  -4   0 4536.65  190.78
  -4   4   0 4656.13  159.18
  -4   5   0  332.17   11.70
   5   4   0  313.67   12.20
  -4   5   0  323.07   11.40
  -4   5   0  324.67   13.00
  -3   5   0  403.76   16.00
  -3   5   0  399.06   14.50
  -2   5   0   94.69    3.90
  -2   5   0  109.59    4.50
  -1   5   0 1663.83   65.49
  -5  -1   0 1681.03   71.89
  -1   5   0 1709.83   59.99
  -5  -1   0 1649.13   64.99
   0   5   0    0.00    0.30
   0   5   0    0.00    0.50
  -5   1   0 1683.33   73.09
  -5   1   0 1648.94   61.39
   1   5   0 1711.43   61.79
  -5   1   0 1793.32   67.39
   2   5   0   93.39    3.70
  -5   2   0   91.79    3.70
  -5   2   0   89.29    3.60
   5  -2   0   93.39    4.10
  -5   2   0   83.99    4.00
  -5   3   0  383.56   13.70
  -5   3   0  381.46   13.20
  -5   3   0  392.06   15.10
   3   5   0  377.86   13.90
   5  -3   0  350.86   16.30
  -5   4   0  310.97   11.70
   5  -4   0  347.67   14.00
  -5   4   0  304.37   12.90
   4   5   0  320.27   11.90
  -5   4   0  315.67   11.30
   5  -5   0  658.53   27.20
  -5   5   0  627.14   21.60
  -5   5   0  602.34   24.80
  -5   5   0  624.44   22.60
   5   5   0  634.64   23.00
   6   5   0  207.38    8.70
  -5   6   0  227.78    8.20
   6   5   0  229.18    8.80
  -5   6   0  236.18    8.20
  -5   6   0  233.68    8.90
  -5   6   0  212.98    9.30
  -4   6   0 5011.30  179.18
  -4   6   0 4991.10  169.88
  -4   6   0 5045.70  196.48
  -3   6   0  427.16   15.20
  -3   6   0  447.46   17.50
  -3   6   0  443.56   15.70
  -2   6   0 5314.57  209.78
  -2   6   0 5450.25  191.88
  -1   6   0    6.10    0.60
  -6  -1   0    5.30    1.10
  -6  -1   0    6.50    0.90
  -1   6   0    7.30    1.00
   0   6   0 8921.91  324.07
   0   6   0 8276.17  351.06
  -6   0   0 9032.60  325.67
  -6   0   0 8738.83  305.37
  -6   0   0 9593.74  352.26
  -6   0   0 9999.00  390.46
  -6   1   0   12.70    1.30
  -6   1   0    9.90    1.00
   1   6   0    7.50    0.80
  -6   1   0    7.80    1.10
  -6   2   0 5897.51  205.38
  -6   2   0 5527.45  192.78
   2   6   0 5608.44  204.88
  -6   2   0 5600.94  222.58
  -6   2   0 5929.71  246.08
   3   6   0  478.65   16.60
  -6   3   0  469.05   15.80
  -6   3   0  408.76   16.40
  -6   3   0  451.25   18.00
   4   6   0 4352.36  171.88
  -6   4   0 4990.10  162.48
  -6   4   0 4785.32  171.28
  -6   4   0 4953.80  187.08
  -6   5   0  228.68    9.40
   5   6   0  225.28    8.90
  -6   5   0  224.38    8.30
   5   6   0  236.68    8.80
  -6   5   0  218.28    8.40
   6   6   0 3891.81  139.59
   6   6   0 4005.70  138.79
  -6   6   0 3787.02  151.58
  -6   6   0 3717.73  138.39
  -6   6   0 3845.22  130.39
  -6   7   0   92.59    4.30
  -6   7   0  103.09    4.60
   7   6   0   91.39    4.40
  -6   7   0  100.59    4.10
  -6   7   0   97.89    3.80
   7   6   0   93.79    4.20
  -5   7   0  569.44   22.30
  -5   7   0  536.95   20.70
   7   5   0  553.24   20.70
  -5   7   0  574.54   19.40
  -5   7   0  565.14   20.10
  -4   7   0   11.70    1.50
   7   4   0    8.80    1.60
  -4   7   0   12.60    0.60
  -4   7   0   11.40    1.20
  -4   7   0   10.00    1.10
  -3   7   0  405.06   16.30
  -3   7   0  411.26   14.60
  -3   7   0  404.46   15.30
  -2   7   0   21.20    1.50
  -2   7   0   25.10    1.00
  -1   7   0   23.40    1.60
  -7  -1   0   25.40    1.60
  -1   7   0   25.70    1.10
  -7  -1   0   25.50    1.80
  -7  -1   0   26.30    1.70
  -7   0   0    3.20    0.80
  -7   1   0   29.80    2.00
  -7   1   0   31.80    1.60
  -7   1   0   27.00    1.60
   1   7   0   25.00    1.30
  -7   1   0   26.80    1.60
  -7   2   0   21.90    1.40
  -7   2   0   20.80    1.30
  -7   2   0   25.80    1.50
  -7   2   0   23.40    1.80
   2   7   0   21.30    1.70
  -7   3   0  405.86   16.80
   3   7   0  411.56   15.70
  -7   3   0  409.16   15.40
  -7   3   0  448.66   14.70
   3   7   0  421.56   15.40
   4   7   0   11.90    1.00
  -7   4   0   10.80    0.80
  -7   4   0   10.10    1.10
  -7   4   0   12.10    1.10
   4   7   0    8.70    1.30
  -7   5   0  574.54   23.20
  -7   5   0  575.74   20.20
   5   7   0  616.64   21.40
  -7   5   0  566.24   21.10
   5   7   0  577.14   21.60
  -7   6   0  102.59    4.20
  -7   6   0   98.69    3.90
   6   7   0   95.09    4.30
  -7   6   0  101.29    4.70
   6   7   0   91.09    4.30
   7   7   0   34.30    2.10
  -7   7   0   39.20    2.40
   7   7   0   33.50    2.20
  -7   7   0   39.30    1.70
  -7   7   0   37.50    2.10
   8   7   0  224.08    8.70
  -7   8   0  223.08    8.10
  -7   8   0  223.38    8.20
  -7   8   0  217.68    9.50
  -6   8   0 2591.24   95.59
  -6   8   0 2088.79   87.99
   8   6   0 2581.44   88.89
  -6   8   0 2603.64   82.89
  -5   8   0   94.19    4.00
  -5   8   0   95.69    4.60
   8   5   0   94.19    4.20
  -5   8   0   99.69    4.30
  -5   8   0   94.39    3.60
  -4   8   0 3466.05  122.39
  -4   8   0 3224.78  112.69
   8   4   0 3352.16  120.99
  -4   8   0 3404.16  120.49
  -4   8   0 3388.36  131.89
  -8  -3   0    3.40    1.00
  -3   8   0    3.20    0.90
   8   3   0    1.40    1.10
  -8  -2   0 3201.18  136.39
  -2   8   0 3022.80  123.49
  -2   8   0 3149.98  115.09
  -2   8   0 3314.57  113.79
  -8  -1   0    2.00    0.70
  -1   8   0    3.80    0.40
  -8  -1   0    3.20    0.90
  -1   8   0    2.80    0.70
  -8  -1   0    4.80    1.00
  -8   0   0 6881.51  303.67
   0   8   0 6849.11  252.57
  -8   0   0 7194.68  275.27
  -8   0   0 7064.99  238.68
   0   8   0 7003.50  256.17
  -8   0   0 7393.96  254.77
  -8   1   0    4.90    0.90
  -8   1   0    4.30    0.90
  -8   1   0    5.10    1.10
  -8   2   0 3288.67  115.89
  -8   2   0 2963.00  136.59
   2   8   0 3210.68  115.99
   2   8   0 3291.87  115.69
  -8   2   0 3120.49  124.49
  -8   2   0 3245.68  108.39
  -8   3   0    6.40    0.90
  -8   3   0    4.90    0.70
  -8   3   0    4.50    0.90
  -8   4   0 3374.76  136.19
  -8   4   0 3270.27  124.29
   4   8   0 3592.44  126.09
  -8   4   0 3474.25  116.99
   4   8   0 3557.94  125.29
  -8   5   0   98.19    4.00
   5   8   0  101.39    4.20
   5   8   0  100.99    4.40
  -8   5   0   97.69    4.20
  -8   5   0   92.89    4.60
  -8   6   0 2208.48   91.39
  -8   6   0 2521.05   99.49
   6   8   0 2643.74   91.79
   6   8   0 2691.63   90.49
  -8   6   0 2592.24   85.19
  -8   7   0  230.08    9.50
   7   8   0  215.58    8.70
   7   8   0  211.18    8.60
  -8   7   0  230.48    8.30
  -8   7   0  219.78    8.30
   8   8   0 2533.55   94.09
  -8  -8   0 2574.04  112.49
  -8   8   0 2736.13   87.89
  -8   8   0 2624.34  101.29
   9   8   0   13.50    1.20
  -8   9   0   12.30    1.50
  -7   9   0   85.59    3.60
  -9  -7   0   87.99    4.60
  -7   9   0   80.89    4.20
   9   7   0   86.59    3.70
  -6   9   0    2.30    0.80
  -9  -6   0    1.60    1.00
  -6   9   0    1.80    0.80
   9   6   0    1.40    0.70
   9   5   0   45.50    2.50
  -5   9   0   44.70    2.50
  -5   9   0   46.00    2.50
  -9  -5   0   54.39    3.20
  -5   9   0   46.60    2.80
  -4   9   0    2.50    0.80
  -4   9   0    2.70    0.90
  -9  -4   0    2.00    1.00
  -3   9   0   63.29    2.50
  -3   9   0   62.39    3.10
  -3   9   0   74.19    3.50
  -9  -3   0   62.29    3.70
  -2   9   0    9.30    1.20
  -9  -2   0    9.40    1.30
  -2   9   0    9.70    0.60
  -2   9   0    8.40    1.40
  -1   9   0  321.87   11.40
  -9  -1   0  305.87   14.30
  -1   9   0  311.17   12.00
  -9   0   0    1.40    0.70
   0   9   0    2.10    0.40
  -9   0   0    3.10    1.00
  -9   1   0  340.57   12.50
   1   9   0  326.77   12.60
  -9   1   0  326.97   11.70
  -9   1   0  315.37   14.90
  -9   1   0  330.37   13.40
   1   9   0  336.47   12.10
  -9   2   0    9.90    1.10
   2   9   0    9.70    1.10
  -9   2   0   11.30    1.20
   2   9   0    9.30    0.80
   3   9   0   65.89    2.90
  -9   3   0   70.19    3.50
  -9   3   0   62.39    3.00
   3   9   0   68.79    3.20
  -9   3   0   69.09    3.10
  -9   4   0    2.40    0.60
  -9   4   0    2.60    0.90
  -9   4   0    2.70    0.70
  -9   5   0   45.20    2.30
  -9   5   0   48.60    2.50
  -9   5   0   48.50    2.80
   5   9   0   47.40    2.50
   5   9   0   45.80    2.40
   6   9   0    2.20    0.70
  -9   6   0    1.40    0.80
   6   9   0    1.10    0.60
  -9   6   0    1.70    0.70
  -9   7   0   83.69    3.70
  -9   7   0   85.59    4.20
   7   9   0   85.79    3.70
   7   9   0   85.19    3.80
   8   9   0   13.20    1.60
  -9   8   0   12.90    1.40
  -8  -9   0   13.70    1.60
   8   9   0   14.10    1.20
  -9   9   0  282.57   11.70
  -9  -9   0  287.87   12.90
   9   9   0  291.47   10.60
 -10  -8   0  877.71   37.90
  -7  10   0    5.20    1.50
 -10  -7   0    6.40    1.20
  -6  10   0 1154.38   43.00
 -10  -6   0 1222.88   51.29
  -6  10   0 1186.18   46.40
 -10  -5   0  422.46   18.60
  -5  10   0  407.96   16.70
  -5  10   0  413.36   15.50
 -10  -4   0 2281.87   94.79
  -4  10   0 2233.68   79.39
  -4  10   0 2087.09   85.19
  -3  10   0    6.70    1.10
 -10  -3   0    8.30    1.40
  -2  10   0 1349.56   49.30
 -10  -2   0 1422.96   58.69
  -2  10   0 1301.57   48.50
  -1  10   0  167.68    6.00
 -10  -1   0  160.58    7.90
  -1  10   0  153.88    6.60
   0  10   0 1116.69   39.40
 -10   0   0 1156.98   46.90
   0  10   0  922.81   38.60
 -10   0   0 1123.49   36.70
 -10   1   0  160.08    6.20
   1  10   0  160.48    6.70
 -10   1   0  165.98    7.10
   1  10   0  165.98    6.20
   2  10   0 1352.66   48.90
 -10   2   0 1374.66   52.39
   2  10   0 1385.06   48.90
 -10   2   0 1263.87   45.50
   3  10   0    7.60    1.00
 -10   3   0    4.60    1.00
 -10   3   0    6.40    1.20
   3  10   0    6.50    0.70
   4  10   0 2304.27   82.89
 -10   4   0 2296.97   88.89
 -10   4   0 2348.17   76.99
   4  10   0 2197.68   82.39
   5  10   0  432.36   16.00
 -10   5   0  416.46   15.00
   5  10   0  426.26   15.80
 -10   5   0  435.46   17.30
 -10   6   0 1227.78   47.40
   6  10   0 1220.98   43.70
   6  10   0 1184.38   44.00
 -10   6   0 1224.08   41.20
 -10   7   0    6.70    1.00
 -10   7   0    7.70    1.20
  -7 -10   0    6.40    1.50
 -10   7   0    7.80    0.60
   7  10   0    6.70    1.00
 -10   8   0  887.91   34.50
   8  10   0  929.81   31.90
  -8 -10   0  830.22   38.10
 -11  -7   0  170.28    7.90
 -11  -6   0   48.70    2.90
  -5  11   0  170.08    6.70
 -11  -5   0  176.68    8.20
 -11  -4   0   12.70    1.50
  -4  11   0   15.30    1.30
 -11  -3   0  172.18    8.40
  -3  11   0  179.88    7.00
 -11  -2   0   71.19    4.10
  -2  11   0   70.69    3.30
  -1  11   0  323.77   11.20
  -1  11   0  315.97   12.00
 -11  -1   0  300.27   14.30
   0  11   0    0.50    0.60
   0  11   0    0.40    0.30
   1  11   0  336.17   12.10
 -11   1   0  321.97   11.70
   1  11   0  333.17   12.60
 -11   2   0   67.89    3.50
   2  11   0   71.19    2.80
 -11   2   0   67.79    3.00
   2  11   0   66.69    3.20
 -11   3   0  173.68    6.60
   3  11   0  173.78    7.00
 -11   3   0  182.08    7.60
   3  11   0  170.38    6.70
   4  11   0   12.40    0.90
 -11   4   0   11.80    1.20
 -11   4   0   11.50    1.50
 -11   5   0  170.28    7.50
 -11   5   0  179.28    6.50
   5  11   0  179.98    6.80
   5  11   0  170.08    6.70
   6  11   0   51.19    2.30
 -11   6   0   51.29    2.20
 -11   6   0   50.49    2.80
   6  11   0   49.80    2.30
   7  11   0  157.28    6.30
   7  11   0  175.18    6.30
 -12  -5   0   12.70    1.50
 -12  -4   0 1750.02   75.49
  -4  12   0 1774.72   63.39
 -12  -3   0   38.80    2.60
  -3  12   0   42.60    2.00
  -2  12   0 2729.93   98.99
  -1  12   0   30.60    1.70
   0  12   0 1572.04   56.79
 -12   1   0   23.60    1.80
   1  12   0   24.40    1.10
   1  12   0   25.80    1.50
   2  12   0 2706.23   97.09
 -12   2   0 2702.23   96.79
   2  12   0 2725.83   98.59
   3  12   0   43.70    2.10
 -12   3   0   45.70    2.20
   3  12   0   41.20    1.80
 -12   4   0 1881.71   66.99
   4  12   0 1901.31   67.09
   4  12   0 1846.72   67.69
   5  12   0   16.00    1.00
 -12   5   0   17.30    1.00
   5  12   0   15.40    0.90
   6  12   0 1198.98   43.10
  -3  13   0   34.80    1.60
  -2  13   0    3.00    0.60
  -1  13   0  118.99    4.70
   0  13   0    2.00    0.50
   1  13   0  114.19    4.50
   2  13   0    5.30    0.60
   3  13   0   35.60    1.60
   0   1  -1  891.51   41.00
   1   0  -1  989.20   41.30
   0  -1  -1  959.90   41.20
  -1   0  -1  962.70   40.90
  -1   0   1  932.21   40.90
   0  -1   1  940.91   41.20
   1   0   1  969.50   40.90
   1  -1   1    0.00    0.20
  -2  -1   1 3356.66  138.09
   1  -2   1 3070.09  137.79
  -2   0  -1 3947.41  196.18
   0  -2   1 4840.72  197.58
  -2   0   1 5054.89  197.28
   2  -1  -1 2784.22  132.59
   1   2  -1 3361.76  133.29
  -2   1   1 3121.19  132.89
  -1  -2   1 3129.49  133.39
   2   2  -1    1.30    0.40
   2  -3  -1  338.07   13.30
   3   2  -1  304.47   13.30
   2  -3   1  278.37   13.30
  -2   3   1  302.37   12.10
   3   1  -1  517.85   21.90
  -3  -1   1  518.25   21.40
   1  -3   1  453.25   21.40
   3   0  -1 1699.93   71.59
  -3   0   1 1604.54   71.29
   3  -1  -1  459.35   20.90
  -3   1   1  494.65   20.50
  -3   2  -1  320.17   12.40
   3  -2  -1  348.77   13.50
  -3   2   1  278.67   12.30
   3  -2   1  300.47   13.40
   3  -3  -1    0.90    0.40
  -3   3  -1    1.20    0.40
  -3   3   1    0.60    0.30
   3   3   1    0.30    0.40
   3  -4  -1  634.34   26.70
  -3   4  -1  599.34   21.80
  -3   4  -1  603.24   23.90
   4   3   1  620.64   23.80
  -3   4   1  621.44   23.90
  -3   4   1  586.14   21.90
   4   2  -1  159.88    6.80
  -2   4  -1  146.99    6.20
  -4  -2  -1  140.39    6.70
  -2   4   1  150.68    5.60
  -2   4   1  158.38    6.20
  -4  -1  -1 1431.66   63.39
   4   1  -1 1525.55   64.69
  -4  -1  -1 1459.55   63.49
  -4  -1  -1 1425.76   57.89
  -4  -1  -1 1619.94   63.49
  -1   4   1 1444.16   58.29
   4   0  -1  457.05   19.10
  -4   0  -1  440.66   17.40
   0   4   1  418.06   17.40
  -4   0   1  459.95   19.20
  -4   1  -1 1414.06   56.19
   4  -1  -1 1498.85   62.89
  -4   1   1 1438.96   56.49
   1   4   1 1447.16   56.29
   4  -2  -1  150.58    6.60
  -4   2  -1  140.89    5.50
  -4   2  -1  155.38    6.20
   2   4   1  148.89    6.10
   3   4  -1  582.14   22.30
  -4   3  -1  632.84   22.10
   4  -3  -1  636.64   26.50
  -4   3  -1  652.03   24.20
   4  -3   1  570.04   26.30
   3   4   1  618.64   24.10
  -4   3   1  619.94   22.20
  -4   3   1  623.24   24.10
  -4   4  -1    0.20    0.20
  -4   4  -1    0.30    0.40
   4   4  -1    0.20    0.50
   4  -4  -1    0.40    0.40
  -4   4   1    0.20    0.30
  -4   4   1    0.50    0.20
   4   4   1    0.80    0.50
  -4   5  -1  949.01   36.30
  -4   5  -1  924.41   31.60
   5   4  -1  961.50   33.70
   4  -5  -1  859.21   40.00
  -4   5  -1  939.31   33.50
  -4   5   1  924.21   31.60
   5   4   1  896.21   36.20
  -4   5   1  985.30   36.30
  -4   5   1  933.11   33.80
  -3   5  -1  138.79    4.90
  -3   5  -1  127.19    5.10
  -3   5  -1  140.89    5.80
   3  -5  -1  140.59    6.30
  -3   5   1  127.59    5.10
  -3   5   1  140.29    5.10
   5   3   1  141.29    5.70
  -3   5   1  136.39    5.80
  -2   5  -1  662.43   27.90
  -5  -2  -1  728.13   31.10
  -2   5   1  726.13   25.60
  -2   5   1  748.73   28.00
   5   1  -1  125.29    5.40
  -5  -1  -1  114.79    5.60
  -5  -1  -1  121.39    5.00
  -1   5  -1  109.19    5.00
  -1   5  -1  120.79    4.30
  -1   5   1  120.09    4.50
  -1   5   1  121.09    5.00
   5   0  -1 2035.50   85.89
   0   5  -1 1989.10   71.49
  -5   0  -1 1871.41   71.09
  -5   0  -1 1913.51   86.29
  -5   0  -1 2098.29   78.49
   0   5   1 1920.01   77.79
  -5   0   1 2050.99   77.59
   0   5   1 2045.20   71.99
  -5   1  -1  133.99    5.30
   5  -1  -1  131.79    5.60
  -5   1  -1  105.29    5.70
  -5   1  -1  124.09    4.80
   1   5  -1  131.09    4.70
  -5   1   1  125.69    5.20
  -5   1   1  121.99    4.80
   1   5   1  118.79    4.70
   1   5   1  117.29    5.20
   5  -2  -1  663.13   28.50
  -5   2  -1  705.53   26.00
   2   5  -1  673.13   23.90
  -5   2  -1  662.93   23.90
  -5   2  -1  618.24   22.60
  -5   2  -1  605.24   28.70
   2   5   1  656.13   25.90
  -5   2   1  680.33   26.00
  -5   2   1  694.43   23.90
  -5   2   1  677.83   22.70
   2   5   1  674.53   24.00
  -5   3  -1  130.69    5.20
   5  -3  -1  140.39    6.30
   3   5  -1  143.89    5.40
  -5   3  -1  131.09    5.90
  -5   3  -1  153.78    5.30
   3   5   1  137.69    5.80
  -5   3   1  148.69    5.40
  -5   3   1  136.99    5.20
  -5   3   1  146.09    5.90
   3   5   1  131.99    5.50
  -5   4  -1  919.21   31.20
   4   5  -1  954.90   33.20
  -5   4  -1  918.11   35.90
  -5   4  -1  939.31   33.20
   5  -4  -1  910.91   39.50
  -5   4   1  933.41   33.20
  -5   4   1  927.51   35.90
  -5   4   1  933.61   31.20
   4   5   1  837.02   35.70
   4   5   1  917.61   33.20
  -5   5  -1    2.70    0.80
   5  -5  -1    2.20    0.80
   5   5  -1    3.10    0.70
   6   5  -1  569.24   21.50
   5  -6  -1  567.44   25.60
  -5   6  -1  577.54   21.00
   6   5  -1  597.54   21.70
  -5   6  -1  568.34   23.30
  -5   6  -1  589.24   20.20
  -5   6   1  608.84   23.30
  -5   6   1  576.44   20.20
  -5   6   1  612.24   21.20
  -5   6   1  592.24   21.70
   6   4  -1   22.40    1.70
   4  -6  -1   20.90    1.70
   6   4  -1   22.30    1.70
  -4   6  -1   21.80    1.50
  -4   6  -1   20.40    0.90
  -4   6  -1   20.30    1.40
   6   4   1   20.30    1.50
  -4   6   1   23.30    1.10
  -4   6   1   20.40    1.40
  -4   6   1   20.40    1.60
  -4   6   1   20.50    1.40
  -3   6  -1  249.48    8.70
   3  -6  -1  233.78   10.90
  -6  -3  -1  244.08   11.10
  -3   6  -1  246.58    9.90
  -3   6   1  233.58    8.60
   6   3   1  253.67    9.90
  -3   6   1  242.38    9.90
  -3   6   1  236.18    8.90
  -2   6  -1  180.68    6.40
  -2   6  -1  177.98    6.20
  -2   6  -1  171.28    6.20
  -2   6  -1  162.18    7.20
  -2   6   1  162.08    6.30
  -2   6   1  184.08    7.30
   6   1  -1  635.34   27.20
  -1   6  -1  626.94   22.70
  -6  -1  -1  638.84   27.50
  -6  -1  -1  660.73   24.80
  -1   6   1  609.14   22.70
  -6  -1   1  618.94   24.70
  -6   0  -1    2.10    0.50
  -6   0  -1    1.70    0.70
  -6   0  -1    0.90    0.50
   0   6  -1    1.20    0.30
   6   0  -1    1.70    0.50
   0   6   1    1.10    0.50
   0   6   1    0.90    0.30
  -6   0   1    1.50    0.50
  -6   0   1    1.70    0.60
   1   6  -1  629.14   22.70
  -6   1  -1  651.33   27.50
  -6   1  -1  628.54   24.80
   6  -1  -1  624.84   27.10
  -6   1  -1  629.14   21.60
  -6   1  -1  638.64   22.80
  -6   1   1  631.84   22.80
  -6   1   1  599.74   24.70
  -6   1   1  609.64   21.50
   1   6   1  679.33   24.70
   1   6   1  652.13   22.80
  -6   1   1  590.64   27.30
  -6   2  -1  169.98    8.30
  -6   2  -1  175.58    6.70
   2   6  -1  179.08    6.80
  -6   2  -1  180.78    7.60
  -6   2  -1  186.98    6.90
   6  -2  -1  196.78    8.10
  -6   2   1  176.18    6.60
  -6   2   1  188.58    7.50
   2   6   1  180.48    6.90
  -6   2   1  188.28    6.90
   2   6   1  175.18    7.50
   3   6  -1  249.78    9.50
  -6   3  -1  252.67   10.40
   6  -3  -1  262.07   11.20
  -6   3  -1  252.27    9.10
  -6   3  -1  248.38    9.40
  -6   3   1  254.47   10.30
   3   6   1  261.97    9.60
  -6   3   1  254.47    9.40
  -6   3   1  252.97    9.10
   3   6   1  249.18   10.20
  -6   4  -1   23.80    1.20
  -6   4  -1   19.80    1.40
  -6   4  -1   21.30    1.50
   4   6  -1   23.30    1.30
   4   6  -1   18.70    1.60
  -6   4   1   19.30    1.40
  -6   4   1   23.80    1.20
  -6   4   1   20.50    1.40
   4   6   1   18.30    1.30
  -6   5  -1  552.74   20.80
  -6   5  -1  558.44   20.00
  -6   5  -1  564.64   22.90
   5   6  -1  588.74   21.40
   5   6  -1  601.44   21.20
   5   6   1  603.94   21.30
  -6   5   1  595.54   20.00
  -6   5   1  563.84   22.90
   5   6   1  531.45   21.40
  -6   5   1  585.44   21.40
  -6   5   1  608.14   20.90
   6   6  -1    0.80    0.70
  -6   6  -1    0.00    0.60
  -6   6  -1    0.20    0.50
   6   6  -1    0.60    0.60
  -6   6  -1    0.70    0.30
   6   6   1    1.30    0.80
  -6   6   1    0.50    0.50
  -6   6   1    0.50    0.70
  -6   6   1    1.10    0.30
   6   6   1    0.70    0.80
  -6   6   1    0.50    0.60
   7   6  -1  474.95   17.50
   7   6  -1  466.25   17.50
  -6   7  -1  480.45   16.40
  -6   7  -1  492.95   18.90
  -7  -6  -1  464.65   20.90
  -6   7   1  451.65   17.50
  -6   7   1  445.96   17.00
  -6   7   1  469.45   16.40
   7   6   1  449.36   17.50
  -6   7   1  485.45   18.90
  -5   7  -1    5.50    1.00
   7   5  -1    3.90    0.90
  -5   7   1    4.20    0.90
  -5   7   1    4.00    0.80
  -5   7   1    3.60    0.90
  -5   7   1    4.30    0.50
  -7  -4  -1 1129.79   47.30
   7   4  -1 1073.89   39.80
  -4   7  -1 1052.59   37.00
  -4   7  -1 1090.19   42.70
  -4   7   1 1045.20   39.00
  -4   7   1 1098.19   39.80
  -4   7   1 1110.99   37.00
  -4   7   1 1132.29   42.70
   3  -7  -1    6.90    1.30
  -3   7  -1    7.70    1.10
   7   3  -1    6.80    1.40
  -7  -3  -1    6.10    1.00
  -3   7  -1    7.10    1.20
   7   3   1    8.30    1.10
  -3   7   1    7.70    0.60
  -3   7   1    8.20    1.20
  -3   7   1    7.30    1.20
  -2   7  -1 1035.50   36.80
  -7  -2  -1 1079.69   44.60
  -2   7  -1 1025.00   40.10
  -2   7  -1 1006.60   36.60
  -2   7   1 1038.80   37.10
  -2   7   1  961.20   37.50
  -2   7   1 1060.99   40.20
  -7  -1  -1   70.79    3.00
  -7  -1  -1   72.39    3.80
  -1   7  -1   68.99    2.60
  -1   7   1   73.29    2.80
  -7  -1   1   65.59    3.20
  -1   7   1   67.69    3.20
  -1   7   1   69.89    3.30
  -7  -1   1   65.59    2.90
  -7   0  -1  374.16   16.20
  -7   0  -1  364.06   14.50
  -7   0  -1  364.26   12.60
   0   7  -1  362.56   13.10
  -7   0   1  359.76   12.60
  -7   0   1  358.96   14.40
  -7   0   1  344.57   16.00
   0   7   1  352.96   14.40
   0   7   1  361.06   13.20
  -7   0   1  368.56   13.50
  -7   1  -1   72.49    3.40
  -7   1  -1   71.79    3.80
  -7   1  -1   71.49    3.00
   1   7  -1   67.59    2.80
   1   7   1   74.49    3.50
  -7   1   1   71.69    3.10
   1   7   1   69.79    3.00
   1   7   1   68.59    3.30
  -7   1   1   70.09    3.30
  -7   1   1   70.09    3.00
   2   7  -1 1044.40   38.30
   2   7  -1  977.80   37.60
  -7   2  -1 1082.09   41.00
  -7   2  -1 1053.79   37.80
  -7   2   1 1068.59   37.80
  -7   2   1 1085.39   40.90
   2   7   1 1020.10   38.30
   2   7   1 1101.69   38.00
   2   7   1 1016.40   40.80
   3   7  -1    7.80    0.70
  -7   3  -1    7.30    1.00
  -7   3  -1    7.50    0.90
  -7   3   1    8.60    1.00
   3   7   1    7.00    1.20
  -7   3   1    7.80    0.90
   3   7   1    7.70    0.80
  -7   4  -1 1116.79   42.40
   4   7  -1 1069.79   39.00
   4   7  -1 1057.99   39.50
  -7   4  -1 1123.29   36.90
  -7   4  -1 1132.29   39.40
   4   7   1 1085.89   39.50
  -7   4   1  979.60   39.40
   4   7   1 1147.29   39.10
  -7   4   1 1088.39   42.30
  -7   4   1 1055.89   36.80
  -7   4   1 1062.09   38.90
  -7   5  -1    5.70    1.00
   5   7  -1    3.40    0.80
  -7   5  -1    3.10    0.90
   5   7  -1    4.30    1.00
  -7   5   1    5.60    1.30
  -7   5   1    4.60    0.60
  -7   5   1    5.70    1.00
   5   7   1    3.10    0.80
   6   7  -1  459.05   17.50
  -7   6  -1  486.35   18.90
  -7   6  -1  485.15   16.50
   6   7  -1  466.05   17.40
  -7   6   1  433.46   17.00
   6   7   1  474.25   17.40
  -7   6   1  459.75   16.40
   6   7   1  477.65   17.50
  -7   6   1  493.65   18.90
  -7   6   1  438.86   17.40
  -7   7  -1    0.60    0.80
  -7  -7  -1    1.80    1.00
   7   7  -1    1.70    0.90
  -7   7  -1    2.20    0.80
  -7   7   1    1.40    0.70
  -7   7   1    0.70    0.70
   7   7   1    1.90    0.80
   8   7  -1  171.58    6.90
  -7   8  -1  175.88    7.60
  -8  -7  -1  169.58    8.20
  -7   8   1  174.08    7.50
  -7   8   1  169.28    6.50
  -7   8   1  167.58    6.80
  -7   8   1  168.48    6.50
  -6   8  -1  100.69    4.90
   8   6  -1   97.69    4.40
  -8  -6  -1  103.79    5.40
  -6   8   1   97.69    4.50
  -6   8   1  107.69    4.30
  -6   8   1  110.09    5.00
  -6   8   1  103.29    4.00
  -5   8  -1  880.11   37.20
  -8  -5  -1 1004.50   41.30
   8   5  -1  979.70   34.70
  -5   8   1  946.71   34.30
  -5   8   1  878.41   34.60
  -5   8   1  971.10   37.30
  -5   8   1  974.40   32.30
  -8  -4  -1   29.40    2.20
   8   4  -1   27.60    1.90
  -4   8  -1   27.80    2.00
  -4   8   1   29.10    1.90
  -4   8   1   29.00    1.90
  -4   8   1   28.40    1.80
  -4   8   1   27.50    1.30
   8   3  -1  903.81   31.90
  -3   8  -1  914.11   34.20
  -3   8  -1  791.42   31.80
  -8  -3  -1  788.52   37.80
  -3   8   1  901.11   31.20
   8   3   1  914.41   34.10
  -3   8   1  874.41   31.90
  -3   8   1  872.91   34.20
  -2   8  -1  260.47    9.20
  -2   8  -1  246.38    9.90
   8   2  -1  253.37   10.00
  -8  -2  -1  268.17   11.90
  -2   8  -1  247.98    9.10
  -2   8   1  248.08    9.40
  -2   8   1  266.17   10.60
  -2   8   1  256.47   10.00
  -8  -1  -1  641.04   27.60
  -1   8  -1  634.24   22.60
   8   1  -1  596.84   23.20
  -1   8  -1  608.94   23.20
  -1   8   1  631.74   23.20
  -8  -1   1  630.34   21.50
  -8  -1   1  620.64   27.50
  -1   8   1  642.24   24.80
  -1   8   1  636.04   22.60
   0   8  -1    2.40    0.40
  -8   0  -1    3.00    0.70
  -8   0  -1    2.70    1.00
   0   8  -1    4.20    1.10
  -8   0   1    2.10    0.60
   0   8   1    2.10    0.70
   0   8   1    1.90    0.70
  -8   0   1    2.50    0.90
   0   8   1    2.20    0.50
  -8   1  -1  659.23   22.30
  -8   1  -1  654.93   25.60
   1   8  -1  609.14   23.90
   1   8  -1  664.83   23.40
  -8   1  -1  636.04   28.40
  -8   1   1  655.43   22.30
   1   8   1  634.44   23.50
   1   8   1  650.93   24.00
  -8   1   1  697.13   23.80
   1   8   1  648.84   25.50
  -8   1   1  645.04   25.50
  -8   1   1  615.64   28.20
  -8   2  -1  270.37   10.90
   2   8  -1  265.87    9.80
   2   8  -1  255.07   10.20
  -8   2  -1  263.87    9.50
   2   8   1  269.57    9.90
   2   8   1  265.27   10.20
  -8   2   1  252.27   10.80
  -8   2   1  258.67   10.00
  -8   2   1  260.67    9.50
  -8   3  -1  928.11   31.50
  -8   3  -1  950.00   36.20
   3   8  -1  916.41   33.20
   3   8  -1  890.01   33.60
   3   8   1  933.81   33.70
  -8   3   1  895.51   33.20
   3   8   1  927.41   33.20
  -8   3   1  901.91   36.10
  -8   3   1  933.61   31.40
   4   8  -1   25.60    1.90
  -8   4  -1   28.70    1.80
  -8   4  -1   32.40    2.00
   4   8  -1   30.50    1.70
  -8   4   1   29.40    1.80
  -8   4   1   29.00    1.90
   4   8   1   29.50    1.70
  -8   4   1   28.40    1.60
   4   8   1   30.40    1.90
  -8   5  -1  890.81   37.00
   5   8  -1  990.20   34.10
  -8   5  -1  916.61   32.20
   5   8  -1  965.20   34.50
   5   8   1  895.41   34.40
   5   8   1  927.91   34.10
  -8   5   1  922.71   32.20
  -8   5   1  972.20   37.00
  -8   5   1  990.10   34.00
   6   8  -1  106.49    4.50
  -8   6  -1   97.29    4.30
  -8   6  -1  102.49    4.90
   6   8  -1  103.49    4.50
  -6  -8  -1  114.19    5.50
  -8   6   1   99.49    4.90
  -8   6   1  103.59    4.20
   6   8   1  103.89    4.50
   6   8   1  104.19    4.50
  -8   6   1   94.79    4.30
   7   8  -1  167.98    6.90
  -8   7  -1  169.98    7.50
  -8   7  -1  173.88    6.60
   7   8  -1  163.68    6.80
  -7  -8  -1  162.08    8.10
  -8   7  -1  179.88    6.30
  -8   7   1  167.78    6.50
  -8   7   1  167.28    6.50
   7   8   1  172.88    6.80
  -8   7   1  171.18    7.50
   7   8   1  178.68    7.00
  -8  -8  -1    2.70    1.20
   8   8  -1    3.00    1.10
  -8   8  -1    1.80    0.80
   8   8   1    2.10    0.90
  -8   8   1    2.60    0.50
  -8   9  -1  234.08   10.40
  -9  -8  -1  252.77   11.40
   9   8  -1  259.37    9.50
  -9  -8   1  241.38   11.40
  -8   9   1  261.17    8.90
  -8   9   1  246.08   10.30
   9   7  -1   26.50    1.60
  -9  -7  -1   27.40    2.10
  -7   9  -1   25.80    2.10
  -7   9   1   25.20    1.20
  -7   9   1   24.30    1.70
  -7   9   1   30.20    1.80
  -7   9   1   26.20    2.00
  -6   9  -1  250.27   11.00
   9   6  -1  251.77   10.10
  -9  -6  -1  266.77   12.20
  -6   9   1  268.47   11.10
  -6   9   1  270.47    9.50
  -6   9   1  280.87    9.70
  -6   9   1  260.77   10.20
  -9  -5  -1   38.50    2.70
  -5   9  -1   37.70    2.60
   9   5  -1   39.20    2.20
  -5   9   1   41.00    2.50
  -5   9   1   40.10    1.70
  -5   9   1   41.10    2.30
  -5   9   1   41.50    2.20
   9   4  -1  118.09    5.10
  -4   9  -1  126.69    5.60
  -4   9  -1  116.69    5.10
  -4   9   1  123.59    5.60
  -4   9   1  119.09    5.10
  -9  -3  -1   57.39    3.50
   9   3  -1   66.39    3.00
  -3   9  -1   54.89    2.90
  -3   9   1   58.29    3.20
  -3   9   1   59.19    2.40
  -9  -3   1   55.59    3.40
  -3   9   1   56.39    2.90
  -9  -2  -1  493.05   21.80
  -2   9  -1  481.45   18.20
   9   2  -1  455.75   18.10
  -2   9   1  483.35   17.60
  -9  -2   1  513.85   21.70
   9   2   1  497.55   19.40
  -2   9   1  482.45   18.20
  -1   9  -1   16.80    1.50
  -9  -1  -1   14.60    1.70
  -9  -1  -1   14.20    1.60
  -1   9   1   16.10    1.00
  -9  -1   1   18.50    1.70
  -1   9   1   16.10    1.50
  -9  -1   1   19.30    1.60
  -1   9   1   15.30    1.40
   0   9  -1  282.07   10.20
   9   0  -1  286.27   10.80
  -9   0  -1  277.07   12.90
  -9   0  -1  280.57   10.00
  -9   0   1  272.87   11.40
  -9   0   1  284.27   10.80
   0   9   1  281.57   10.40
  -9   0   1  278.57   10.00
   0   9   1  281.47   11.40
  -9   0   1  261.57   12.70
   0   9   1  277.37   10.80
   1   9  -1   16.80    1.00
   9  -1  -1   17.10    1.80
  -9   1  -1   16.60    1.50
   1   9  -1   17.20    1.50
  -9   1  -1   15.60    1.30
   1   9   1   19.40    1.10
   1   9   1   19.60    1.50
  -9   1   1   20.20    1.50
  -9   1   1   16.60    1.30
  -9   1   1   18.00    1.50
   2   9  -1  482.35   17.80
  -9   2  -1  502.75   19.70
   2   9  -1  466.65   18.30
  -9   2  -1  491.15   17.10
   2   9   1  507.35   18.30
  -9   2   1  490.95   18.10
  -9   2   1  482.65   19.60
   2   9   1  485.55   17.90
  -9   2   1  492.75   17.10
  -9   3  -1   59.19    2.80
   3   9  -1   65.69    3.00
   3   9  -1   56.89    2.60
  -9   3  -1   57.39    3.10
  -9   3   1   56.29    2.80
  -9   3   1   59.09    2.80
  -9   3   1   59.69    3.10
   3   9   1   59.69    2.70
   3   9   1   58.09    2.90
  -9   4  -1  134.29    5.90
  -9   4  -1  135.79    5.20
   4   9  -1  117.59    5.30
   4   9  -1  121.09    5.10
  -9   4   1  121.49    5.10
  -9   4   1  129.39    5.20
   4   9   1  125.39    5.20
   4   9   1  132.09    5.40
  -9   4   1  130.09    5.80
   5   9  -1   40.20    2.20
  -5  -9  -1   41.10    2.90
  -9   5  -1   40.80    2.20
  -9   5  -1   39.90    2.50
   5   9  -1   39.30    2.10
  -9   5   1   36.70    2.30
   5   9   1   39.30    2.20
   5   9   1   38.90    2.10
  -9   5   1   35.10    2.00
  -9   5   1   35.40    2.10
   6   9  -1  278.47   10.10
  -9   6  -1  251.37    9.60
  -9   6  -1  251.87   11.00
  -6  -9  -1  258.27   12.10
  -9   6  -1  250.77    9.80
   6   9  -1  281.27   10.20
   6   9   1  244.58   10.10
   6   9   1  238.68   10.00
  -9   6   1  274.47    9.90
  -9   6   1  278.77   11.10
  -9   6   1  287.37    9.70
  -9   7  -1   24.30    1.90
   7   9  -1   29.30    1.70
  -9   7  -1   26.40    1.20
  -7  -9  -1   26.80    2.20
  -9   7   1   30.10    1.80
  -9   7   1   28.30    2.00
   7   9   1   25.50    1.90
   7   9   1   26.30    1.70
  -9   7   1   26.40    1.40
  -8  -9  -1  238.38   11.30
  -9   8  -1  239.48   10.30
   8   9  -1  266.57    9.40
   8   9  -1  247.38    9.50
  -9   8   1  260.87    8.90
  -9   8   1  248.88   10.30
   8   9   1  231.98    9.30
   9   9  -1    1.20    0.40
  -9   9   1    1.00    0.80
  -9  -9   1    1.40    0.90
 -10  -8  -1   19.50    1.80
  10   8  -1   20.40    1.20
 -10  -8   1   21.40    1.70
 -10  -7  -1  343.97   15.40
  10   7  -1  344.07   12.70
  -7  10   1  329.17   13.90
 -10  -7   1  363.66   15.40
  -7  10   1  334.27   12.70
  10   6  -1   30.30    1.80
 -10  -6  -1   29.70    2.30
 -10  -6   1   32.70    2.30
  -6  10   1   32.10    1.80
  -6  10   1   33.60    2.20
 -10  -5  -1  185.58    8.60
  10   5  -1  178.08    7.00
  -5  10   1  180.18    7.70
 -10  -5   1  155.48    8.40
  -5  10   1  181.78    6.40
  -5  10   1  184.58    7.10
  10   4  -1   25.30    1.70
  -4  10  -1   27.30    1.90
 -10  -4  -1   26.30    2.10
 -10  -4   1   27.80    2.10
  -4  10   1   26.00    1.70
  -4  10   1   26.00    2.10
  -4  10   1   26.40    1.20
  10   3  -1  205.68    8.20
 -10  -3  -1  218.88   10.10
  -3  10  -1  219.18    8.30
  -3  10   1  205.28    7.70
 -10  -3   1  206.48    9.90
  -3  10   1  207.48    8.90
  -3  10   1  206.78    8.30
 -10  -2  -1   57.09    3.50
  -2  10  -1   58.29    2.80
  10   2  -1   52.69    2.80
 -10  -2   1   54.79    3.40
  -2  10   1   54.09    3.10
  -2  10   1   54.69    2.30
  10   1  -1  305.17   12.10
  -1  10  -1  332.27   12.20
 -10  -1  -1  328.37   14.70
 -10  -1  -1  322.57   12.40
  -1  10   1  307.47   11.70
  -1  10   1  307.67   12.20
 -10  -1   1  327.87   14.50
  10   0  -1  159.88    6.60
   0  10  -1  161.68    6.70
   0  10  -1  168.38    6.10
 -10   0  -1  159.28    8.00
 -10   0   1  168.48    6.20
 -10   0   1  165.38    8.00
   0  10   1  157.78    6.70
 -10   0   1  169.28    6.90
   0  10   1  160.38    6.30
   1  10  -1  321.27   12.00
 -10   1  -1  355.36   12.50
   1  10  -1  326.97   12.50
  10  -1  -1  320.97   12.50
   1  10   1  340.57   12.20
 -10   1   1  320.87   13.40
 -10   1   1  316.07   12.50
   1  10   1  336.57   12.60
 -10   1   1  310.77   11.60
 -10   2  -1   52.49    3.00
   2  10  -1   55.29    2.40
  10  -2  -1   56.69    3.00
 -10   2  -1   56.39    2.70
   2  10  -1   56.39    2.80
 -10   2   1   55.89    2.60
   2  10   1   53.99    2.70
 -10   2   1   56.19    2.80
   2  10   1   53.39    2.50
   3  10  -1  206.18    8.40
 -10   3  -1  218.48    9.20
 -10   3  -1  234.78    8.00
   3  10  -1  204.28    8.10
 -10   3   1  203.38    7.90
   3  10   1  219.98    8.50
 -10   3   1  208.98    9.10
 -10   3   1  205.88    8.40
   3  10   1  229.78    8.30
 -10   4  -1   25.30    2.00
 -10   4  -1   26.70    1.80
   4  10  -1   26.70    1.70
 -10   4  -1   26.60    1.60
   4  10  -1   27.50    1.50
 -10   4   1   29.30    1.70
   4  10   1   29.20    1.80
 -10   4   1   28.50    1.80
 -10   4   1   28.20    2.00
   4  10   1   26.50    1.60
 -10   5  -1  153.98    6.60
   5  10  -1  168.38    6.80
 -10   5  -1  159.48    7.40
   5  10  -1  188.28    6.70
   5  10   1  154.58    6.70
 -10   5   1  198.68    7.60
 -10   5   1  180.18    6.70
 -10   5   1  179.88    6.50
   5  10   1  159.38    6.80
   6  10  -1   33.60    1.80
 -10   6  -1   32.60    2.20
 -10   6  -1   33.30    1.60
   6  10  -1   33.20    1.80
 -10   6   1   28.00    2.10
 -10   6   1   33.70    1.70
   6  10   1   32.80    1.80
   6  10   1   33.60    1.90
 -10   6   1   35.20    1.90
   7  10  -1  346.87   13.30
   7  10  -1  331.57   13.20
 -10   7  -1  374.86   14.50
 -10   7   1  357.56   12.50
   7  10   1  378.86   13.20
 -10   7   1  346.17   14.40
   7  10   1  364.36   13.30
   8  10  -1   19.90    1.40
   8  10  -1   22.60    1.20
 -10   8   1   20.60    1.30
  -8 -10   1   20.20    1.80
  11   6  -1  219.78    8.20
 -11  -6  -1  224.48   10.00
  -6  11   1  214.58    8.20
 -11  -6   1  215.28   10.00
  11   5  -1   22.80    1.50
 -11  -5  -1   17.70    1.80
 -11  -5   1   22.00    1.90
  -5  11   1   20.60    1.40
  -5  11   1   20.30    2.10
 -11  -4  -1  387.26   17.10
  11   4  -1  386.36   14.20
 -11  -4   1  354.76   17.00
  -4  11   1  396.86   14.30
  -3  11  -1   73.69    3.30
 -11  -3  -1   73.19    4.10
  11   3  -1   75.29    3.30
  -3  11   1   72.09    3.30
 -11  -3   1   73.09    4.10
  -2  11  -1  213.48    8.90
  11   2  -1  245.58    9.00
 -11  -2  -1  227.48   10.80
  -2  11   1  234.08    9.00
  -2  11   1  240.38    8.40
 -11  -2   1  227.78   10.80
  -1  11  -1   94.79    4.00
  -1  11   1   91.59    3.60
  -1  11   1   89.49    4.00
 -11  -1   1   90.49    4.90
 -11   0  -1  291.77   11.30
   0  11  -1  286.47   11.20
   0  11   1  292.67   10.70
   0  11   1  297.57   11.20
   1  11  -1   95.09    3.70
 -11   1  -1   93.59    4.20
   1  11  -1   94.59    4.20
 -11   1   1  101.89    3.90
   1  11   1   98.29    3.90
   1  11   1   94.99    4.20
   2  11  -1  238.48    8.70
 -11   2  -1  237.38    9.10
   2  11  -1  230.88    9.20
   2  11   1  237.98    9.20
 -11   2   1  232.88    8.60
   2  11   1  239.38    8.90
 -11   2   1  239.18   10.00
 -11   3  -1   70.79    3.20
   3  11  -1   71.59    2.90
   3  11  -1   70.29    3.20
 -11   3   1   67.09    3.60
 -11   3   1   76.89    3.10
   3  11   1   72.49    3.30
   3  11   1   71.89    3.00
   4  11  -1  392.66   14.30
 -11   4  -1  401.06   14.50
   4  11  -1  397.96   14.70
 -11   4   1  371.46   15.80
 -11   4   1  389.56   13.70
   4  11   1  405.76   14.60
   4  11   1  382.36   14.40
   5  11  -1   22.80    1.20
 -11   5  -1   20.50    1.20
   5  11  -1   21.50    1.40
 -11   5   1   23.80    1.80
   5  11   1   21.30    1.40
   5  11   1   20.50    1.30
 -11   5   1   22.70    1.40
   6  11  -1  221.98    8.10
 -11   6  -1  211.58    7.90
   6  11  -1  234.08    8.30
   6  11   1  221.78    8.20
   6  11   1  211.28    8.20
 -11   6   1  212.88    9.00
 -11   6   1  208.28    7.80
   7  11  -1    9.40    0.80
 -11   7   1    9.00    0.90
   7  11   1    9.30    0.90
 -11   7   1    9.10    0.60
  -5  12   1  265.97    9.90
 -12  -4   1    1.70    1.30
  -4  12   1    2.00    0.50
  -3  12  -1  206.78    7.80
 -12  -3   1  196.18    9.50
  -3  12   1  213.48    7.90
  -2  12  -1   36.10    1.90
  -2  12   1   34.20    1.80
  -1  12  -1  126.39    5.10
  -1  12   1  125.79    5.10
   0  12  -1  376.36   13.90
   0  12   1  364.26   13.90
   0  12   1  375.06   13.40
 -12   1  -1  119.29    5.00
   1  12  -1  128.79    4.90
   1  12   1  123.69    4.60
   1  12   1  121.89    4.90
  12  -1   1  109.59    5.30
   2  12  -1   35.00    1.40
   2  12  -1   33.80    1.80
 -12   2  -1   35.40    1.90
   2  12   1   35.70    1.60
 -12   2   1   32.80    1.90
   2  12   1   36.70    1.90
   3  12  -1  202.28    8.10
 -12   3  -1  216.88    8.10
   3  12  -1  222.18    7.80
 -12   3   1  214.88    7.70
   3  12   1  214.88    8.20
   3  12   1  212.68    7.90
   4  12   1    3.80    0.70
   5  12  -1  289.27   10.00
   5  12  -1  282.47    9.70
 -12   5  -1  240.98    9.70
 -12   5   1  277.17    9.90
 -12   5   1  273.57    9.40
   5  12   1  262.77    9.90
   5  12   1  244.58    9.80
   6  12  -1   70.99    2.70
   6  12   1   65.49    2.70
  -3  13   1   34.60    1.60
  -2  13   1  152.88    5.80
  -1  13  -1    3.30    0.70
  -1  13   1    5.20    0.60
   0  13  -1  411.56   15.00
   0  13   1  407.36   15.00
   1  13  -1    6.70    0.70
   1  13   1    6.90    0.70
   2  13  -1  167.58    6.20
   2  13   1  156.88    6.20
   3  13  -1   39.00    1.70
   3  13   1   35.50    1.70
   0   0  -2 1349.56   59.89
   0   0   2 1404.06   59.39
   1   0   2 4295.77  183.98
  -1  -1  -2 3120.19  133.49
   1  -1  -2 2974.60  133.79
   1   1  -2 3307.07  134.29
  -1   1  -2 3057.59  133.69
   1  -1   2 3076.59  133.39
   1  -2  -2 3833.52  166.58
  -1   2  -2 4040.60  166.48
   2   1  -2 3986.70  166.98
  -2  -1  -2 4000.30  165.98
   2   1   2 3546.95  150.38
  -1   2   2 3827.32  150.48
   2   0  -2   73.39    3.50
   0  -2  -2   71.79    3.50
   0   2  -2   83.89    3.50
  -2   0  -2   72.59    3.40
   0   2   2   71.59    3.20
  -2   1  -2 3852.91  166.18
  -1  -2  -2 3939.31  166.88
   2  -1  -2 3857.91  167.08
   1   2  -2 3955.50  167.28
   1   2   2 3887.61  151.08
   2  -1   2 3800.12  166.18
  -2  -2  -2  932.21   39.70
   2   2  -2  928.01   40.20
   2  -2  -2  961.50   40.50
  -2   2  -2  867.01   35.60
  -2   2  -2  946.31   40.00
   2   2   2  899.91   35.80
   2  -2   2  876.21   39.30
  -2   2   2  940.11   35.60
   3   2  -2 1699.73   73.99
   2  -3  -2 1816.12   74.99
  -2   3  -2 1707.73   61.29
  -2   3  -2 1644.14   66.69
  -3  -2  -2 1629.14   73.09
  -3  -2  -2 1749.22   74.39
  -2   3   2 1715.53   67.39
   3   2   2 1734.03   67.39
   3   1  -2 3845.72  162.68
  -3  -1  -2 3786.22  161.88
   1  -3  -2 3545.65  161.98
  -3  -1  -2 3949.20  161.38
  -1   3   2 3703.63  146.39
   0   3  -2  561.04   24.30
   3   0  -2  569.44   24.30
   0  -3  -2  565.64   24.50
  -3   0  -2  578.14   24.50
  -3   0  -2  558.14   24.40
   0   3   2  542.65   22.00
  -3   1  -2 3578.74  141.89
  -3   1  -2 3466.05  155.48
   3  -1  -2 3785.92  157.08
   1   3  -2 3796.62  157.38
  -1  -3  -2 3739.83  156.68
   1   3   2 3436.26  141.79
  -3   1   2 3667.13  141.39
   2   3  -2 1760.22   62.39
   2   3  -2 1709.93   75.99
   3  -2  -2 1752.42   76.19
  -3   2  -2 1821.52   68.69
  -2  -3  -2 1782.12   75.39
  -3   2  -2 1690.13   62.79
  -3   2   2 1734.33   68.39
   2   3   2 1773.42   68.59
   3  -2   2 1668.63   74.89
  -3   3  -2 2106.29   72.09
   3   3  -2 2060.69   71.49
   3  -3  -2 2090.99   87.09
   3   3  -2 2037.90   87.39
  -3  -3  -2 1972.30   85.79
  -3  -3  -2 1880.51   85.79
  -3   3  -2 2087.39   78.59
  -3   3   2 1901.81   66.89
  -3   3   2 1973.40   71.99
  -3   3   2 2021.80   78.49
   3  -3   2 1763.62   85.19
   3   3   2 2048.30   77.49
  -3   4  -2  753.22   28.60
  -4  -3  -2  682.43   31.40
  -4  -3  -2  731.23   31.70
   4   3  -2  737.13   26.60
  -3   4  -2  762.02   26.60
   4   3  -2  720.63   31.70
   3  -4  -2  773.32   31.70
  -3   4   2  688.83   24.90
   4   3   2  727.63   28.60
  -3   4   2  711.73   26.30
  -3   4   2  761.32   28.60
   4   2  -2  618.74   26.20
  -4  -2  -2  587.14   26.30
  -2   4  -2  572.64   23.70
  -2   4  -2  593.74   21.60
  -4  -2  -2  600.34   26.00
   2  -4  -2  613.44   26.20
  -2   4   2  613.34   23.70
  -2   4   2  604.04   21.80
  -2   4   2  637.24   20.80
   4   2   2  610.94   23.70
  -4  -1  -2 2977.20  133.09
  -1   4  -2 3065.39  109.99
   4   1  -2 3069.79  133.19
  -4  -1  -2 3092.19  131.39
   1  -4  -2 3048.79  132.79
  -1   4   2 3248.48  120.59
  -1   4   2 3004.10  110.69
  -4   0  -2    4.60    0.70
   0  -4  -2    4.90    0.60
   0   4  -2    5.40    0.50
  -4   0   2    4.00    0.70
  -4   1  -2 2923.51  117.59
   1   4  -2 2897.81  113.99
   1   4  -2 2930.51  108.19
  -1  -4  -2 2924.31  130.79
   4  -1  -2 3095.69  130.89
  -4   1  -2 2864.71  108.19
   1   4   2 3186.78  118.39
  -4   1   2 3064.69  101.89
   1   4   2 3303.67  108.19
  -4   1   2 2981.90  117.69
  -2  -4  -2  606.04   26.70
   4  -2  -2  638.34   26.70
  -4   2  -2  601.44   22.20
   2   4  -2  608.54   22.30
  -4   2  -2  643.04   24.20
   2   4   2  645.34   22.40
  -4   2   2  580.44   21.00
  -4   2   2  588.24   22.30
  -4   2   2  622.34   24.10
   2   4   2  633.94   24.20
  -3  -4  -2  741.23   32.00
   3   4  -2  742.13   26.80
  -4   3  -2  762.52   26.60
  -4   3  -2  720.63   25.20
  -4   3  -2  743.93   29.00
   4  -3  -2  782.12   32.00
  -3  -4  -2  718.53   31.90
  -4   3   2  703.83   25.20
   3   4   2  764.82   28.90
  -4   3   2  744.43   26.70
   3   4   2  721.23   26.90
  -4   4  -2  178.58    7.80
   4  -4  -2  177.88    8.60
   4   4  -2  213.18    7.40
  -4  -4  -2  182.88    8.50
  -4   4  -2  180.68    7.00
  -4  -4  -2  195.48    8.70
   4   4   2  176.18    7.70
  -4   4   2  192.18    7.10
  -4   4   2  193.98    6.90
  -4   4   2  192.68    7.80
   5   4  -2 1478.15   51.59
  -4   5  -2 1417.76   55.69
   4  -5  -2 1421.36   61.59
   5   4  -2 1443.66   51.99
  -5  -4  -2 1446.66   61.69
  -4   5  -2 1443.36   51.79
   5   4   2 1399.86   55.59
  -4   5   2 1420.36   51.89
  -4   5   2 1455.75   52.29
  -4   5   2 1454.55   56.39
  -4   5   2 1398.76   48.40
   5   3  -2 2241.18   76.59
  -5  -3  -2 1997.20   92.69
  -3   5  -2 2086.89   76.69
   5   3  -2 2140.29   92.79
   3  -5  -2 2197.68   93.19
  -3   5  -2 2091.99   83.39
   5   3   2 2177.78   84.19
  -3   5   2 2124.99   77.59
  -3   5   2 2169.98   71.99
  -3   5   2 2153.28   84.09
  -5  -2  -2 3073.69  123.89
  -2   5  -2 2634.54  110.19
   2  -5  -2 2753.52  122.89
   5   2  -2 2898.71  123.19
  -2   5  -2 2849.81  101.39
  -2   5   2 2798.72  101.99
   5   2   2 2878.91  111.59
  -2   5   2 2838.32  111.39
  -2   5   2 2765.42   95.49
   1  -5  -2 2467.25  108.99
   5   1  -2 2539.15  108.59
  -5  -1  -2 2426.46   89.19
  -1   5  -2 2491.55   89.79
  -5  -1  -2 2557.54  108.79
  -1   5   2 2614.54   98.69
  -5  -1   2 2344.87   83.59
  -1   5   2 2553.64   90.59
   5   0  -2 1399.06   60.59
  -5   0  -2 1476.35   61.89
  -5   0  -2 1391.86   50.69
   0   5  -2 1386.46   51.19
   0  -5  -2 1416.96   61.89
   0   5   2 1474.75   56.09
   0   5   2 1428.26   51.29
  -5   0   2 1389.66   47.60
  -5   0   2 1369.76   54.69
  -5   1  -2 2461.55   96.39
  -5   1  -2 2459.15   88.99
   5  -1  -2 2560.94  106.69
   1   5  -2 2536.45   88.79
   1   5   2 2446.46   88.09
   1   5   2 2437.36   96.69
  -5   1   2 2460.85   88.29
  -5   1   2 2299.57   83.09
  -5   1   2 2441.56   95.79
  -5   2  -2 2850.31   98.39
   2   5  -2 2963.60  104.49
  -5   2  -2 2792.12  104.39
  -5   2  -2 2817.32  113.19
   5  -2  -2 2857.31  125.09
   2   5   2 3164.08  113.79
   2   5   2 2806.62  103.19
  -5   2   2 2761.22   98.09
  -5   2   2 2955.80  104.49
  -3  -5  -2 2158.88   92.19
   3   5  -2 2229.28   77.99
  -5   3  -2 2102.89   84.69
  -5   3  -2 2127.79   77.89
   5  -3  -2 2205.18   92.79
  -5   3  -2 2029.90   72.59
   3   5   2 2150.38   76.69
  -5   3   2 2225.38   77.99
  -5   3   2 2101.79   83.99
  -5   3   2 2135.49   73.39
   3   5   2 2152.18   84.39
   4   5  -2 1379.96   51.99
  -4  -5  -2 1447.06   61.59
  -5   4  -2 1414.16   55.79
  -4  -5  -2 1442.86   61.69
   5  -4  -2 1449.65   61.59
  -5   4  -2 1424.46   51.39
   4   5  -2 1492.25   51.49
  -5   4  -2 1451.45   48.50
   4   5   2 1429.16   51.59
  -5   4   2 1385.26   48.40
  -5   4   2 1490.55   51.99
  -5   4   2 1482.85   55.69
   4   5   2 1367.86   55.59
  -5   4   2 1427.36   52.19
   5   5  -2 2298.87   79.89
  -5  -5  -2 2232.38   96.49
   5   5  -2 2222.68   80.29
  -5   5  -2 2255.87   87.49
  -5   5  -2 2231.08   80.09
   5  -5  -2 2117.89   95.29
  -5   5   2 2241.18   80.29
  -5   5   2 2247.18   87.99
  -5   5   2 2195.68   75.59
   5   5   2 2191.98   86.29
  -5   5   2 2254.37   81.19
  -5   6  -2 1462.05   52.89
   5  -6  -2 1457.35   63.39
   6   5  -2 1433.96   52.89
  -6  -5  -2 1479.85   63.29
  -5   6  -2 1513.65   57.29
   6   5  -2 1508.45   53.29
  -5   6   2 1495.05   49.70
   6   5   2 1479.25   56.99
  -5   6   2 1476.05   53.39
  -5   6   2 1428.66   57.19
  -5   6   2 1428.06   53.19
   6   4  -2  148.69    6.20
  -4   6  -2  147.19    5.60
  -4   6  -2  147.59    6.60
   6   4  -2  159.68    6.30
   4  -6  -2  144.09    7.40
  -6  -4  -2  159.48    7.40
  -4   6   2  158.08    6.60
   6   4   2  147.29    6.50
  -4   6   2  150.48    5.80
  -4   6   2  153.28    6.20
  -4   6   2  157.48    5.80
  -3   6  -2 1547.55   55.49
   3  -6  -2 1586.54   66.59
  -6  -3  -2 1538.45   66.59
  -3   6  -2 1604.14   60.09
   6   3  -2 1469.45   56.09
  -3   6   2 1522.55   55.99
  -3   6   2 1508.65   52.19
  -3   6   2 1593.74   56.59
  -3   6   2 1566.14   60.19
   6   3   2 1549.94   60.29
  -6  -2  -2  389.36   17.80
   6   2  -2  389.06   17.60
  -6  -2  -2  364.66   15.00
  -2   6  -2  416.06   14.30
   2  -6  -2  428.26   17.80
  -2   6   2  379.06   13.80
  -2   6   2  402.26   14.60
  -2   6   2  404.06   16.00
   6   2   2  412.36   15.90
  -6  -1  -2 2728.93  110.59
   6   1  -2 2548.45  108.69
  -1   6  -2 2153.88   90.19
  -6  -1  -2 2643.14   90.39
   1  -6  -2 2547.34  109.49
  -1   6   2 2517.95   99.19
  -1   6   2 2470.25   90.79
  -6  -1   2 2534.65   84.89
  -6   0  -2  127.59    5.10
   6   0  -2  124.29    5.90
   0  -6  -2  123.79    6.10
   0   6  -2  129.49    4.70
  -6   0  -2  121.49    6.10
  -6   0   2  123.49    5.30
   0   6   2  130.09    5.40
   0   6   2  117.69    4.90
  -6   0   2  126.29    4.80
   6  -1  -2 2625.54  109.99
   1   6  -2 2495.65   92.49
  -6   1  -2 2540.05  101.59
  -6   1  -2 2734.83   93.59
  -6   1   2 2581.34   87.79
  -6   1   2 2531.75  100.39
  -6   1   2 2513.75   91.69
   1   6   2 2552.84  100.99
   1   6   2 2566.54   92.99
  -6   2  -2  409.66   15.40
  -6   2  -2  415.76   16.80
  -6   2  -2  424.56   14.60
   6  -2  -2  414.56   18.40
   2   6  -2  418.86   15.30
  -6   2   2  417.56   16.60
  -6   2   2  414.96   15.40
   2   6   2  437.36   16.70
  -6   2   2  402.46   14.60
   2   6   2  429.86   15.40
  -3  -6  -2 1455.95   64.69
  -6   3  -2 1444.66   53.89
   6  -3  -2 1315.87  117.19
   3   6  -2 1488.55   54.59
   3   6  -2 1526.85   54.49
  -6   3  -2 1497.35   50.89
  -6   3  -2 1573.74   59.29
  -6   3   2 1528.75   50.89
  -6   3   2 1572.34   59.29
  -6   3   2 1475.75   54.19
  -6   3   2 1524.15   54.59
   3   6   2 1585.24   54.09
   3   6   2 1553.84   58.69
  -6   4  -2  143.49    6.50
  -6   4  -2  148.39    5.80
   4   6  -2  148.39    6.10
   6  -4  -2  142.89    7.20
   4   6  -2  151.58    6.00
  -4  -6  -2  156.78    7.20
  -6   4  -2  145.49    5.80
   4   6   2  131.39    6.20
  -6   4   2  160.78    6.20
  -6   4   2  152.18    6.50
  -6   4   2  153.28    5.90
   4   6   2  156.88    6.40
   4   6   2  150.68    6.10
  -6   4   2  154.48    5.80
  -6   5  -2 1550.84   58.69
   5   6  -2 1510.05   54.09
  -5  -6  -2 1529.55   64.79
   5   6  -2 1497.45   54.59
  -6   5  -2 1456.15   54.09
  -6   5   2 1496.05   54.49
   5   6   2 1559.84   58.39
  -6   5   2 1502.15   58.59
   5   6   2 1537.35   54.29
  -6   5   2 1459.45   50.89
  -6   5   2 1459.95   54.29
  -6   6  -2  211.08    7.90
   6   6  -2  211.18    8.40
   6   6  -2  219.48    8.50
  -6   6  -2  204.98    9.10
  -6  -6  -2  222.58   10.10
  -6   6   2  213.78    8.20
  -6   6   2  220.58    9.10
   6   6   2  193.18    8.90
  -6   6   2  218.58    8.50
  -6   6   2  231.78    8.00
   7   6  -2 1375.66   49.50
   7   6  -2 1321.47   49.10
  -6   7  -2 1352.66   53.19
  -7  -6  -2 1391.66   58.79
  -6   7   2 1356.06   49.00
  -6   7   2 1387.06   46.20
  -6   7   2 1368.76   49.40
  -6   7   2 1336.57   53.09
  -7  -5  -2 1140.19   48.40
  -5   7  -2 1077.29   43.60
   7   5  -2 1163.98   40.70
   7   5  -2 1111.19   40.50
  -5   7   2 1190.18   43.70
  -5   7   2 1106.19   37.90
  -5   7   2 1063.49   40.00
  -5   7   2 1089.49   40.60
   7   5   2 1092.89   43.40
   7   4  -2 1876.81   63.59
  -7  -4  -2 1801.62   75.59
  -4   7  -2 1733.03   68.19
   7   4   2 1754.32   68.09
  -4   7   2 1679.33   62.99
  -4   7   2 1732.43   59.09
  -4   7   2 1735.33   63.49
  -4   7   2 1732.13   68.19
  -7  -3  -2 1235.88   53.49
   7   3  -2 1317.87   45.10
   3  -7  -2 1209.78   53.49
  -3   7   2 1233.38   48.30
  -3   7   2 1213.68   45.10
  -3   7   2 1199.78   41.80
  -3   7   2 1267.17   45.00
   7   3   2 1220.18   48.20
  -2   7  -2 1666.33   60.29
  -7  -2  -2 1718.63   72.49
   7   2  -2 1733.73   60.99
   2  -7  -2 1622.44   72.49
  -2   7   2 1658.33   60.89
  -2   7   2 1690.53   65.69
  -2   7   2 1690.33   60.89
   7   2   2 1698.33   65.59
  -1   7  -2 1307.27   46.60
  -1   7  -2 1284.97   47.00
   1  -7  -2 1291.17   55.89
   7   1  -2 1294.87   55.69
   7   1  -2 1277.77   47.00
  -7  -1  -2 1297.77   46.70
  -7  -1  -2 1261.07   55.89
  -1   7   2 1248.58   46.80
  -1   7   2 1277.87   47.00
  -1   7   2 1373.86   50.49
  -7  -1   2 1321.67   43.70
  -7   0  -2 1981.10   70.19
  -7   0  -2 2004.70   84.99
   0   7  -2 1901.91   70.59
   0  -7  -2 1913.21   83.79
   0   7  -2 1868.51   70.49
   0   7   2 1961.10   76.29
   0   7   2 2021.90   70.49
   0   7   2 2061.99   71.19
  -7   0   2 1851.71   65.59
  -7   1  -2 1329.07   46.30
   1   7  -2 1273.77   46.40
   1   7  -2 1287.47   46.70
  -7   1  -2 1272.97   50.09
  -7   1   2 1258.07   46.30
   1   7   2 1285.77   46.40
  -7   1   2 1265.47   43.50
   1   7   2 1275.77   46.70
   1   7   2 1300.07   49.99
  -7   1   2 1307.77   49.90
  -7   2  -2 1728.73   66.89
  -7   2  -2 1788.92   61.89
   2   7  -2 1691.73   61.79
   2   7  -2 1621.24   61.29
  -7   2   2 1652.83   66.09
   2   7   2 1667.23   61.29
  -7   2   2 1627.34   57.09
   2   7   2 1679.83   60.69
  -7   2   2 1711.63   60.69
   2   7   2 1774.02   65.89
   3   7  -2 1299.27   46.30
  -7   3  -2 1267.97   49.70
   3   7  -2 1287.37   45.70
  -7   3  -2 1280.87   46.00
  -7   3   2 1290.27   43.20
  -7   3   2 1274.37   45.80
   3   7   2 1276.47   49.50
   3   7   2 1285.67   45.90
  -7   3   2 1253.57   49.60
   3   7   2 1221.28   46.30
  -7   4  -2 1743.23   64.19
   4   7  -2 1775.22   63.99
  -7   4  -2 1817.52   69.39
  -4  -7  -2 1766.02   76.09
   4   7  -2 1750.22   64.09
   4   7   2 1779.12   63.59
   4   7   2 1840.42   68.69
  -7   4   2 1703.53   69.09
  -7   4   2 1785.32   64.19
   4   7   2 1788.92   64.09
  -7   4   2 1740.83   63.69
  -7   4   2 1788.42   59.79
  -5  -7  -2 1080.09   46.80
   5   7  -2 1117.29   39.40
   5   7  -2 1054.69   39.00
  -7   5  -2 1053.69   42.40
  -7   5  -2 1082.39   38.80
   5   7   2 1018.70   39.30
  -7   5   2 1097.89   38.90
   5   7   2 1053.59   39.10
  -7   5   2 1122.39   39.40
  -7   5   2 1123.09   36.80
  -7   6  -2 1361.26   49.20
   6   7  -2 1316.17   49.70
   6   7  -2 1407.36   49.30
  -7   6  -2 1424.46   53.49
  -7   6   2 1388.56   49.10
  -7   6   2 1352.86   46.40
  -7   6   2 1364.66   53.39
  -7   6   2 1331.87   49.70
  -7   7  -2  860.31   34.20
  -7  -7  -2  856.41   37.70
   7   7  -2  865.11   31.70
  -7   7  -2  833.22   30.80
   7   7  -2  885.41   31.60
  -7   7   2  900.21   29.70
  -7   7   2  833.32   31.70
  -7   7   2  908.31   34.20
  -7   7   2  846.52   31.20
   8   7  -2  367.46   14.10
   8   7  -2  366.76   14.00
  -8  -7  -2  357.06   16.70
  -7   8  -2  381.06   15.20
  -7   8   2  360.56   13.90
  -7   8   2  371.36   13.60
  -7   8   2  380.76   15.20
  -7   8   2  378.96   13.10
   8   6  -2   55.59    2.90
  -8  -6  -2   55.29    3.50
  -6   8  -2   67.39    3.40
  -6   8   2   55.09    2.60
  -6   8   2   62.59    3.30
  -6   8   2   60.69    2.80
  -6   8   2   56.49    2.90
  -8  -5  -2  635.24   26.90
  -5   8  -2  564.64   24.10
   8   5  -2  609.14   22.50
  -5   8   2  610.04   22.50
  -5   8   2  608.24   21.00
  -5   8   2  594.64   24.20
  -5   8   2  629.74   22.00
  -8  -4  -2   25.20    2.10
   8   4  -2   25.60    1.80
  -4   8   2   24.10    1.70
  -4   8   2   23.10    1.30
  -4   8   2   27.90    1.90
  -4   8   2   26.70    1.80
   8   4   2   22.60    1.80
  -8  -3  -2  646.14   26.60
   8   3  -2  610.94   22.20
  -3   8   2  582.84   22.20
  -3   8   2  581.54   21.70
   8   3   2  584.54   23.70
  -3   8   2  580.24   23.80
   8   2  -2   20.20    1.70
  -8  -2  -2   20.80    1.90
  -2   8   2   21.70    1.70
  -2   8   2   24.30    1.30
   8   2   2   25.90    1.70
  -2   8   2   21.30    1.70
  -1   8  -2  657.63   22.50
  -8  -1  -2  602.74   23.10
  -1   8  -2  629.64   23.20
  -8  -1  -2  626.24   27.70
   8   1  -2  613.94   23.20
  -1   8   2  633.74   22.80
  -8  -1   2  623.84   21.50
  -1   8   2  616.74   23.20
  -1   8   2  641.34   24.90
   0   8  -2    3.50    0.50
   0   8  -2    3.00    0.90
  -8   0  -2    3.30    1.00
   8   0  -2    4.00    0.90
  -8   0  -2    4.40    0.90
   0   8   2    3.00    0.60
   0   8   2    3.90    1.00
   1   8  -2  641.44   23.00
  -8   1  -2  664.23   23.40
   1   8  -2  581.84   23.50
   1   8   2  641.84   23.60
  -8   1   2  613.34   25.10
   1   8   2  660.53   23.20
  -8   1   2  629.64   21.90
   1   8   2  666.63   25.20
  -8   1   2  637.24   23.40
  -8   2  -2   25.50    1.60
   2   8  -2   24.40    1.70
   2   8  -2   21.10    1.30
  -8   2   2   22.70    1.70
   2   8   2   26.30    1.70
   2   8   2   25.20    1.80
  -8   2   2   23.90    1.60
  -8   2   2   21.20    1.60
   2   8   2   24.50    1.50
   3   8  -2  600.74   21.70
  -8   3  -2  494.35   23.20
   3   8  -2  608.44   21.30
  -8   3  -2  620.24   21.50
   3   8   2  596.94   21.70
  -8   3   2  581.24   20.30
   3   8   2  578.84   23.10
  -8   3   2  579.04   23.20
   3   8   2  587.24   21.40
  -8   3   2  598.54   21.50
  -8   4  -2   22.70    1.40
   4   8  -2   24.10    1.70
  -8   4  -2   22.70    1.90
   4   8  -2   24.30    1.40
   4   8   2   22.80    1.60
  -8   4   2   24.70    1.50
  -8   4   2   24.20    1.60
   4   8   2   23.00    1.70
  -8   4   2   25.70    1.80
  -8   5  -2  575.84   24.20
  -8   5  -2  590.44   22.00
   5   8  -2  621.94   22.20
   5   8  -2  575.64   22.40
  -8   5   2  633.04   21.10
   5   8   2  577.34   22.40
  -8   5   2  626.54   24.20
  -8   5   2  648.94   22.20
   6   8  -2   59.19    2.90
   6   8  -2   55.49    2.90
  -8   6  -2   68.09    2.60
  -6  -8  -2   57.79    3.70
  -8   6  -2   68.59    3.50
  -8   6   2   60.39    3.30
  -8   6   2   60.39    2.90
   6   8   2   64.89    3.20
   6   8   2   64.99    3.10
  -8   6   2   55.49    2.70
  -7  -8  -2  353.86   16.50
   7   8  -2  366.56   13.80
   7   8  -2  353.66   13.70
  -8   7  -2  378.16   15.10
  -8   7   2  377.26   15.00
  -8   7   2  357.76   13.50
  -8   7   2  381.66   13.10
   8   8  -2  178.88    7.20
   8   8  -2  185.58    7.10
  -8   8  -2  188.38    7.90
  -8  -8  -2  169.08    8.50
  -8   8   2  171.58    7.80
  -8   8   2  190.78    6.80
  -8   8   2  184.38    6.90
   9   8  -2  700.53   24.80
  -9  -8  -2  637.64   29.50
  -8   9   2  708.43   24.40
  -8   9   2  678.13   23.20
  -8   9   2  674.13   26.80
  -9  -7  -2  665.73   29.30
   9   7  -2  696.43   24.60
  -7   9   2  691.63   24.10
  -7   9   2  650.43   24.60
  -7   9   2  664.23   22.90
  -7   9   2  653.93   26.50
   9   6  -2  539.75   20.10
  -9  -6  -2  557.14   24.00
  -6   9   2  503.95   20.00
  -6   9   2  532.25   18.70
  -6   9   2  557.34   19.60
  -6   9   2  562.94   21.70
  -9  -5  -2  774.62   33.60
   9   5  -2  784.12   28.10
  -5   9   2  747.43   26.20
  -5   9   2  775.02   28.20
  -5   9   2  753.02   30.30
  -5   9   2  763.52   27.60
   9   4  -2  241.68    9.80
  -9  -4  -2  268.37   11.90
  -4   9   2  241.08    9.40
  -4   9   2  256.57    9.90
  -4   9   2  253.47   10.60
   9   3  -2  981.80   36.30
  -9  -3  -2 1006.50   43.40
  -3   9   2 1021.20   39.10
   9   3   2  966.50   38.90
  -3   9   2  989.80   36.40
  -3   9   2 1004.40   35.70
  -2   9  -2  382.66   15.30
   9   2  -2  394.26   15.10
  -9  -2  -2  392.66   18.20
   9   2   2  418.96   16.20
  -2   9   2  409.46   16.30
  -2   9   2  414.36   15.20
  -2   9   2  395.66   14.70
  -9  -2   2  394.36   17.90
  -1   9  -2  994.60   36.80
  -9  -1  -2 1035.10   37.70
  -1   9  -2  951.80   37.70
  -1   9  -2  970.60   36.80
   9   1  -2 1105.09   37.90
  -9  -1  -2 1072.09   45.10
  -1   9   2 1115.69   40.60
  -9  -1   2 1029.70   35.10
  -1   9   2 1077.49   37.90
   9   1   2 1040.50   40.50
  -1   9   2 1109.59   37.30
  -9  -1   2  916.31   44.70
   0   9  -2 1199.38   45.50
  -9   0  -2 1276.87   45.30
   9   0  -2 1228.28   45.50
   0   9  -2 1268.97   44.90
   0   9   2 1315.97   48.90
  -9   0   2 1219.58   42.40
   0   9   2 1219.98   44.90
   0   9   2 1283.57   45.60
  -9   1  -2 1056.69   38.70
   1   9  -2 1088.69   39.00
   1   9  -2 1124.59   38.60
   9  -1  -2 1019.60   39.00
  -9   1   2 1094.19   36.40
   1   9   2 1050.99   38.50
  -9   1   2 1113.99   38.90
   1   9   2 1022.60   41.80
   1   9   2 1054.89   39.10
   2   9  -2  409.86   15.10
  -9   2  -2  397.46   15.00
   2   9  -2  408.36   14.70
   2   9   2  406.46   15.10
  -9   2   2  384.26   15.00
  -9   2   2  399.36   16.10
  -9   2   2  408.26   14.10
   2   9   2  384.16   14.80
   3   9  -2 1010.50   37.90
   3   9  -2 1037.10   37.40
  -9   3  -2 1069.29   37.60
  -9   3   2 1062.89   40.70
  -9   3   2 1043.00   35.40
  -9   3   2 1057.09   37.70
   3   9   2 1019.80   37.50
   3   9   2 1011.90   37.90
   4   9  -2  247.38   10.00
  -9   4  -2  255.37    9.80
   4   9  -2  256.07    9.80
  -9   4  -2  257.47   10.90
   4   9   2  256.87   10.00
  -9   4   2  255.97    9.90
  -9   4   2  257.87    9.50
  -9   4   2  274.57   10.80
   4   9   2  265.37    9.90
   5   9  -2  780.22   29.10
  -9   5  -2  778.42   31.30
  -9   5  -2  790.82   28.60
   5   9  -2  795.22   28.70
  -9   5   2  827.52   28.80
  -9   5   2  785.72   31.30
   5   9   2  797.32   28.90
   5   9   2  819.92   29.00
  -9   5   2  758.22   27.20
   6   9  -2  566.54   20.40
  -9   6  -2  537.75   22.20
   6   9  -2  548.75   20.60
  -9   6  -2  573.04   20.10
   6   9   2  571.84   20.50
  -9   6   2  545.45   20.30
  -9   6   2  550.64   22.20
   6   9   2  558.84   20.50
  -9   6   2  554.14   19.30
   7   9  -2  713.93   25.40
   7   9  -2  690.03   25.20
  -9   7   2  695.13   25.10
  -9   7   2  666.83   27.30
  -9   7   2  698.23   23.80
   8   9  -2  661.73   24.90
   8   9  -2  713.43   25.10
  -9   8   2  695.23   24.70
  -9   8   2  689.63   23.40
  -9   8   2  674.53   27.00
   9   9  -2  432.16   15.80
  10   8  -2   39.70    1.80
  10   7  -2  283.57   10.20
 -10  -7  -2  254.97   12.30
 -10  -7   2  302.67   12.40
  -7  10   2  254.87   11.20
  10   6  -2   69.99    3.20
 -10  -6  -2   74.29    4.00
  -6  10   2   74.19    3.70
 -10  -6   2   71.69    4.00
  -6  10   2   76.19    3.20
  -6  10   2   75.09    2.90
  10   5  -2 1129.39   40.70
 -10  -5  -2 1137.09   48.60
  -5  10   2 1109.39   40.10
  -5  10   2 1129.59   43.90
  -5  10   2 1152.68   40.80
 -10  -5   2 1072.59   48.40
  10   4  -2   82.39    3.70
 -10  -4  -2   85.79    4.70
  -4  10   2   86.19    3.80
 -10  -4   2   86.59    4.60
  -4  10   2   84.59    3.40
  -4  10   2   88.29    4.20
 -10  -3  -2 1153.08   50.99
  10   3  -2 1201.08   42.80
  -3  10   2 1225.08   46.00
  -3  10   2 1131.39   42.10
 -10  -3   2 1141.19   50.79
  -3  10   2 1207.08   42.90
  -2  10  -2  150.48    6.20
  10   2  -2  154.08    6.30
 -10  -2  -2  163.18    7.80
 -10  -2   2  152.28    7.50
  -2  10   2  154.18    6.40
  10   2   2  158.58    6.80
  -2  10   2  150.88    6.80
  -2  10   2  155.18    6.00
  -1  10  -2  676.63   25.50
  10   1  -2  699.13   25.50
 -10  -1  -2  700.63   25.60
  -1  10   2  706.43   25.60
  -1  10   2  674.33   25.00
  -1  10   2  692.33   27.40
  10   1   2  697.43   27.40
  10   0  -2  222.78    8.60
   0  10  -2  215.78    7.80
 -10   0  -2  210.58    8.60
   0  10  -2  212.38    8.50
   0  10   2  216.18    8.60
  10   0   2  223.88    9.20
 -10   0   2  213.78    7.90
   0  10   2  218.08    9.20
   0  10   2  222.08    8.30
   1  10  -2  695.03   25.80
  10  -1  -2  713.93   25.80
   1  10  -2  712.93   25.10
 -10   1   2  692.33   25.80
   1  10   2  673.43   25.40
   1  10   2  676.33   25.80
 -10   1   2  735.03   24.10
   2  10  -2  158.78    6.30
 -10   2  -2  174.88    6.70
  10  -2  -2  158.98    6.70
   2  10  -2  161.88    6.70
 -10   2   2  155.38    6.70
 -10   2   2  160.98    6.30
   2  10   2  179.38    6.60
   2  10   2  175.38    6.80
   3  10  -2 1259.97   45.50
  10  -3  -2 1281.77   45.40
   3  10  -2 1233.88   44.80
 -10   3  -2 1267.57   45.10
 -10   3   2 1268.87   42.40
 -10   3   2 1255.17   45.20
   3  10   2 1255.67   45.00
   3  10   2 1225.08   45.40
 -10   3   2 1213.58   48.80
   4  10  -2   81.19    3.50
   4  10  -2   83.99    3.70
 -10   4  -2   83.39    3.60
 -10   4   2   82.89    4.10
 -10   4   2   82.59    3.70
   4  10   2   85.39    3.70
 -10   4   2   85.79    3.60
   4  10   2   83.99    3.70
   5  10  -2 1157.28   39.50
   5  10  -2 1070.19   39.90
 -10   5  -2 1039.30   39.40
 -10   5   2 1136.19   39.60
 -10   5   2 1137.29   37.30
 -10   5   2 1091.09   42.90
   5  10   2 1095.99   39.60
   5  10   2 1059.29   39.80
   6  10  -2   76.39    3.20
   6  10  -2   73.79    3.20
 -10   6  -2   74.29    2.90
   6  10   2   74.89    3.20
   6  10   2   71.89    3.40
 -10   6   2   76.49    3.70
 -10   6   2   74.19    3.20
 -10   6   2   74.39    3.20
   7  10  -2  277.57   10.60
   7  10  -2  296.07   10.70
 -10   7   2  289.47   10.50
 -10   7   2  292.77   10.10
 -10   7   2  268.97   11.60
   8  10  -2   47.70    2.00
 -10   8   2   40.40    1.90
  11   7  -2  545.45   19.70
  11   6  -2  413.76   15.10
  -6  11   2  410.86   15.10
  11   5  -2  525.35   18.30
  -5  11   2  505.85   18.40
 -11  -5   2  469.55   21.90
  11   4  -2  496.85   17.50
  -4  11   2  471.85   17.50
 -11  -4   2  459.85   20.80
  -4  11   2  488.45   17.00
  -4  11   2  452.75   18.90
  11   3  -2  663.03   23.40
  -3  11   2  604.74   25.20
  -3  11   2  614.44   23.40
  -3  11   2  655.03   22.90
 -11  -3   2  652.03   27.90
  11   2  -2  670.53   24.60
  -2  11   2  678.23   24.70
  -2  11   2  668.23   24.20
  -1  11  -2 1113.99   41.10
 -11  -1  -2 1180.98   41.30
  11   1  -2 1191.98   41.10
  11   1   2 1079.59   44.20
  -1  11   2 1125.19   40.60
  -1  11   2 1109.59   41.20
  11   0  -2  438.16   16.10
   0  11  -2  439.36   16.10
   0  11   2  419.46   16.20
   0  11   2  429.36   15.80
  11   0   2  437.36   17.40
   1  11  -2 1186.38   42.40
 -11   1  -2 1156.68   42.10
  11  -1  -2 1104.29   42.30
   1  11   2 1148.69   42.40
   1  11   2 1173.38   41.90
 -11   1   2 1204.48   39.50
  11  -1   2 1196.18   45.60
   2  11  -2  689.93   25.60
   2  11  -2  701.03   25.00
  11  -2  -2  688.73   25.60
 -11   2  -2  711.33   25.50
   2  11   2  699.83   25.30
 -11   2   2  684.73   25.60
   2  11   2  724.13   25.60
 -11   2   2  689.73   23.90
  11  -3  -2  707.13   25.40
   3  11  -2  664.13   25.40
 -11   3  -2  694.73   25.20
   3  11  -2  686.53   24.90
   3  11   2  706.43   25.10
 -11   3   2  677.83   25.30
   3  11   2  737.73   25.40
 -11   3   2  676.13   23.70
 -11   4  -2  510.15   18.10
   4  11  -2  508.55   17.90
  11  -4  -2  477.95   18.20
   4  11  -2  498.45   18.30
 -11   4   2  437.16   19.80
 -11   4   2  521.55   17.10
 -11   4   2  497.85   18.20
   4  11   2  511.85   18.20
   4  11   2  495.05   18.10
   5  11  -2  542.15   19.30
 -11   5  -2  520.65   18.90
   5  11  -2  532.75   19.00
   5  11   2  499.05   19.10
   5  11   2  514.75   19.10
 -11   5   2  516.75   19.10
 -11   5   2  546.85   18.10
   6  11  -2  438.06   15.70
   6  11  -2  420.16   15.50
 -11   6   2  425.56   14.70
   7  11  -2  601.24   21.80
  -5  12   2  292.57   10.80
  12   4  -2   54.79    2.30
  -4  12   2   55.59    2.40
  12   3  -2  475.55   16.90
  -3  12   2  448.96   17.00
  12   2  -2    7.30    1.00
  -2  12   2    6.10    0.80
  -1  12  -2  540.35   19.70
  12   1  -2  553.04   19.70
  -1  12   2  513.35   19.80
  -1  12   2  550.94   19.30
   0  12  -2    7.80    1.00
 -12   0  -2    6.40    1.40
  12   0  -2    6.20    1.10
   0  12   2    8.50    0.60
   0  12   2    7.50    0.90
   1  12  -2  563.34   19.80
 -12   1  -2  534.55   19.80
   1  12   2  564.74   19.50
   1  12   2  555.74   19.80
  12  -1   2  482.95   21.30
 -12   2  -2    9.40    1.00
   2  12  -2    8.00    0.90
   2  12   2   10.40    0.90
 -12   2   2    6.90    1.10
  12  -2   2    7.40    1.30
 -12   3  -2  511.35   18.40
   3  12  -2  483.65   18.50
 -12   3   2  451.45   17.20
   3  12   2  540.75   18.30
   3  12   2  539.75   18.50
   4  12  -2   57.79    2.30
 -12   4  -2   46.30    2.10
   4  12   2   50.19    2.20
 -12   4   2   54.59    2.20
   4  12   2   46.80    2.20
   5  12  -2  301.07   11.10
  -1  13   2  401.76   14.70
   0  13   2  272.17   10.00
   1  13   2  391.46   14.30
   0   0  -3    0.00    0.30
   0   0   3    0.00    0.30
  -1   0  -3  431.96   18.70
   0  -1  -3  446.66   18.70
   0   1  -3  431.86   18.70
   0   1  -3  416.76   15.70
   1   0  -3  441.86   18.70
   0  -1   3  410.16   16.80
  -1   0   3  393.56   16.80
   1   0   3  434.76   16.90
   0   1   3  416.26   16.90
   1   1  -3    5.00    0.80
   1  -2  -3  556.54   22.70
   2   1  -3  510.55   22.70
  -1   2  -3  535.15   22.60
  -1   2  -3  515.65   18.90
  -2  -1  -3  521.15   22.60
   2   1   3  521.65   20.50
   1  -2   3  484.65   20.40
  -1   2   3  510.15   20.40
   0  -2  -3    4.30    0.70
  -2   0  -3    3.20    0.90
   0   2  -3    5.60    0.80
   2  -1  -3  521.05   22.40
  -2   1  -3  531.25   18.70
   1   2  -3  503.95   22.40
  -2   1  -3  548.95   22.30
  -1  -2  -3  524.45   22.30
   1   2  -3  509.65   18.70
   1   2  -3  487.45   19.70
   2  -1   3  474.55   20.20
  -2   1   3  510.35   20.10
   1   2   3  509.85   20.20
   2  -2  -3    1.10    0.70
  -2   3  -3 2093.79   80.69
   3   2  -3 2118.99   92.79
   2  -3  -3 2126.09   92.79
  -2   3  -3 2109.49   76.99
   3   2  -3 2172.68   76.09
   3   2  -3 2107.39   80.69
  -3  -2  -3 2203.08   92.19
  -2   3   3 2096.69   71.29
   3   2   3 2033.30   83.59
  -2   3   3 2178.78   83.89
  -3  -2   3 2073.69   71.59
  -2   3   3 2195.08   76.39
  -1   3  -3   41.20    2.20
   3   1  -3   39.50    2.30
   1  -3  -3   42.80    2.50
   3   1  -3   40.90    2.50
  -1   3  -3   40.30    1.90
   3   1  -3   48.90    2.50
  -3  -1  -3   38.90    2.30
  -3  -1  -3   43.00    2.30
  -1   3  -3   41.50    2.40
  -1   3   3   41.80    2.20
  -3  -1   3   38.50    2.00
   3   1   3   43.30    2.20
  -1   3   3   41.30    2.10
   1  -3   3   38.30    2.20
   0   3  -3  718.73   30.00
  -3   0  -3  696.73   25.10
  -3   0  -3  694.73   29.70
   0   3  -3  644.04   26.40
   0   3  -3  716.53   24.90
   0  -3  -3  691.93   29.90
   3   0  -3  711.13   30.00
   3   0   3  653.03   27.00
  -3   0   3  682.23   23.50
  -3   0   3  663.83   26.90
   0   3   3  684.83   27.00
   1   3  -3   41.60    2.00
   1   3  -3   41.30    2.50
   1   3  -3   37.90    2.20
  -3   1  -3   43.70    2.00
  -3   1  -3   39.70    2.20
   3  -1  -3   41.40    2.40
   1   3   3   39.80    2.20
  -3   1   3   39.30    2.10
  -3   1   3   45.50    2.00
   2   3  -3 2220.88   93.69
   2   3  -3 2219.88   76.89
   3  -2  -3 2116.19   92.89
  -3   2  -3 2115.99   76.69
   2   3  -3 2114.09   81.29
  -2  -3  -3 2139.29   93.29
  -3   2   3 2170.88   84.09
   2   3   3 2070.89   84.09
  -3   2   3 2058.09   71.79
  -3   2   3 2131.19   76.29
  -3   3  -3    1.30    1.00
  -3   3  -3    0.50    0.40
   3   3  -3    0.00    0.80
  -3  -3  -3    0.00    0.60
   3   3  -3    0.00    0.50
  -3   3   3    0.10    0.50
  -3   4  -3 1835.32   66.79
  -4  -3  -3 1795.32   75.99
  -3   4  -3 1707.73   64.09
   4   3  -3 1854.01   63.59
   4   3  -3 1785.32   75.99
   4   3  -3 1769.72   66.79
   3  -4  -3 1781.42   75.99
   4   3   3 1765.22   69.89
  -4  -3   3 1673.83   59.39
  -3   4   3 1822.42   64.09
  -3   4   3 1669.23   59.49
  -3   4   3 1788.02   70.09
   2  -4  -3  162.08    7.80
  -2   4  -3  165.88    6.90
   4   2  -3  165.08    6.70
  -4  -2  -3  167.58    7.80
  -2   4  -3  182.88    6.30
   4   2  -3  162.38    7.80
   4   2  -3  157.38    6.80
   4   2   3  168.48    7.00
  -4  -2   3  160.68    6.10
  -2   4   3  167.88    6.40
  -2   4   3  159.28    6.90
  -2   4   3  167.28    6.10
  -4  -1  -3   48.80    2.50
  -1   4  -3   47.20    2.50
  -1   4  -3   47.80    2.10
   4   1  -3   43.70    2.50
   4   1  -3   47.90    2.70
   1  -4  -3   49.50    2.80
  -1   4   3   42.20    2.40
  -1   4   3   45.10    2.20
  -1   4   3   43.10    2.20
   4   1   3   48.80    2.50
   4   0  -3  371.26   16.50
   0   4  -3  382.26   13.60
   4   0  -3  357.06   14.50
  -4   0  -3  391.86   13.80
   0   4  -3  358.16   14.50
   4   0   3  364.96   14.90
  -4   0   3  370.36   14.70
   0   4   3  347.77   12.90
   0   4   3  387.76   13.80
   0   4   3  357.86   14.80
  -4   0   3  375.06   12.90
   1   4  -3   48.10    2.50
  -4   1  -3   47.70    2.30
   4  -1  -3   43.40    2.70
   1   4  -3   47.10    2.10
   1   4  -3   49.00    2.80
  -1  -4  -3   45.10    2.70
  -4   1   3   44.00    2.20
   1   4   3   46.00    2.30
   1   4   3   43.50    2.40
  -4   1   3   44.60    2.30
   2   4  -3  163.98    7.90
   2   4  -3  163.68    6.40
   2   4  -3  170.78    6.90
   4  -2  -3  170.78    7.80
  -4   2  -3  151.18    6.90
  -2  -4  -3  169.58    7.80
  -4   2  -3  164.78    6.40
  -4   2   3  165.48    6.50
   2   4   3  171.58    7.00
  -4   2   3  167.88    6.20
  -4   2   3  175.38    7.00
  -4   3  -3 1606.54   67.19
   3   4  -3 1796.72   63.89
   3   4  -3 1818.52   67.39
  -3  -4  -3 1783.12   76.49
  -3  -4  -3 1817.12   76.49
  -4   3  -3 1789.62   64.19
   4  -3  -3 1788.02   76.49
   3   4  -3 1730.33   76.59
  -4   3   3 1724.03   59.99
  -4   3   3 1778.62   70.39
   3   4   3 1723.33   70.09
  -4   3   3 1805.42   63.89
  -4   3   3 2038.00   64.59
  -4  -4  -3    0.90    0.80
   4   4  -3    0.50    0.50
  -4   4  -3    1.40    0.40
  -4   4  -3    1.50    1.20
  -4   4   3    1.20    0.50
  -4   4   3    0.70    0.70
  -4   4   3    0.30    0.50
  -5  -4  -3  407.56   17.90
  -4   5  -3  405.06   14.50
   4  -5  -3  395.46   17.90
   5   4  -3  394.86   15.00
   5   4  -3  395.16   15.00
  -4   5   3  401.56   15.00
  -4   5   3  384.06   14.70
  -4   5   3  381.46   14.00
  -4   5   3  398.46   16.10
   5   4   3  413.46   16.00
   3  -5  -3   46.80    2.90
  -5  -3  -3   45.50    2.90
   5   3  -3   46.50    2.50
   5   3  -3   41.40    2.60
   5   3  -3   44.50    3.00
  -3   5  -3   46.80    2.00
   5   3   3   48.30    2.50
  -3   5   3   46.70    2.20
  -3   5   3   48.00    2.50
  -3   5   3   46.40    2.50
  -3   5   3   49.90    2.30
   2  -5  -3  627.64   27.20
  -5  -2  -3  654.73   27.20
  -2   5  -3  663.83   22.30
   5   2  -3  594.54   23.80
   5   2  -3  609.94   27.10
   5   2  -3  569.94   22.80
  -2   5   3  614.34   24.40
  -2   5   3  598.44   22.80
  -2   5   3  639.44   22.50
   5   2   3  612.04   24.40
  -5  -2   3  618.24   21.20
  -2   5   3  623.64   21.30
  -1   5  -3   22.00    1.60
  -5  -1  -3   22.20    1.70
   5   1  -3   20.70    1.80
   5   1  -3   20.50    1.70
  -1   5  -3   20.50    1.10
   1  -5  -3   20.40    1.70
  -1   5   3   23.20    1.50
   5   1   3   20.40    1.50
  -1   5   3   20.50    1.30
  -1   5   3   21.30    1.50
   0   5  -3  271.27    9.50
   0   5  -3  254.37   10.30
   5   0  -3  252.77   11.70
   0  -5  -3  258.67   11.80
  -5   0  -3  255.57    9.80
   0   5   3  250.97    9.70
   0   5   3  257.07   10.50
  -5   0   3  267.17    9.20
   0   5   3  245.48    9.10
   5  -1  -3   19.50    1.60
  -5   1  -3   22.70    1.40
  -1  -5  -3   21.00    1.80
   1   5  -3   21.30    1.20
   1   5   3   19.90    1.40
   1   5   3   20.60    1.40
  -5   1   3   21.40    1.30
  -2  -5  -3  616.14   28.10
  -5   2  -3  647.24   23.30
   2   5  -3  631.74   23.30
   5  -2  -3  660.83   28.10
  -5   2   3  639.54   25.20
   2   5   3  657.33   25.30
   2   5   3  653.93   23.50
  -5   2   3  624.14   23.40
  -5   2   3  638.54   22.00
  -5   3  -3   49.10    2.20
  -3  -5  -3   44.90    3.10
   3   5  -3   42.40    2.50
   5  -3  -3   45.20    2.90
   3   5  -3   49.90    2.30
   3   5   3   44.90    2.40
  -5   3   3   47.00    2.30
  -5   3   3   46.90    2.30
  -5   3   3   44.60    2.40
   5  -4  -3  392.16   17.60
   4   5  -3  385.46   14.80
  -4  -5  -3  384.56   17.50
  -5   4  -3  392.26   14.30
   4   5  -3  408.56   14.60
  -5   4   3  390.36   15.70
  -5   4   3  379.96   13.80
  -5   4   3  389.16   14.70
  -5   4   3  397.56   14.50
   4   5   3  386.06   15.70
   5   5  -3    0.30    0.60
  -5   5  -3    1.30    0.30
  -5   5   3    0.50    0.50
  -5   5   3    1.80    0.70
  -5   5   3    1.40    0.70
   5   5   3    1.00    0.60
   6   5  -3  406.56   15.20
   6   5  -3  387.16   15.20
  -5   6  -3  399.16   14.60
  -6  -5  -3  403.66   18.10
  -5   6   3  402.96   16.30
  -5   6   3  400.96   14.90
   6   5   3  415.26   16.20
  -5   6   3  397.26   14.20
  -5   6   3  405.66   15.20
  -4   6  -3   99.89    4.20
   6   4  -3  106.09    4.90
   6   4  -3  111.29    4.80
  -6  -4  -3  119.19    5.80
  -4   6   3  112.89    4.80
  -4   6   3  111.99    5.10
  -4   6   3  111.99    4.50
  -4   6   3  107.79    4.50
   6   4   3  109.39    5.00
   6   3  -3  962.10   35.30
  -6  -3  -3 1016.20   42.00
  -3   6  -3  970.70   34.70
  -3   6   3  938.61   34.80
   6   3   3  959.50   37.80
  -3   6   3  944.41   32.80
  -3   6   3  978.20   37.80
  -3   6   3  941.61   35.20
  -2   6  -3  258.77    9.30
  -6  -2  -3  233.28   10.10
   6   2  -3  263.07    9.90
   2  -6  -3  244.18   11.80
   6   2  -3  241.58   11.80
  -6  -2  -3  273.77   11.80
  -2   6   3  263.47   10.50
  -6  -2   3  245.78    9.10
  -2   6   3  248.08    9.10
  -2   6   3  244.98    9.60
   6   2   3  263.77   10.50
  -2   6   3  259.27    9.90
  -1   6  -3 1049.30   38.20
   6   1  -3 1045.40   45.70
  -6  -1  -3 1107.59   38.30
   6   1  -3 1056.09   38.40
   1  -6  -3 1045.20   45.80
   6   1   3 1058.49   41.20
  -1   6   3 1051.29   38.40
  -1   6   3 1055.49   37.90
  -1   6   3 1064.69   41.20
  -6  -1   3 1048.50   35.70
  -1   6   3 1003.70   35.70
   0   6  -3    1.70    0.40
  -6   0  -3    1.10    0.60
   0   6   3    0.90    0.90
  -6   0   3    1.40    0.50
   6  -1  -3 1007.30   45.10
  -6   1  -3 1048.30   37.60
   1   6  -3 1089.29   37.40
   1   6  -3  986.60   37.90
  -1  -6  -3 1040.20   45.30
   1   6   3 1047.20   37.60
  -6   1   3 1073.49   35.40
   1   6   3  996.30   37.90
  -6   1   3 1058.89   40.50
   1   6   3 1061.19   40.70
  -2  -6  -3  250.67   12.10
  -6   2  -3  268.07    9.80
   2   6  -3  266.27    9.70
   2   6  -3  247.28   10.00
   6  -2  -3  260.77   12.00
   2   6   3  268.77   10.70
  -6   2   3  262.67    9.30
   2   6   3  245.98    9.90
  -6   2   3  251.97    9.90
   2   6   3  248.98   10.10
  -6   2   3  265.87   10.60
   3   6  -3  912.11   34.40
   6  -3  -3  895.01   41.40
  -6   3  -3  998.30   34.40
   3   6  -3  965.60   34.80
  -3  -6  -3  860.41   41.50
  -6   3   3  989.50   34.50
   3   6   3  985.10   34.60
  -6   3   3  974.10   37.30
  -6   3   3  962.50   32.50
   3   6   3  974.30   37.30
   4   6  -3  108.69    4.60
  -6   4  -3  112.89    4.40
   4   6  -3  108.39    4.70
  -6   4   3  104.39    4.50
  -6   4   3  104.59    4.40
  -6   4   3  112.19    4.80
  -6   4   3  111.09    5.00
   4   6   3  109.79    4.90
  -5  -6  -3  391.86   18.20
   5   6  -3  409.46   15.30
   5   6  -3  404.96   15.40
  -6   5  -3  408.16   14.90
  -6   5   3  425.96   15.20
   5   6   3  418.06   16.40
  -6   5   3  403.06   14.40
  -6   5   3  397.56   16.50
  -6   5   3  405.86   15.40
   6   6  -3    1.80    0.70
  -6  -6  -3    0.60    1.20
  -6   6  -3    2.30    0.40
  -6   6   3    2.20    0.60
   7   6  -3  382.56   14.40
   7   6  -3  374.46   14.40
  -7  -6  -3  375.66   17.20
  -6   7   3  384.46   14.10
  -6   7   3  381.46   14.40
   7   6   3  390.66   15.40
  -6   7   3  375.06   15.50
  -6   7   3  382.26   13.50
  -5   7  -3   96.69    3.60
   7   5  -3   97.59    4.60
  -7  -5  -3  101.59    5.40
   7   5  -3   98.49    4.40
  -5   7   3  104.09    4.10
  -5   7   3   98.89    4.10
  -5   7   3   93.59    4.30
   7   5   3   99.49    4.60
  -5   7   3   95.99    4.70
  -7  -4  -3   21.80    2.00
  -4   7  -3   20.20    0.90
   7   4  -3   21.90    1.70
  -4   7   3   23.60    1.40
  -4   7   3   21.80    1.70
  -4   7   3   20.10    1.60
  -4   7   3   21.70    1.60
  -3   7  -3  101.79    3.70
  -7  -3  -3   98.59    5.30
   7   3  -3  101.59    4.40
   7   3   3   88.09    4.50
  -3   7   3   97.29    4.00
  -3   7   3  102.59    4.40
  -3   7   3   95.19    4.10
  -3   7   3   96.59    4.60
  -2   7  -3  178.58    6.60
   7   2  -3  191.08    7.30
  -7  -2   3  165.88    6.60
  -2   7   3  177.18    7.70
  -2   7   3  181.68    6.90
  -2   7   3  179.38    6.60
   7   2   3  157.08    7.50
  -2   7   3  190.08    7.20
  -7  -1  -3    1.50    0.80
   7   1  -3    1.80    0.80
  -1   7  -3    1.70    0.40
  -1   7   3    1.10    0.60
  -7  -1   3    1.50    0.70
  -1   7   3    0.80    0.70
   7   1   3    3.00    0.80
  -7   0  -3  241.78    9.30
   0   7  -3  244.38    8.90
   0   7   3  244.28    9.40
   0   7   3  235.38    9.10
   0   7   3  234.08    9.90
   7   0   3  229.78   10.00
  -7   0   3  238.68    8.70
  -7   2  -3  173.38    7.10
   2   7  -3  186.88    7.30
   2   7  -3  182.38    7.00
   2   7   3  166.08    7.20
  -7   2   3  186.48    6.80
  -7   2   3  186.08    7.60
   2   7   3  181.38    7.20
   2   7   3  172.88    7.70
  -7   2   3  184.18    7.20
   3   7  -3   96.69    4.30
  -7   3  -3   99.69    4.30
   3   7  -3  107.19    4.50
  -7   3   3  109.49    4.50
  -7   3   3   97.49    4.20
   3   7   3   97.59    4.60
  -7   3   3  103.29    4.70
   3   7   3  111.19    4.80
   3   7   3   96.89    4.50
  -7   4  -3   16.20    1.20
   4   7  -3   19.90    1.50
   4   7   3   14.80    1.70
  -7   4   3   19.90    1.60
   4   7   3   16.30    1.50
   5   7  -3   97.19    4.30
  -7   5  -3  100.19    4.00
   5   7  -3   95.59    4.20
  -7   5   3   94.89    4.20
  -7   5   3  104.39    4.70
  -7   5   3  100.49    4.20
   5   7   3   95.99    4.60
  -7   6  -3  397.16   14.00
   6   7  -3  381.26   14.60
   6   7  -3  383.46   14.50
  -7   6   3  381.36   14.40
  -7   6   3  388.76   15.70
  -7   6   3  375.86   13.70
   6   7   3  397.16   15.60
   7   7  -3    0.40    0.40
   7   7  -3    0.40    0.70
  -7   7   3    1.10    0.60
  -7   7   3    0.20    0.70
  -7   7   3    1.00    0.50
  -7   7   3    0.70    0.60
   8   7  -3  249.48    9.80
   8   7  -3  254.57    9.60
  -7   8   3  249.28    9.00
  -7   8   3  250.57    9.40
  -7   8   3  250.07   10.40
   8   6  -3  151.48    6.10
  -6   8   3  146.69    6.10
  -6   8   3  151.18    6.70
  -6   8   3  153.78    5.80
  -6   8   3  149.88    5.90
  -8  -5  -3  148.69    7.00
   8   5  -3  133.29    5.70
   8   5   3  135.29    6.10
  -5   8   3  137.29    5.70
  -5   8   3  140.09    6.20
  -5   8   3  137.29    5.40
  -5   8   3  134.99    5.50
   8   4  -3  177.98    7.10
  -8  -4  -3  185.48    8.60
  -4   8   3  173.28    6.50
  -4   8   3  172.98    7.60
  -4   8   3  171.18    7.10
   8   4   3  173.08    7.50
  -4   8   3  166.08    6.70
   8   3  -3   47.90    2.50
  -3   8   3   43.90    2.50
  -3   8   3   45.60    2.70
  -2   8  -3  106.09    3.90
   8   2  -3  108.79    4.70
  -2   8   3   98.39    4.30
   8   2   3  107.79    4.90
  -2   8   3  103.49    4.60
  -2   8   3  104.09    4.90
   8   1  -3  147.19    6.30
  -8  -1  -3  139.39    6.30
  -1   8  -3  147.09    5.70
  -1   8   3  151.08    6.30
  -1   8   3  153.18    6.10
   8   1   3  152.98    6.70
  -8  -1   3  150.08    5.80
  -1   8   3  176.08    6.90
   8   0  -3    9.80    1.30
   0   8  -3    8.20    0.70
  -8   0  -3    7.20    1.20
   8   0   3    7.60    1.20
   0   8   3    6.60    0.90
  -8   0   3    9.20    1.20
   0   8   3    5.80    1.10
   0   8   3    6.50    1.20
   1   8  -3  148.99    5.80
  -8   1  -3  149.88    6.20
   1   8  -3  139.99    6.10
   1   8   3  150.08    6.20
  -8   1   3  147.29    5.70
   1   8   3  154.88    6.60
   1   8   3  151.68    6.00
   2   8  -3  107.99    4.30
   2   8  -3  108.89    4.70
  -8   2  -3   97.79    4.50
   2   8   3  112.69    4.60
   2   8   3  101.09    4.60
  -8   2   3  104.79    4.70
  -8   2   3  109.29    4.40
   2   8   3  109.69    4.90
  -8   2   3  104.99    4.90
   3   8  -3   46.80    2.60
  -8   3  -3   44.80    2.40
  -8   3   3   41.90    2.50
   3   8   3   44.60    2.50
   3   8   3   51.89    2.60
   3   8   3   49.80    2.70
  -8   3   3   46.60    2.70
  -8   3   3   47.90    2.40
  -8   4  -3  180.58    7.00
   4   8  -3  177.48    7.00
   4   8  -3  176.38    7.20
  -8   4   3  183.68    7.10
  -8   4   3  181.78    6.80
   4   8   3  177.78    7.60
  -8   4   3  171.58    7.70
   4   8   3  177.18    7.30
   5   8  -3  125.99    5.50
   5   8  -3  130.69    5.60
  -8   5  -3  139.89    5.30
  -8   5   3  141.69    6.10
  -8   5   3  137.19    5.40
  -8   5   3  140.09    5.60
   6   8  -3  152.28    5.90
   6   8  -3  141.29    5.90
  -8   6  -3  145.89    5.50
  -8   6   3  141.69    5.70
  -8   6   3  146.09    6.50
  -8   6   3  152.68    5.90
   7   8  -3  239.98    9.40
   7   8  -3  250.87    9.40
  -8   7   3  247.28    9.30
  -8   7   3  243.88    8.90
  -8   7   3  248.18   10.20
   8   8  -3    0.40    0.40
   8   8  -3    1.20    0.80
  -8   8   3    0.60    0.40
  -8   8   3    0.40    0.80
   9   8  -3  131.79    4.90
  -8   9   3  122.39    4.80
   9   7  -3   32.70    1.60
  -7   9   3   31.80    1.50
  -7   9   3   29.40    2.00
   9   6  -3  520.05   19.00
  -6   9   3  527.35   18.70
  -6   9   3  492.85   19.00
  -6   9   3  509.55   17.70
  -6   9   3  521.05   20.50
   9   5  -3   38.00    2.10
  -5   9   3   40.80    2.50
  -5   9   3   43.00    2.20
  -5   9   3   40.20    1.90
   9   4  -3  298.07   11.30
  -4   9   3  291.87   11.30
  -4   9   3  297.17   11.00
  -4   9   3  303.57   12.20
   9   4   3  281.77   12.00
   9   3  -3   34.80    2.00
  -3   9   3   40.00    1.90
   9   3   3   33.50    2.20
  -3   9   3   36.40    2.30
  -3   9   3   33.10    2.00
   9   2  -3  542.45   20.10
   9   2   3  548.75   21.50
  -2   9   3  511.05   20.00
  -2   9   3  547.85   21.60
  -2   9   3  542.75   19.70
  -9  -1  -3   26.90    2.10
   9   1  -3   32.00    2.00
  -1   9   3   26.10    1.80
  -1   9   3   27.50    2.00
  -1   9   3   30.20    1.70
  -9  -1   3   28.90    2.00
   9   1   3   28.10    2.00
   9   0  -3  605.74   22.00
   0   9  -3  536.45   21.90
   0   9  -3  596.44   21.30
  -9   0  -3  592.64   22.00
  -9   0   3  601.04   20.40
   0   9   3  607.34   22.00
   9   0   3  589.84   23.60
   0   9   3  618.74   23.60
   0   9   3  587.54   21.70
   1   9  -3   27.70    1.40
  -9   1  -3   28.50    1.90
   1   9  -3   27.10    1.90
   1   9   3   27.30    2.00
   1   9   3   27.70    1.90
   1   9   3   26.50    1.70
   9  -1   3   27.20    2.00
   2   9  -3  529.05   19.40
  -9   2  -3  535.75   19.80
   2   9  -3  519.85   19.90
   2   9   3  551.54   19.80
  -9   2   3  539.05   20.00
   2   9   3  536.15   19.90
   2   9   3  548.75   21.40
  -9   2   3  524.55   18.60
   3   9  -3   35.90    2.00
   3   9  -3   31.70    1.70
  -9   3  -3   32.80    1.90
   3   9   3   35.20    2.00
   3   9   3   36.00    2.10
   3   9   3   32.60    2.20
  -9   3   3   31.90    1.90
  -9   3   3   39.50    2.50
  -9   3   3   33.30    2.20
  -9   4  -3  295.37   11.10
   4   9  -3  283.67   11.00
   4   9  -3  304.37   11.30
  -9   4   3  299.67   11.30
  -9   4   3  296.27   10.60
   4   9   3  305.97   11.30
   4   9   3  290.77   11.20
  -9   4   3  283.37   12.10
   5   9  -3   38.70    2.10
   5   9  -3   40.30    2.00
  -9   5  -3   39.10    1.80
  -9   5   3   38.30    2.10
   5   9   3   42.00    2.50
  -9   5   3   34.10    2.40
  -9   5   3   40.20    2.10
   6   9  -3  554.74   19.60
  -9   6  -3  531.15   19.00
   6   9  -3  546.75   19.40
  -9   6   3  494.85   21.10
  -9   6   3  527.15   19.40
  -9   6   3  534.65   18.40
   7   9  -3   30.10    1.60
   7   9  -3   31.70    1.70
  -9   7   3   31.00    1.60
  -9   7   3   36.60    2.10
  -9   7   3   28.90    1.70
   8   9  -3  132.69    5.00
  -9   8   3  123.49    4.70
  -9   8   3  127.19    4.90
  10   7  -3  223.18    8.30
  10   6  -3    5.00    0.60
  -6  10   3    3.90    1.10
 -10  -6   3    5.20    1.30
  -6  10   3    5.40    0.80
  10   5  -3  432.36   16.20
 -10  -5   3  430.46   19.30
  -5  10   3  435.26   15.90
  -5  10   3  435.66   16.20
  -5  10   3  458.05   17.60
  10   4  -3   18.80    1.30
  -4  10   3   20.50    1.70
  -4  10   3   20.40    1.40
  -4  10   3   19.10    1.10
 -10  -4   3   15.90    1.90
  10   3  -3  448.36   17.90
  -3  10   3  509.85   18.00
  10   3   3  481.25   19.20
  -3  10   3  450.55   19.30
  -3  10   3  527.95   17.70
  10   2  -3   33.80    2.00
  -2  10   3   39.80    2.10
  -2  10   3   40.80    2.40
  10   2   3   36.80    2.30
  -2  10   3   38.10    1.90
 -10  -1  -3  492.45   18.50
  10   1  -3  511.75   18.40
  -1  10   3  483.25   18.30
  -1  10   3  499.45   19.70
  10   1   3  487.65   19.70
  -1  10   3  480.45   18.00
  10   0  -3    1.10    0.60
   0  10  -3    0.90    0.90
   0  10   3    1.10    0.60
 -10   0   3    1.20    0.80
   0  10   3    1.80    1.00
 -10   1  -3  527.65   18.90
  10  -1  -3  510.15   19.00
   1  10  -3  526.95   18.30
   1  10  -3  514.05   18.90
   1  10   3  517.45   18.90
   1  10   3  484.45   18.70
   1  10   3  497.55   20.30
  10  -1   3  505.35   20.40
 -10   1   3  503.45   17.60
   2  10  -3   38.40    2.10
 -10   2  -3   39.40    2.10
   2  10  -3   36.40    1.70
  10  -2  -3   43.60    2.20
 -10   2   3   36.60    2.00
   2  10   3   39.50    2.10
  10  -2   3   39.90    2.40
   2  10   3   37.40    2.00
   3  10  -3  526.75   19.30
  10  -3  -3  512.05   19.40
   3  10  -3  529.55   19.00
 -10   3  -3  490.25   19.20
  10  -3   3  534.95   20.90
   3  10   3  508.95   19.20
 -10   3   3  559.04   19.50
   3  10   3  500.65   19.30
 -10   3   3  548.35   18.20
   4  10  -3   19.40    1.30
  10  -4  -3   16.70    1.30
   4  10  -3   19.20    1.10
 -10   4  -3   20.10    1.20
 -10   4   3   18.30    1.30
 -10   4   3   16.90    1.50
   4  10   3   19.70    1.50
   4  10   3   18.20    1.40
   5  10  -3  419.86   16.40
 -10   5  -3  467.45   16.30
   5  10  -3  453.35   16.70
 -10   5   3  459.15   16.60
 -10   5   3  474.25   15.70
 -10   5   3  426.46   18.00
   5  10   3  461.85   16.70
   6  10  -3    4.90    0.70
  10  -6  -3    3.20    0.70
   6  10  -3    5.50    0.70
 -10   6   3    4.00    0.80
 -10   6   3    4.30    0.90
   7  10  -3  227.98    8.20
  10  -7  -3  210.88    8.10
 -10   7   3  216.38    7.70
  11   5  -3    6.90    0.70
  -5  11   3    6.60    0.70
  11   4  -3  189.98    7.10
  -4  11   3  186.08    6.80
  -4  11   3  181.08    7.10
  11   3  -3    1.40    0.50
  -3  11   3    1.60    0.40
  11   2  -3  183.58    6.70
  -2  11   3  181.38    6.70
  11   2   3  160.58    7.20
  -2  11   3  170.28    6.40
  -2  11   3  160.88    7.30
  11   1  -3   83.59    3.60
  11   1   3   83.69    4.00
  -1  11   3   83.59    3.40
  -1  11   3   83.19    3.60
  11   0  -3   95.69    4.00
 -11   0  -3   92.79    4.20
   0  11   3   97.89    4.00
   0  11   3   94.99    3.80
  11   0   3   91.19    4.30
   1  11  -3   82.79    3.60
  11  -1  -3   83.49    3.60
 -11   1  -3   89.19    3.80
  11  -1   3   84.39    4.00
   1  11   3   86.29    3.50
 -11   1   3   82.09    3.50
   1  11   3   83.59    3.60
 -11   2  -3  174.08    6.80
   2  11  -3  172.28    6.70
  11  -2  -3  171.68    6.80
   2  11   3  172.68    6.70
   2  11   3  175.08    6.70
  11  -2   3  177.18    7.40
 -11   2   3  179.28    6.40
   3  11  -3    2.20    0.40
 -11   3  -3    1.10    0.50
  11  -3  -3    0.90    0.60
   3  11   3    1.20    0.60
  11  -3   3    2.10    0.80
   3  11   3    1.50    0.50
 -11   3   3    1.60    1.10
  11  -4  -3  195.18    7.10
 -11   4  -3  186.48    6.90
   4  11  -3  184.98    7.00
   4  11  -3  188.28    6.80
 -11   4   3  190.18    6.70
   4  11   3  187.08    7.10
  11  -4   3  175.38    7.70
 -11   4   3  174.08    7.20
   5  11  -3    7.70    0.70
   5  11  -3    6.80    0.60
  11  -5  -3    6.30    0.80
 -11   5   3    6.00    0.80
  12   3  -3  149.29    5.60
  -3  12   3  151.28    5.70
  12   2  -3   19.20    1.10
  -2  12   3   18.20    1.10
  12   1  -3  292.57   10.90
  -1  12   3  311.77   11.00
  -1  12   3  288.37   10.80
  12   0  -3    3.90    0.70
   0  12   3    5.40    0.50
   0  12   3    6.00    0.70
  12  -1  -3  306.47   11.40
   1  12   3  314.47   11.50
   1  12   3  311.27   11.30
  12  -2  -3   16.30    1.00
   2  12   3   15.80    1.00
   2  12   3   16.80    1.00
   3  12  -3  139.29    5.20
   0   0  -4  630.14   23.30
   0   0  -4  608.04   27.70
   0   0   4  666.23   24.90
  -1   0  -4  906.71   34.10
   1   0  -4  893.81   34.10
   1   0  -4  914.11   40.80
   0  -1  -4  945.21   40.80
  -1   0  -4  942.11   40.70
   0   1  -4  981.60   34.10
   0   1  -4  965.70   40.80
   1   0   4  976.70   36.70
   0   1   4  933.71   36.70
  -1   0   4  953.00   36.70
   0  -1   4  945.71   36.70
  -1   1  -4 2537.85   88.89
   1   1  -4 2438.46  105.49
  -1  -1  -4 2373.46  106.29
   1  -1  -4 2542.45  107.19
   1   1  -4 2514.35   88.09
  -1  -1  -4 2523.15   88.29
  -1   1  -4 2443.46  105.79
   1   1   4 2463.75   97.09
  -1   1   4 2525.95   96.19
   1  -1   4 2522.25   96.59
  -1  -1   4 2239.48   95.19
  -2  -1  -4 2073.39   73.19
  -1   2  -4 2086.59   73.39
   1  -2  -4 2083.59   87.89
  -1   2  -4 2132.59   87.49
   2   1  -4 2071.59   73.19
   2   1  -4 2068.79   87.59
  -1   2  -4 2022.90   77.29
  -2  -1  -4 1724.93   87.29
   1  -2   4 2062.89   79.29
  -1   2   4 2111.49   80.69
   2   1   4 2022.90   79.19
   0   2  -4    7.20    1.00
   0   2  -4    7.10    1.20
   0   2  -4    5.60    0.80
  -2   0  -4    6.80    1.30
   2   0  -4    6.60    1.10
   2   0   4    7.60    1.00
  -2   0   4    5.50    0.90
   0   2   4    6.30    0.80
  -2   1  -4 2102.39   72.79
   1   2  -4 1769.42   76.49
   1   2  -4 2027.60   86.49
  -2   1  -4 1992.10   86.29
   2  -1  -4 2037.70   86.49
  -1  -2  -4 1990.50   86.39
   1   2  -4 2048.40   72.09
  -2   1   4 2099.69   78.89
   1   2   4 1989.80   78.39
   2  -1   4 2101.69   78.59
  -2  -2  -4    7.10    1.30
   2   2  -4    5.20    1.00
  -2   2  -4    4.60    1.10
  -2   2  -4    7.30    1.50
   2   2  -4    5.40    0.90
   2  -2  -4    5.00    1.10
   2   2  -4    6.00    1.10
   2  -2   4    6.60    1.00
  -2   2   4    3.90    0.80
   2   2   4    4.30    0.70
   2  -3  -4  413.36   18.00
  -2   3  -4  418.26   14.80
  -2   3  -4  428.76   15.80
   3   2  -4  414.46   15.70
   3   2  -4  413.86   15.10
   3   2  -4  363.06   15.10
   3   2  -4  386.46   18.00
  -3  -2   4  404.36   13.90
  -2   3   4  378.56   15.00
   3   2   4  386.86   16.10
  -2   3   4  373.06   14.00
  -2   3   4  406.96   16.00
   2  -3   4  405.76   16.00
  -1   3  -4 2527.45   93.59
  -1   3  -4 2655.33   99.39
   3   1  -4 2538.95  111.69
  -3  -1  -4 2677.03   93.39
   3   1  -4 2556.34   93.89
  -1   3  -4 2628.24  111.59
   3   1  -4 2698.53   93.49
   1  -3  -4 2560.04  111.99
   3   1  -4 2643.04   99.19
  -3  -1   4 2633.14   88.89
  -1   3   4 2573.84   88.89
  -1   3   4 2649.73  102.99
   3   1   4 2573.24  102.49
   0   3  -4  270.57   11.00
   0   3  -4  298.27   11.80
   3   0  -4  278.87   13.50
  -3   0  -4  297.47   11.30
   0  -3  -4  301.97   13.50
   0   3  -4  288.87   13.50
  -3   0   4  338.47   10.60
   0   3   4  297.57   12.10
   3   0   4  291.47   12.10
   1   3  -4 2553.04   98.89
   3  -1  -4 2545.25  111.29
   1   3  -4 2724.73   94.39
  -3   1  -4 2581.54   93.59
   1   3  -4 2551.04  111.29
  -1  -3  -4 2652.33  111.29
  -3   1   4 2597.34   88.69
   1   3   4 2559.64  101.19
  -3   1   4 2633.74  101.89
   3  -1   4 2595.74  102.09
   3  -2  -4  401.76   18.10
   2   3  -4  382.96   18.10
  -3   2  -4  413.86   15.80
  -2  -3  -4  361.96   17.90
   2   3  -4  415.46   15.80
   2   3  -4  415.36   15.00
  -3   2  -4  405.56   14.90
  -3   2   4  396.46   14.10
  -3   2   4  409.56   16.10
   2   3   4  416.96   16.20
   3  -2   4  400.46   16.10
  -3   3  -4 1441.76   52.19
   3   3  -4 1420.86   54.69
   3   3  -4 1399.26   52.39
  -3   3  -4 1482.55   54.79
   3   3  -4 1511.05   51.99
   3   3  -4 1367.86   62.39
   3  -3  -4 1447.76   62.39
  -3   3   4 1470.95   52.39
  -3   3   4 1457.75   48.80
  -3  -3   4 1405.16   48.70
   3  -3   4 1473.95   56.19
   3   3   4 1461.35   56.19
  -3   3   4 1435.86   56.09
   4   3  -4  270.47   10.60
   4   3  -4  268.77   10.20
  -3   4  -4  257.67   10.60
   4   3  -4  266.97   10.20
  -3   4  -4  258.17    9.80
  -3   4   4  260.07   10.10
  -4  -3   4  248.38    9.30
  -3   4   4  270.07    9.50
  -3   4   4  262.17   10.80
   4   3   4  254.17   10.80
   3  -4   4  256.47   10.80
  -3   4   4  257.27   10.00
   4   2  -4   80.99    3.90
   4   2  -4   73.89    4.50
  -2   4  -4   90.59    4.00
  -2   4  -4   83.89    3.50
   2  -4  -4   81.99    4.60
   4   2  -4   80.19    3.90
   4   2  -4   78.79    3.80
  -2   4   4   84.69    3.90
  -2   4   4   82.29    3.90
  -2   4   4   83.19    3.70
   4   2   4   80.29    3.90
  -4  -2   4   82.49    3.40
  -2   4   4   83.79    3.50
   4   1  -4  842.12   31.70
   1  -4  -4  839.32   36.30
   4   1  -4  822.12   30.40
  -1   4  -4  830.22   29.90
  -1   4  -4  827.72   31.80
   4   1  -4  809.82   36.20
  -4  -1  -4  827.22   30.30
   4   1   4  843.12   32.60
  -1   4   4  803.62   30.40
  -1   4   4  834.12   28.30
  -4  -1   4  811.32   28.20
  -1   4   4  855.11   32.60
   4   0  -4    6.40    1.40
   0   4  -4    6.50    1.10
   0   4  -4    7.30    0.80
   4   0  -4    5.10    1.30
  -4   0  -4    8.50    1.10
   0  -4  -4    7.20    1.50
   0   4   4    5.30    1.00
   0   4   4    5.20    0.90
  -4   0   4    6.10    0.90
   4  -1  -4  797.72   36.30
  -4   1  -4  863.21   30.20
  -1  -4  -4  827.92   36.30
   1   4  -4  802.12   31.80
   1   4  -4  847.42   30.10
   1   4  -4  809.82   36.30
   1   4   4  822.42   28.30
  -4   1   4  833.62   28.30
   4  -1   4  823.42   32.60
   1   4   4  838.92   32.60
  -4   1   4  863.01   32.50
  -4   2  -4   80.69    3.90
   4  -2  -4   79.29    4.60
   2   4  -4   80.79    3.60
   2   4  -4   78.09    3.80
  -4   2  -4   82.49    3.50
   2   4  -4   79.19    4.70
  -2  -4  -4   78.49    4.70
   4  -2   4   80.59    3.90
  -4   2   4   82.79    3.80
   2   4   4   82.39    3.90
  -4   2   4   86.09    3.50
  -4   3  -4  271.17   10.10
  -4   3  -4  257.47   10.80
   3   4  -4  272.77   10.30
   3   4  -4  270.07   10.90
   3   4  -4  267.17   10.40
  -4   3   4  272.57   11.00
  -4   3   4  276.77    9.70
   3   4   4  267.07   11.10
  -3  -4   4  258.87    9.50
   4  -3   4  267.67   11.10
   4   4  -4   87.89    3.90
  -4   4  -4   85.29    3.60
   4   4  -4   87.29    4.00
  -4   4  -4   82.79    4.10
   4  -4   4   85.69    4.10
  -4   4   4   85.99    4.10
   4   4   4   83.79    4.10
  -4   4   4   84.39    3.90
  -4   4   4   84.39    3.70
  -4   4   4   83.99    3.80
  -4   5  -4  953.70   34.20
   5   4  -4  954.80   34.90
   5   4  -4  892.61   34.70
  -4   5   4  941.21   32.50
  -4   5   4  978.70   34.60
   4  -5   4  965.70   37.40
  -4   5   4  975.40   34.90
   5   4   4  976.30   37.40
  -4   5   4  932.91   37.40
   5   3  -4 1607.14   62.79
   5   3  -4 1788.22   62.59
  -3   5  -4 1706.43   62.59
  -3   5   4 1798.52   67.89
  -3   5   4 1752.32   62.79
   5   3   4 1677.33   67.39
  -3   5   4 1798.62   62.29
  -3   5   4 1840.32   58.59
  -5  -3   4 1657.53   58.39
   5   2  -4  743.43   28.10
   5   2  -4  764.42   29.30
  -2   5  -4  802.12   27.50
  -2   5  -4  763.52   29.40
  -2   5   4  728.63   26.10
  -2   5   4  757.22   30.10
   5   2   4  776.12   30.10
  -2   5   4  746.13   27.80
  -5  -2   4  776.02   26.10
  -2   5   4  764.92   28.10
  -5  -1  -4 2243.08   79.39
  -1   5  -4 2152.88   80.29
   5   1  -4 2224.18   83.29
   5   1  -4 2193.08   79.79
  -1   5  -4 2193.88   83.49
  -5  -1   4 2190.78   74.79
  -1   5   4 2197.88   74.29
  -1   5   4 2229.08   79.79
  -1   5   4 2305.57   79.19
  -1   5   4 2174.18   85.59
   5   1   4 2222.08   87.09
  -5   0  -4  598.94   21.60
   0   5  -4  568.64   21.20
   5   0  -4  581.34   22.50
   0   5  -4  590.14   22.70
   0   5   4  552.24   21.60
   0   5   4  584.54   23.20
   0   5   4  566.14   21.50
  -5   0   4  592.94   20.10
   5   0   4  598.64   23.20
   0   5   4  592.74   20.10
  -5   1  -4 2324.57   82.49
   1   5  -4 2153.48   79.09
  -5   1  -4 2152.88   78.29
   1   5  -4 2099.09   82.89
   5  -1  -4 2153.98   82.39
   1   5   4 2268.97   86.69
   5  -1   4 2208.68   85.79
   1   5   4 2128.89   73.39
  -5   1   4 2193.38   73.49
  -5   2  -4  781.02   28.00
   2   5  -4  739.53   28.30
   2   5  -4  789.72   28.00
   2   5   4  778.02   30.40
  -5   2   4  766.22   26.40
   5  -2   4  757.02   30.40
  -5   2   4  772.32   30.20
   3   5  -4 1757.72   61.99
   3   5  -4 1636.64   61.39
  -5   3  -4 1696.03   61.89
   5  -3   4 1652.33   66.59
   3   5   4 1685.43   66.49
  -5   3   4 1751.52   66.49
  -5   3   4 1807.72   57.89
   4   5  -4  962.20   34.80
   4   5  -4  953.70   35.00
  -5   4  -4  952.10   34.50
   5  -4   4  947.71   37.60
   4   5   4  995.10   37.60
  -5   4   4  925.11   32.70
  -5   4   4  979.70   37.60
  -5   4   4  946.81   34.80
  -5   5  -4 1748.23   63.89
   5   5  -4 1799.12   63.79
   5   5  -4 1769.62   63.39
  -5   5   4 1739.03   68.49
   5   5   4 1878.91   68.49
  -5   5   4 1771.62   63.29
   5  -5   4 1720.83   68.49
  -5   5   4 1735.13   59.49
  -5   5   4 1708.73   63.79
  -5   6  -4  525.75   18.80
   6   5  -4  515.85   19.40
   6   5  -4  528.55   19.40
  -5   6   4  523.45   18.10
  -5   6   4  511.35   20.80
   6   5   4  515.15   20.70
  -5   6   4  516.95   19.40
  -5   6   4  515.55   19.10
  -4   6  -4  160.98    6.20
   6   4  -4  148.69    6.90
   6   4  -4  162.08    6.70
  -4   6   4  163.58    6.60
  -4   6   4  169.98    6.30
  -4   6   4  164.18    6.70
   6   4   4  168.78    7.10
  -4   6   4  169.08    7.20
   6   3  -4  432.96   15.60
  -3   6  -4  402.66   15.00
  -3   6   4  399.06   15.30
   6   3   4  405.96   16.60
  -3   6   4  407.76   14.50
  -3   6   4  412.26   15.50
  -3   6   4  415.86   16.70
  -2   6  -4  137.49    5.40
   6   2  -4  135.19    5.80
  -2   6   4  139.59    5.80
  -2   6   4  136.39    5.70
   6   2   4  136.49    6.20
  -2   6   4  144.89    6.20
  -2   6   4  141.09    5.40
  -6  -2   4  136.99    5.40
  -6  -1  -4 1495.05   54.69
   6   1  -4 1516.05   54.99
  -1   6  -4 1505.25   54.59
   6   1   4 1483.25   58.99
  -6  -1   4 1566.04   51.19
  -1   6   4 1508.65   51.09
  -1   6   4 1536.95   54.49
  -1   6   4 1512.75   58.99
   0   6  -4   30.90    1.70
   0   6   4   31.30    2.10
  -6   0   4   33.70    1.90
   0   6   4   35.30    2.00
   0   6   4   38.10    2.30
  -6   1  -4 1571.54   55.69
   1   6  -4 1483.85   55.39
   1   6   4 1499.05   55.69
   1   6   4 1624.44   60.19
  -6   1   4 1571.04   52.29
   6  -1   4 1529.45   60.19
   2   6  -4  125.89    5.50
  -6   2  -4  143.39    5.60
   2   6  -4  123.49    5.70
  -6   2   4  139.39    5.40
   2   6   4  146.99    6.10
  -6   2   4  137.79    6.00
   3   6  -4  444.16   15.90
   3   6  -4  418.76   15.70
  -6   3  -4  414.46   15.60
  -6   3   4  419.36   17.00
   6  -3   4  417.26   17.10
  -6   3   4  425.96   14.90
   3   6   4  414.36   17.00
   4   6  -4  154.08    6.40
  -6   4  -4  151.18    6.20
   4   6  -4  162.18    6.50
   6  -4   4  154.88    7.00
   4   6   4  159.68    6.90
  -6   4   4  165.28    6.90
  -6   4   4  161.78    6.10
  -6   4   4  148.09    6.40
  -6   5  -4  534.15   19.30
   5   6  -4  541.35   19.80
   5   6  -4  521.85   19.70
  -6   5   4  521.75   18.50
  -6   5   4  527.15   19.60
   6  -5   4  526.15   21.30
   5   6   4  549.85   21.30
  -6   5   4  531.25   21.20
   6   6  -4   26.20    2.00
  -6   6  -4   24.60    1.30
  -6   6   4   24.50    1.90
   6   6   4   30.20    2.00
  -6   6   4   30.40    1.80
  -6   6   4   26.70    1.80
   7   6  -4  812.22   28.70
   7   6  -4  772.92   28.60
   7   6   4  755.82   30.80
  -6   7   4  812.32   26.80
  -6   7   4  760.92   28.40
  -6   7   4  791.12   30.90
   7   5  -4 1396.96   50.19
  -5   7  -4 1369.36   49.20
   7   5   4 1366.96   53.89
  -5   7   4 1339.57   50.19
  -5   7   4 1427.16   46.80
  -5   7   4 1405.06   53.99
  -4   7  -4  465.75   16.40
   7   4  -4  440.26   17.00
   7   4   4  476.25   18.30
  -4   7   4  434.46   17.00
  -4   7   4  449.95   15.90
  -4   7   4  450.45   18.40
  -4   7   4  467.35   16.90
   7   3  -4 1669.13   60.39
  -3   7  -4 1586.64   59.89
   7   3   4 1744.43   64.89
  -3   7   4 1694.23   64.89
  -3   7   4 1634.94   56.19
  -3   7   4 1673.73   59.79
  -3   7   4 1669.03   60.39
   7   2  -4 1146.69   41.90
  -2   7  -4 1135.39   41.10
  -2   7   4 1162.58   41.80
  -2   7   4 1134.99   38.90
  -7  -2   4 1125.99   38.90
  -2   7   4 1187.18   41.50
   7   2   4 1137.89   44.90
  -2   7   4 1150.08   44.90
  -7  -1  -4 1302.67   49.20
  -1   7  -4 1335.97   48.80
   7   1  -4 1331.77   49.40
  -1   7   4 1379.26   52.99
  -1   7   4 1386.66   49.00
  -1   7   4 1311.17   49.30
  -7  -1   4 1387.76   46.00
   7   1   4 1431.06   53.09
   7   0  -4  870.81   32.00
  -7   0  -4  876.61   31.80
   0   7  -4  853.81   31.40
   7   0   4  851.41   34.30
   0   7   4  863.01   34.30
   0   7   4  851.91   31.90
   0   7   4  910.91   31.70
  -7   0   4  885.81   29.80
  -7   1  -4 1399.26   49.40
   1   7  -4 1359.36   49.00
   1   7   4 1364.56   49.30
   1   7   4 1353.46   49.60
   7  -1   4 1309.27   53.29
   1   7   4 1450.25   53.39
  -7   1   4 1332.07   46.30
  -7   2  -4 1087.39   41.10
   2   7  -4 1152.78   41.00
   2   7  -4 1092.49   41.40
  -7   2   4 1183.68   38.70
   7  -2   4 1142.29   44.60
   2   7   4 1141.99   44.50
   2   7   4 1162.58   41.30
   3   7  -4 1656.03   59.89
   3   7  -4 1647.44   60.39
  -7   3  -4 1643.54   59.89
  -7   3   4 1714.03   56.49
   3   7   4 1632.74   64.89
   7  -3   4 1679.73   65.09
  -7   3   4 1723.23   64.89
   4   7  -4  453.35   17.00
  -7   4  -4  448.56   16.90
   4   7  -4  470.55   17.20
  -7   4   4  469.95   17.20
   4   7   4  453.75   18.40
  -7   4   4  466.95   16.10
  -7   4   4  464.15   18.40
   7  -4   4  442.36   18.50
   5   7  -4 1345.07   49.90
  -7   5  -4 1391.96   49.80
   5   7  -4 1352.36   50.29
   7  -5   4 1441.16   54.19
  -7   5   4 1362.96   53.99
  -7   5   4 1385.76   49.90
  -7   5   4 1385.26   47.00
   5   7   4 1431.36   53.99
   6   7  -4  752.62   28.50
   6   7  -4  794.12   28.70
  -7   6  -4  802.02   28.10
   6   7   4  736.43   30.80
  -7   6   4  809.92   31.00
  -7   6   4  809.82   28.60
   7  -6   4  768.62   31.00
  -7   6   4  813.62   26.90
   7   7  -4  864.11   30.80
   7   7  -4  816.12   30.60
  -7   7   4  838.72   30.50
  -7   7   4  860.91   28.80
   8   7  -4  195.78    7.20
  -7   8   4  179.48    7.90
  -7   8   4  186.08    6.80
  -7   8   4  188.98    7.10
   8   6  -4   20.50    1.30
  -6   8   4   22.40    1.60
  -6   8   4   17.80    1.20
  -6   8   4   18.50    1.40
   8   6   4   17.20    1.90
   8   5  -4  172.38    6.90
  -5   8   4  177.08    7.60
  -5   8   4  171.38    6.80
   8   5   4  169.58    7.40
  -5   8   4  182.48    7.00
  -5   8   4  175.18    6.50
   8   4   4    4.00    0.90
  -4   8   4    4.90    1.20
  -4   8   4    4.00    1.10
   8   3  -4  285.67   11.50
   8   3   4  310.57   12.40
  -3   8   4  289.87   11.50
  -3   8   4  314.27   12.50
  -3   8   4  305.27   11.40
  -2   8  -4  127.69    4.70
   8   2  -4  123.99    5.30
  -2   8   4  131.69    5.20
  -2   8   4  127.69    5.80
  -2   8   4  122.79    5.30
  -8  -1  -4   77.49    4.00
   8   1  -4   79.29    3.80
  -1   8  -4   89.59    3.40
  -8  -1   4   83.39    3.60
   8   1   4   86.39    4.10
  -1   8   4   85.29    3.80
  -1   8   4   85.09    4.10
  -8   0  -4   40.20    2.40
   8   0  -4   40.80    2.30
   0   8  -4   35.40    1.80
   0   8   4   41.20    2.30
   8   0   4   44.90    2.50
  -8   0   4   37.70    2.10
   0   8   4   39.60    2.30
   0   8   4   40.30    2.40
   1   8  -4   84.39    3.50
   8  -1  -4   91.69    3.90
  -8   1  -4   84.59    3.90
   8  -1   4   81.19    4.10
   1   8   4   88.29    4.10
   1   8   4   80.49    3.80
  -8   1   4   84.59    3.60
   1   8   4   81.99    3.90
   2   8  -4  123.09    5.10
   2   8  -4  119.49    5.30
  -8   2  -4  133.69    5.40
   2   8   4  128.49    5.50
   8  -2   4  126.09    5.80
   2   8   4  127.69    5.70
  -8   2   4  135.39    5.10
  -8   3  -4  317.57   11.70
   3   8  -4  312.37   11.60
   3   8  -4  305.67   11.70
   3   8   4  311.77   12.70
  -8   3   4  298.87   11.10
   8  -3   4  308.37   12.80
   4   8  -4    5.10    0.80
  -8   4  -4    4.50    0.70
   4   8  -4    3.60    0.90
   4   8   4    6.00    1.20
  -8   4   4    6.00    1.40
   5   8  -4  168.18    6.50
  -8   5  -4  169.78    6.40
   5   8  -4  170.18    6.60
   5   8   4  158.28    7.10
  -8   5   4  171.98    6.30
  -8   5   4  164.48    7.20
  -8   5   4  168.78    6.70
   8  -5   4  169.58    7.30
   6   8  -4   20.30    1.30
   6   8  -4   18.50    1.30
  -8   6   4   19.80    1.40
  -8   6   4   16.40    1.70
  -8   6   4   20.00    1.40
   8  -6   4   19.50    1.90
   7   8  -4  181.08    7.20
   7   8  -4  196.58    7.20
  -8   7   4  183.38    6.80
  -8   7   4  186.58    7.10
   8   8  -4   98.49    3.90
   9   7  -4  588.14   21.30
   9   6  -4  393.76   14.30
  -6   9   4  380.86   14.10
   9   5  -4  664.93   24.30
  -5   9   4  659.73   24.30
  -5   9   4  676.73   24.00
  -5   9   4  654.03   26.20
   9   4  -4   52.59    2.50
  -4   9   4   51.59    2.50
  -4   9   4   51.29    2.40
  -4   9   4   51.39    2.80
   9   4   4   56.59    2.80
   9   3  -4  887.91   31.50
  -3   9   4  776.92   33.80
  -3   9   4  872.11   31.50
   9   3   4  868.11   33.80
  -3   9   4  907.21   31.20
   9   2  -4  250.97    9.90
  -2   9   4  269.67   10.70
   9   2   4  248.78   10.60
  -2   9   4  245.48    9.80
  -2   9   4  266.17    9.70
  -9  -1  -4 1016.60   36.90
   9   1  -4  995.50   36.90
  -1   9   4  962.50   36.90
   9   1   4 1059.09   39.70
  -1   9   4 1008.50   36.60
  -1   9   4 1033.90   39.70
   9   0  -4  120.89    5.30
   0   9  -4  133.09    4.70
  -9   0  -4  125.19    5.40
  -9   0   4  127.99    4.90
   0   9   4  122.59    5.70
   0   9   4  127.99    5.20
   0   9   4  126.79    5.20
   9   0   4  126.49    5.70
   9  -1  -4 1054.09   37.30
   1   9  -4 1008.50   36.50
  -9   1  -4 1077.99   37.10
   1   9   4 1049.49   37.10
   1   9   4 1011.70   39.90
   1   9   4 1022.60   36.90
  -9   1   4  961.30   34.60
   9  -1   4  984.40   40.00
   9  -2  -4  268.17   10.10
  -9   2  -4  255.97   10.00
   2   9  -4  266.07    9.70
   2   9  -4  267.37    9.90
   9  -2   4  271.47   10.90
   2   9   4  259.87   10.00
  -9   2   4  272.27    9.40
   2   9   4  231.38   10.70
   2   9   4  256.57    9.90
   3   9  -4  880.71   31.10
   3   9  -4  891.31   31.50
  -9   3  -4  843.92   31.20
   9  -3  -4  868.61   31.60
   3   9   4  834.52   33.80
  -9   3   4  891.41   29.40
   9  -3   4  833.62   33.90
   3   9   4  867.61   31.40
   4   9  -4   53.69    2.40
   4   9  -4   53.09    2.50
  -9   4  -4   55.59    2.40
  -9   4   4   53.79    2.50
  -9   4   4   55.89    3.00
   9  -4   4   53.19    2.90
   5   9  -4  681.13   24.40
   5   9  -4  667.73   24.60
  -9   5  -4  678.03   24.30
  -9   5   4  688.03   23.10
   9  -5   4  666.03   26.70
  -9   5   4  676.83   24.60
   6   9  -4  397.06   14.40
   6   9  -4  390.86   14.50
  -9   6   4  403.56   13.60
  -9   6   4  382.66   14.50
   7   9  -4  596.84   20.80
  -9   7   4  548.25   19.50
  10   5  -4  387.56   13.80
  -5  10   4  363.06   13.60
  10   4  -4   16.80    1.10
  -4  10   4   17.00    1.10
  -4  10   4   18.30    1.20
  10   3  -4  641.94   22.90
  -3  10   4  640.84   23.00
  -3  10   4  627.94   22.70
  10   3   4  578.24   24.70
  -3  10   4  648.14   24.80
  -2  10   4    2.60    0.60
  10   2   4    2.10    0.80
  -2  10   4    2.30    0.50
  10   1  -4  482.75   17.20
 -10  -1  -4  457.65   17.40
  -1  10   4  493.15   17.20
  -1  10   4  456.65   17.00
  -1  10   4  463.35   18.50
  10   1   4  438.36   18.50
 -10   0  -4    7.90    1.40
  10   0   4    5.90    1.20
   0  10   4    6.60    1.00
   0  10   4    5.40    1.30
  10  -1  -4  467.75   16.80
 -10   1  -4  450.65   16.80
   1  10   4  441.56   16.70
 -10   1   4  466.85   15.70
   1  10   4  437.06   18.10
   1  10   4  458.65   16.70
 -10   2  -4    2.80    0.60
   2  10  -4    1.90    0.40
  10  -2  -4    2.00    0.60
   2  10   4    3.00    0.80
   3  10  -4  654.63   22.90
  10  -3  -4  636.74   23.40
   3  10  -4  626.34   23.20
 -10   3  -4  641.14   23.10
  10  -3   4  636.74   25.20
 -10   3   4  656.33   21.80
   3  10   4  617.84   23.20
   4  10  -4   17.00    1.00
 -10   4  -4   17.10    1.00
  10  -4  -4   17.70    1.20
   4  10  -4   18.40    1.20
 -10   4   4   17.20    1.20
   5  10  -4  383.56   13.90
  10  -5  -4  376.36   14.10
   5  10  -4  387.06   14.10
 -10   5   4  392.96   13.30
  11   3  -4  661.13   24.20
  -3  11   4  676.43   24.20
  11   2  -4  233.78    8.40
  -2  11   4  213.98    8.30
  -2  11   4  226.88    8.40
  11   1  -4  804.82   29.20
  -1  11   4  828.32   29.20
  -1  11   4  788.42   29.00
  11   0  -4  448.46   15.90
   0  11   4  420.06   15.80
   0  11   4  429.46   15.70
 -11   1  -4  767.22   28.10
  11  -1  -4  791.42   28.20
   1  11   4  773.72   28.00
   1  11   4  782.62   28.10
 -11   2  -4  221.88    8.70
  11  -2  -4  246.08    8.80
  11  -3  -4  672.53   24.40
  -1   0  -5  983.80   35.60
   0   1  -5  992.00   35.60
   0   1   5  971.30   38.30
   1   0   5 1003.10   38.30
   0  -1   5  966.10   38.20
  -1   0   5  950.50   38.10
  -1   1   5    0.00    0.60
   1   1   5    0.20    0.60
  -1   1   5    0.70    0.70
   2   1  -5  386.26   14.70
   2   1  -5  412.16   15.30
  -1   2  -5  373.46   14.40
  -1   2  -5  369.46   15.30
   2   1   5  371.96   15.60
  -1   2   5  391.46   15.50
  -2  -1   5  388.56   13.60
  -1   2   5  380.86   13.60
   0   2  -5  135.09    5.70
   0   2  -5  137.39    6.10
  -2   0  -5  136.39    5.90
   0   2   5  138.29    6.10
   2   0   5  138.39    6.10
  -2   0   5  136.79    5.40
  -2   1  -5  381.36   14.60
   1   2  -5  400.06   15.40
   1   2  -5  398.06   14.60
   2  -1   5  412.26   15.60
   1   2   5  334.67   15.50
  -2   1   5  386.56   13.60
  -2   1   5  391.56   15.50
  -2  -2   5    0.50    0.60
  -2   2   5    0.50    0.60
   3   2  -5  176.48    7.10
  -2   3  -5  149.19    7.10
  -2   3  -5  154.58    6.60
   3   2  -5  185.48    7.30
   3   2  -5  167.18    6.90
  -2   3   5  178.48    6.40
  -2   3   5  186.18    7.30
   3   2   5  157.98    7.30
  -3  -2   5  157.28    6.30
   3   1  -5   10.30    1.80
  -1   3  -5    7.30    0.90
   3   1   5    7.10    1.10
  -1   3   5    6.30    1.10
  -3   0  -5  292.77   11.50
   3   0  -5  306.37   12.00
   0   3  -5  303.47   12.00
   3   0  -5  269.67   11.40
   0   3  -5  294.97   11.30
   3   0   5  319.17   12.30
   0   3   5  306.67   10.70
   0   3   5  277.27   12.20
  -3   0   5  299.77   10.70
   1   3  -5    6.90    1.10
   1   3  -5    8.90    1.30
   1   3   5    6.30    1.20
   1   3   5    9.80    1.10
   3  -1   5    9.80    1.20
  -3   1   5    7.10    1.10
  -3   1   5    9.40    1.40
  -3   2  -5  157.08    7.30
   2   3  -5  178.38    7.00
  -3   2  -5  160.38    6.80
   2   3  -5  182.18    7.30
  -2  -3   5  154.38    6.40
  -3   2   5  179.08    7.30
   2   3   5  152.48    7.30
   3  -2   5  183.48    7.40
  -3   2   5  183.08    6.50
   3   3  -5    3.40    1.10
   3   3  -5    3.50    0.90
  -3   3  -5    1.60    1.10
  -3   4  -5   88.29    3.90
   4   3  -5   93.29    4.50
   4   3  -5   88.49    4.30
  -3   4  -5   84.09    4.30
   4   3  -5   89.49    4.10
  -3   4   5   92.49    3.90
  -4  -3   5   88.79    3.80
  -3   4   5   97.69    4.40
   4   3   5   98.79    4.50
  -2   4  -5   29.80    2.00
  -2   4  -5   27.50    1.60
   4   2  -5   28.50    2.00
   4   2  -5   24.60    2.00
  -4  -2   5   28.40    1.70
   4   2   5   27.30    2.00
  -2   4   5   29.70    1.90
  -2   4   5   28.00    1.80
   4   1  -5  707.63   26.40
  -4  -1  -5  697.03   26.50
   4   1  -5  706.73   27.60
  -1   4  -5  707.13   27.60
  -1   4  -5  716.63   26.00
   4   1   5  734.73   28.40
  -1   4   5  705.13   28.30
  -1   4   5  722.93   24.60
  -4  -1   5  735.63   24.60
   4   0  -5  191.48    7.90
  -4   0  -5  191.48    7.90
   0   4  -5  187.08    7.70
   0   4  -5  196.48    8.30
   4   0  -5  199.98    8.20
  -4   0   5  199.78    7.30
   4   0   5  191.88    8.40
   0   4   5  195.68    8.40
   0   4   5  208.28    7.30
  -4   1  -5  723.73   27.90
  -4   1  -5  747.13   26.60
   1   4  -5  705.33   26.40
   1   4  -5  709.13   27.90
   4  -1  -5  717.83   27.80
  -4   1   5  713.23   24.90
   1   4   5  728.13   24.80
   4  -1   5  745.73   28.70
   1   4   5  716.23   28.60
   2   4  -5   28.50    2.00
  -4   2  -5   28.80    2.10
   2   4  -5   27.60    1.80
  -4   2  -5   28.90    1.80
  -2  -4   5   28.80    1.80
   4  -2   5   27.90    2.10
  -4   2   5   27.70    1.80
   2   4   5   28.10    1.80
   2   4   5   27.40    1.90
  -4   2   5   28.80    2.10
   3   4  -5   86.89    4.20
   3   4  -5   89.59    4.10
  -4   3  -5   83.79    4.30
  -4   3  -5   84.89    3.90
   4  -3   5   93.19    4.40
  -4   3   5   84.09    4.20
  -3  -4   5   90.49    3.70
  -4   3   5   88.59    3.80
   3   4   5   93.69    3.70
   3   4   5   92.19    4.40
   4   4  -5    1.70    0.90
   4   4  -5    0.60    0.90
  -4   4   5    0.90    0.70
  -4   4   5    0.40    0.70
   5   4  -5  282.57   11.50
   5   4  -5  284.67   11.30
  -4   5  -5  303.57   11.00
   5   4   5  321.17   12.30
  -4   5   5  284.87   12.10
  -4   5   5  293.37   10.60
   5   3  -5   86.69    4.10
  -3   5  -5   88.19    3.80
  -3   5   5   93.89    3.90
   5   3   5   97.59    4.50
  -3   5   5   92.09    4.40
  -5  -3   5   94.59    3.90
   5   2  -5  438.36   17.90
  -2   5  -5  465.35   16.80
   5   2  -5  436.56   17.10
  -5  -2   5  484.85   15.90
  -2   5   5  447.26   18.40
   5   2   5  471.15   18.40
  -2   5   5  446.96   15.90
  -1   5  -5   17.80    1.30
  -5  -1  -5   17.00    2.20
   5   1  -5   22.40    1.70
   5   1   5   16.90    1.60
  -1   5   5   18.20    1.40
  -1   5   5   18.10    1.60
   0   5  -5  374.76   13.60
  -5   0  -5  356.16   14.50
  -5   0  -5  354.96   13.80
   5   0  -5  354.36   13.80
   5   0  -5  355.96   14.30
   0   5   5  342.67   12.70
   0   5   5  361.96   14.80
   5   0   5  369.96   14.80
  -5   0   5  386.26   12.90
   1   5  -5   19.20    1.40
  -5   1  -5   19.90    1.90
  -5   1  -5   17.20    1.60
   1   5   5   16.40    1.50
  -5   1   5   15.90    1.40
   5  -1   5   18.80    1.70
   1   5   5   17.80    1.50
   5  -2  -5  455.55   18.20
  -5   2  -5  456.05   18.30
  -5   2  -5  513.55   17.40
   2   5  -5  438.16   17.30
  -5   2   5  446.56   16.30
  -2  -5   5  465.85   16.20
   5  -2   5  449.86   18.80
   2   5   5  497.45   18.80
   2   5   5  465.75   16.20
   3   5  -5   85.99    4.10
  -5   3  -5   92.59    4.00
  -5   3   5   90.99    3.90
  -5   3   5  100.39    4.50
   3   5   5   90.29    4.40
   5  -3   5   90.69    4.50
   4   5  -5  297.67   11.40
   4   5  -5  297.17   11.50
  -5   4  -5  320.87   11.30
   4   5   5  297.47   12.40
  -5   4   5  292.67   12.30
  -5   4   5  294.57   10.80
   5  -4   5  296.87   12.40
  -5   5  -5    0.90    0.40
   5   5  -5    0.10    0.60
   5   5  -5    1.60    0.80
   5   5   5    2.10    0.80
  -5   5   5    1.90    1.00
  -5   5   5    1.20    0.60
  -5   6  -5  209.68    7.60
   6   5  -5  205.78    8.20
   6   5  -5  216.48    7.90
  -5   6   5  197.78    8.60
  -5   6   5  207.38    7.50
  -5   6   5  197.68    8.00
   6   5   5  187.28    8.50
  -4   6  -5   25.20    1.30
   6   4  -5   26.40    1.70
  -4   6   5   25.10    2.10
  -4   6   5   25.40    1.80
   6   4   5   25.70    1.80
  -4   6   5   27.10    1.70
  -3   6  -5  150.88    5.70
   6   3  -5  139.09    6.00
   6   3   5  160.48    6.60
  -3   6   5  141.69    5.60
  -3   6   5  140.99    6.50
  -2   6  -5  136.49    5.50
   6   2  -5  133.59    5.80
  -2   6   5  145.69    5.40
  -2   6   5  135.29    5.80
  -6  -2   5  139.19    5.40
  -2   6   5  148.39    6.30
   6   2   5  138.19    6.20
  -1   6  -5  145.49    6.00
   6   1  -5  150.88    6.30
  -6  -1  -5  157.28    6.70
  -1   6   5  154.98    6.30
   6   1   5  151.58    6.80
  -6  -1   5  152.78    5.90
  -1   6   5  155.88    5.90
  -1   6   5  162.08    6.80
  -6   0  -5   21.00    1.90
   6   0  -5   21.80    1.70
   0   6  -5   24.30    1.50
   0   6   5   21.30    1.70
  -6   0   5   27.50    1.70
   0   6   5   21.50    1.80
   1   6  -5  157.68    6.30
  -6   1  -5  157.98    6.60
   6  -1  -5  151.58    6.50
   6  -1   5  161.88    7.10
  -6   1   5  161.18    6.10
   1   6   5  163.98    7.00
  -6   2  -5  150.48    5.90
   2   6  -5  139.59    5.70
   6  -2   5  137.99    6.30
   2   6   5  137.39    6.30
  -6   2   5  141.09    5.50
  -6   3  -5  153.78    5.90
   3   6  -5  135.59    5.90
   3   6   5  156.08    6.50
  -6   3   5  143.09    5.70
   6  -3   5  139.19    6.50
   4   6  -5   25.20    1.80
   4   6  -5   28.00    1.80
  -6   4  -5   26.60    1.60
  -6   4   5   24.70    2.20
   6  -4   5   26.80    2.10
   4   6   5   27.70    1.90
  -6   4   5   28.50    1.70
   5   6  -5  206.88    7.90
   5   6  -5  204.48    8.00
  -6   5  -5  207.78    7.70
   5   6   5  196.78    8.60
  -6   5   5  212.98    7.60
  -6   5   5  202.58    8.60
  -6   6  -5    0.90    0.30
   6   6  -5    0.20    0.80
   6   6  -5    0.80    0.50
  -6   6   5    1.20    0.60
   6   6   5    1.20    0.80
  -6   6   5    0.40    0.90
  -6   6   5    0.00    0.90
   7   6  -5  121.09    4.50
  -6   7   5  106.49    4.60
  -6   7   5  109.49    4.30
   7   5  -5   76.69    3.20
  -5   7   5   73.39    3.10
  -5   7   5   77.49    3.70
   7   5   5   71.39    3.60
  -4   7  -5  538.35   19.30
   7   4  -5  553.44   19.90
  -4   7   5  545.75   18.50
  -4   7   5  526.55   21.40
   7   4   5  514.65   21.30
  -4   7   5  548.25   19.80
  -3   7  -5   65.09    2.60
   7   3  -5   54.39    2.90
  -3   7   5   63.09    3.20
  -3   7   5   61.49    2.80
   7   3   5   66.69    3.20
  -3   7   5   62.59    3.10
  -2   7  -5  354.26   12.50
   7   2  -5  342.97   12.90
  -2   7   5  317.47   12.00
   7   2   5  348.47   14.00
  -2   7   5  351.46   13.00
  -2   7   5  344.47   14.00
  -2   7   5  335.27   12.90
  -1   7  -5    3.90    0.60
  -1   7   5    4.70    1.10
   7   1   5    3.60    1.00
  -1   7   5    3.50    1.00
   0   7  -5  595.74   21.10
   7   0  -5  582.04   21.50
  -7   0  -5  567.64   21.50
  -7   0   5  572.44   20.00
   7   0   5  584.44   23.10
   0   7   5  573.84   23.10
   7  -1  -5    4.20    0.90
   1   7  -5    3.50    0.70
   7  -1   5    4.50    1.10
  -7   1   5    4.00    1.00
   1   7   5    5.80    1.10
   2   7  -5  354.46   13.00
   7  -2  -5  339.87   13.20
  -7   2  -5  337.77   13.10
   7  -2   5  356.56   14.30
   2   7   5  349.07   14.20
  -7   2   5  350.86   12.30
  -7   3  -5   65.99    3.00
   3   7  -5   63.29    2.90
   3   7   5   65.29    3.30
  -7   3   5   62.59    2.90
   7  -3   5   62.69    3.40
   4   7  -5  565.24   20.40
  -7   4  -5  563.04   20.20
   4   7  -5  551.24   20.40
  -7   4   5  569.94   19.20
   4   7   5  531.95   22.00
   5   7  -5   75.99    3.30
  -7   5  -5   73.79    3.00
   5   7  -5   77.59    3.20
   5   7   5   68.89    3.50
  -7   5   5   78.09    3.20
   6   7  -5  107.29    4.70
   6   7  -5  123.79    4.60
  -7   6   5  117.29    4.40
   7   7  -5    0.70    0.40
  -7   7   5    0.30    0.50
   8   6  -5   36.00    1.60
   8   5  -5  256.27    9.40
  -5   8   5  243.98    9.40
   8   4  -5  107.09    4.20
   8   4   5  101.29    4.60
  -4   8   5  104.49    4.30
  -4   8   5   98.99    4.70
   8   3  -5  415.96   14.90
  -3   8   5  405.16   16.10
   8   3   5  404.26   16.10
  -3   8   5  378.26   14.80
   8   2  -5   14.60    1.20
  -2   8   5   14.20    1.50
   8   2   5   16.20    1.40
  -2   8   5   16.30    1.40
  -8  -1  -5  452.85   17.10
   8   1  -5  453.45   16.90
  -1   8  -5  457.65   16.40
  -1   8   5  462.75   16.80
   8   1   5  444.26   18.10
  -8  -1   5  452.55   15.70
  -1   8   5  459.15   18.20
  -1   8   5  442.96   16.80
  -8   0  -5    5.10    1.40
   0   8  -5    4.90    0.60
  -8   0   5    5.10    1.10
   0   8   5    3.20    0.90
   8   0   5    3.60    1.00
   8  -1  -5  437.16   17.10
  -8   1  -5  450.15   17.10
   1   8  -5  477.05   16.80
  -8   1   5  463.85   16.00
   8  -1   5  481.95   18.50
   1   8   5  452.45   18.40
  -8   2  -5   13.50    1.30
   8  -2  -5   14.20    1.20
   2   8  -5   15.30    1.00
  -8   2   5   14.80    1.20
   2   8   5   12.30    1.30
   8  -2   5   14.50    1.50
  -8   3  -5  413.06   15.00
   8  -3  -5  400.66   15.20
   3   8  -5  418.56   14.90
   3   8   5  402.16   16.30
  -8   3   5  394.86   14.10
   8  -3   5  411.86   16.40
   4   8  -5  101.09    4.00
   8  -4  -5  105.59    4.20
  -8   4  -5  101.79    4.00
  -8   4   5  107.49    3.90
   8  -4   5   90.99    4.70
   4   8   5   92.89    4.50
  -8   5  -5  265.57    9.40
   5   8  -5  250.97    9.60
   5   8  -5  256.27    9.60
   8  -5  -5  277.27    9.80
  -8   5   5  247.08    9.10
   8  -6  -5   34.70    1.60
   6   8  -5   33.00    1.60
  -8   6   5   33.30    1.60
   9   5  -5    8.80    0.60
   9   4  -5  209.68    7.90
   9   3  -5   17.50    1.10
  -3   9   5   16.10    1.30
   9   2  -5   57.59    2.50
   9   2   5   51.19    2.80
  -2   9   5   52.19    2.60
  -2   9   5   56.09    2.80
   9   1  -5    7.80    0.80
   9   1   5    8.70    1.10
  -1   9   5    5.90    1.30
  -1   9   5    7.90    1.20
  -9   0  -5   81.69    3.90
   9   0  -5   90.49    3.60
   0   9   5   86.89    4.00
   9   0   5   87.49    4.00
  -9   0   5   80.79    3.50
   0   9   5   85.59    3.90
   1   9  -5    6.70    0.50
  -9   1  -5    7.10    1.10
   9  -1  -5    6.00    0.80
   9  -1   5    8.00    1.20
  -9   1   5    6.40    1.00
   1   9   5    6.40    1.20
  -9   2  -5   51.79    2.60
   2   9  -5   57.59    2.20
   9  -2  -5   52.29    2.50
  -9   2   5   58.89    2.40
   9  -2   5   55.69    2.90
   9  -3  -5   18.90    1.20
   3   9  -5   18.40    1.00
  -9   3  -5   17.10    1.20
  -9   3   5   19.20    1.20
  -9   4  -5  196.48    7.50
   9  -4  -5  213.08    7.70
   4   9  -5  200.58    7.50
  -9   4   5  203.98    7.20
   9  -5  -5    8.80    0.70
  10   2  -5   42.30    1.90
  10   1  -5   60.29    2.50
  10   0  -5   15.40    0.90
  10  -1  -5   47.70    2.10
  10  -2  -5   42.80    1.90
   0   0  -6 4499.85  168.38
   0   0   6 4319.57  148.79
   1   0  -6   78.89    3.90
  -1   0  -6   76.59    3.90
   1   0   6   71.89    3.90
   0   1   6   75.29    3.80
  -1   0   6   75.59    3.40
   0   1   6   84.59    3.50
  -1   1  -6   33.00    2.20
   1   1  -6   33.40    2.20
  -1   1  -6   33.10    2.40
   1   1   6   29.20    1.90
   1   1   6   31.90    2.20
  -1   1   6   30.00    1.90
  -1  -1   6   32.00    1.90
  -1   2  -6   14.30    1.60
  -1   2  -6   13.30    1.60
  -1   2   6   16.40    1.60
  -1   2   6   16.30    1.40
   2   1   6   19.30    1.70
   0   2  -6 2354.16   85.29
  -2   0  -6 2437.66   89.89
   2   0  -6 2390.36   89.79
  -2   0  -6 2413.56   85.49
   0   2  -6 2380.66   89.89
   0   2   6 2336.17   80.29
   2   0   6 2329.27   92.09
   0   2   6 2445.86   92.09
  -2   0   6 2344.07   80.59
   1   2  -6   17.70    1.90
   2  -1  -6   14.70    1.70
   1   2   6   17.60    1.60
   1   2   6   16.20    1.50
  -2   1   6   18.00    1.50
  -1  -2   6   14.10    1.40
  -2   2  -6  948.61   34.10
   2   2  -6  896.31   34.20
  -2   2  -6  947.31   35.90
   2   2  -6  925.71   35.90
   2   2   6  967.80   36.80
  -2  -2   6  945.91   31.90
  -2   2   6  879.11   31.90
  -2   2   6  908.51   36.70
   2   2   6 1006.30   32.00
  -2   3  -6   54.59    3.00
   3   2  -6   50.99    2.90
  -2   3  -6   54.19    2.70
  -3  -2   6   55.29    2.60
   3   2   6   54.29    2.90
  -2   3   6   52.39    2.60
  -2   3   6   51.09    2.90
  -1   3  -6  171.58    7.30
  -1   3  -6  165.38    6.80
   3   1  -6  174.88    7.30
  -3  -1   6  169.18    6.40
  -1   3   6  168.48    7.30
   3   1   6  165.58    7.40
  -1   3   6  171.78    6.40
   3   0  -6  234.28    9.80
   0   3  -6  237.28    9.30
  -3   0  -6  249.88    9.90
  -3   0  -6  234.38    9.60
   0   3  -6  234.08    9.80
  -3   0   6  239.58    8.70
   0   3   6  244.18    8.70
   3   0   6  230.28    9.90
   0   3   6  234.38    9.90
  -3   1  -6  174.38    7.40
  -3   1  -6  169.98    7.10
   1   3  -6  169.38    7.30
   3  -1  -6  172.68    7.30
   1   3  -6  170.78    7.00
   3  -1   6  168.88    7.40
   1   3   6  168.08    6.50
  -3   1   6  177.58    6.50
  -1  -3   6  175.98    6.50
   1   3   6  172.78    7.50
   3  -2  -6   58.99    3.10
  -3   2  -6   58.09    3.10
  -3   2  -6   55.39    2.80
   2   3  -6   51.39    2.90
   2   3  -6   52.79    3.00
  -3   2   6   56.69    2.70
   2   3   6   56.89    2.60
  -2  -3   6   56.19    2.60
   2   3   6   52.79    3.00
  -3   3  -6   25.90    2.10
   3   3  -6   32.00    2.30
  -3   3  -6   26.90    1.80
   3  -3  -6   28.00    2.20
   3   3  -6   32.90    2.10
   3   3   6   26.70    2.00
  -3   3   6   33.70    1.80
  -3   3   6   32.20    2.20
   3   3   6   25.00    1.80
  -3  -3   6   25.30    1.80
  -3   4  -6  108.99    4.50
  -4  -3   6  106.09    4.30
   4   3   6  111.99    5.00
   4   3   6  109.69    4.30
  -3   4   6  105.39    4.40
  -3   4   6  112.99    5.00
  -2   4  -6  901.11   31.60
  -2   4  -6  870.91   33.50
   4   2  -6  861.81   33.40
  -4  -2   6  875.51   29.70
  -2   4   6  846.32   29.80
   4   2   6  896.91   34.40
  -2   4   6  858.41   34.20
  -1   4  -6   48.00    2.40
  -4  -1  -6   42.00    2.70
  -1   4  -6   50.69    2.70
   4   1   6   49.99    2.70
  -1   4   6   43.90    2.30
  -1   4   6   40.10    2.50
  -4   0  -6 1523.05   57.49
  -4   0  -6 1580.74   54.89
   0   4  -6 1549.14   57.49
   4   0  -6 1502.75   57.39
   0   4  -6 1522.15   54.49
  -4   0   6 1522.65   51.19
   0   4   6 1481.15   58.89
   4   0   6 1479.35   58.99
   0   4   6 1485.35   51.09
   1   4  -6   39.70    2.50
   4  -1  -6   43.90    2.50
   1   4  -6   41.60    2.40
   4  -1  -6   46.80    2.70
   4  -1   6   43.60    2.60
   1   4   6   47.90    2.60
  -4   1   6   45.50    2.30
  -1  -4   6   47.00    2.30
   4  -2  -6  865.11   32.80
   4  -2  -6  846.42   31.40
  -4   2  -6  842.42   32.90
  -4   2  -6  879.21   31.30
   2   4  -6  839.82   31.30
   2   4   6  863.81   29.20
  -4   2   6  888.91   29.40
  -2  -4   6  866.11   29.20
   2   4   6  839.52   33.80
   4  -3  -6  104.19    4.90
  -4   3  -6  110.49    4.60
  -4   3  -6  112.69    5.00
   3   4  -6   99.29    4.70
   4  -3  -6  111.09    4.70
   3   4   6  113.79    5.00
   3   4   6  107.89    4.30
  -3  -4   6  114.19    4.40
  -4   3   6  107.49    4.40
   4  -4  -6 1990.90   78.49
   4  -4  -6 2065.79   74.99
  -4   4  -6 2071.49   74.39
   4   4  -6 2047.70   74.69
  -4   4   6 2169.38   70.09
   4   4   6 2158.98   80.69
  -4   5  -6  156.08    6.30
  -4   5   6  176.78    6.20
  -4   5   6  163.78    7.10
   5   4   6  167.48    7.10
  -3   5  -6   49.70    2.20
  -3   5   6   42.50    2.60
  -3   5   6   48.50    2.30
   5   3   6   48.20    2.60
  -2   5  -6   60.49    2.90
   5   2  -6   71.29    3.20
  -5  -2  -6   75.49    3.60
  -5  -2   6   61.89    3.00
  -2   5   6   72.49    3.00
  -2   5   6   72.59    3.50
   5   2   6   63.69    3.40
  -5  -1  -6  127.89    5.80
  -1   5  -6  137.39    5.30
   5   1  -6  136.39    5.40
  -1   5   6  131.39    5.10
  -1   5   6  117.79    5.80
  -5  -1   6  143.69    5.10
   5   1   6  131.29    5.90
   5   0  -6   92.69    4.30
  -5   0  -6   85.69    4.30
   5   0  -6   92.89    3.90
  -5   0  -6   85.89    4.30
   0   5  -6   94.19    3.90
   0  -5   6   93.09    3.80
  -5   0   6   95.49    3.80
   0   5   6   89.19    3.70
   0   5   6   83.09    4.20
   1   5  -6  131.99    5.50
  -5   1  -6  129.09    5.90
   5  -1  -6  137.09    5.50
   1   5   6  139.99    6.00
  -1  -5   6  141.59    5.20
   1   5   6  132.19    5.10
  -5   1   6  132.39    5.20
   5  -1   6  133.19    6.00
   5  -2  -6   59.59    3.10
   2   5  -6   71.39    3.10
  -5   2  -6   61.29    3.10
   5  -2   6   67.09    3.50
  -5   2   6   73.49    3.00
   2   5   6   63.09    3.30
   5  -3  -6   50.29    2.50
   3   5  -6   46.00    2.50
  -5   3  -6   49.70    2.40
  -5   3   6   46.90    2.30
   3   5   6   45.90    2.60
  -5   4  -6  158.48    6.40
   5  -4  -6  167.78    6.60
   4   5  -6  161.58    6.70
   4   5   6  169.68    7.20
  -5   4   6  181.78    6.30
  -5   5  -6  199.98    7.20
   5  -5  -6  201.58    7.40
   5   5  -6  176.78    7.60
   5   5   6  197.58    8.10
  -5   5   6  195.08    7.00
   5  -6  -6    9.10    0.90
  -5   6   6   11.10    1.00
  -4   6  -6  913.11   32.30
   6   4  -6  898.91   32.70
  -4   6   6  906.21   30.60
   6   4   6  905.11   35.40
  -3   6  -6   20.70    1.10
   6   3  -6   21.70    1.40
  -3   6   6   19.50    1.70
   6   3   6   20.20    1.60
  -3   6   6   24.00    1.40
   6   2  -6 1194.38   43.20
  -2   6  -6 1243.48   42.80
   6   2   6 1239.98   46.60
  -2   6   6 1171.68   46.60
  -2   6   6 1131.79   40.30
  -1   6  -6   49.99    2.20
  -1   6   6   45.70    2.30
  -1   6   6   44.30    2.60
   6   1   6   49.99    2.60
   1  -6   6   45.70    2.50
  -6   0  -6 2475.25   91.19
   6   0  -6 2556.04   91.59
   0   6  -6 2538.25   90.99
   0   6   6 2561.54   98.49
  -6   0   6 2607.84   85.39
   6   0   6 2549.94   98.49
   1   6  -6   44.80    2.30
   6  -1  -6   46.90    2.40
   6  -1   6   46.70    2.80
  -6   1   6   48.90    2.30
   1   6   6   53.49    2.70
   6  -2  -6 1222.18   43.00
   2   6  -6 1207.98   42.70
  -6   2  -6 1244.08   42.80
  -6   2   6 1185.78   40.10
   6  -2   6 1063.69   46.20
   2   6   6 1197.38   46.20
  -6   3  -6   22.10    1.40
   3   6  -6   20.10    1.40
   6  -3  -6   20.80    1.40
  -6   3   6   22.80    1.40
   3   6   6   18.70    1.50
  -6   4  -6  928.71   32.50
   4   6  -6  871.51   32.60
   6  -4  -6  958.70   32.90
  -6   4   6  956.20   30.70
   4   6   6  814.42   35.30
  -6   5  -6   10.50    0.70
   6  -5  -6   11.40    1.00
  -6   5   6   10.30    0.90
   6  -6  -6  859.71   31.00
   7   4  -6    7.00    0.90
   7   3  -6   66.09    2.80
  -2   7  -6   75.19    2.70
   7   2  -6   66.99    2.90
   7   2   6   72.79    3.30
  -2   7   6   61.29    3.50
   7   1  -6   17.20    1.10
  -1   7  -6   16.60    0.90
  -7  -1   6   13.20    1.50
  -1   7   6   16.90    1.50
   7   1   6   17.10    1.50
  -7   0  -6   12.90    1.80
   7   0  -6   17.40    1.20
   0   7  -6   17.90    1.00
   7   0   6   15.90    1.60
  -7   0   6   17.30    1.30
   0   7   6   15.30    1.50
  -7   1  -6   15.70    1.50
   7  -1  -6   15.10    1.10
   1   7  -6   17.30    1.00
  -7   1   6   18.30    1.20
   1   7   6   12.80    1.30
   2   7  -6   64.79    2.90
   7  -2  -6   75.99    3.00
  -7   2  -6   74.49    3.10
  -7   2   6   68.99    2.80
   2   7   6   58.29    3.20
  -7   3  -6   59.79    2.70
   7  -3  -6   61.39    2.70
   3   7  -6   64.99    2.70
  -7   3   6   65.59    2.60
   7  -4  -6    9.70    0.80
  -7   4   6    9.20    0.90
   8   2  -6 1055.69   38.00
   8   1  -6  102.99    4.00
   8   0  -6 1133.49   40.80
   8  -1  -6   67.79    2.80
   8  -2  -6 1096.49   39.50
  -1   0  -7   93.69    4.10
   0  -1  -7   92.39    4.10
   1   0  -7   86.69    4.00
   0   1  -7   86.19    4.00
   0   1   7   83.89    3.50
   1   0   7   83.29    3.50
   0  -1   7   85.49    3.50
  -1   0   7   86.09    3.50
   1  -1  -7    0.50    1.00
  -1  -1  -7    0.10    0.80
  -1   1   7    0.60    0.50
   1  -1   7    0.80    0.60
  -1  -1   7    0.10    0.50
   1   1   7    0.30    0.50
   2   1  -7  188.58    7.80
  -1   2  -7  177.88    7.60
  -2  -1  -7  188.68    7.90
   1  -2  -7  202.18    7.90
  -1   2  -7  199.38    7.90
  -1   2   7  181.88    6.90
  -2  -1   7  195.68    6.90
   2   1   7  192.58    6.90
   1  -2   7  189.68    6.90
   0   2  -7  277.37   11.20
   0   2  -7  269.47   10.90
   2   0  -7  287.17   11.20
  -2   0  -7  280.37   11.30
   0  -2  -7  289.67   11.30
   2   0   7  280.27   10.00
  -2   0   7  283.47   10.00
   0   2   7  281.57   10.00
   0  -2   7  286.47   10.00
  -2   1  -7  180.28    7.60
  -2   1  -7  205.98    7.80
   1   2  -7  187.28    7.70
  -1  -2  -7  188.88    7.80
   2  -1  -7  183.18    7.70
  -2   1   7  183.68    6.80
   1   2   7  183.78    6.80
  -1  -2   7  180.18    6.80
   2  -1   7  190.28    6.80
  -2   2  -7    0.30    1.00
  -2  -2  -7    0.70    1.00
  -2   2  -7    0.10    1.00
   2  -2   7    0.50    0.60
   2   2   7    0.70    0.60
  -2   2   7    0.20    0.50
  -2  -2   7    0.20    0.60
  -2   3  -7  255.57    9.80
   2  -3  -7  260.27   10.30
  -3  -2  -7  251.67   10.30
  -2   3   7  252.47    9.10
   2  -3   7  260.47    9.10
   3   2   7  267.17    9.10
  -3  -2   7  262.97    9.10
  -3  -1  -7   13.20    1.40
  -1   3  -7   13.00    1.30
   1  -3  -7   14.10    1.40
  -1   3   7   13.20    1.10
  -3  -1   7   14.90    1.10
   1  -3   7   14.20    1.20
   3   1   7   14.90    1.10
   3   0  -7  162.38    6.80
  -3   0  -7  168.58    6.90
   0  -3  -7  171.98    6.90
   0   3  -7  150.08    6.50
   0   3   7  166.88    6.00
   3   0   7  168.28    6.10
   0  -3   7  166.88    6.10
  -3   0   7  168.38    6.10
   1   3  -7   13.60    1.70
   3  -1  -7   12.20    1.40
  -1  -3  -7   15.40    1.40
  -3   1  -7   15.90    1.80
  -3   1  -7   17.10    1.60
   1   3   7   15.10    1.20
  -3   1   7   14.90    1.10
  -1  -3   7   13.40    1.20
   3  -1   7   16.70    1.20
  -2  -3  -7  259.77   10.40
   3  -2  -7  257.17   10.30
  -3   2  -7  256.87    9.90
   3  -2   7  266.27    9.20
  -3   2   7  262.97    9.20
   2   3   7  259.07    9.10
  -2  -3   7  256.47    9.10
  -3   3  -7    0.50    0.60
  -3  -3  -7    0.90    1.20
  -3   3   7    0.00    0.50
   3  -3   7    1.50    0.60
  -3   4   7   32.90    1.70
   3  -4   7   35.10    1.70
   2  -4  -7   15.00    1.40
  -2   4  -7   13.90    1.10
  -4  -2  -7   13.90    1.60
  -2   4   7   14.10    1.20
   2  -4   7   15.50    1.20
   1  -4  -7  337.47   12.60
  -4  -1  -7  298.07   12.50
  -1   4  -7  329.07   11.90
   1  -4   7  323.07   11.10
  -4  -1   7  315.77   11.10
  -1   4   7  316.87   11.10
   4   1   7  321.67   11.10
   0  -4  -7   93.99    4.20
   0   4  -7   89.89    3.90
  -4   0  -7  101.09    4.20
  -4   0   7   93.69    3.60
   0  -4   7   88.39    3.60
   0   4   7   88.59    3.60
   4   0   7   95.69    3.60
  -1  -4  -7  334.67   12.90
   1   4  -7  303.77   12.10
  -4   1   7  332.87   11.40
   4  -1   7  333.37   11.40
  -2  -4  -7   16.70    1.50
  -4   2   7   15.70    1.10
   4  -2   7   16.00    1.20
  -3  -4  -7   32.80    2.00
   4  -3   7   34.20    1.70
  -4   3   7   34.00    1.60
   0  -5  -7   70.19    3.30
   5   0   7   70.79    2.90
  -1  -5  -7   27.80    1.80
  -5   1   7   28.40    1.50
   5  -1   7   27.30    1.50
  -2  -5  -7  263.37   10.80
  -5   2   7  275.47    9.60
   5  -2   7  291.07    9.70
;
_shelx_hkl_checksum              46170
loop_
_space_group_symop_operation_xyz
'x, y, z'
'-x, -y, z'
'y, -x, -z'
'-y, x, -z'
'-x+1/2, y+1/2, -z+1/2'
'x+1/2, -y+1/2, -z+1/2'
'-y+1/2, -x+1/2, z+1/2'
'y+1/2, x+1/2, z+1/2'
loop_
_atom_site_label
_atom_site_type_symbol
_atom_site_fract_x
_atom_site_fract_y
_atom_site_fract_z
_atom_site_U_iso_or_equiv
_atom_site_adp_type
_atom_site_occupancy
_atom_site_site_symmetry_order
_atom_site_calc_flag
_atom_site_refinement_flags_posn
_atom_site_refinement_flags_adp
_atom_site_refinement_flags_occupancy
Zn1 Zn 0.0000 0.0000 0.5000 0.0066(2) Uani 1 4 d S T P
Cu1 Cu -0.5000 0.0000 0.15930(8) 0.0104(2) Uani 1 2 d S T P
N1 N -0.14497(18) -0.03246(18) 0.3158(3) 0.0095(4) Uani 1 1 d . . .
N2 N -0.33187(18) -0.02605(19) 0.1717(3) 0.0100(5) Uani 1 1 d . . .
C1 C -0.2541(2) 0.0223(2) 0.3150(4) 0.0103(5) Uani 1 1 d . . .
H1 H -0.2745 0.0886 0.4066 0.012 Uiso 1 1 calc R U .
C2 C -0.1526(2) -0.1226(2) 0.1610(5) 0.0103(5) Uani 1 1 d . . .
H2 H -0.0892 -0.1775 0.1222 0.012 Uiso 1 1 calc R U .
C3 C -0.2667(2) -0.1193(2) 0.0735(4) 0.0106(5) Uani 1 1 d . . .
H3 H -0.2965 -0.1719 -0.0360 0.013 Uiso 1 1 calc R U .
loop_
_atom_site_aniso_label
_atom_site_aniso_U_11
_atom_site_aniso_U_22
_atom_site_aniso_U_33
_atom_site_aniso_U_23
_atom_site_aniso_U_13
_atom_site_aniso_U_12
Zn1 0.0057(3) 0.0057(3) 0.0083(4) 0.000 0.000 0.000
Cu1 0.0055(3) 0.0118(3) 0.0140(3) 0.000 0.000 0.00023(17)
N1 0.0082(10) 0.0101(10) 0.0101(10) -0.0006(8) -0.0001(9) -0.0004(8)
N2 0.0080(10) 0.0116(11) 0.0104(10) -0.0001(8) 0.0004(8) 0.0003(7)
C1 0.0093(12) 0.0090(13) 0.0126(12) -0.0008(10) 0.0020(11) -0.0005(8)
C2 0.0097(11) 0.0097(12) 0.0114(12) -0.0010(10) 0.0014(10) 0.0003(9)
C3 0.0111(11) 0.0102(12) 0.0106(10) -0.0010(9) 0.0007(10) -0.0016(9)
loop_
_atom_type_symbol
_atom_type_description
_atom_type_scat_dispersion_real
_atom_type_scat_dispersion_imag
_atom_type_scat_source
C C 0.0181 0.0091 'International Tables Vol C Tables 4.2.6.8 and 6.1.1.4'
H H 0.0000 0.0000 'International Tables Vol C Tables 4.2.6.8 and 6.1.1.4'
N N 0.0311 0.0180 'International Tables Vol C Tables 4.2.6.8 and 6.1.1.4'
Cu Cu -1.9646 0.5888 'International Tables Vol C Tables 4.2.6.8 and 6.1.1.4'
Zn Zn -1.5491 0.6778 'International Tables Vol C Tables 4.2.6.8 and 6.1.1.4'
loop_
_geom_angle_atom_site_label_1
_geom_angle_atom_site_label_2
_geom_angle_atom_site_label_3
_geom_angle
_geom_angle_site_symmetry_1
_geom_angle_site_symmetry_3
N1 Zn1 N1 109.33(6) 3_556 2
N1 Zn1 N1 109.74(12) 3_556 4_556
N1 Zn1 N1 109.33(6) 2 4_556
N1 Zn1 N1 109.33(6) 3_556 .
N1 Zn1 N1 109.74(12) 2 .
N1 Zn1 N1 109.34(6) 4_556 .
N2 Cu1 N2 175.25(13) . 2_455
C1 N1 C2 105.3(2) . .
C1 N1 Zn1 129.46(17) . .
C2 N1 Zn1 125.24(16) . .
C1 N2 C3 104.84(19) . .
C1 N2 Cu1 126.44(17) . .
C3 N2 Cu1 127.04(17) . .
N1 C1 N2 113.2(2) . .
C3 C2 N1 108.3(2) . .
C2 C3 N2 108.4(2) . .
loop_
_geom_bond_atom_site_label_1
_geom_bond_atom_site_label_2
_geom_bond_distance
_geom_bond_site_symmetry_2
Zn1 N1 1.990(2) 3_556
Zn1 N1 1.990(2) 2
Zn1 N1 1.990(2) 4_556
Zn1 N1 1.990(2) .
Cu1 N2 1.866(2) .
Cu1 N2 1.866(2) 2_455
N1 C1 1.338(3) .
N1 C2 1.382(3) .
N2 C1 1.341(3) .
N2 C3 1.388(3) .
C2 C3 1.364(4) .
loop_
_geom_torsion_atom_site_label_1
_geom_torsion_atom_site_label_2
_geom_torsion_atom_site_label_3
_geom_torsion_atom_site_label_4
_geom_torsion
C2 N1 C1 N2 0.2(3)
Zn1 N1 C1 N2 -178.20(16)
C3 N2 C1 N1 0.1(3)
Cu1 N2 C1 N1 166.03(17)
C1 N1 C2 C3 -0.4(3)
Zn1 N1 C2 C3 178.09(17)
N1 C2 C3 N2 0.5(3)
C1 N2 C3 C2 -0.3(3)
Cu1 N2 C3 C2 -166.19(19)
