#------------------------------------------------------------------------------
#$Date: 2019-11-23 08:55:36 +0200 (Sat, 23 Nov 2019) $
#$Revision: 232608 $
#$URL: file:///home/coder/svn-repositories/cod/cif/4/34/79/4347978.cif $
#------------------------------------------------------------------------------
#
# This file is available in the Crystallography Open Database (COD),
# http://www.crystallography.net/
#
# All data on this site have been placed in the public domain by the
# contributors.
#
data_4347978
loop_
_publ_author_name
'Schlindwein, Simon H.'
'Bader, Katharina'
'Sibold, Carlo'
'Frey, Wolfgang'
'Neugebauer, Petr'
'Orlita, Milan'
'Slageren, Joris van'
'Gudat, Dietrich'
_publ_section_title
;
 New Selective Synthesis of Dithiaboroles as a Viable Pathway to
 Functionalized Benzenedithiolenes and Their Complexes.
;
_journal_issue                   12
_journal_name_full               'Inorganic chemistry'
_journal_page_first              6186
_journal_page_last               6194
_journal_paper_doi               10.1021/acs.inorgchem.6b00821
_journal_volume                  55
_journal_year                    2016
_chemical_formula_moiety         'C6 H2 B2 Br2 S4'
_chemical_formula_sum            'C6 H2 B2 Br2 S4'
_chemical_formula_weight         383.76
_space_group_crystal_system      monoclinic
_space_group_IT_number           14
_space_group_name_Hall           '-P 2ybc'
_space_group_name_H-M_alt        'P 1 21/c 1'
_atom_sites_solution_hydrogens   geom
_audit_creation_method           SHELXL-2014/7
_cell_angle_alpha                90
_cell_angle_beta                 92.342(5)
_cell_angle_gamma                90
_cell_formula_units_Z            2
_cell_length_a                   3.9679(6)
_cell_length_b                   12.692(2)
_cell_length_c                   11.0080(16)
_cell_measurement_reflns_used    857
_cell_measurement_temperature    100(2)
_cell_measurement_theta_max      24.995
_cell_measurement_theta_min      2.450
_cell_volume                     553.91(15)
_computing_cell_refinement       'Bruker ApexII Software Suite, 2008'
_computing_data_collection       'Bruker ApexII Software Suite, 2008'
_computing_data_reduction        'Bruker ApexII Software Suite, 2008'
_computing_molecular_graphics    'SHELXS plus XP (Sheldrick, 1991)'
_computing_publication_material  'SHELXL-2014/7 (Sheldrick, 2014)'
_computing_structure_refinement  'SHELXL-2014/7 (Sheldrick, 2014)'
_computing_structure_solution    'SHELXS-2014/7 (Sheldrick, 2014)'
_diffrn_ambient_temperature      100(2)
_diffrn_measured_fraction_theta_full 0.993
_diffrn_measured_fraction_theta_max 0.993
_diffrn_measurement_device_type  'Bruker Kappa ApexII Duo'
_diffrn_measurement_method       'Omega and phi scans'
_diffrn_radiation_type           MoK\a
_diffrn_radiation_wavelength     0.71073
_diffrn_reflns_av_R_equivalents  0.0291
_diffrn_reflns_av_unetI/netI     0.0288
_diffrn_reflns_Laue_measured_fraction_full 0.993
_diffrn_reflns_Laue_measured_fraction_max 0.993
_diffrn_reflns_limit_h_max       4
_diffrn_reflns_limit_h_min       -4
_diffrn_reflns_limit_k_max       14
_diffrn_reflns_limit_k_min       -15
_diffrn_reflns_limit_l_max       8
_diffrn_reflns_limit_l_min       -13
_diffrn_reflns_number            3988
_diffrn_reflns_point_group_measured_fraction_full 0.993
_diffrn_reflns_point_group_measured_fraction_max 0.993
_diffrn_reflns_theta_full        24.995
_diffrn_reflns_theta_max         24.995
_diffrn_reflns_theta_min         2.450
_exptl_absorpt_coefficient_mu    8.020
_exptl_absorpt_correction_T_max  0.7392
_exptl_absorpt_correction_T_min  0.4050
_exptl_absorpt_correction_type   numerical
_exptl_absorpt_process_details   'BLESSING 1995'
_exptl_crystal_colour            colourless
_exptl_crystal_density_diffrn    2.301
_exptl_crystal_description       block
_exptl_crystal_F_000             364
_exptl_crystal_size_max          0.235
_exptl_crystal_size_mid          0.097
_exptl_crystal_size_min          0.060
_refine_diff_density_max         2.331
_refine_diff_density_min         -0.729
_refine_diff_density_rms         0.191
_refine_ls_extinction_method     none
_refine_ls_goodness_of_fit_ref   1.169
_refine_ls_hydrogen_treatment    constr
_refine_ls_matrix_type           full
_refine_ls_number_parameters     65
_refine_ls_number_reflns         963
_refine_ls_number_restraints     0
_refine_ls_restrained_S_all      1.169
_refine_ls_R_factor_all          0.0523
_refine_ls_R_factor_gt           0.0456
_refine_ls_shift/su_max          0.000
_refine_ls_shift/su_mean         0.000
_refine_ls_structure_factor_coef Fsqd
_refine_ls_weighting_details
'w=1/[\s^2^(Fo^2^)+(0.0493P)^2^+6.2612P] where P=(Fo^2^+2Fc^2^)/3'
_refine_ls_weighting_scheme      calc
_refine_ls_wR_factor_gt          0.1129
_refine_ls_wR_factor_ref         0.1152
_reflns_Friedel_coverage         0.000
_reflns_number_gt                857
_reflns_number_total             963
_reflns_threshold_expression     'I > 2\s(I)'
_cod_data_source_file            7c(gud303).cif
_cod_data_source_block           gud303
_cod_original_cell_volume        553.88(15)
_cod_original_sg_symbol_H-M      'P 21/c'
_cod_database_code               4347978
_shelx_shelxl_version_number     2014/7
_shelx_space_group_comment
;
The symmetry employed for this shelxl refinement is uniquely defined
by the following loop, which should always be used as a source of
symmetry information in preference to the above space-group names.
They are only intended as comments.
;
_shelx_estimated_absorpt_t_min   0.254
_shelx_estimated_absorpt_t_max   0.645
_shelx_res_file
;

    gud303.res created by SHELXL-2014/7


TITL gud303a in P2(1)/c
CELL 0.71073   3.9679  12.6915  11.0080  90.000  92.342  90.000
ZERR    2.00   0.0006   0.0020   0.0016   0.000   0.005   0.000
LATT  1
SYMM -X, 0.5+Y, 0.5-Z
SFAC C H B S BR
UNIT 12 4 4 8 4
TEMP -173.150
SIZE 0.06 0.097 0.235
REM Tmax: 0.7392 Tmin: 0.4050 (numerical)
REM block, colourless

OMIT 0 50

L.S. 5
BOND $H
FMAP 2
PLAN 20
ACTA
CONF
TWIN

WGHT    0.049300    6.261199
BASF   0.12618
FVAR       0.20211
MOLE 1
BR1   5    0.312870    0.363199    0.031286    11.00000    0.02016    0.01390 =
         0.00983   -0.00195    0.00241   -0.00040
S1    4    0.027873    0.324741    0.298248    11.00000    0.01632    0.01102 =
         0.01243   -0.00169    0.00170   -0.00144
S2    4    0.297488    0.541359    0.243589    11.00000    0.01788    0.01134 =
         0.01075    0.00104    0.00224   -0.00020
B1    3    0.217646    0.409562    0.190845    11.00000    0.01866    0.01289 =
         0.01113   -0.00365   -0.00181    0.00344
C1    1    0.134002    0.521055    0.388337    11.00000    0.01249    0.01227 =
         0.01165    0.00209    0.00018    0.00201
C2    1    0.008859    0.420507    0.413774    11.00000    0.01244    0.00977 =
         0.01163    0.00132   -0.00175    0.00151
C3    1   -0.128059    0.398440    0.524522    11.00000    0.01668    0.01134 =
         0.00868    0.00035    0.00065   -0.00048
AFIX  43
H3    2   -0.215757    0.330527    0.541103    11.00000   -1.20000
AFIX   0
HKLF 4

REM  gud303a in P2(1)/c
REM R1 =  0.0456 for     857 Fo > 4sig(Fo)  and  0.0523 for all     963 data
REM     65 parameters refined using      0 restraints

END

WGHT      0.0493      6.2749

REM Highest difference peak  2.331,  deepest hole -0.729,  1-sigma level  0.191
Q1    1   0.0672  0.3641  0.0330  11.00000  0.05    2.33
Q2    1   0.5717  0.3637  0.0346  11.00000  0.05    1.62
Q3    1   0.2710  0.3245  0.3000  11.00000  0.05    1.09
Q4    1  -0.2181  0.3170  0.2942  11.00000  0.05    0.97
Q5    1   0.0623  0.5401  0.2469  11.00000  0.05    0.95
Q6    1   0.5227  0.3269  0.2990  11.00000  0.05    0.94
Q7    1  -0.1621  0.3689  0.0355  11.00000  0.05    0.83
Q8    1   0.5525  0.5504  0.2386  11.00000  0.05    0.69
Q9    1   0.1411  0.1827  0.2657  11.00000  0.05    0.56
Q10   1   0.4177  0.3639 -0.0973  11.00000  0.05    0.55
Q11   1   0.0475  0.3666  0.2214  11.00000  0.05    0.54
Q12   1  -0.0674  0.3295  0.6286  11.00000  0.05    0.53
Q13   1   0.6351  0.4689  0.3003  11.00000  0.05    0.44
Q14   1  -0.0839  0.5954  0.3336  11.00000  0.05    0.42
Q15   1  -0.2417  0.4905  0.3136  11.00000  0.05    0.42
Q16   1  -0.1809  0.5624  0.2311  11.00000  0.05    0.42
Q17   1  -0.3794  0.4411  0.5053  11.00000  0.05    0.41
Q18   1   0.1689  0.2993  0.6554  11.00000  0.05    0.41
Q19   1  -0.1223  0.4368  0.2447  11.00000  0.05    0.39
Q20   1   0.4757  0.6345  0.2958  11.00000  0.05    0.39
;
_shelx_res_checksum              20859
_shelx_hkl_file
;
  -1   0   0   56.12    1.82
  -1   0   0   57.93    1.79
   1   0   0   56.03    1.82
   1   0   0   56.51    1.80
  -1   0   0   54.92    1.92
   2   0   0  140.47    4.17
  -2   0   0  147.83    4.22
  -2   0   0  148.14    4.29
   2   0   0  144.82    4.20
  -2   0   0  147.30    4.52
  -3   0   0  378.90   10.75
   3   0   0  382.88   10.09
   3   0   0  378.58   10.07
  -3   0   0  388.82   10.03
  -3   0   0  381.65   10.20
  -4   0   0   19.10    2.26
   4   0   0   19.98    2.14
  -4   0   0   16.26    2.52
  -5   0   0   49.47    3.83
  -5   0   0   50.72    4.16
   0  -1   0    0.02    0.21
  -1  -1   0  220.52    5.45
  -1  -1   0  220.72    5.84
  -1  -1   0  218.42    5.54
  -1  -1   0  230.38    5.51
   1  -1   0  217.04    5.53
   1  -1   0  216.10    5.56
  -1   1   0  212.48    5.52
  -1   1   0  217.78    5.55
  -1   1   0  223.37    5.59
   1   1   0  210.35    5.80
   1   1   0  224.70    5.48
   1   1   0  229.85    5.51
  -2  -1   0   60.70    2.26
  -2  -1   0   58.78    2.57
  -2  -1   0   60.71    2.36
   2  -1   0   57.52    2.34
   2  -1   0   61.06    2.33
   2   1   0   59.51    2.22
  -2   1   0   59.98    2.54
  -2   1   0   57.67    2.28
   2   1   0   59.62    2.35
  -3  -1   0    2.84    1.30
  -3  -1   0    2.66    1.55
  -3  -1   0    3.31    1.10
   3  -1   0   -0.07    1.19
   3  -1   0    1.11    1.38
   3   1   0    1.83    1.31
  -3   1   0    2.31    1.12
  -3   1   0    2.36    1.32
   3   1   0    3.05    1.13
  -3   1   0    3.42    1.42
  -4  -1   0   86.32    4.20
  -4  -1   0   78.83    4.12
   4  -1   0   75.91    3.91
  -4   1   0   73.03    4.16
  -4   1   0   82.49    4.01
   4   1   0   82.10    3.86
  -5  -1   0    4.60    2.24
  -5  -1   0    2.03    2.47
  -5   1   0   -0.68    2.53
  -5   1   0    3.60    2.33
   0  -2   0   80.74    2.21
   0  -2   0   78.58    2.23
   0   2   0   79.29    2.24
   0   2   0   77.39    2.20
   1  -2   0    4.02    0.78
  -1  -2   0    4.60    0.68
   1  -2   0    3.64    0.76
  -1  -2   0    4.23    0.81
  -1  -2   0    4.81    0.68
  -1  -2   0    2.98    0.79
   1   2   0    3.21    0.81
  -1   2   0    4.11    0.74
   1   2   0    3.64    0.68
  -1   2   0    4.46    0.78
   1   2   0    4.19    0.70
  -2  -2   0   42.33    2.12
   2  -2   0   42.41    2.09
  -2  -2   0   44.27    2.22
  -2  -2   0   46.79    1.94
   2  -2   0   43.95    2.02
  -2   2   0   45.63    2.04
  -2   2   0   41.02    2.13
   2   2   0   45.62    1.92
   2   2   0   45.74    2.02
  -3  -2   0    4.80    1.26
   3  -2   0    4.25    1.36
  -3  -2   0    2.96    1.49
   3  -2   0    3.04    1.27
  -3  -2   0    3.40    1.52
   3   2   0    1.40    1.31
   3   2   0    4.96    1.20
  -3   2   0    5.67    1.23
  -3   2   0    1.68    1.37
   4  -2   0    1.70    1.73
  -4  -2   0    2.71    1.75
  -4  -2   0    6.15    2.29
  -4   2   0    3.44    1.83
  -4   2   0    3.24    1.96
   4   2   0    4.98    1.85
   5  -2   0   14.12    2.83
  -5  -2   0    9.41    2.76
  -5  -2   0   10.71    2.87
  -5   2   0    7.87    2.94
  -5   2   0   11.02    2.60
   0  -3   0    0.34    0.75
   0  -3   0   -0.03    0.63
   0   3   0    0.69    0.70
  -1  -3   0   16.60    1.17
  -1  -3   0   13.46    1.14
  -1  -3   0   15.93    1.11
   1  -3   0   16.29    1.18
   1  -3   0   14.29    1.07
  -1   3   0   14.94    1.07
   1   3   0   15.51    1.07
  -1   3   0   15.80    1.11
  -2  -3   0   38.69    1.86
   2  -3   0   40.13    2.06
  -2  -3   0   37.71    1.70
  -2  -3   0   37.87    2.11
   2  -3   0   39.49    1.96
  -2   3   0   33.45    2.03
  -2   3   0   34.20    1.88
   2   3   0   33.87    1.83
   2   3   0   35.81    1.88
  -3  -3   0    6.93    1.59
   3  -3   0    8.28    1.52
   3  -3   0    8.58    1.76
  -3  -3   0    6.65    1.32
  -3  -3   0    6.89    1.67
   3   3   0    7.56    1.42
  -3   3   0    8.56    1.77
   3   3   0    9.03    1.49
  -4  -3   0    7.66    2.19
  -4  -3   0    3.25    1.96
   4  -3   0    3.12    1.81
   4   3   0    2.70    1.80
  -4   3   0    3.05    1.86
  -5  -3   0    0.93    2.52
   5  -3   0    0.73    2.57
  -5  -3   0   -1.03    2.46
  -5   3   0    3.29    2.70
  -5   3   0   -0.07    2.76
   0  -4   0  608.83   14.91
   0  -4   0  625.83   14.85
   0   4   0  626.27   14.89
   1  -4   0    5.49    0.81
  -1  -4   0    5.19    1.07
   1  -4   0    3.79    0.93
  -1  -4   0    6.21    0.92
   1   4   0    6.20    0.99
  -1   4   0    6.19    0.86
  -1   4   0    4.67    0.91
  -2  -4   0   39.14    2.23
  -2  -4   0   41.44    2.09
   2  -4   0   45.35    2.15
  -2  -4   0   44.68    1.94
   2  -4   0   43.70    2.26
  -2   4   0   44.29    2.28
   2   4   0   40.95    2.05
   3  -4   0  115.30    4.24
  -3  -4   0  117.62    4.44
  -3  -4   0  119.90    4.02
   3  -4   0  116.54    4.35
  -3  -4   0  119.70    4.31
   3   4   0  112.92    3.98
   3   4   0  126.68    4.19
  -3   4   0  114.22    4.52
   4  -4   0    0.10    2.07
  -4  -4   0    1.54    2.00
  -4  -4   0    1.65    2.03
   4   4   0    0.84    1.97
  -4   4   0    3.71    1.91
   5  -4   0    9.67    2.90
  -5  -4   0   14.60    2.98
  -5  -4   0    5.99    3.02
  -5   4   0    6.16    2.92
   0  -5   0   -0.46    0.77
   0  -5   0    0.19    0.98
   0   5   0   -0.19    0.85
   1  -5   0  625.37   15.12
  -1  -5   0  629.63   16.01
  -1  -5   0  602.98   15.08
  -1   5   0  616.85   15.17
   1   5   0  626.58   15.13
  -2  -5   0  130.48    3.89
   2  -5   0  128.91    4.26
  -2  -5   0  122.99    4.35
   2  -5   0  126.26    4.13
  -2   5   0  126.38    4.04
   2   5   0  130.86    4.05
  -2   5   0  131.98    4.26
   3  -5   0   24.49    2.24
  -3  -5   0   21.90    1.82
  -3  -5   0   21.41    2.31
   3  -5   0   25.66    2.13
  -3   5   0   26.11    2.28
   3   5   0   26.49    2.15
   4  -5   0  169.14    6.17
  -4  -5   0  178.38    6.20
  -4  -5   0  172.40    6.59
  -4   5   0  176.55    6.31
   5  -5   0    5.28    2.85
  -5  -5   0    3.83    2.95
  -5   5   0    8.88    3.01
   0  -6   0  162.64    4.56
   0   6   0  156.37    4.55
   1  -6   0    1.28    0.97
  -1   6   0    2.83    0.94
  -1   6   0    1.56    0.99
   1   6   0    2.36    1.13
   2  -6   0    1.31    1.16
  -2  -6   0    0.02    0.92
  -2  -6   0    0.59    1.38
   2  -6   0   -1.25    1.15
   2   6   0    2.26    1.25
  -2   6   0    0.84    1.18
   3  -6   0   63.47    3.57
   3  -6   0   68.84    3.32
  -3  -6   0   66.67    3.57
  -3   6   0   64.60    3.46
   3   6   0   62.38    3.25
   4  -6   0    7.39    2.49
  -4  -6   0    4.53    2.46
  -4   6   0    7.33    2.18
   0  -7   0    0.57    0.89
   0   7   0    1.56    1.03
   1  -7   0  110.62    3.74
  -1   7   0  111.93    3.82
   1   7   0  111.29    3.72
   2  -7   0   52.99    2.71
   2  -7   0   51.19    2.86
  -2  -7   0   58.54    3.04
  -2  -7   0   51.83    2.41
   2   7   0   51.28    2.79
  -2   7   0   51.19    2.82
  -3  -7   0   43.94    3.27
   3  -7   0   57.33    3.17
   3  -7   0   51.56    3.18
  -3   7   0   48.21    3.31
   3   7   0   48.99    3.12
  -4  -7   0    8.10    2.63
   4  -7   0    7.26    2.35
  -4   7   0    9.42    2.45
   0  -8   0   28.10    1.86
   0   8   0   32.74    2.08
   1  -8   0   88.94    3.38
   1   8   0   88.92    3.36
  -1   8   0   91.22    3.51
  -2  -8   0   98.88    4.30
   2  -8   0  104.46    4.16
  -2  -8   0  106.11    3.67
   2  -8   0  109.61    4.03
   2   8   0   96.27    3.92
  -2   8   0  109.74    4.15
  -3  -8   0    6.10    2.14
   3  -8   0    5.75    1.98
   3  -8   0    6.69    1.87
  -3   8   0    6.82    1.98
  -4  -8   0   21.21    3.23
   4  -8   0   17.25    2.81
  -4   8   0   20.51    3.18
   0  -9   0   -0.73    1.01
   0   9   0   -0.96    1.12
  -1  -9   0   61.44    2.80
   1  -9   0   54.53    2.75
   1   9   0   52.76    2.77
  -1   9   0   53.81    2.94
  -2  -9   0   68.80    3.01
   2  -9   0   68.75    3.54
   2  -9   0   69.09    3.36
   2   9   0   68.94    3.37
  -2   9   0   77.28    3.81
   3  -9   0    7.08    2.15
   3  -9   0    5.02    1.94
  -3  -9   0    7.08    2.43
  -3   9   0    5.58    2.09
  -4  -9   0   23.09    3.43
   4  -9   0   21.63    3.37
  -4   9   0   21.00    3.37
   0 -10   0  138.09    4.61
   0  10   0  141.11    4.75
   1 -10   0   48.48    2.93
  -1 -10   0   40.86    2.66
  -1  10   0   49.93    3.06
   1  10   0   49.80    2.76
   2 -10   0   67.04    3.45
   2 -10   0   64.36    3.59
  -2  10   0   68.96    3.62
   3 -10   0   93.01    4.58
   3 -10   0   87.11    4.37
  -3 -10   0   88.97    4.50
  -3  10   0   98.94    5.00
  -4 -10   0    7.17    2.94
   4 -10   0    8.39    2.75
  -4  10   0   10.84    2.83
   0 -11   0    0.90    1.22
   0  11   0    0.46    1.56
  -1 -11   0   11.43    1.81
   1 -11   0   13.81    2.06
   1  11   0   15.57    1.86
  -1  11   0    9.32    1.77
   2 -11   0    0.85    1.65
   2 -11   0   -2.86    2.10
  -2  11   0    3.97    2.05
   3 -11   0   -2.98    2.13
   3 -11   0    1.25    2.33
  -3  11   0   -0.72    2.41
   4 -11   0    2.58    2.78
  -4  11   0    5.58    3.07
   0 -12   0   41.85    2.81
   0  12   0   49.46    3.02
  -1 -12   0   85.84    3.86
   1 -12   0   88.71    3.98
  -1  12   0   98.11    4.30
  -2 -12   0  116.03    4.62
   2 -12   0  121.18    4.89
   2 -12   0  116.95    5.15
  -2  12   0  115.47    5.22
   3 -12   0   23.32    2.87
   3 -12   0   18.95    3.03
  -3  12   0   19.09    3.17
   0 -13   0    2.35    1.67
   0  13   0   -3.51    1.48
   1 -13   0   76.05    3.90
  -1 -13   0   70.88    3.61
  -1  13   0   68.41    4.01
  -2 -13   0   31.74    2.72
   2 -13   0   29.64    2.87
   2 -13   0   28.55    3.35
  -2  13   0   35.46    3.22
   3 -13   0    3.86    2.38
   3 -13   0    5.18    2.68
  -3  13   0    7.62    2.92
   0 -14   0   -0.77    1.72
  -1 -14   0   41.66    3.10
   1 -14   0   36.47    3.10
  -1  14   0   42.74    3.17
   2 -14   0   20.61    3.28
  -2 -14   0   25.58    2.58
   2 -14   0   20.87    2.69
  -2  14   0   24.37    3.05
   0 -15   0   -0.58    1.93
  -1 -15   0   18.34    2.44
   1 -15   0   22.13    2.59
   2 -15   0   19.39    2.76
   2 -15   0   16.93    3.04
  -2 -15   0   15.08    2.40
   0 -16   0   -1.60    1.91
   1 -16   0    1.57    2.26
  -1 -16   0   -0.55    1.80
  -5   0   1    7.90    2.77
  -5   0   1    6.64    2.67
   5   0  -1    6.77    2.49
  -4   0   1    1.49    1.75
  -4   0   1    0.14    2.07
   4   0  -1   -1.49    1.79
   3   0  -1    1.01    1.19
  -3   0   1    0.70    1.09
   3   0  -1   -0.10    1.37
  -3   0   1    1.38    1.60
  -3   0   1    0.59    1.29
   2   0  -1   -0.64    0.87
  -2   0   1    1.02    1.19
   2   0  -1    0.45    0.82
  -2   0   1    0.48    0.80
  -2   0   1   -0.60    1.06
  -1   0   1   -0.46    0.59
  -1   0   1    0.04    0.74
   1   0  -1   -0.22    0.64
   1   0  -1   -0.19    0.61
  -1   0   1   -0.06    0.62
  -1   0   1   -0.33    0.68
   0   0  -1    0.00    0.24
   0   0  -1   -0.21    0.27
  -1   0  -1    0.36    0.48
   1   0   1    0.00    0.58
   1   0   1    0.44    0.50
  -1   0  -1   -0.21    0.59
  -1   0  -1   -0.04    0.65
   2   0   1   -0.22    0.87
  -2   0  -1    0.67    0.99
  -2   0  -1    0.38    0.70
   2   0   1   -0.22    0.83
   3   0   1   -0.89    1.24
  -3   0  -1    1.22    1.14
  -3   0  -1   -1.92    1.30
  -3   0  -1   -1.47    1.39
   3   0   1   -1.08    1.16
   4   0   1    4.01    1.80
  -4   0  -1    2.56    2.00
  -4   0  -1   -0.69    1.84
  -5   0  -1    6.80    2.94
  -5   0  -1    6.97    2.60
   5  -1  -1   11.48    2.81
  -5  -1   1    7.89    2.71
  -5  -1   1   14.22    3.06
  -5   1   1   14.03    3.02
  -5   1   1   10.54    2.66
   4  -1  -1   41.67    2.99
  -4  -1   1   45.40    3.18
  -4  -1   1   43.17    3.41
  -4   1   1   39.59    3.26
  -4   1   1   41.70    3.16
   4   1  -1   48.11    3.30
  -3  -1   1   29.30    2.04
   3  -1  -1   27.00    1.99
  -3  -1   1   29.72    2.37
   3  -1  -1   29.98    2.24
  -3  -1   1   34.39    2.35
  -3   1   1   25.68    2.19
   3   1  -1   28.61    2.09
  -3   1   1   27.29    2.11
   3   1  -1   32.26    2.20
   2  -1  -1  167.76    4.85
  -2  -1   1  165.22    4.75
  -2  -1   1  171.43    4.87
  -2  -1   1  166.10    5.12
   2  -1  -1  170.04    4.84
   2   1  -1  171.79    4.80
  -2   1   1  180.54    4.96
   2   1  -1  166.11    4.79
  -2   1   1  176.29    4.83
   1  -1  -1   16.21    1.16
   1  -1  -1   14.65    1.10
  -1  -1   1   14.17    0.91
  -1  -1   1   14.80    1.00
  -1   1   1   13.82    0.99
  -1   1   1   16.55    1.10
   1   1  -1   15.39    1.09
   0  -1  -1   48.14    1.22
   0  -1   1   44.43    1.62
   0  -1  -1   47.70    1.21
   0  -1  -1   48.65    1.19
   0   1   1   46.39    1.20
   0   1  -1   47.00    1.52
   0   1  -1   51.38    1.71
   0   1   1   49.90    1.20
  -1  -1  -1  880.55   21.17
   1  -1   1  903.13   21.30
  -1  -1  -1  910.76   21.20
  -1  -1  -1  917.36   21.05
  -1  -1  -1  893.79   22.36
   1  -1   1  913.76   21.18
  -1   1  -1  915.56   21.32
   1   1   1  909.57   21.05
   1   1   1  903.45   21.18
  -1   1  -1  899.22   21.17
   1   1   1  896.47   21.18
  -1   1  -1  876.51   21.29
  -2  -1  -1   73.28    2.56
   2  -1   1   78.75    2.67
  -2  -1  -1   85.47    2.93
   2  -1   1   74.63    2.78
  -2  -1  -1   76.91    2.73
  -2   1  -1   76.51    2.71
   2   1   1   74.39    2.63
  -2   1  -1   79.46    2.78
   2   1   1   74.60    2.55
   3  -1   1  110.40    3.92
  -3  -1  -1  115.59    4.22
  -3  -1  -1  115.34    3.79
   3  -1   1  110.74    3.90
  -3  -1  -1  117.71    4.16
   3   1   1  108.54    3.86
  -3   1  -1  106.17    4.10
  -3   1  -1  114.79    3.95
   3   1   1  113.89    3.92
  -4  -1  -1   33.55    2.83
  -4  -1  -1   26.83    2.59
   4  -1   1   32.37    2.69
  -4   1  -1   29.59    2.88
   4   1   1   27.91    2.61
  -4   1  -1   34.42    2.69
  -5  -1  -1   21.66    3.12
  -5  -1  -1   18.04    3.00
  -5   1  -1   18.68    3.12
  -5   1  -1   23.00    3.20
  -5  -2   1   48.62    3.72
   5  -2  -1   38.63    3.63
  -5  -2   1   37.84    3.83
  -5   2   1   41.13    3.58
  -5   2   1   38.59    3.90
   4  -2  -1   35.02    2.75
  -4  -2   1   33.13    2.72
  -4  -2   1   30.84    2.98
   4   2  -1   36.04    2.78
  -4   2   1   34.95    3.18
  -4   2   1   28.03    2.89
  -3  -2   1   80.94    3.57
  -3  -2   1   95.85    3.35
   3  -2  -1   88.82    3.46
   3  -2  -1   89.76    3.54
  -3  -2   1   84.74    3.51
  -3   2   1   83.42    3.58
   3   2  -1   79.93    3.42
   3   2  -1   87.21    3.35
  -2  -2   1  232.29    6.26
  -2  -2   1  231.53    6.39
   2  -2  -1  232.28    6.39
  -2  -2   1  233.91    6.75
   2  -2  -1  233.51    6.35
  -2   2   1  242.83    6.36
   2   2  -1  245.37    6.30
  -2   2   1  239.62    6.43
   2   2  -1  229.91    6.32
   1  -2  -1  240.01    6.06
   1  -2  -1  240.81    6.09
  -1  -2   1  243.77    6.04
  -1   2   1  231.91    6.01
  -1   2   1  239.66    6.11
   0  -2  -1  145.60    3.53
   0  -2  -1  145.99    3.50
   0  -2   1  140.17    3.81
   0   2   1  143.30    3.51
   0   2  -1  144.14    3.84
   0   2   1  139.88    3.50
  -1  -2  -1  963.41   22.64
  -1  -2  -1  960.28   22.81
   1  -2   1 1000.00   22.89
  -1  -2  -1  961.12   24.05
   1  -2   1  965.30   23.03
  -1  -2  -1  970.48   22.80
  -1   2  -1  978.53   22.87
   1   2   1  957.65   22.79
  -1   2  -1  964.77   23.02
   1   2   1  995.89   22.66
  -2  -2  -1   24.92    1.65
  -2  -2  -1   23.77    1.69
   2  -2   1   24.16    1.57
   2  -2   1   26.86    1.73
  -2  -2  -1   26.08    1.42
   2   2   1   20.82    1.56
  -2   2  -1   23.18    1.71
  -2   2  -1   24.27    1.71
   2   2   1   24.41    1.50
  -3  -2  -1   -0.60    1.52
   3  -2   1    0.36    1.15
   3  -2   1   -1.53    1.38
  -3  -2  -1   -0.39    1.30
  -3  -2  -1    0.80    1.04
   3   2   1   -1.10    1.29
   3   2   1   -0.42    1.11
  -3   2  -1    0.37    1.06
  -3   2  -1    0.73    1.44
   4  -2   1  113.22    4.58
  -4  -2  -1  118.28    4.97
  -4  -2  -1  120.15    4.88
   4   2   1  121.47    4.57
  -4   2  -1  114.93    4.88
  -4   2  -1  112.35    4.92
  -5  -2  -1    7.81    2.60
  -5  -2  -1    6.67    2.89
  -5   2  -1    4.00    2.59
  -5   2  -1    4.31    2.74
   5  -3  -1   15.84    2.78
  -5  -3   1   13.38    3.31
  -5  -3   1   18.29    3.19
  -5   3   1   20.30    3.30
  -4  -3   1   -2.96    1.88
  -4  -3   1    0.17    2.08
   4  -3  -1   -1.50    1.71
  -4   3   1    1.32    2.14
  -4   3   1    1.56    2.20
   4   3  -1   -1.26    1.77
   3  -3  -1  135.49    4.57
   3  -3  -1  140.79    4.68
  -3  -3   1  133.16    4.92
  -3  -3   1  131.51    4.37
  -3  -3   1  132.27    4.68
   3   3  -1  130.01    4.45
   3   3  -1  135.21    4.52
  -3   3   1  136.73    4.72
  -3   3   1  135.07    4.54
  -2  -3   1   88.19    3.18
  -2  -3   1   90.59    3.43
   2  -3  -1   94.99    3.25
   2  -3  -1   91.79    3.15
  -2  -3   1  100.57    3.15
   2   3  -1   90.31    3.18
   2   3  -1   90.78    3.14
  -2   3   1   95.14    3.29
   1  -3  -1  117.43    3.37
   1  -3  -1  115.99    3.33
  -1  -3   1  121.88    3.71
  -1  -3   1  117.62    3.35
   1   3  -1  109.34    3.56
  -1   3   1  113.52    3.32
   1   3  -1  119.39    3.45
  -1   3   1  119.75    3.38
   0  -3  -1  365.11    8.75
   0  -3   1  368.31    9.03
   0  -3   1  361.27    9.01
   0  -3  -1  360.17    8.66
   0   3  -1  360.34    8.98
   0   3   1  370.34    8.71
  -1  -3  -1   51.21    1.81
  -1  -3  -1   47.57    1.63
  -1  -3  -1   40.93    1.49
   1  -3   1   40.73    1.86
  -1  -3  -1   49.56    1.56
  -1   3  -1   39.47    1.70
  -1   3  -1   40.26    1.89
   1   3   1   45.04    1.61
   2  -3   1  178.89    5.14
  -2  -3  -1  182.48    5.24
   2  -3   1  176.78    5.07
  -2  -3  -1  178.86    4.78
  -2  -3  -1  170.25    4.91
  -2   3  -1  176.15    5.05
  -2   3  -1  173.33    5.12
   2   3   1  180.61    4.80
   2   3   1  172.07    4.84
  -3  -3  -1   27.95    2.18
  -3  -3  -1   21.79    2.15
   3  -3   1   25.12    1.99
   3  -3   1   28.53    2.26
  -3  -3  -1   25.90    1.92
  -3   3  -1   24.43    2.06
  -3   3  -1   23.32    1.89
   3   3   1   24.06    1.88
   3   3   1   28.24    2.07
  -4  -3  -1   19.31    2.35
  -4  -3  -1   17.47    2.58
   4  -3   1   20.88    2.33
  -4   3  -1   16.61    2.49
  -5  -3  -1   59.27    4.20
  -5  -3  -1   49.69    4.19
  -5   3  -1   54.11    4.04
  -5   3  -1   53.99    4.35
   5  -4  -1    3.66    2.45
  -5  -4   1    1.97    2.65
  -5  -4   1    0.34    2.60
  -5   4   1    3.74    2.46
   4  -4  -1    3.46    1.86
  -4  -4   1    1.83    1.80
  -4  -4   1    1.59    2.32
   4  -4  -1   -2.58    1.76
   4   4  -1   -0.71    1.81
  -4   4   1    0.07    1.81
  -3  -4   1  101.61    4.13
   3  -4  -1  107.63    3.94
  -3  -4   1  100.84    4.18
  -3  -4   1   96.69    3.64
   3  -4  -1  102.10    4.01
   3   4  -1  103.12    3.95
  -3   4   1  103.21    4.05
   2  -4  -1   40.35    2.13
  -2  -4   1   38.92    1.88
  -2  -4   1   35.55    2.29
   2  -4  -1   37.27    2.00
   2   4  -1   33.28    2.08
  -2   4   1   34.53    2.14
  -1  -4   1    1.62    0.94
   1  -4  -1    1.73    0.82
   1  -4  -1    1.04    0.74
  -1   4   1    0.33    0.77
   1   4  -1    1.53    0.99
   0  -4  -1  306.28    7.56
   0  -4  -1  306.38    7.47
   0  -4   1  308.42    7.82
   0   4   1  306.82    7.49
   0   4  -1  297.69    7.77
  -1  -4  -1   52.36    1.71
  -1  -4  -1   50.00    1.83
  -1  -4  -1   49.84    2.05
   1  -4   1   58.62    2.20
  -1   4  -1   54.60    2.14
   1   4   1   49.52    1.92
  -1   4  -1   49.90    2.20
  -2  -4  -1   31.47    1.97
   2  -4   1   28.19    1.89
  -2  -4  -1   30.26    1.88
  -2  -4  -1   31.61    1.55
   2  -4   1   30.44    2.04
  -2   4  -1   33.23    2.06
   2   4   1   29.62    1.85
  -2   4  -1   33.66    1.89
   3  -4   1   23.42    2.06
  -3  -4  -1   25.93    2.24
  -3  -4  -1   22.24    1.69
  -3  -4  -1   25.54    2.01
   3  -4   1   22.40    2.10
  -3   4  -1   24.43    2.15
   3   4   1   20.96    1.79
   3   4   1   25.58    1.96
  -4  -4  -1   24.17    2.76
  -4  -4  -1   28.05    2.88
   4  -4   1   31.93    2.93
  -4   4  -1   27.87    2.71
  -5  -4  -1   20.60    3.29
  -5  -4  -1   21.90    3.11
   5  -4   1   20.97    3.11
  -5   4  -1   18.99    3.35
  -5   4  -1   20.21    3.03
  -5  -5   1    9.54    2.98
   5  -5  -1   12.67    3.14
  -5   5   1    8.20    2.87
  -4   5   1   21.15    2.55
  -3  -5   1    6.89    1.87
   3  -5  -1    4.66    1.63
   3  -5  -1    5.50    1.55
  -3  -5   1    8.08    1.49
   3   5  -1    5.89    1.65
  -3   5   1    5.76    1.59
   2  -5  -1   39.00    2.14
   2  -5  -1   39.33    2.45
  -2  -5   1   37.88    2.43
  -2  -5   1   40.64    2.03
  -2   5   1   42.93    2.33
   2   5  -1   40.80    2.30
  -2   5   1   46.75    2.26
   1  -5  -1   17.96    1.27
  -1  -5   1   20.60    1.74
   1  -5  -1   20.09    1.39
  -1   5   1   17.48    1.34
   1   5  -1   18.13    1.51
  -1   5   1   17.39    1.32
   0  -5  -1   75.95    2.48
   0  -5   1   73.78    2.74
   0  -5  -1   72.08    2.37
   0   5  -1   75.41    2.67
   0   5   1   73.20    2.39
   1  -5   1    6.46    1.12
  -1  -5  -1    8.09    0.96
   1   5   1    8.85    0.98
  -1   5  -1    8.73    1.17
  -2  -5  -1   14.71    1.57
   2  -5   1   15.51    1.64
   2  -5   1   13.52    1.49
  -2  -5  -1   12.65    1.10
  -2   5  -1   13.23    1.54
   2   5   1   14.36    1.34
   3  -5   1   44.30    2.88
   3  -5   1   47.16    2.78
  -3  -5  -1   38.86    2.78
  -3  -5  -1   46.26    2.29
  -3  -5  -1   50.41    2.75
  -3   5  -1   39.24    3.09
   3   5   1   43.97    2.62
  -4  -5  -1    7.47    2.19
   4  -5   1    6.08    2.10
  -4  -5  -1   10.09    2.47
  -4   5  -1   10.08    2.26
  -5  -5  -1   -0.16    2.71
   5  -5   1    5.51    2.83
  -5   5  -1   -0.35    2.33
  -4  -6   1   61.17    4.29
   4  -6  -1   62.13    3.76
   4  -6  -1   66.02    3.85
  -4   6   1   60.36    3.94
   3  -6  -1   54.25    2.86
   3  -6  -1   62.53    3.26
  -3  -6   1   60.91    3.56
   3   6  -1   55.50    3.16
  -3   6   1   61.67    3.59
  -2  -6   1    0.26    1.38
  -2  -6   1    1.27    0.95
   2  -6  -1    2.19    1.12
   2  -6  -1    1.52    1.21
   2   6  -1    0.81    1.40
  -2   6   1    3.32    1.22
  -1  -6   1  402.54   10.92
   1  -6  -1  396.14   10.05
  -1   6   1  403.68   10.07
  -1   6   1  393.26   10.06
   1   6  -1  394.53   10.26
   0  -6  -1  116.26    3.38
   0  -6   1  118.31    3.77
   0  -6  -1  113.04    3.54
   0   6   1  114.49    3.38
   0   6  -1  113.67    3.73
  -1  -6  -1  138.85    4.00
   1  -6   1  117.99    4.06
   1   6   1  140.46    3.82
  -1   6  -1  123.58    4.15
  -2  -6  -1  313.38    8.72
   2  -6   1  312.54    8.60
  -2  -6  -1  304.81    7.93
   2  -6   1  319.85    8.50
   2   6   1  309.02    8.12
  -2   6  -1  304.18    8.42
  -2   6  -1  303.23    8.52
  -3  -6  -1   -0.52    1.16
   3  -6   1   -0.79    1.53
  -3  -6  -1   -0.45    1.59
   3  -6   1   -0.75    1.48
  -3   6  -1   -0.27    1.59
   3   6   1   -2.24    1.29
  -4  -6  -1   71.44    4.07
   4  -6   1   66.72    4.21
  -4   6  -1   62.59    4.01
  -4  -7   1    3.63    2.60
   4  -7  -1    6.05    2.39
   4  -7  -1    3.90    2.53
  -4   7   1    1.97    2.11
  -3  -7   1  139.07    5.38
   3  -7  -1  135.50    5.10
   3  -7  -1  135.94    5.01
   3   7  -1  146.36    5.21
  -3   7   1  140.04    5.20
  -2  -7   1   70.74    3.51
  -2  -7   1   75.73    3.07
   2  -7  -1   82.34    3.34
   2  -7  -1   72.95    3.10
  -2   7   1   73.70    3.24
   2   7  -1   75.83    3.34
   1  -7  -1   18.07    1.52
   1   7  -1   16.67    1.65
  -1   7   1   17.38    1.51
   0  -7   1  344.86    9.05
   0  -7  -1  345.26    8.73
   0   7   1  344.30    8.72
   0   7  -1  335.42    8.98
   1  -7   1   41.89    2.23
   1   7   1   35.42    1.93
  -1   7  -1   40.57    2.25
  -1   7  -1   35.96    2.31
   2  -7   1   50.77    2.74
  -2  -7  -1   54.26    2.78
  -2  -7  -1   49.78    2.17
   2  -7   1   48.01    2.90
  -2   7  -1   53.59    2.96
   2   7   1   54.54    2.64
  -3  -7  -1   98.31    4.20
   3  -7   1  104.42    4.27
   3  -7   1   90.83    4.24
  -3   7  -1  104.15    4.46
   4  -7   1    4.17    2.22
  -4  -7  -1   -0.90    2.34
  -4   7  -1   -0.08    2.38
   4  -8  -1   21.87    3.20
  -4  -8   1   20.82    2.97
  -4   8   1   20.25    2.84
   3  -8  -1    9.04    1.90
  -3  -8   1   11.00    2.28
   3  -8  -1    6.08    1.95
   3   8  -1   10.25    2.17
  -3   8   1    5.78    2.17
  -2  -8   1  130.30    5.26
  -2  -8   1  141.45    4.68
   2  -8  -1  135.66    4.85
   2  -8  -1  140.77    4.73
  -2   8   1  141.44    4.94
   2   8  -1  150.15    5.06
   1  -8  -1   24.98    1.93
  -1   8   1   29.24    2.14
   1   8  -1   21.16    1.85
   0  -8   1    9.53    1.56
   0  -8  -1    9.33    1.12
   0   8   1   10.16    1.25
   0   8  -1   10.26    1.39
   1  -8   1   96.71    3.62
  -1  -8  -1   92.66    3.24
   1   8   1   95.23    3.24
  -1   8  -1   95.46    3.68
   2  -8   1   -0.03    1.37
   2  -8   1    0.44    1.56
  -2  -8  -1    0.14    0.94
   2   8   1    1.22    1.29
  -2   8  -1    1.49    1.50
  -3  -8  -1    2.65    1.98
   3  -8   1    2.02    1.89
   3  -8   1    2.43    1.75
  -3   8  -1    2.08    1.89
  -4  -8  -1   20.37    2.95
   4  -8   1   19.16    2.87
  -4   8  -1   17.24    2.87
  -4  -9   1    7.31    2.94
   4  -9  -1    4.86    2.46
  -4   9   1    9.25    2.61
  -3  -9   1   10.11    2.37
   3  -9  -1    9.43    2.16
   3  -9  -1   10.65    2.07
  -3   9   1    9.56    2.40
  -2  -9   1    0.85    1.37
   2  -9  -1    0.55    1.71
   2  -9  -1    3.25    1.45
   2   9  -1    3.59    1.79
  -2   9   1    0.82    1.45
   1  -9  -1   12.94    1.53
  -1   9   1   13.52    1.63
   1   9  -1   15.79    1.78
   0  -9  -1    4.06    1.17
   0  -9   1    3.89    1.31
   0   9   1    4.78    1.14
   0   9  -1    9.48    1.57
  -1  -9  -1   13.10    1.46
   1  -9   1   13.07    1.73
   1   9   1   14.27    1.45
  -1   9  -1   14.08    1.76
   2  -9   1   -0.26    1.65
   2  -9   1    0.75    1.50
  -2  -9  -1    1.24    1.16
  -2   9  -1   -1.71    1.47
   2   9   1    1.72    1.33
   3  -9   1    5.85    2.20
  -3  -9  -1    8.94    2.24
   3  -9   1   10.92    2.18
  -3   9  -1    9.22    2.23
  -4  -9  -1   42.16    3.63
   4  -9   1   41.11    3.93
  -4   9  -1   54.52    4.28
  -4 -10   1   69.07    4.88
   4 -10  -1   75.38    4.65
  -4  10   1   71.46    4.73
   3 -10  -1    9.00    2.29
   3 -10  -1    6.58    2.05
  -3 -10   1    2.81    2.48
  -3  10   1    8.59    2.44
   2 -10  -1    3.64    1.98
   2 -10  -1    1.46    1.53
  -2  10   1    1.73    1.81
   2  10  -1   -2.20    1.76
   1 -10  -1  239.42    7.01
  -1 -10   1  252.00    7.27
  -1  10   1  246.28    7.08
   1  10  -1  234.20    7.22
   0 -10   1   80.60    3.45
   0 -10  -1   77.81    3.05
   0  10  -1   82.18    3.58
   0  10   1   77.80    3.24
   2 -10   1   54.02    3.50
   2 -10   1   60.56    3.38
  -2 -10  -1   59.27    2.78
  -2  10  -1   57.94    3.53
   3 -10   1   22.10    3.09
   3 -10   1   20.03    2.61
  -3  10  -1   23.67    2.85
  -4 -10  -1    9.49    2.77
   4 -10   1    6.59    2.74
  -4  10  -1    8.08    2.83
   4 -11  -1   11.36    3.00
  -4 -11   1   10.86    3.29
  -4  11   1    9.90    3.24
   3 -11  -1   27.92    2.88
   3 -11  -1   21.38    3.16
  -3  11   1   25.28    3.13
   2 -11  -1  124.01    4.83
   2 -11  -1  123.29    5.15
  -2  11   1  127.82    5.11
   1 -11  -1    9.56    1.80
  -1 -11   1    9.93    1.79
   1  11  -1   13.11    2.07
  -1  11   1    9.99    1.82
   0 -11   1  271.73    7.98
   0 -11  -1  268.77    7.56
   0  11   1  265.16    7.52
   0  11  -1  263.53    7.81
  -1 -11  -1   45.07    2.50
   1 -11   1   50.06    3.01
  -1  11  -1   42.73    3.04
   2 -11   1    0.47    1.78
  -2 -11  -1    0.43    1.38
   2 -11   1   -2.16    1.91
  -2  11  -1   -0.13    1.75
   3 -11   1  156.70    6.35
   3 -11   1  164.76    6.28
  -3  11  -1  152.78    6.30
   3 -12  -1    3.27    2.36
   3 -12  -1    4.75    2.17
  -3  12   1    6.13    2.36
   2 -12  -1   18.30    2.75
   2 -12  -1   18.63    2.33
  -2  12   1   16.53    2.51
  -1 -12   1   85.74    4.00
   1 -12  -1   74.53    3.54
   1  12  -1   86.04    4.04
  -1  12   1   82.35    3.84
   0 -12  -1    0.53    1.41
   0 -12   1    1.88    1.53
   0  12  -1   -2.90    1.55
   0  12   1    1.46    1.50
   1 -12   1   13.96    2.10
  -1 -12  -1   18.41    1.86
  -1  12  -1   17.73    2.37
  -2 -12  -1   91.60    3.79
   2 -12   1   86.67    4.87
   2 -12   1   84.83    4.26
  -2  12  -1   90.69    4.76
   3 -12   1   16.51    2.73
   3 -12   1   10.15    2.79
  -3  12  -1   10.59    2.70
   3 -13  -1    2.46    2.52
   3 -13  -1    3.58    2.84
  -3  13   1   -2.80    2.47
  -2 -13   1    0.56    1.87
   2 -13  -1   -1.18    2.02
   2 -13  -1    0.23    1.83
  -2  13   1   -1.92    2.06
   1 -13  -1   19.65    2.18
  -1 -13   1   16.59    2.24
  -1  13   1   22.95    2.40
   0 -13   1    3.45    1.91
   0 -13  -1    3.60    1.64
   0  13  -1    1.68    1.84
  -1 -13  -1    6.47    1.79
   1 -13   1    9.09    2.27
  -1  13  -1    5.50    2.12
   2 -13   1    8.12    2.60
   2 -13   1    6.27    2.21
  -2 -13  -1    7.84    1.77
  -2  13  -1   13.13    2.75
   3 -13   1    2.53    2.39
   3 -13   1    1.43    2.62
  -3 -13  -1    1.14    1.82
  -3  13  -1    0.89    2.40
   2 -14  -1   11.20    2.95
   2 -14  -1   17.47    2.79
  -2 -14   1   13.58    2.46
   1 -14  -1   15.78    2.15
  -1 -14   1   19.82    2.58
   0 -14   1    8.27    2.15
   0 -14  -1   10.23    1.94
   1 -14   1    8.09    2.14
  -1 -14  -1    8.36    1.78
  -1  14  -1    8.35    2.36
  -2 -14  -1   13.89    2.16
   2 -14   1   14.08    2.81
   2 -14   1   10.68    2.79
  -2  14  -1   11.68    2.86
  -2 -15   1   27.59    2.97
   2 -15  -1   25.70    3.13
   2 -15  -1   26.94    3.52
  -1 -15   1   14.68    2.52
   1 -15  -1   14.11    2.43
   0 -15  -1  103.68    4.40
   0 -15   1   94.59    4.50
   1 -15   1    1.41    2.34
  -1 -15  -1    1.63    1.57
   2 -15   1    6.73    2.84
  -2 -15  -1   11.97    2.18
   2 -15   1    7.70    2.77
  -2  15  -1   14.47    3.04
   1 -16  -1  104.88    4.88
  -1 -16   1  106.75    4.97
   0 -16  -1   -1.00    1.88
   0 -16   1    0.18    2.22
   1 -16   1    7.65    2.34
  -5   0   2   43.06    3.60
   5   0  -2   44.96    3.49
  -5   0   2   38.59    3.59
  -4   0   2   11.57    2.18
   4   0  -2   13.14    2.28
  -4   0   2    9.67    2.17
   3   0  -2    6.45    1.45
   3   0  -2    4.71    1.35
  -3   0   2    6.57    1.60
  -3   0   2    7.35    1.75
   2   0  -2  335.43    8.70
  -2   0   2  327.89    8.62
  -2   0   2  346.12    8.77
   2   0  -2  332.14    8.61
  -2   0   2  340.65    9.25
   1   0  -2   12.45    0.98
  -1   0   2   11.71    0.93
   1   0  -2   15.55    1.23
  -1   0   2   16.61    1.34
  -1   0   2   12.83    1.04
   0   0   2   60.94    1.95
   0   0  -2   64.40    1.94
   0   0   2   63.72    1.77
   0   0  -2   63.38    1.81
  -1   0  -2  215.76    5.48
  -1   0  -2  217.67    5.51
   1   0   2  214.43    5.45
   1   0   2  223.01    5.44
  -1   0  -2  224.59    5.44
  -2   0  -2   -0.21    0.93
   2   0   2    0.31    0.69
  -2   0  -2    0.45    0.78
   2   0   2   -0.09    0.92
   3   0   2   82.45    3.19
   3   0   2   82.39    3.18
  -3   0  -2   74.01    3.30
  -3   0  -2   78.29    2.99
  -3   0  -2   76.39    3.37
  -4   0  -2   55.24    3.48
  -4   0  -2   51.66    3.49
   4   0   2   52.92    3.18
  -5   0  -2   16.02    2.88
  -5   0  -2    9.56    2.67
  -5  -1   2    0.19    2.26
  -5  -1   2    2.21    2.76
   5  -1  -2    5.89    2.68
  -5   1   2    2.77    2.72
   5   1  -2    5.03    2.56
  -4  -1   2   75.54    4.13
   4  -1  -2   72.63    3.72
  -4  -1   2   71.16    4.13
  -4   1   2   72.83    4.25
  -4   1   2   74.23    3.92
   4   1  -2   74.40    3.91
  -3  -1   2   42.21    2.68
  -3  -1   2   40.57    2.85
   3  -1  -2   39.25    2.54
   3  -1  -2   45.96    2.47
  -3   1   2   42.45    2.78
   3   1  -2   44.51    2.52
  -3   1   2   43.79    2.71
   3   1  -2   42.72    2.47
   2  -1  -2   22.19    1.58
  -2  -1   2   23.17    1.75
  -2  -1   2   21.02    1.65
  -2  -1   2   23.72    1.55
   2  -1  -2   21.49    1.55
   2   1  -2   21.26    1.65
  -2   1   2   23.33    1.85
   2   1  -2   21.95    1.61
  -2   1   2   23.11    1.58
  -1  -1   2  413.25   10.22
   1  -1  -2  421.07   10.08
  -1  -1   2  416.47   10.77
  -1  -1   2  428.96   10.14
   1  -1  -2  419.96   10.14
   1   1  -2  405.90   10.15
   1   1  -2  411.45   10.73
  -1   1   2  414.93   10.07
   1   1  -2  422.75   10.12
  -1   1   2  407.31   10.15
   0  -1  -2    7.58    0.43
   0  -1   2    8.28    0.97
   0   1   2    6.64    0.50
   0   1  -2    6.94    0.74
   0   1   2    6.91    0.56
   0   1   2    6.81    0.48
   0   1  -2    7.53    0.84
   1  -1   2   27.01    1.38
  -1  -1  -2   27.22    1.14
  -1  -1  -2   25.67    1.02
  -1  -1  -2   27.56    1.19
  -1   1  -2   27.18    1.26
   1   1   2   26.90    1.10
  -1   1  -2   27.93    1.46
   1   1   2   25.97    1.14
   2  -1   2  437.33   10.91
  -2  -1  -2  439.95   10.87
   2  -1   2  437.11   10.88
  -2  -1  -2  448.91   11.44
  -2  -1  -2  447.05   10.73
   2   1   2  430.15   10.73
   2   1   2  435.46   10.76
  -2   1  -2  423.33   10.94
  -2   1  -2  429.08   10.83
   3  -1   2   38.65    2.47
   3  -1   2   44.07    2.46
  -3  -1  -2   38.07    2.61
  -3  -1  -2   38.52    2.54
  -3  -1  -2   39.08    2.18
  -3   1  -2   42.85    2.49
   3   1   2   40.83    2.27
   3   1   2   38.81    2.41
  -3   1  -2   35.90    2.18
  -4  -1  -2   12.17    2.23
  -4  -1  -2   17.19    2.54
   4  -1   2   16.93    2.21
  -4   1  -2   21.45    2.51
  -4   1  -2   15.06    2.34
   4   1   2   15.95    2.23
  -5  -1  -2   35.09    3.57
  -5  -1  -2   38.40    3.51
  -5   1  -2   35.91    3.35
  -5   1  -2   35.21    3.74
  -5  -2   2   30.83    3.70
   5  -2  -2   33.84    3.31
  -5  -2   2   31.78    3.64
  -5   2   2   38.54    3.56
  -4  -2   2    9.34    2.28
  -4  -2   2    8.09    2.08
  -4   2   2   12.28    2.28
  -4   2   2   14.51    2.17
  -3  -2   2    8.77    1.59
  -3  -2   2   14.39    1.54
   3  -2  -2    9.31    1.63
  -3  -2   2   14.46    1.99
   3  -2  -2   12.49    1.60
  -3   2   2   10.43    1.71
   3   2  -2   10.23    1.51
  -3   2   2   10.37    1.50
   3   2  -2   10.30    1.54
  -3   2   2   10.68    1.76
  -2  -2   2   99.20    3.40
   2  -2  -2  101.71    3.33
   2  -2  -2  101.92    3.39
  -2  -2   2  103.44    3.30
  -2  -2   2  100.32    3.68
  -2   2   2   99.15    3.41
   2   2  -2   97.29    3.30
   2   2  -2   97.87    3.30
   1  -2  -2   59.63    2.10
  -1  -2   2   67.07    2.41
   1  -2  -2   58.29    2.06
  -1  -2   2   65.26    2.20
   1   2  -2   64.47    2.37
  -1   2   2   58.83    2.04
   1   2  -2   69.26    2.25
  -1   2   2   58.76    2.11
   0  -2  -2   42.05    1.21
   0  -2  -2   39.33    1.21
   0  -2  -2   41.82    1.15
   0   2  -2   39.46    1.98
   0   2   2   42.81    1.17
   0   2  -2   43.86    1.88
   0   2   2   40.53    1.16
  -1  -2  -2  123.46    3.23
  -1  -2  -2  121.21    3.08
   1  -2   2  119.43    3.43
  -1  -2  -2  117.17    3.00
  -1  -2  -2  116.18    3.05
  -1   2  -2  117.68    3.47
  -1   2  -2  117.23    3.40
   1   2   2  121.29    3.01
   1   2   2  116.35    3.00
   1   2   2  120.36    3.03
  -2  -2  -2  123.70    3.50
   2  -2   2  123.35    3.80
  -2  -2  -2  128.68    3.71
   2  -2   2  121.16    3.76
  -2  -2  -2  126.85    3.84
  -2  -2  -2  118.48    3.57
   2   2   2  123.18    3.53
  -2   2  -2  118.59    3.74
  -2   2  -2  119.76    3.85
   2   2   2  121.24    3.53
   3  -2   2    6.73    1.42
  -3  -2  -2    7.95    1.23
  -3  -2  -2    6.90    1.46
   3  -2   2    8.96    1.42
  -3  -2  -2    7.22    1.65
  -3   2  -2    9.38    1.34
  -3   2  -2    5.59    1.45
   3   2   2    6.72    1.38
   3   2   2    6.04    1.24
  -4  -2  -2   11.00    2.04
   4  -2   2   11.39    2.16
  -4  -2  -2    7.54    2.15
  -4   2  -2   10.97    2.20
  -5  -2  -2    4.24    2.70
  -5  -2  -2    7.58    2.60
  -5   2  -2    6.32    2.76
  -5   2  -2    4.97    2.37
   5  -3  -2   10.68    2.62
  -5  -3   2    6.07    3.24
  -5  -3   2    9.50    2.64
  -5   3   2    6.52    2.55
  -4  -3   2   80.01    4.43
   4  -3  -2   89.81    4.12
  -4  -3   2   83.01    4.34
   4  -3  -2   94.58    4.40
   4   3  -2   89.70    4.27
  -4   3   2   88.32    4.36
  -4   3   2   82.87    4.43
  -3  -3   2   22.98    1.85
   3  -3  -2   26.08    2.15
  -3  -3   2   20.68    2.31
  -3  -3   2   23.44    2.21
   3  -3  -2   21.27    1.96
  -3   3   2   22.84    2.22
   3   3  -2   25.94    1.98
   3   3  -2   26.92    2.19
   2  -3  -2   39.47    1.84
  -2  -3   2   39.35    1.93
  -2  -3   2   33.81    2.27
   2  -3  -2   34.28    2.04
  -2   3   2   37.63    1.81
  -2   3   2   35.78    2.09
   2   3  -2   35.76    2.20
   1  -3  -2  188.84    4.94
  -1  -3   2  192.78    5.47
   1  -3  -2  197.63    5.05
   1   3  -2  180.05    5.42
  -1   3   2  188.11    5.03
   1   3  -2  185.57    5.11
   0  -3  -2   41.73    1.35
   0  -3  -2   43.79    1.26
   0   3  -2   40.50    2.18
   0   3  -2   39.72    2.05
   0   3   2   39.90    1.30
   0   3   2   41.69    1.29
  -1  -3  -2  116.50    2.96
  -1  -3  -2  122.16    3.16
   1  -3   2  111.87    3.42
  -1  -3  -2  106.24    2.84
  -1  -3  -2  123.85    2.95
  -1   3  -2  107.98    3.38
   1   3   2  107.51    2.83
   1   3   2  112.85    2.91
  -1   3  -2  106.62    3.47
  -2  -3  -2  213.24    5.91
  -2  -3  -2  209.07    5.62
   2  -3   2  203.27    5.87
  -2  -3  -2  208.99    5.42
  -2  -3  -2  200.19    5.50
   2  -3   2  212.62    5.91
   2   3   2  208.61    5.49
  -2   3  -2  214.66    5.83
  -2   3  -2  209.86    5.93
   2   3   2  211.13    5.49
   3  -3   2   15.38    1.80
   3  -3   2   20.46    1.88
  -3  -3  -2   17.49    1.87
  -3  -3  -2   18.76    1.51
  -3  -3  -2   14.40    1.86
  -3   3  -2   17.52    1.81
  -3   3  -2   17.26    2.01
   3   3   2   18.24    1.58
   3   3   2   16.57    1.60
   4  -3   2   56.73    3.67
  -4  -3  -2   64.48    3.65
  -4  -3  -2   64.29    3.74
  -4   3  -2   57.99    3.78
  -5  -3  -2    6.52    2.75
  -5  -3  -2    1.04    2.33
  -5   3  -2    6.00    3.19
  -5   3  -2    6.69    2.80
  -5  -4   2   84.58    5.30
   5  -4  -2   89.48    4.84
  -5   4   2   84.37    5.01
   4  -4  -2    5.40    1.88
  -4  -4   2    4.96    2.32
   4  -4  -2    3.48    1.94
  -4   4   2    9.13    2.25
   4   4  -2    7.30    2.13
  -4   4   2    5.13    2.12
   3  -4  -2   82.64    3.62
   3  -4  -2   87.06    3.40
  -3  -4   2   81.50    3.91
  -3  -4   2   82.67    3.37
   3   4  -2   82.97    3.54
  -3   4   2   87.49    3.72
   2  -4  -2  263.38    7.37
  -2  -4   2  279.66    7.32
   2  -4  -2  266.63    7.29
  -2  -4   2  271.55    7.87
  -2   4   2  264.86    7.36
   2   4  -2  281.66    7.45
  -2   4   2  275.32    7.33
   1  -4  -2    0.66    0.70
  -1   4   2    0.14    0.73
   0  -4  -2  615.11   14.20
   0  -4  -2  607.60   14.33
   0   4  -2  589.19   15.67
   0   4  -2  608.69   14.81
   0   4   2  598.55   14.25
   1  -4   2  266.38    7.01
  -1  -4  -2  257.35    6.49
  -1  -4  -2  270.14    6.37
  -1   4  -2  265.62    6.98
  -1   4  -2  271.46    7.07
   1   4   2  258.42    6.41
  -2  -4  -2   99.63    3.14
   2  -4   2   93.46    3.53
  -2  -4  -2  100.57    2.92
  -2  -4  -2  103.19    3.35
  -2  -4  -2  100.22    3.06
   2  -4   2   99.86    3.49
   2   4   2  100.49    3.05
  -2   4  -2   97.20    3.41
   2   4   2   96.81    3.02
  -2   4  -2  102.15    3.58
   3  -4   2  163.72    5.36
  -3  -4  -2  165.93    4.89
  -3  -4  -2  162.28    5.31
  -3  -4  -2  158.63    5.05
   3  -4   2  158.57    5.35
   3   4   2  161.65    4.92
  -3   4  -2  161.50    5.24
   3   4   2  170.96    4.97
  -3   4  -2  160.64    5.44
  -4  -4  -2   12.20    2.32
  -4  -4  -2   15.54    2.39
   4  -4   2   14.93    2.47
  -4   4  -2   18.18    2.37
  -5  -4  -2   39.95    3.73
  -5  -4  -2   36.44    3.80
  -5   4  -2   35.62    3.84
  -5   4  -2   34.03    3.74
  -5  -5   2   -1.29    2.84
   5  -5  -2   -1.56    2.76
  -5   5   2   -1.22    2.38
   4  -5  -2   10.07    2.11
   4  -5  -2   12.52    2.33
  -4  -5   2   10.90    2.63
   4   5  -2   11.47    2.30
  -4   5   2   10.35    2.53
   3  -5  -2   40.28    2.40
   3  -5  -2   44.07    2.81
  -3  -5   2   36.42    2.98
   3   5  -2   42.09    2.93
  -3   5   2   42.55    2.83
   2  -5  -2    4.81    1.37
  -2  -5   2    5.16    1.25
   2  -5  -2    3.92    1.10
  -2  -5   2    3.61    1.51
   2   5  -2    3.04    1.17
  -2   5   2    3.81    1.19
   1  -5  -2  161.52    4.48
   1  -5  -2  160.30    4.40
  -1  -5   2  155.38    5.06
  -1   5   2  160.31    4.43
   1   5  -2  157.76    4.75
  -1   5   2  154.02    4.46
   0  -5  -2   19.69    1.07
   0  -5   2   17.51    1.62
   0  -5  -2   20.50    1.34
   0   5  -2   22.00    1.77
   0   5   2   18.78    1.17
   0   5  -2   18.52    1.54
  -1   5  -2    4.75    0.92
  -2  -5  -2  144.56    4.01
   2  -5   2  147.11    4.69
  -2  -5  -2  146.44    4.50
   2  -5   2  149.46    4.92
  -2  -5  -2  140.58    4.15
   2   5   2  149.94    4.18
  -2   5  -2  152.71    4.82
   3  -5   2    2.48    1.51
  -3  -5  -2    4.26    1.18
   3  -5   2    3.92    1.61
  -3  -5  -2    1.81    1.45
  -3  -5  -2    4.17    1.53
  -3   5  -2    3.69    1.85
   3   5   2    0.64    1.32
  -4  -5  -2    5.93    2.07
   4  -5   2    8.51    2.38
  -4  -5  -2    5.36    2.10
  -4   5  -2    7.28    2.20
  -4  -6   2    6.36    2.49
   4  -6  -2   10.26    2.19
   4  -6  -2    7.35    2.49
   4   6  -2    8.17    2.45
  -4   6   2   11.01    2.31
   3  -6  -2    1.03    1.42
   3  -6  -2    1.75    1.56
  -3  -6   2    3.86    1.66
  -3   6   2    2.21    1.76
   3   6  -2    2.79    1.70
   2  -6  -2  177.44    5.48
   2  -6  -2  178.37    5.39
  -2  -6   2  176.51    5.97
  -2  -6   2  181.46    5.43
  -2   6   2  191.90    5.63
   2   6  -2  185.56    5.60
   1  -6  -2   91.05    3.15
  -1  -6   2   92.62    3.83
   1  -6  -2   91.09    3.00
  -1   6   2   88.74    3.03
   1   6  -2   86.21    3.50
   0  -6  -2   -0.24    0.84
   0  -6  -2   -0.54    0.59
   0  -6   2   -0.58    1.10
   0   6   2    1.24    0.72
   0   6  -2    1.04    1.10
   1  -6   2  101.70    3.58
  -1  -6  -2   99.58    2.97
  -1  -6  -2  104.88    3.25
   1   6   2  100.79    2.87
  -1   6  -2  102.69    3.66
   2  -6   2   31.25    2.29
   2  -6   2   35.86    2.58
  -2  -6  -2   40.26    2.29
  -2  -6  -2   35.43    1.85
  -2  -6  -2   36.96    1.64
   2   6   2   36.69    1.94
  -2   6  -2   37.84    2.57
  -3  -6  -2    3.74    1.08
   3  -6   2    2.99    1.73
  -3  -6  -2    5.00    1.67
   3  -6   2    3.85    1.64
  -3   6  -2    6.43    1.87
   4  -6   2    9.40    2.60
  -4  -6  -2   12.82    2.45
  -4   6  -2   13.10    2.49
   4  -7  -2   -0.69    2.01
   4  -7  -2    3.36    2.03
  -4  -7   2    0.83    2.45
  -4   7   2    3.10    2.12
   3  -7  -2    0.83    1.53
  -3  -7   2    1.36    2.20
   3  -7  -2    1.84    1.69
  -3   7   2    2.85    1.87
   3   7  -2   -2.54    1.67
  -2  -7   2    0.73    1.13
   2  -7  -2    0.15    1.22
  -2  -7   2   -3.00    1.55
   2  -7  -2    1.48    1.32
  -2   7   2    0.33    1.40
   2   7  -2    0.71    1.52
   1  -7  -2   24.04    1.74
   1  -7  -2   22.80    1.62
   1   7  -2   23.47    1.98
  -1   7   2   20.37    1.52
   0  -7   2   29.38    2.17
   0  -7  -2   28.34    1.49
   0  -7  -2   31.12    1.86
   0   7  -2   31.77    2.19
   0   7   2   27.61    1.60
  -1  -7  -2    1.67    0.79
   1  -7   2    2.03    1.20
  -1  -7  -2    0.97    1.14
  -1   7  -2    3.04    1.14
   1   7   2    1.36    0.77
  -1   7  -2    2.11    1.26
  -2  -7  -2    4.19    0.88
   2  -7   2    5.08    1.62
   2  -7   2    3.06    1.45
   2   7   2    3.82    1.04
  -2   7  -2    4.69    1.54
  -2   7  -2    3.74    1.32
  -3  -7  -2   41.01    2.19
  -3  -7  -2   37.19    2.71
   3  -7   2   40.76    2.99
   3  -7   2   38.58    2.95
  -3   7  -2   41.64    3.04
   4  -7   2    7.14    2.67
  -4  -7  -2    9.34    2.43
  -4   7  -2   12.93    2.94
  -4  -8   2   35.20    3.80
   4  -8  -2   35.62    3.14
   4  -8  -2   28.91    3.11
  -4   8   2   32.01    3.43
   3  -8  -2  110.35    4.53
  -3  -8   2  102.98    4.90
   3  -8  -2  110.90    4.41
  -3   8   2  102.46    4.53
   3   8  -2  107.98    4.70
   2  -8  -2   84.27    3.70
  -2  -8   2   82.23    3.51
   2  -8  -2   84.80    3.40
  -2  -8   2   78.73    4.01
  -2   8   2   85.20    3.66
   2   8  -2   83.29    3.90
   1  -8  -2    7.50    1.42
   1  -8  -2    6.13    1.10
  -1   8   2    7.14    1.25
   1   8  -2    7.90    1.69
   0  -8   2  448.41   11.69
   0  -8  -2  453.68   11.01
   0   8  -2  441.18   11.55
   0   8   2  427.39   10.95
  -1  -8  -2   30.31    2.28
   1  -8   2   30.17    2.06
  -1  -8  -2   28.77    1.62
  -1   8  -2   27.94    2.18
   1   8   2   25.48    1.60
   2  -8   2   15.88    1.98
  -2  -8  -2   15.28    1.24
   2  -8   2   11.66    2.06
   2   8   2   14.99    1.36
  -2   8  -2   13.70    1.98
   3  -8   2  112.34    4.77
  -3  -8  -2  114.82    4.38
   3  -8   2  114.91    4.88
  -3   8  -2  106.49    5.05
   4  -8   2    5.99    2.82
  -4  -8  -2    4.22    2.37
  -4   8  -2    4.95    2.79
   4  -9  -2   82.92    4.65
   4  -9  -2   89.20    4.64
  -4  -9   2   80.06    5.30
  -4   9   2   83.80    5.17
   3  -9  -2   81.85    4.13
   3  -9  -2   82.33    3.97
  -3  -9   2   84.12    4.62
   3   9  -2   86.18    4.69
  -3   9   2   97.52    4.37
   2  -9  -2   68.17    3.52
   2  -9  -2   66.49    3.15
  -2  -9   2   69.69    3.91
   2   9  -2   71.14    3.75
  -2   9   2   68.55    3.50
   1  -9  -2  290.42    7.95
   1  -9  -2  262.49    7.60
  -1   9   2  292.14    7.78
   1   9  -2  285.19    8.16
   0  -9  -2   78.36    2.87
   0  -9   2   83.16    3.56
   0   9   2   81.77    2.99
   0   9  -2   83.63    3.53
   1  -9   2  346.64    9.64
  -1  -9  -2  354.93    8.92
   1   9   2  343.34    8.75
  -1   9  -2  342.72    9.63
   2  -9   2   72.11    3.87
   2  -9   2   80.16    3.75
  -2  -9  -2   76.66    2.83
  -2   9  -2   78.35    3.87
   3  -9   2    1.14    1.93
   3  -9   2   -2.17    2.30
  -3   9  -2   -0.50    1.88
  -4  -9  -2   88.00    4.33
   4  -9   2   79.45    4.84
  -4   9  -2   86.25    5.38
  -4 -10   2    2.20    2.80
   4 -10  -2    8.31    2.70
   4 -10  -2    7.94    2.46
  -4  10   2    1.44    2.35
   3 -10  -2    6.26    1.99
   3 -10  -2   10.18    2.30
  -3 -10   2    5.45    2.59
  -3  10   2    4.09    2.01
   2 -10  -2   19.15    2.20
   2 -10  -2   21.41    2.23
   2  10  -2   22.23    2.66
  -2  10   2   22.80    2.32
  -1 -10   2    1.87    1.49
   1 -10  -2    3.15    1.31
  -1  10   2    2.19    1.30
   1  10  -2    2.60    1.48
   0 -10   2   13.99    2.07
   0 -10  -2   12.56    1.41
   0  10  -2   12.68    2.00
   0  10   2   10.98    1.35
   1 -10   2   35.65    2.73
  -1 -10  -2   37.26    2.07
  -1  10  -2   36.35    2.82
  -2 -10  -2   -0.51    0.98
  -2 -10  -2   -0.55    1.16
   2 -10   2   -3.22    1.85
   2 -10   2    0.25    1.73
  -2  10  -2    0.11    1.78
   3 -10   2    9.51    2.86
   3 -10   2   12.08    2.46
  -3  10  -2   13.27    2.79
   4 -10   2    5.05    3.12
  -4  10  -2    5.19    2.68
   3 -11  -2    0.65    1.87
   3 -11  -2    2.34    2.46
  -3  11   2    3.01    2.38
   2 -11  -2   11.08    1.84
   2 -11  -2    6.55    2.15
   2  11  -2    9.63    2.42
  -2  11   2    6.21    1.98
   1 -11  -2    4.08    1.51
  -1 -11   2    2.26    1.61
  -1  11   2    6.09    1.55
   1  11  -2    4.75    1.88
   0 -11  -2   11.78    1.50
   0 -11   2   10.53    1.92
   0  11   2   10.15    1.45
   0  11  -2   10.89    2.07
  -1 -11  -2   14.26    1.55
   1 -11   2   12.31    2.04
  -1  11  -2   14.82    2.12
   2 -11   2    2.07    1.89
   2 -11   2    6.10    2.53
  -2 -11  -2    1.26    1.41
  -2  11  -2    0.30    1.82
   3 -11   2   -0.54    2.30
   3 -11   2    1.47    2.24
  -3  11  -2   -0.74    2.46
   3 -12  -2   13.74    2.70
   3 -12  -2    8.88    2.52
  -3  12   2    9.71    2.71
   2 -12  -2    0.58    1.85
   2 -12  -2    1.65    2.14
  -2  12   2   -3.50    1.78
   1 -12  -2   15.65    1.97
  -1 -12   2   13.43    2.36
   1  12  -2   12.99    2.47
  -1  12   2   15.11    2.05
   0 -12   2   28.60    2.80
   0 -12  -2   32.61    2.39
   0  12  -2   30.34    2.57
  -1 -12  -2    2.65    1.21
   1 -12   2    3.12    1.83
  -1  12  -2    4.58    2.12
   2 -12   2    3.73    2.65
   2 -12   2    3.28    2.07
  -2 -12  -2    6.16    1.50
  -2  12  -2    6.89    2.28
   3 -12   2    6.67    2.75
   3 -12   2    9.15    2.58
  -3 -12  -2    9.79    1.97
  -3  12  -2    7.44    2.55
   3 -13  -2   48.97    3.70
   3 -13  -2   45.62    4.07
  -2 -13   2   22.84    2.83
   2 -13  -2   22.76    2.96
   2 -13  -2   19.13    2.59
   1 -13  -2  139.60    4.96
  -1 -13   2  127.73    5.21
   1  13  -2  130.65    5.37
   0 -13   2   24.72    2.63
   0 -13  -2   26.63    2.16
   0  13  -2   26.75    2.74
   1 -13   2  126.29    5.19
  -1 -13  -2  125.68    4.34
  -1  13  -2  124.60    5.26
  -2 -13  -2    9.42    1.77
   2 -13   2    9.79    2.73
   2 -13   2   12.51    2.51
  -2  13  -2   11.85    2.52
  -3 -13  -2   13.73    2.06
   3 -13   2   14.91    3.25
  -3  13  -2    9.51    2.85
   2 -14  -2   18.67    2.50
   2 -14  -2   21.54    3.13
  -2 -14   2   23.43    2.69
   1 -14  -2    6.51    2.56
  -1 -14   2    6.92    2.31
   1 -14  -2    7.21    1.72
   0 -14   2  196.15    7.05
   0 -14  -2  208.40    6.36
   0  14  -2  201.89    7.08
  -1 -14  -2   18.66    1.99
   1 -14   2   22.81    2.69
  -1  14  -2   13.87    2.78
   2 -14   2   10.87    2.53
  -2 -14  -2    9.54    1.86
   2 -14   2   10.69    2.93
  -2  14  -2   13.89    2.74
   2 -15  -2    0.11    2.58
  -2 -15   2   -2.06    1.94
   2 -15  -2    3.56    2.29
   1 -15  -2    2.68    1.65
   1 -15  -2   -2.59    2.22
  -1 -15   2    0.87    2.25
   0 -15   2   11.29    2.36
   0 -15  -2   13.26    2.13
   1 -15   2    0.17    2.32
  -1 -15  -2    2.00    1.54
  -1  15  -2    1.55    2.34
   2 -15   2    2.11    2.77
   2 -15   2   -1.25    2.21
  -2  15  -2   -1.47    2.55
   1 -16  -2    5.51    2.85
  -1 -16   2    5.82    2.22
   0 -16   2   12.18    2.75
   0 -16  -2   10.78    2.17
   1 -16   2   13.95    2.71
   5   0  -3    3.72    2.56
  -5   0   3    1.80    2.32
   4   0  -3    3.71    1.79
  -4   0   3    5.50    2.04
  -4   0   3    9.04    2.11
   3   0  -3    0.60    1.33
  -3   0   3    1.48    1.48
  -3   0   3    1.28    1.46
  -3   0   3    0.27    1.15
   3   0  -3   -1.39    1.22
  -2   0   3    0.85    1.03
   2   0  -3   -0.16    0.95
   2   0  -3   -0.07    0.91
  -2   0   3    1.36    1.11
   1   0  -3    0.11    0.70
  -1   0   3    1.37    0.95
   1   0  -3    0.25    0.71
  -1   0   3   -0.84    0.77
  -1   0   3   -0.06    0.63
   1   0  -3    1.26    0.90
   0   0   3   -0.05    0.55
   0   0  -3    1.07    0.65
   0   0  -3   -0.08    0.70
   0   0   3    0.69    0.75
   1   0   3   -1.10    0.58
  -1   0  -3   -0.23    0.68
  -1   0  -3    0.19    0.63
   1   0   3    0.26    0.60
   2   0   3   -0.39    0.75
  -2   0  -3    0.04    0.74
  -2   0  -3    2.10    0.98
   2   0   3   -0.12    0.86
   3   0   3    1.48    1.00
  -3   0  -3   -0.57    1.05
  -3   0  -3    0.03    1.33
   3   0   3    0.18    1.19
  -4   0  -3   11.83    2.15
  -4   0  -3   11.60    2.08
  -5   0  -3    8.89    2.81
  -5   0  -3    7.50    2.84
   5  -1  -3   35.38    3.36
  -5  -1   3   35.93    3.51
   5   1  -3   35.01    3.55
  -5   1   3   31.94    3.37
  -4  -1   3    5.18    2.33
   4  -1  -3    1.33    2.05
   4  -1  -3    4.41    1.80
  -4  -1   3   -0.59    1.79
   4   1  -3    1.86    1.71
  -4   1   3    1.75    2.02
  -4   1   3    1.63    1.92
  -3  -1   3  106.83    4.34
   3  -1  -3  117.38    4.19
   3  -1  -3  111.97    4.07
  -3  -1   3  119.26    4.26
  -3   1   3  107.61    4.21
   3   1  -3  113.99    4.07
   3   1  -3  108.93    4.07
  -3   1   3  108.76    4.40
  -2  -1   3    2.83    1.11
   2  -1  -3    3.52    1.07
   2  -1  -3    3.39    1.03
  -2  -1   3    4.13    1.16
  -2   1   3    2.65    1.07
   2   1  -3    2.24    1.00
  -2   1   3    4.51    1.20
   2   1  -3    2.32    1.05
   1  -1  -3    0.81    0.67
  -1  -1   3    0.88    0.86
   1  -1  -3    1.25    0.71
  -1  -1   3    0.93    0.73
   1   1  -3   -0.21    0.81
  -1   1   3    1.20    0.79
   1   1  -3    1.27    0.77
  -1   1   3    2.09    0.86
   0  -1  -3  176.88    4.51
   0  -1  -3  171.07    4.27
   0  -1   3  172.62    4.96
   0   1   3  171.42    4.53
   0   1  -3  175.65    4.62
   0   1  -3  175.59    4.87
   0   1   3  172.82    4.24
  -1  -1  -3    7.44    0.69
  -1  -1  -3    7.40    0.60
   1  -1   3    6.36    0.82
   1  -1   3    6.96    0.79
  -1   1  -3    6.56    0.91
   1   1   3    6.30    0.57
   1   1   3    7.55    0.57
  -1   1  -3    8.64    0.90
  -2  -1  -3   10.60    1.04
  -2  -1  -3   11.28    1.16
   2  -1   3   10.93    1.18
   2  -1   3   12.06    1.11
  -2  -1  -3   11.47    0.99
  -2   1  -3    9.98    1.21
   2   1   3   12.65    1.04
  -2   1  -3   12.59    1.14
   2   1   3    9.03    0.97
  -3  -1  -3   35.06    2.12
  -3  -1  -3   38.65    2.61
   3  -1   3   37.02    2.42
  -3  -1  -3   35.15    2.49
   3  -1   3   41.73    2.26
  -3   1  -3   39.62    2.68
   3   1   3   36.48    2.45
  -3   1  -3   41.19    2.21
   3   1   3   34.74    2.16
  -4  -1  -3    4.33    2.05
   4  -1   3    2.73    1.99
  -4  -1  -3    1.36    2.01
  -4   1  -3    0.78    1.88
  -4   1  -3    4.46    2.01
  -5  -1  -3    2.18    2.37
  -5  -1  -3   -1.94    2.40
  -5   1  -3    2.29    2.51
  -5   1  -3    0.99    2.38
  -5  -2   3   13.21    3.26
  -5  -2   3   15.05    2.95
   5  -2  -3   11.46    2.66
  -5   2   3   11.72    2.82
   5   2  -3   12.80    2.95
   4  -2  -3  101.98    4.39
   4  -2  -3   94.93    4.36
  -4  -2   3   96.72    4.75
  -4  -2   3   91.69    4.64
  -4   2   3   95.68    4.90
  -4   2   3   98.00    4.56
   4   2  -3  104.68    4.37
   3  -2  -3   98.51    3.83
  -3  -2   3   84.66    3.94
   3  -2  -3   93.01    3.54
  -3  -2   3   91.45    3.89
   3   2  -3  102.17    3.76
  -3   2   3   98.74    3.90
  -3   2   3   90.68    4.03
   3   2  -3   95.51    3.87
  -2  -2   3    4.71    1.20
  -2  -2   3    4.06    0.98
  -2  -2   3    2.17    1.36
   2  -2  -3    3.28    1.02
   2  -2  -3    4.56    1.13
   2   2  -3    4.39    1.11
   2   2  -3    3.61    1.15
  -2   2   3    5.97    1.23
  -2   2   3    4.24    1.12
  -2   2   3    4.49    0.98
   1  -2  -3  677.53   16.23
   1  -2  -3  686.83   16.13
  -1  -2   3  683.54   17.30
  -1  -2   3  683.38   16.28
   1   2  -3  650.86   17.26
   1   2  -3  668.95   16.35
  -1   2   3  682.51   16.25
   0  -2   3  155.59    4.83
   0  -2  -3  155.50    3.85
   0  -2  -3  154.99    3.87
   0   2  -3  155.77    4.73
   0   2   3  158.78    4.09
   0   2   3  159.86    3.81
   0   2   3  159.06    3.83
   0   2  -3  155.59    4.49
  -1  -2  -3   66.43    1.82
  -1  -2  -3   66.29    1.89
   1  -2   3   75.68    2.42
  -1  -2  -3   73.74    1.93
  -1   2  -3   65.97    2.45
   1   2   3   66.85    1.84
  -1   2  -3   64.92    2.37
  -2  -2  -3  289.97    7.17
  -2  -2  -3  275.51    7.24
   2  -2   3  289.99    7.57
   2  -2   3  289.38    7.58
  -2  -2  -3  281.93    7.65
  -2  -2  -3  288.34    7.31
   2   2   3  292.24    7.20
  -2   2  -3  279.66    7.49
   2   2   3  282.81    7.16
  -2   2  -3  281.34    7.63
   3  -2   3   49.00    2.60
  -3  -2  -3   54.78    2.85
   3  -2   3   52.86    2.80
  -3  -2  -3   50.15    2.83
  -3  -2  -3   53.77    2.37
  -3   2  -3   47.14    2.64
   3   2   3   47.66    2.38
   3   2   3   54.94    2.61
  -3   2  -3   52.13    2.96
   4  -2   3   95.03    4.32
  -4  -2  -3  106.31    4.48
  -4  -2  -3  101.62    4.32
  -4   2  -3  101.34    4.59
  -5  -2  -3   39.00    3.63
  -5  -2  -3   40.89    3.57
  -5   2  -3   39.66    3.47
  -5   2  -3   38.00    3.72
   5  -3  -3   25.98    3.21
  -5  -3   3   26.76    3.57
  -5   3   3   27.42    3.64
   4  -3  -3   82.44    4.14
  -4  -3   3   84.20    4.67
   4  -3  -3   83.46    4.06
  -4  -3   3   81.79    4.50
  -4   3   3   86.38    4.33
   4   3  -3   86.65    4.38
  -3  -3   3   38.28    2.75
  -3  -3   3   42.80    3.08
   3  -3  -3   37.42    2.65
   3  -3  -3   43.05    2.57
   3   3  -3   41.07    2.67
  -3   3   3   42.75    2.82
  -3   3   3   38.80    2.82
  -2  -3   3  203.08    5.63
   2  -3  -3  203.29    5.57
   2  -3  -3  195.98    5.60
  -2  -3   3  182.27    5.95
   2   3  -3  195.30    5.64
  -2   3   3  197.48    5.54
  -2   3   3  191.76    5.70
  -1  -3   3  139.28    4.33
   1  -3  -3  133.83    3.79
   1  -3  -3  130.84    3.74
  -1   3   3  132.92    3.84
   1   3  -3  141.02    4.34
   1   3  -3  136.88    4.04
   0  -3  -3  471.46   11.03
   0  -3  -3  473.61   11.02
   0  -3  -3  469.51   10.91
   0   3  -3  467.60   11.65
   0   3  -3  452.08   12.28
   0   3   3  469.32   10.94
   0   3   3  459.04   10.94
  -1  -3  -3  167.16    4.14
   1  -3   3  173.30    4.85
  -1  -3  -3  176.50    4.18
   1   3   3  166.08    4.10
  -1   3  -3  170.12    4.80
  -1   3  -3  168.10    4.85
   2  -3   3   49.43    2.48
  -2  -3  -3   48.21    1.74
  -2  -3  -3   46.90    2.04
  -2  -3  -3   49.08    2.06
  -2  -3  -3   46.81    1.89
   2  -3   3   44.61    2.32
  -2   3  -3   49.76    2.24
   2   3   3   47.36    1.85
  -2   3  -3   48.48    2.55
   2   3   3   47.38    1.80
   3  -3   3  332.96    9.38
  -3  -3  -3  353.25    8.89
   3  -3   3  345.20    9.40
  -3  -3  -3  343.34    9.13
  -3  -3  -3  350.22    9.54
  -3   3  -3  332.03    9.49
   3   3   3  341.49    8.87
  -3   3  -3  333.16    9.26
  -4  -3  -3   10.00    2.33
   4  -3   3    7.76    2.35
  -4  -3  -3    5.47    2.09
  -4   3  -3   10.05    2.31
  -5  -3  -3    2.44    2.73
  -5  -3  -3   -1.89    2.45
  -5   3  -3    3.44    2.97
  -5   3  -3    3.15    2.67
   5  -4  -3    9.53    2.66
  -5  -4   3    7.95    3.16
  -5   4   3    4.46    2.57
   4  -4  -3   57.99    3.59
   4  -4  -3   54.54    3.49
  -4  -4   3   52.54    4.03
   4   4  -3   60.70    3.86
  -4   4   3   57.95    3.82
   3  -4  -3   35.52    2.49
  -3  -4   3   37.90    2.82
   3  -4  -3   38.09    2.74
   3   4  -3   36.64    2.63
  -3   4   3   37.17    2.58
  -2  -4   3    5.58    1.15
  -2  -4   3    4.80    1.37
   2  -4  -3    3.12    1.06
   2  -4  -3    4.61    1.32
  -2   4   3    4.53    1.16
   2   4  -3    3.93    1.38
   1  -4  -3  102.92    3.15
   1  -4  -3  104.26    3.11
  -1  -4   3  102.06    3.68
   1   4  -3   99.07    3.55
  -1   4   3  104.07    3.14
   1   4  -3  100.13    3.67
  -1   4   3  103.90    3.06
   0  -4  -3   88.55    2.45
   0  -4  -3   89.77    2.45
   0  -4  -3   92.90    2.36
   0   4  -3   88.57    3.44
   0   4   3   87.19    2.33
   0   4   3   87.85    2.41
   0   4  -3   86.56    3.24
   1  -4   3    2.43    1.03
  -1   4  -3    1.22    0.93
  -2  -4  -3   14.69    1.08
  -2  -4  -3   12.71    1.20
  -2  -4  -3   14.69    1.23
   2  -4   3   13.55    1.51
   2  -4   3   11.60    1.49
  -2  -4  -3   12.73    0.98
   2   4   3   11.28    0.92
   2   4   3   12.85    1.00
  -2   4  -3   13.74    1.50
  -2   4  -3   13.88    1.56
   3  -4   3   32.45    2.45
  -3  -4  -3   31.61    1.91
   3  -4   3   32.03    2.52
  -3  -4  -3   32.43    2.16
  -3  -4  -3   29.85    2.26
  -3   4  -3   30.14    2.40
  -4  -4  -3    5.06    2.06
   4  -4   3    4.65    2.14
  -4  -4  -3    4.62    2.03
  -4   4  -3    7.01    2.15
  -4  -5   3   16.38    2.92
   4  -5  -3   13.29    2.39
   4  -5  -3   16.95    2.58
  -4   5   3   14.99    2.72
   4   5  -3   18.16    2.72
  -3  -5   3   11.86    2.02
   3  -5  -3    7.21    1.62
   3  -5  -3    7.80    1.78
  -3   5   3   10.88    1.81
   3   5  -3    9.11    1.78
   2  -5  -3   73.93    2.99
  -2  -5   3   69.16    3.01
  -2  -5   3   72.50    3.45
   2  -5  -3   78.36    2.92
   2   5  -3   75.16    3.28
  -2   5   3   76.11    3.11
  -1  -5   3   27.27    2.12
   1  -5  -3   13.56    1.16
  -1   5   3   16.47    1.28
   0  -5  -3    5.84    0.69
   0  -5  -3    5.41    0.60
   0   5   3    5.92    0.68
   0   5  -3    5.02    1.34
   0   5   3    6.34    0.60
   0   5  -3    5.69    1.30
   1  -5   3  174.48    5.07
  -1  -5  -3  160.57    4.31
  -1  -5  -3  166.72    4.07
  -1  -5  -3  171.69    4.12
  -1   5  -3  173.12    5.15
  -1   5  -3  169.27    5.06
  -2  -5  -3    8.22    0.84
   2  -5   3   10.58    1.62
   2  -5   3    9.56    1.49
  -2  -5  -3    9.11    0.99
  -2  -5  -3    8.34    1.16
  -2  -5  -3    7.34    1.08
   2   5   3    8.59    0.89
  -2   5  -3   10.34    1.56
  -2   5  -3   10.86    1.41
  -3  -5  -3   14.56    1.34
  -3  -5  -3   14.54    1.80
   3  -5   3    9.76    1.83
  -3  -5  -3   15.03    1.79
   3  -5   3    8.92    1.85
  -3   5  -3   10.23    1.91
  -4  -5  -3   25.95    2.70
  -4  -5  -3   33.80    2.82
   4  -5   3   29.73    2.80
  -4   5  -3   29.87    2.93
   4  -6  -3   41.81    3.23
  -4  -6   3   51.77    4.13
   4  -6  -3   49.89    3.52
   4   6  -3   50.90    3.63
  -4   6   3   46.68    3.72
  -3  -6   3   24.45    2.70
   3  -6  -3   26.79    2.25
   3  -6  -3   24.92    2.31
   3   6  -3   23.94    2.46
  -3   6   3   25.39    2.47
   2  -6  -3   49.44    2.49
  -2  -6   3   46.61    2.86
   2  -6  -3   50.26    2.53
  -2  -6   3   46.44    2.57
   2   6  -3   46.37    2.73
  -2   6   3   47.78    2.68
   1  -6  -3  141.79    4.17
  -1  -6   3  156.00    5.05
   1  -6  -3  129.84    3.99
  -1   6   3  133.73    4.08
   1   6  -3  143.43    4.68
   0  -6  -3   14.44    1.00
   0  -6  -3   16.76    1.10
   0  -6   3   15.72    1.74
   0   6   3   14.90    1.08
   0   6  -3   16.47    1.80
   0   6  -3   15.38    1.64
   1  -6   3  140.14    4.56
  -1  -6  -3  132.66    3.50
  -1  -6  -3  133.31    3.45
  -1  -6  -3  135.61    3.80
  -1   6  -3  145.34    4.60
   2  -6   3   37.00    2.47
  -2  -6  -3   37.38    1.87
  -2  -6  -3   36.97    1.52
   2  -6   3   37.04    2.69
  -2  -6  -3   38.98    1.84
  -2   6  -3   37.36    2.65
   2   6   3   37.99    1.63
  -3  -6  -3   -0.21    0.93
   3  -6   3    0.53    1.70
  -3  -6  -3    1.56    1.43
   3  -6   3   -1.49    1.56
  -3   6  -3   -0.31    1.64
   4  -6   3   21.86    2.96
  -4  -6  -3   20.84    2.44
  -4   6  -3   21.04    2.80
   4  -7  -3   26.57    2.95
   4  -7  -3   28.66    3.04
  -4  -7   3   24.11    3.57
  -4   7   3   22.75    2.90
   4   7  -3   27.90    3.08
   3  -7  -3   21.18    2.15
  -3  -7   3   22.11    2.56
   3  -7  -3   23.09    2.35
  -3   7   3   22.41    2.47
   3   7  -3   27.15    2.66
  -2  -7   3  179.55    5.74
  -2  -7   3  180.89    6.27
   2  -7  -3  179.63    5.42
   2  -7  -3  177.78    5.61
   2   7  -3  180.75    5.81
  -2   7   3  180.23    5.61
   1  -7  -3   42.43    2.05
   1  -7  -3   45.82    2.27
  -1  -7   3   60.71    3.33
   1   7  -3   55.18    2.87
  -1   7   3   44.29    2.29
   0  -7  -3  298.69    7.59
   0  -7  -3  289.94    7.34
   0  -7   3  293.26    8.30
   0   7  -3  297.42    8.26
   0   7   3  294.37    7.33
  -1  -7  -3  181.43    4.57
   1  -7   3  190.01    5.72
  -1  -7  -3  167.97    4.99
  -1  -7  -3  178.55    4.59
  -1   7  -3  180.53    5.66
   2  -7   3    8.97    1.88
  -2  -7  -3    6.67    0.87
   2  -7   3    5.40    1.62
  -2   7  -3    8.89    1.56
  -2   7  -3    2.82    1.60
  -3  -7  -3  107.21    4.00
  -3  -7  -3  114.69    3.52
   3  -7   3  115.19    4.84
   3  -7   3  104.09    4.65
  -3   7  -3  101.57    4.68
  -4  -7  -3   26.09    2.62
   4  -7   3   25.41    2.97
  -4   7  -3   27.66    3.13
   4  -8  -3   23.25    2.77
  -4  -8   3   15.17    3.49
   4  -8  -3   24.67    2.95
  -4   8   3   26.20    3.28
  -3  -8   3   45.17    3.56
   3  -8  -3   43.18    3.12
   3  -8  -3   47.70    3.27
   3   8  -3   47.58    3.68
  -3   8   3   48.92    3.28
   2  -8  -3   22.17    1.97
  -2  -8   3   21.63    2.12
   2  -8  -3   23.59    2.04
  -2  -8   3   17.89    2.51
  -2   8   3   19.21    1.97
   2   8  -3   21.42    2.43
   1  -8  -3  176.36    5.29
   1  -8  -3  171.29    5.09
   1   8  -3  178.97    5.90
  -1   8   3  183.20    5.20
   0  -8  -3   52.27    1.98
   0  -8  -3   49.19    2.33
   0  -8   3   49.21    2.93
   0   8   3   53.70    2.06
   0   8  -3   54.65    3.02
  -1  -8  -3    3.40    1.29
   1  -8   3    4.32    1.48
  -2  -8  -3  197.59    5.10
   2  -8   3  186.92    6.24
   2  -8   3  195.35    6.56
  -2   8  -3  198.29    6.45
  -3  -8  -3    2.06    1.10
   3  -8   3    0.49    2.01
   3  -8   3   -0.79    1.85
  -3   8  -3    4.54    2.12
  -4  -8  -3   18.40    2.50
   4  -8   3   21.64    3.07
  -4   8  -3   16.65    2.89
  -4  -9   3   13.75    3.40
   4  -9  -3   15.92    2.77
   4  -9  -3   16.44    2.86
  -4   9   3   14.65    3.05
   3  -9  -3    3.38    1.74
  -3  -9   3    1.40    2.43
   3  -9  -3    0.61    1.81
   3   9  -3    3.39    2.21
  -3   9   3   -0.13    2.04
   2  -9  -3   27.35    2.12
  -2  -9   3   24.64    2.87
   2  -9  -3   28.17    2.28
   2   9  -3   25.54    2.74
  -2   9   3   26.81    2.28
   1   9  -3    4.47    1.63
  -1   9   3    2.85    1.15
   0  -9   3   11.89    1.91
   0  -9  -3   10.98    1.17
   0   9   3   11.42    1.16
   0   9  -3   15.49    1.94
  -1  -9  -3   95.21    2.99
   1  -9   3  104.76    4.17
  -1   9  -3   96.50    4.13
   2  -9   3   12.00    2.13
  -2  -9  -3   11.83    1.28
  -2  -9  -3   12.73    1.13
  -2   9  -3   14.57    2.20
   3  -9   3   -1.52    2.07
   3  -9   3    0.02    1.99
  -3   9  -3   -0.83    1.99
   4  -9   3   22.33    3.60
  -4   9  -3   19.73    3.19
   4 -10  -3   -1.50    2.71
  -4 -10   3    3.83    3.01
   4 -10  -3    1.83    2.50
  -4  10   3   -0.72    2.57
   3 -10  -3  120.67    4.92
   3 -10  -3  118.22    5.04
  -3 -10   3  117.54    5.72
  -3  10   3  126.05    5.13
   3  10  -3  123.11    5.62
   2 -10  -3   11.98    2.14
   2 -10  -3    8.27    1.64
  -2  10   3    9.43    1.89
   2  10  -3    7.07    2.25
   1 -10  -3   67.40    2.90
   1 -10  -3   70.61    3.26
   1  10  -3   71.51    3.60
  -1  10   3   66.63    3.10
   0 -10   3   94.28    4.18
   0 -10  -3   98.27    3.25
   0  10   3   92.49    3.23
   0  10  -3  100.42    4.19
   1 -10   3   29.23    2.54
  -1 -10  -3   33.78    1.71
  -1  10  -3   26.30    2.48
   2 -10   3  100.25    4.54
  -2 -10  -3  101.80    3.32
  -2 -10  -3   97.83    3.14
  -2  10  -3  101.14    4.93
   3 -10   3    2.49    2.43
  -3  10  -3    2.73    2.22
   4 -10   3   18.96    3.40
  -4  10  -3   23.30    3.76
   3 -11  -3   19.51    2.66
   3 -11  -3   16.15    2.37
  -3 -11   3   17.14    3.12
  -3  11   3   17.74    2.73
   2 -11  -3  109.69    4.33
   2 -11  -3  105.77    4.67
  -2  11   3  113.29    4.60
   2  11  -3  118.22    5.25
  -1 -11   3   18.24    2.30
   1 -11  -3   22.04    2.20
   1 -11  -3   19.44    1.75
  -1  11   3   22.09    1.97
   1  11  -3   21.59    2.55
   0 -11   3   65.30    3.61
   0 -11  -3   65.34    2.71
   0  11  -3   66.27    3.67
   1 -11   3   63.09    3.63
  -1 -11  -3   68.42    2.59
  -1  11  -3   68.92    4.17
   2 -11   3   59.75    3.87
  -2 -11  -3   63.73    2.57
  -2 -11  -3   60.76    2.41
  -2  11  -3   64.86    4.04
  -3 -11  -3    6.83    1.55
   3 -11   3    3.92    2.67
  -3  11  -3    3.01    2.38
   3 -12  -3   43.36    3.53
   3 -12  -3   46.06    3.56
  -3  12   3   41.45    3.51
   2 -12  -3   13.24    2.45
   2 -12  -3   13.99    2.20
   2  12  -3   11.59    2.81
  -1 -12   3   26.35    2.83
   1 -12  -3   28.35    2.51
   1 -12  -3   24.46    2.13
   1  12  -3   28.45    2.66
   0 -12  -3   78.06    3.13
   0 -12   3   81.40    4.09
   0  12  -3   76.78    4.31
   1 -12   3   48.36    3.38
  -1 -12  -3   44.44    2.26
  -1  12  -3   44.49    3.30
   2 -12   3   42.42    3.48
  -2 -12  -3   42.25    2.23
  -2  12  -3   40.94    3.46
  -3 -12  -3    1.76    1.41
   3 -12   3   -1.99    2.99
  -3  12  -3   -1.05    2.28
   3 -13  -3   -1.03    2.60
   3 -13  -3    2.85    2.36
   2 -13  -3   15.06    2.68
   2 -13  -3   16.96    2.44
   1 -13  -3   14.09    2.28
   1 -13  -3   13.69    1.91
  -1 -13   3   14.87    2.41
   1  13  -3   12.71    2.54
   0 -13  -3    1.56    1.35
   0 -13   3    1.59    1.97
   0  13  -3    0.41    2.11
  -1 -13  -3   35.61    2.18
   1 -13   3   31.65    3.04
  -1  13  -3   31.97    3.08
  -2 -13  -3    2.41    1.23
   2 -13   3    5.39    2.30
  -2  13  -3    2.82    2.26
   3 -13   3    6.03    3.53
  -3 -13  -3    7.98    1.51
  -3  13  -3    8.35    3.30
  -2 -14   3    0.18    1.98
   2 -14  -3    2.23    2.41
   2 -14  -3   -0.81    1.97
  -1 -14   3   23.42    2.81
   1 -14  -3   33.01    3.12
   1 -14  -3   25.34    2.39
   0 -14   3   37.14    3.20
   0 -14  -3   35.62    2.46
   0  14  -3   33.66    3.33
  -1 -14  -3   14.63    1.65
   1 -14   3   14.14    2.62
  -1  14  -3   15.30    2.97
   2 -14   3   33.39    4.19
   2 -14   3   32.39    3.41
  -2 -14  -3   28.22    2.09
  -2  14  -3   31.91    3.46
   2 -15  -3  108.50    5.37
  -2 -15   3  101.60    5.15
   1 -15  -3   10.20    2.64
  -1 -15   3    7.85    2.60
   1 -15  -3   11.19    1.98
   0 -15   3   40.68    3.45
   0 -15  -3   36.99    2.64
   0  15  -3   44.06    3.76
  -1 -15  -3   97.16    3.71
   1 -15   3   93.96    5.00
  -1  15  -3  101.92    5.52
   2 -15   3    5.03    2.66
   2 -15   3    3.92    3.02
  -2 -15  -3    3.71    1.39
  -2  15  -3    2.90    2.86
   1 -16  -3    0.97    2.58
  -1 -16   3    4.42    2.61
   0 -16   3   15.06    2.65
   1 -16   3   25.00    3.49
   5   0  -4   49.90    4.02
  -5   0   4   41.38    3.86
  -4   0   4  118.35    5.14
   4   0  -4  125.01    5.03
   4   0  -4  133.10    5.06
  -4   0   4  125.21    5.39
   3   0  -4  161.70    5.29
  -3   0   4  153.20    5.36
   3   0  -4  164.39    5.25
  -3   0   4  164.25    5.68
  -2   0   4  425.38   10.79
   2   0  -4  424.57   10.84
  -2   0   4  419.89   10.91
  -2   0   4  410.35   11.48
   2   0  -4  439.89   10.82
   0   0   4  759.06   19.16
   0   0  -4  748.72   18.10
   0   0  -4  779.70   19.08
  -1   0  -4  236.47    6.14
   1   0   4  248.09    6.06
   1   0   4  235.49    6.00
   2   0   4   19.68    1.29
   2   0   4   16.01    1.23
  -2   0  -4   17.58    1.32
  -2   0  -4   16.94    1.39
   3   0   4  164.84    5.06
  -3   0  -4  166.66    5.01
  -3   0  -4  167.99    5.28
  -4   0  -4   45.90    3.49
  -4   0  -4   46.39    3.34
  -5   0  -4   42.12    3.71
  -5   0  -4   45.26    3.72
   5  -1  -4    3.39    2.38
  -5  -1   4    2.47    2.53
  -5   1   4    7.04    2.91
   5   1  -4    5.29    2.37
  -4  -1   4   12.57    2.67
  -4  -1   4   13.97    2.51
   4  -1  -4   13.48    2.27
   4  -1  -4   12.97    2.19
  -4   1   4   15.13    2.44
   4   1  -4    9.31    2.13
  -4   1   4   13.56    2.43
  -3  -1   4  129.07    4.85
   3  -1  -4  126.60    4.51
   3  -1  -4  125.35    4.43
  -3  -1   4  128.89    4.69
   3   1  -4  115.01    4.55
  -3   1   4  119.28    4.77
   3   1  -4  124.72    4.43
  -3   1   4  120.82    4.59
   2  -1  -4   14.73    1.47
  -2  -1   4   16.03    1.59
  -2  -1   4   13.79    1.57
   2  -1  -4   16.21    1.42
  -2  -1   4   14.89    1.36
   2   1  -4   12.02    1.39
  -2   1   4   15.55    1.58
   2   1  -4   14.24    1.46
  -2   1   4   14.21    1.56
   2   1  -4   14.54    1.56
  -2   1   4   16.67    1.39
   1  -1  -4   43.13    1.82
   1  -1  -4   34.45    1.76
  -1  -1   4   39.32    1.95
  -1   1   4   36.98    1.90
   1   1  -4   36.82    2.03
  -1   1   4   36.61    1.88
   1   1  -4   39.86    1.84
   0  -1  -4  395.08    9.57
   0  -1   4  394.58   10.52
   0  -1  -4  405.01   10.07
   0   1  -4  396.47   10.38
   0   1  -4  402.33    9.88
   0   1   4  395.49   10.14
  -1  -1  -4   82.97    2.65
   1  -1   4   84.49    2.78
  -1  -1  -4   88.64    2.53
   1   1   4   90.45    2.45
  -1   1  -4   90.23    2.97
   1   1   4   86.59    2.31
   2  -1   4   46.71    2.06
   2  -1   4   44.45    2.10
  -2  -1  -4   45.36    1.80
  -2  -1  -4   44.71    2.00
  -2   1  -4   40.76    2.16
   2   1   4   41.79    1.85
   2   1   4   41.94    1.78
  -2   1  -4   42.88    2.00
   3  -1   4   61.28    2.93
  -3  -1  -4   57.19    2.89
  -3  -1  -4   62.28    2.68
  -3  -1  -4   58.41    2.98
   3  -1   4   62.47    2.85
  -3   1  -4   63.92    2.81
   3   1   4   57.22    2.75
  -3   1  -4   62.90    3.08
  -4  -1  -4   40.42    3.04
  -4  -1  -4   42.10    3.14
  -4   1  -4   42.13    3.13
  -4   1  -4   43.97    3.23
  -5  -1  -4   11.54    2.70
  -5  -1  -4   11.30    2.94
  -5   1  -4   15.57    3.22
  -5   1  -4   12.01    2.99
   5  -2  -4   16.77    2.85
   5   2  -4   14.11    3.05
  -5   2   4   16.03    2.95
   4  -2  -4   14.96    2.21
   4  -2  -4   15.50    2.33
  -4  -2   4   12.16    2.33
  -4  -2   4   11.60    2.43
  -4   2   4   12.82    2.35
   4   2  -4   12.07    2.35
   3  -2  -4    0.50    1.45
  -3  -2   4    2.70    1.81
   3  -2  -4    0.50    1.34
  -3  -2   4    1.52    1.87
  -3   2   4    2.14    1.58
  -3   2   4    0.51    1.57
   3   2  -4    1.81    1.42
  -2  -2   4   30.47    2.21
   2  -2  -4   29.78    1.87
   2  -2  -4   30.38    1.98
   2   2  -4   27.92    2.13
  -2   2   4   33.31    2.24
   2   2  -4   34.19    2.11
  -2   2   4   28.48    2.09
   1  -2  -4  100.91    3.00
   1  -2  -4  101.50    3.06
  -1  -2   4  100.75    3.48
  -1   2   4  100.36    3.30
  -1   2   4  101.79    3.15
   1   2  -4   97.76    3.44
  -1   2   4  104.59    2.99
   1   2  -4   94.85    3.24
   0  -2   4    0.19    1.08
   0  -2  -4    1.78    0.53
   0  -2  -4    1.08    0.51
   0   2   4    1.23    0.55
   0   2  -4    1.54    1.10
   0   2   4    0.97    0.43
   0   2   4    1.05    0.40
   0   2  -4    0.25    0.94
   1  -2   4    1.94    0.95
   1   2   4    0.52    0.36
  -1   2  -4    3.26    1.06
   2  -2   4   15.62    1.35
   2  -2   4   15.51    1.46
  -2  -2  -4   15.98    1.22
  -2  -2  -4   18.57    1.27
  -2  -2  -4   17.60    1.18
  -2  -2  -4   16.35    1.15
  -2   2  -4   15.55    1.56
   2   2   4   15.57    1.19
  -2   2  -4   16.03    1.42
   2   2   4   15.82    1.19
  -3  -2  -4    5.05    1.21
  -3  -2  -4    3.51    1.35
   3  -2   4    7.26    1.70
  -3  -2  -4    3.80    1.42
   3  -2   4    5.08    1.33
   3   2   4    4.00    1.24
  -3   2  -4    4.63    1.36
  -3   2  -4    5.79    1.51
  -4  -2  -4   11.67    2.21
  -4  -2  -4   10.18    2.23
  -4   2  -4   13.82    2.41
   5  -3  -4   11.64    2.80
   5   3  -4    7.36    2.99
  -5   3   4   13.71    3.29
  -4  -3   4   12.42    2.71
   4  -3  -4    8.21    2.08
   4  -3  -4   11.60    2.25
  -4   3   4   14.07    2.37
   4   3  -4   12.92    2.30
  -3  -3   4   14.70    2.10
   3   3  -4   13.88    1.92
  -3   3   4   14.34    1.89
   2  -3  -4   13.48    1.42
  -2  -3   4   11.93    1.61
   2  -3  -4   12.64    1.31
   2   3  -4    9.13    1.42
  -2   3   4    9.86    1.34
  -2   3   4    9.77    1.42
  -1  -3   4   38.80    2.26
   1  -3  -4   41.87    1.86
   1  -3  -4   43.13    1.77
   1   3  -4   38.83    2.11
  -1   3   4   42.18    1.84
  -1   3   4   42.35    1.69
   1   3  -4   41.58    2.30
   0  -3  -4   25.67    1.06
   0  -3  -4   27.96    1.05
   0   3  -4   26.54    1.93
   0   3   4   25.54    0.99
   0   3  -4   25.89    1.91
   0   3   4   27.34    1.13
   1  -3   4   19.95    1.54
  -1   3  -4   19.54    1.63
  -2  -3  -4   63.80    2.24
   2  -3   4   64.55    2.87
  -2  -3  -4   66.07    2.31
  -2  -3  -4   66.15    2.30
  -2  -3  -4   66.25    2.08
   2  -3   4   66.87    2.84
   2   3   4   69.11    2.20
   2   3   4   63.85    2.03
  -2   3  -4   68.99    2.70
  -2   3  -4   69.83    3.04
   3  -3   4    7.04    1.86
   3  -3   4    9.19    1.73
  -3  -3  -4    6.48    1.45
  -3  -3  -4    7.37    1.46
  -3  -3  -4    8.41    1.20
  -3   3  -4    4.80    1.57
  -4  -3  -4    1.88    1.91
   4  -3   4    3.77    2.16
  -4  -3  -4    5.37    2.01
  -4   3  -4    6.05    2.28
   4  -4  -4   34.29    2.98
   4  -4  -4   32.00    2.79
  -4  -4   4   31.32    3.19
  -4   4   4   29.27    2.88
   4   4  -4   28.76    3.06
   3  -4  -4    4.50    1.51
  -3  -4   4    4.35    1.79
   3  -4  -4    4.48    1.62
   3   4  -4    3.69    1.65
  -3   4   4    4.01    1.69
  -3   4   4    4.61    1.64
   2  -4  -4  158.86    4.82
   2  -4  -4  159.36    4.92
  -2  -4   4  163.15    5.53
  -2   4   4  168.42    5.07
   2   4  -4  161.50    5.11
   1  -4  -4  106.06    3.21
  -1  -4   4  102.75    3.79
   1  -4  -4   94.13    2.99
   1   4  -4   99.77    3.76
   1   4  -4  102.37    3.56
  -1   4   4   99.94    3.15
   0  -4  -4  201.84    4.88
   0  -4  -4  199.86    4.98
   0  -4  -4  203.59    5.00
   0   4  -4  200.08    5.85
   0   4  -4  198.15    6.14
   0   4   4  202.64    4.94
   1  -4   4  138.80    4.51
  -1   4  -4  144.09    4.54
   2  -4   4    8.39    1.40
   2  -4   4    8.69    1.63
  -2  -4  -4    8.42    0.99
  -2  -4  -4    8.15    0.75
  -2  -4  -4    8.66    0.86
  -2  -4  -4    8.24    0.92
   2   4   4    8.39    0.83
  -2   4  -4    7.55    1.43
  -2   4  -4   10.74    1.46
   3  -4   4   41.94    2.93
  -3  -4  -4   39.42    2.30
  -3  -4  -4   40.56    2.56
  -3  -4  -4   38.70    2.06
  -3   4  -4   39.72    3.09
  -4  -4  -4   79.87    3.98
   4  -4   4   77.36    4.11
  -4  -4  -4   74.75    3.67
  -4   4  -4   73.46    4.41
   4  -5  -4   57.84    3.71
   4  -5  -4   58.16    3.60
  -4  -5   4   56.29    4.38
  -4   5   4   60.42    4.31
   4   5  -4   62.81    4.18
  -3  -5   4  218.44    7.37
   3  -5  -4  210.65    6.78
   3  -5  -4  230.61    6.78
  -3   5   4  215.49    6.87
   3   5  -4  229.40    6.97
   2  -5  -4   63.96    2.65
  -2  -5   4   63.16    3.39
   2  -5  -4   61.87    2.90
   2   5  -4   62.14    3.04
  -2   5   4   63.95    2.80
  -1  -5   4  224.79    6.89
   1  -5  -4  229.95    5.98
   1  -5  -4  210.03    5.83
  -1   5   4  219.79    5.94
   1   5  -4  231.55    6.95
   1   5  -4  224.33    6.47
   0  -5  -4  330.92    7.83
   0  -5  -4  326.83    7.96
   0  -5  -4  325.01    7.97
   0   5  -4  330.61    9.37
   0   5  -4  322.98    8.87
   1  -5   4  275.07    7.82
  -1   5  -4  284.09    7.82
  -2  -5  -4  136.86    3.79
   2  -5   4  135.94    4.89
   2  -5   4  140.73    4.74
  -2  -5  -4  137.22    3.56
  -2  -5  -4  140.75    3.92
  -2   5  -4  141.23    4.89
  -2   5  -4  134.06    4.57
  -3  -5  -4   17.16    1.73
   3  -5   4   17.68    2.33
  -3  -5  -4   23.19    1.59
  -3  -5  -4   16.21    1.75
  -3   5  -4   18.88    2.42
  -4  -5  -4  128.86    4.87
  -4  -5  -4  138.97    5.06
   4  -5   4  120.27    5.32
  -4   5  -4  123.20    5.65
   4  -6  -4   47.03    3.53
  -4  -6   4   43.41    3.71
   4  -6  -4   41.17    3.22
  -4   6   4   48.20    3.51
   4   6  -4   50.96    3.67
  -3  -6   4   46.72    3.55
   3  -6  -4   41.15    2.96
   3  -6  -4   41.56    2.90
   3   6  -4   43.20    3.34
  -3   6   4   39.41    3.04
  -2  -6   4    2.21    1.58
   2  -6  -4    2.49    1.08
   2  -6  -4    2.64    1.41
  -2   6   4    1.61    1.19
   2   6  -4    3.41    1.51
  -1  -6   4   49.24    2.95
   1  -6  -4   52.13    2.25
   1  -6  -4   41.51    1.93
  -1   6   4   44.78    2.09
   1   6  -4   48.18    2.79
   0  -6  -4   41.66    1.44
   0  -6  -4   39.33    1.64
   0  -6  -4   40.41    1.66
   0  -6   4   39.73    2.55
   0   6  -4   47.83    2.63
   0   6   4   38.34    1.34
   0   6  -4   38.07    2.75
  -1  -6  -4   59.73    1.89
   1  -6   4   58.74    2.99
  -1   6  -4   57.63    3.01
  -2  -6  -4   -0.34    0.79
  -2  -6  -4    0.22    0.50
   2  -6   4   -1.37    1.46
   2  -6   4   -0.71    1.38
  -2   6  -4   -1.55    1.38
  -3  -6  -4   32.15    2.06
   3  -6   4   30.75    2.90
  -3  -6  -4   29.67    1.74
  -3   6  -4   28.79    2.67
  -4  -6  -4    6.02    1.96
  -4  -6  -4    6.12    2.02
   4  -6   4    6.55    2.24
  -4   6  -4    0.56    2.51
   4  -7  -4   56.47    3.80
   4  -7  -4   53.44    3.63
  -4  -7   4   56.78    4.40
   4   7  -4   62.07    4.33
  -4   7   4   60.37    4.05
   3  -7  -4    9.33    1.94
   3  -7  -4    6.21    1.70
  -3  -7   4    9.33    2.50
  -3   7   4   13.00    2.02
   3   7  -4    8.63    2.33
   2  -7  -4    6.01    1.42
   2  -7  -4    3.09    1.33
  -2  -7   4    6.93    1.91
  -2   7   4    5.15    1.45
   2   7  -4    4.17    1.87
   1  -7  -4  153.30    4.66
  -1  -7   4  160.51    5.73
   1  -7  -4  160.62    4.55
  -1   7   4  162.61    4.62
   1   7  -4  157.28    5.37
   0  -7  -4   25.13    1.58
   0  -7   4   26.89    2.25
   0  -7  -4   28.79    1.27
   0   7   4   28.20    1.23
   0   7  -4   26.15    2.22
   0   7  -4   32.88    2.65
   1  -7   4    1.31    1.47
  -1   7  -4    5.04    1.52
   2  -7   4  138.36    5.40
   2  -7   4  133.03    5.07
  -2  -7  -4  140.20    3.62
  -2  -7  -4  138.80    3.55
  -2   7  -4  146.88    5.22
   3  -7   4   51.14    3.76
  -3  -7  -4   52.61    2.13
  -3   7  -4   60.37    3.72
   4  -7   4   -2.62    2.48
  -4  -7  -4    0.79    1.76
  -4   7  -4    0.89    2.57
   4  -8  -4    5.27    2.15
  -4  -8   4   11.27    3.09
   4  -8  -4    4.24    2.33
  -4   8   4    8.89    2.81
   3  -8  -4   -1.14    1.72
   3  -8  -4   -0.69    1.92
  -3  -8   4    3.31    2.48
   3   8  -4   -0.49    2.13
  -3   8   4    1.32    1.96
   2  -8  -4  113.06    4.32
   2  -8  -4  116.08    4.07
  -2  -8   4  116.20    4.95
   2   8  -4  118.14    4.78
  -2   8   4  117.81    4.28
   1  -8  -4   14.84    1.35
  -1   8   4   15.19    1.44
   1   8  -4   19.60    2.13
   0  -8  -4   22.04    1.29
   0  -8  -4   26.28    1.77
   0  -8   4   27.20    2.35
   0   8   4   21.77    1.32
   0   8  -4   26.07    2.45
  -1  -8  -4  114.13    2.86
  -1  -8  -4  112.15    2.85
   1  -8   4  114.30    4.49
  -1  -8  -4  103.39    3.54
  -1   8  -4  104.87    4.39
   2  -8   4    7.34    1.95
  -2  -8  -4    9.21    0.79
  -2  -8  -4    8.07    0.68
  -2   8  -4    6.28    2.01
  -3  -8  -4   52.87    2.11
   3  -8   4   58.49    4.06
  -3   8  -4   54.30    3.91
   4  -8   4   12.68    3.17
  -4   8  -4   14.16    3.20
   4  -9  -4   11.30    2.46
  -4  -9   4   10.59    3.31
   4  -9  -4    9.06    2.57
  -4   9   4    7.49    2.81
  -3  -9   4   35.89    3.61
   3  -9  -4   38.26    3.16
   3  -9  -4   39.46    2.84
  -3   9   4   36.31    2.86
   3   9  -4   36.65    3.40
   2  -9  -4   31.56    2.35
  -2  -9   4   28.54    3.15
   2  -9  -4   30.06    2.20
   2   9  -4   27.91    2.79
  -2   9   4   33.64    2.37
   1  -9  -4  123.04    4.24
   1  -9  -4  121.82    3.91
   1   9  -4  119.77    4.87
  -1   9   4  124.22    4.01
   0  -9   4  111.84    4.61
   0  -9  -4  112.61    3.34
   0   9   4  113.53    3.35
   0   9  -4  120.15    4.81
   1  -9   4    5.44    1.82
  -1   9  -4    6.12    1.79
  -2  -9  -4  101.80    2.87
   2  -9   4  107.96    4.73
  -2  -9  -4  106.69    2.83
  -2   9  -4  103.09    4.72
  -3  -9  -4   24.81    1.52
   3  -9   4   26.81    3.13
  -3   9  -4   24.88    3.03
   4  -9   4    6.22    2.80
  -4   9  -4    7.40    2.84
   4 -10  -4   20.55    3.29
   4 -10  -4   21.24    2.84
  -4 -10   4   20.41    3.75
  -4  10   4   22.30    3.40
  -3 -10   4   32.65    3.63
   3 -10  -4   35.84    2.99
   3 -10  -4   23.59    2.72
   3  10  -4   30.90    3.50
  -3  10   4   28.75    2.91
   2 -10  -4   80.32    3.78
   2 -10  -4   75.10    3.35
  -2  10   4   80.32    3.70
   2  10  -4   77.14    4.52
   1 -10  -4   11.07    1.62
   1 -10  -4    8.87    1.35
  -1  10   4   13.55    1.61
   1  10  -4    8.91    1.97
   0 -10   4  107.57    4.61
   0 -10  -4  105.00    3.35
   0  10  -4  112.08    4.84
  -1 -10  -4   93.92    2.72
   1 -10   4   86.09    4.26
  -1  10  -4   92.15    4.31
  -2 -10  -4   14.48    1.03
   2 -10   4   12.94    2.45
  -2 -10  -4   14.16    1.08
  -2  10  -4   12.11    2.67
   3 -10   4   58.29    4.41
  -3 -10  -4   65.53    2.43
  -3  10  -4   59.91    4.35
   3 -11  -4    1.24    2.03
   3 -11  -4    3.11    2.37
  -3 -11   4    2.77    2.86
   2 -11  -4    6.44    1.76
   2 -11  -4    7.90    2.11
   2  11  -4    0.03    2.07
   1 -11  -4   -0.71    1.47
   1 -11  -4    0.38    1.17
  -1 -11   4   -0.58    1.77
   1  11  -4   -0.04    1.83
   0 -11   4    1.33    1.84
   0 -11  -4    1.11    1.06
   0  11  -4    0.82    1.85
   1 -11   4    0.38    1.93
  -1 -11  -4    2.43    0.85
  -1  11  -4    1.47    2.22
   2 -11   4   -2.14    2.04
  -2 -11  -4   -0.26    0.72
  -2 -11  -4   -0.11    0.70
  -2  11  -4   -1.10    2.02
   3 -11   4   -2.30    3.07
  -3 -11  -4    1.78    0.93
  -3  11  -4    1.73    2.33
   3 -12  -4   11.20    2.23
   3 -12  -4    8.18    2.71
   2 -12  -4   94.81    4.13
   2 -12  -4   89.83    4.54
   2  12  -4   94.11    5.21
   1 -12  -4    4.48    1.50
  -1 -12   4    0.49    1.87
   1 -12  -4    2.25    1.82
   1  12  -4    2.17    2.28
   0 -12   4   81.53    4.25
   0 -12  -4   79.02    3.01
   0  12  -4   75.07    4.29
  -1 -12  -4   55.39    2.19
   1 -12   4   51.98    3.94
  -1  12  -4   55.28    3.90
   2 -12   4   11.63    2.65
  -2 -12  -4   12.22    1.06
  -2 -12  -4   12.23    1.07
  -2  12  -4   13.44    2.69
   3 -12   4   54.22    4.65
  -3  12  -4   50.75    4.47
   3 -13  -4   15.33    3.06
   3 -13  -4   16.90    2.77
   2 -13  -4    8.01    2.45
   2 -13  -4   13.33    2.01
   1 -13  -4  113.38    4.81
  -1 -13   4  111.71    5.18
   1 -13  -4  121.13    4.39
   1  13  -4  119.47    5.58
   0 -13   4   14.57    2.55
   0 -13  -4   10.75    1.46
   0  13  -4   11.67    2.50
   1 -13   4    5.82    2.27
  -1  13  -4    6.45    2.29
   2 -13   4  138.49    6.12
  -2 -13  -4  135.48    3.81
  -2  13  -4  140.03    6.40
   3 -13   4    0.42    2.96
  -3  13  -4    0.46    2.61
   2 -14  -4   42.54    3.58
  -2 -14   4   40.76    3.79
   2 -14  -4   38.69    2.93
  -1 -14   4    7.91    2.70
   1 -14  -4    8.46    1.72
   1 -14  -4    9.37    2.38
   1  14  -4    6.88    2.58
   0 -14   4   -3.41    2.03
   0 -14  -4   -0.95    1.20
   0  14  -4   -1.17    2.36
   1 -14   4   57.30    4.16
  -1 -14  -4   65.74    2.57
  -1  14  -4   62.43    4.44
   2 -14   4    2.74    2.58
  -2 -14  -4    3.53    0.96
  -2  14  -4    5.85    2.94
   2 -15  -4    1.56    2.51
  -1 -15   4   61.49    4.52
   1 -15  -4   67.12    3.94
   1 -15  -4   60.74    3.39
   0 -15   4    2.93    2.33
   0 -15  -4    4.53    1.47
   0  15  -4    1.99    2.61
  -1 -15  -4    6.97    1.40
   1 -15   4    2.37    2.81
  -1  15  -4    0.14    2.34
  -1 -16   4   12.12    2.96
   0 -16  -4   -2.55    2.02
   0 -16   4   -1.88    2.23
   5   0  -5    4.29    2.45
  -5   0   5    9.93    2.92
   4   0  -5    3.66    2.21
  -4   0   5    4.25    2.16
   4   0  -5    8.22    2.03
   3   0  -5    1.34    1.45
  -3   0   5    0.38    1.54
  -3   0   5    0.59    1.83
   3   0  -5   -0.83    1.56
  -2   0   5    0.52    1.17
   2   0  -5    0.63    1.07
   2   0  -5    1.39    1.05
  -2   0   5    0.52    1.20
  -1   0   5   -0.79    0.79
  -1   0   5    1.06    0.88
   1   0  -5    0.11    0.77
   1   0  -5   -0.08    0.96
   0   0  -5    0.83    0.88
   0   0   5    0.01    0.97
   0   0  -5    0.74    0.85
  -1   0  -5   -1.08    0.95
   1   0   5   -0.41    0.68
   1   0   5   -0.08    0.77
  -1   0  -5    0.59    0.90
  -2   0  -5    0.92    0.81
  -2   0  -5   -0.47    1.00
   2   0   5    0.21    0.87
   2   0   5    0.18    0.79
  -3   0  -5    0.38    1.08
  -3   0  -5   -0.86    1.45
   3   0   5   -0.21    1.28
  -4   0  -5    2.63    2.14
  -4   0  -5    4.55    1.92
   5  -1  -5   17.75    2.97
  -5   1   5   22.63    3.61
   5   1  -5   16.92    3.27
   4  -1  -5   74.79    4.07
  -4  -1   5   82.24    4.46
   4  -1  -5   81.96    4.07
   4   1  -5   76.24    4.29
  -4   1   5   76.78    4.28
   4   1  -5   91.71    4.21
   3  -1  -5    3.73    1.48
   3  -1  -5    5.92    1.64
  -3  -1   5    2.62    1.77
  -3  -1   5    5.97    1.76
  -3   1   5    2.02    1.56
  -3   1   5    4.99    1.71
   3   1  -5    3.15    1.54
   2  -1  -5  269.36    7.07
  -2  -1   5  258.93    7.63
   2  -1  -5  252.30    7.06
   2   1  -5  255.82    7.54
   2   1  -5  242.14    7.07
  -2   1   5  260.66    7.18
  -2   1   5  257.32    7.53
   1  -1  -5  185.24    5.00
  -1  -1   5  168.83    5.02
  -1  -1   5  188.15    5.47
   1   1  -5  182.62    5.43
  -1   1   5  180.30    4.91
  -1   1   5  182.40    5.32
   1   1  -5  187.26    5.13
   0  -1  -5  106.00    3.10
   0  -1  -5  112.31    3.19
   0  -1   5  105.75    3.77
   0   1  -5  110.49    3.49
   0   1   5  104.12    3.30
   0   1  -5  107.95    3.50
   1  -1   5  375.93    9.46
  -1  -1  -5  372.93    9.53
  -1  -1  -5  372.29    9.18
  -1   1  -5  368.70    9.53
   1   1   5  371.27    8.89
  -1   1  -5  365.50    9.97
   1   1   5  381.65    9.03
   2  -1   5    3.49    1.00
  -2  -1  -5    3.07    0.99
  -2  -1  -5    1.96    0.81
   2  -1   5    0.56    1.00
   2   1   5    1.16    0.76
  -2   1  -5    1.36    1.22
  -2   1  -5    1.25    0.95
   2   1   5    1.41    0.72
  -3  -1  -5   55.53    2.51
   3  -1   5   54.87    2.74
  -3  -1  -5   49.33    2.71
  -3  -1  -5   49.33    2.80
  -3   1  -5   50.34    2.61
  -3   1  -5   56.50    2.98
  -4  -1  -5   72.18    3.66
  -4  -1  -5   72.91    3.91
  -4   1  -5   66.63    3.83
  -4   1  -5   73.17    3.95
   5  -2  -5    1.30    2.33
  -5   2   5    3.60    2.58
   5   2  -5   -2.11    2.26
   4  -2  -5    5.93    2.15
   4  -2  -5    6.65    2.07
  -4  -2   5    6.35    2.39
   4   2  -5    9.60    2.51
  -4   2   5    9.41    2.31
  -3  -2   5  180.05    6.17
   3  -2  -5  170.30    5.63
   3  -2  -5  177.04    5.59
  -3   2   5  164.13    5.95
  -3   2   5  175.09    5.86
   3   2  -5  160.54    5.63
  -2  -2   5    0.13    1.03
  -2  -2   5   -0.75    1.20
   2  -2  -5    1.60    1.03
   2  -2  -5   -1.47    1.17
   2   2  -5    2.35    1.21
  -2   2   5    1.21    1.28
   2   2  -5    2.67    1.27
  -2   2   5    0.89    1.17
   1  -2  -5  197.16    5.47
  -1  -2   5  204.40    6.08
   1  -2  -5  209.36    5.48
   1   2  -5  201.70    6.04
  -1   2   5  210.99    5.85
   1   2  -5  203.30    5.73
   0  -2  -5  138.40    3.79
   0  -2  -5  143.07    3.78
   0  -2   5  144.74    4.79
   0   2   5  146.33    3.72
   0   2  -5  144.64    4.58
   0   2   5  142.86    4.02
   0   2  -5  152.03    4.50
  -1   2  -5   45.90    2.55
   2  -2   5  115.62    3.81
  -2  -2  -5  113.64    3.42
   2  -2   5  114.96    3.76
  -2  -2  -5  113.51    3.46
  -2  -2  -5  114.55    3.27
  -2   2  -5  124.00    4.12
   2   2   5  119.78    3.33
   2   2   5  111.68    3.12
  -2   2  -5  107.39    3.77
  -3  -2  -5   18.04    1.72
  -3  -2  -5   19.23    1.82
   3  -2   5   20.19    2.00
  -3  -2  -5   18.80    1.51
  -3   2  -5   16.93    2.04
  -4  -2  -5    5.53    2.07
  -4  -2  -5    3.74    1.85
  -4   2  -5    3.86    2.17
   4  -3  -5    5.85    2.14
   4  -3  -5    4.27    2.00
  -4  -3   5    7.85    2.69
   4   3  -5    3.64    2.03
  -4   3   5    4.10    2.41
   3  -3  -5   -0.01    1.48
  -3  -3   5    1.66    1.78
   3  -3  -5    1.59    1.44
  -3   3   5    3.42    1.94
   3   3  -5   -0.28    1.52
  -3   3   5    0.91    1.56
   2  -3  -5  191.47    5.56
  -2  -3   5  185.23    6.12
   2  -3  -5  187.47    5.47
  -2  -3   5  187.44    5.61
  -2   3   5  192.13    5.63
  -2   3   5  194.18    6.03
   2   3  -5  189.64    5.76
   2   3  -5  186.65    6.17
   1  -3  -5   20.57    1.39
   0  -3  -5    6.61    0.68
   0  -3  -5    6.80    0.66
   0   3   5    7.52    0.72
   0   3  -5    7.16    1.31
   0   3   5    7.93    0.58
   0   3  -5    8.07    1.46
   1  -3   5  348.51    9.34
  -1   3  -5  356.06    9.41
  -2  -3  -5   24.93    1.57
   2  -3   5   31.64    2.02
  -2  -3  -5   25.28    1.24
   2  -3   5   25.46    1.94
  -2  -3  -5   27.20    1.44
  -2   3  -5   30.24    2.07
   2   3   5   25.43    1.33
  -2   3  -5   30.22    2.15
  -3  -3  -5    4.98    1.11
  -3  -3  -5    2.13    1.43
   3  -3   5    6.38    1.66
  -3  -3  -5    2.39    1.25
  -3   3  -5    5.14    1.78
  -4  -3  -5   29.03    2.58
  -4  -3  -5   32.70    2.70
  -4   3  -5   30.68    3.11
   4  -4  -5    9.75    2.38
   4  -4  -5    8.00    2.20
  -4  -4   5   10.86    2.88
  -4   4   5    7.43    2.23
   4   4  -5    9.39    2.23
  -3  -4   5   69.77    3.86
   3  -4  -5   67.86    3.27
   3  -4  -5   69.72    3.60
  -3   4   5   73.85    3.83
   3   4  -5   65.21    3.77
   2  -4  -5    7.74    1.46
  -2  -4   5    6.05    1.80
   2  -4  -5    6.22    1.33
  -2  -4   5    7.44    1.42
   2   4  -5    5.43    1.47
  -2   4   5    8.01    1.45
  -2   4   5    7.33    1.51
   1  -4  -5   24.69    1.46
  -1  -4   5   23.91    2.00
   1  -4  -5   24.96    1.57
  -1   4   5   24.11    1.59
   1   4  -5   22.92    1.90
   1   4  -5   25.99    1.91
   0  -4  -5  125.18    3.32
   0  -4  -5  123.68    3.29
   0   4  -5  128.82    4.27
   0   4  -5  124.16    4.42
   1  -4   5    5.30    1.37
  -1   4  -5    4.59    1.34
  -2  -4  -5  115.83    3.27
   2  -4   5  121.77    4.29
  -2  -4  -5  115.88    3.35
   2  -4   5  104.42    4.19
  -2   4  -5  120.64    4.15
   2   4   5  116.70    3.17
  -2   4  -5  114.14    4.25
  -3  -4  -5    2.13    1.19
  -3  -4  -5    3.97    1.40
  -3  -4  -5    2.97    1.02
   3  -4   5    5.53    1.79
  -3   4  -5    8.26    2.03
  -4  -4  -5    2.48    1.86
  -4  -4  -5    4.02    1.72
  -4   4  -5    1.59    2.00
  -4  -5   5   58.71    4.23
   4  -5  -5   53.06    3.61
   4  -5  -5   53.34    3.59
  -4   5   5   49.11    3.61
   4   5  -5   58.98    4.30
   3  -5  -5   43.42    2.76
   3  -5  -5   49.13    2.96
  -3  -5   5   43.30    3.34
  -3   5   5   45.15    3.06
   3   5  -5   44.24    3.22
  -2  -5   5    1.63    1.10
  -2  -5   5   -1.08    1.50
   2  -5  -5    1.75    1.18
   2  -5  -5    1.93    1.24
   2   5  -5    0.12    1.40
  -2   5   5    1.97    1.34
   1  -5  -5   48.12    2.07
  -1  -5   5   52.30    2.95
   1  -5  -5   46.81    1.93
   1   5  -5   50.97    2.89
  -1   5   5   48.08    2.08
   1   5  -5   45.66    2.70
   0  -5  -5   83.29    2.37
   0  -5  -5   79.91    2.36
   0  -5  -5   80.64    2.18
   0   5  -5   81.35    3.56
   0   5  -5   74.38    3.44
   1  -5   5    0.13    1.35
  -1   5  -5    2.99    1.41
   2  -5   5    7.49    1.88
  -2  -5  -5    8.47    0.83
  -2  -5  -5    8.15    0.95
   2  -5   5    7.24    1.58
  -2   5  -5    7.48    1.70
  -2   5  -5    8.46    1.46
  -3  -5  -5   33.64    2.28
  -3  -5  -5   35.39    1.65
   3  -5   5   38.12    2.76
  -3  -5  -5   34.15    1.87
  -3   5  -5   32.68    2.90
  -4  -5  -5    8.28    1.83
  -4  -5  -5    7.93    2.01
  -4   5  -5    4.20    2.23
   4  -6  -5   13.60    2.33
   4  -6  -5    6.64    2.28
  -4  -6   5   16.46    2.95
  -4   6   5   14.47    2.56
   4   6  -5   11.48    2.54
  -3  -6   5  155.27    6.31
   3  -6  -5  169.73    5.63
   3  -6  -5  153.62    5.53
   3   6  -5  168.14    6.01
  -3   6   5  160.21    5.80
   2  -6  -5   64.54    2.75
   2  -6  -5   64.41    2.89
  -2  -6   5   64.22    3.31
  -2  -6   5   61.48    3.50
   2   6  -5   58.56    3.33
  -2   6   5   61.81    3.05
   1  -6  -5  292.56    7.52
  -1  -6   5  293.95    8.87
   1  -6  -5  301.03    7.68
   1   6  -5  281.90    8.43
  -1   6   5  290.94    7.55
   0  -6  -5  328.81    7.99
   0  -6  -5  324.53    7.78
   0  -6  -5  319.17    8.01
   0   6  -5  325.55    9.09
   0   6  -5  325.10    9.57
   2  -6   5  183.96    6.32
   2  -6   5  181.77    6.11
  -2  -6  -5  183.04    4.78
  -2   6  -5  192.76    6.20
  -2   6  -5  187.68    5.97
  -3  -6  -5   89.90    2.69
   3  -6   5   88.82    4.42
  -3   6  -5   82.06    4.52
  -4  -6  -5   42.78    2.56
  -4  -6  -5   41.26    3.02
  -4   6  -5   40.90    3.79
   4  -7  -5    8.24    2.37
   4  -7  -5   12.64    2.34
  -4  -7   5   11.90    3.29
  -4   7   5   10.50    2.79
   4   7  -5   14.43    2.99
   3  -7  -5   -1.50    1.44
   3  -7  -5   -0.29    1.63
  -3  -7   5    1.73    2.38
   3   7  -5    1.48    1.94
  -3   7   5    0.91    1.92
   2  -7  -5  157.27    5.03
   2  -7  -5  161.51    5.21
  -2  -7   5  158.28    5.96
  -2   7   5  159.13    5.26
   2   7  -5  160.59    5.66
  -1  -7   5   39.75    3.09
   1  -7  -5   36.88    1.90
   1  -7  -5   43.41    2.19
  -1   7   5   35.44    2.06
   0  -7  -5   41.61    1.74
   0  -7   5   41.01    2.84
   0  -7  -5   41.83    1.82
   0  -7  -5   41.16    1.45
   0   7  -5   46.70    2.92
   0   7  -5   40.93    2.88
   1  -7   5  181.81    6.10
  -1   7  -5  173.90    5.98
   2  -7   5    1.31    1.71
  -2   7  -5    1.09    1.72
   3  -7   5   31.55    2.96
  -3  -7  -5   33.86    1.39
  -3   7  -5   31.62    3.17
   4  -7   5   50.99    4.08
  -4   7  -5   55.14    4.34
   4  -8  -5   10.22    2.65
  -4  -8   5   15.27    3.47
   4  -8  -5   16.69    2.72
   4   8  -5    6.26    2.61
  -4   8   5    9.83    2.52
  -3  -8   5    9.37    2.45
   3  -8  -5    6.18    1.98
   3  -8  -5    5.93    2.12
   3   8  -5    8.33    2.32
  -3   8   5   12.70    2.26
   2  -8  -5   19.12    2.03
  -2  -8   5   17.45    2.50
   2  -8  -5   13.89    1.76
   2   8  -5   12.35    2.27
  -2   8   5   17.17    1.91
   1  -8  -5   -0.79    0.86
   1  -8  -5    1.51    1.20
   1   8  -5    2.16    1.72
  -1   8   5   -0.21    1.09
   0  -8  -5   13.55    1.03
   0  -8  -5   12.01    1.21
   0  -8   5   12.31    2.02
   0  -8  -5   13.38    1.21
   0   8  -5   13.83    2.28
   1  -8   5   -0.29    1.72
  -1  -8  -5   -0.53    0.85
  -1   8  -5    0.76    1.71
   2  -8   5   30.57    2.84
  -2   8  -5   32.66    2.90
   3  -8   5   -1.95    2.43
  -3   8  -5   -0.65    2.03
   4  -8   5   10.39    3.15
  -4   8  -5    1.43    2.89
   4  -9  -5    0.87    2.21
  -4  -9   5   -2.25    3.00
   4  -9  -5    0.90    2.05
  -4   9   5   -0.68    2.16
   3  -9  -5   21.96    2.69
  -3  -9   5   20.33    3.35
   3  -9  -5   21.48    2.33
   3   9  -5   20.58    3.12
  -3   9   5   26.03    2.73
  -2  -9   5   25.94    3.16
   2  -9  -5   25.43    2.32
   2  -9  -5   24.44    2.10
   2   9  -5   20.68    2.89
  -2   9   5   20.04    2.17
   1  -9  -5    4.57    1.41
   1  -9  -5    2.52    1.05
  -1   9   5    5.12    1.24
   1   9  -5    3.34    1.88
   0  -9   5   28.02    2.47
   0  -9  -5   28.69    1.82
   0  -9  -5   28.09    1.42
   0   9  -5   26.78    2.77
   1  -9   5   30.94    2.91
  -1   9  -5   31.74    2.86
   2  -9   5   -0.57    1.94
  -2   9  -5    5.55    2.49
   3  -9   5    0.40    2.46
  -3   9  -5    2.47    2.28
   4  -9   5    8.73    3.35
  -4   9  -5   12.79    3.05
  -3 -10   5    4.79    2.61
   3 -10  -5    0.22    2.19
   3 -10  -5    4.51    2.07
   3  10  -5   -0.95    2.63
   2 -10  -5    2.01    1.49
   2 -10  -5    2.79    1.76
   2  10  -5   -0.37    2.03
   1 -10  -5   42.85    2.62
   1 -10  -5   38.39    2.11
   1  10  -5   36.14    3.05
   0 -10  -5   25.73    1.45
   0 -10  -5   28.41    2.14
   0 -10   5   27.97    2.81
   0  10  -5   27.13    2.92
   1 -10   5    4.56    2.09
  -1  10  -5   -2.11    1.80
   2 -10   5   32.31    3.18
  -2  10  -5   33.23    3.24
   3 -10   5   10.05    3.05
  -3  10  -5    6.29    2.64
  -3 -11   5    0.38    2.94
   3 -11  -5    3.12    2.34
   3 -11  -5    4.04    2.12
   3  11  -5    4.45    2.86
   2 -11  -5   85.60    3.59
   2 -11  -5   76.47    3.90
   2  11  -5   90.59    4.81
   1 -11  -5  178.22    5.47
   1 -11  -5  191.10    5.86
  -1 -11   5  178.13    6.57
   1  11  -5  188.89    6.84
   0 -11   5  126.79    5.27
   0 -11  -5  124.13    4.23
   0 -11  -5  117.48    3.64
   0  11  -5  127.74    5.28
   1 -11   5  123.36    5.47
  -1  11  -5  128.74    5.50
   2 -11   5   50.79    3.91
  -2  11  -5   45.00    3.70
   3 -11   5  117.57    6.57
  -3  11  -5  118.42    5.86
   3 -12  -5   18.71    3.01
   3 -12  -5   24.59    2.85
   2 -12  -5    3.97    2.05
   2 -12  -5    5.21    1.82
   2  12  -5   -0.86    2.58
   1 -12  -5   39.96    2.50
  -1 -12   5   46.29    3.54
   1 -12  -5   42.50    2.98
   1  12  -5   39.99    3.44
   0 -12  -5   63.08    3.08
   0 -12   5   55.81    3.91
   0 -12  -5   58.97    2.41
   0  12  -5   61.64    4.09
   1 -12   5    3.07    2.31
  -1  12  -5    2.31    2.20
  -2  12  -5   31.21    3.45
   3 -12   5   20.76    3.91
  -3  12  -5   18.60    3.70
   2 -13  -5    5.96    1.94
   2 -13  -5    6.88    2.50
   2  13  -5    6.03    2.78
   1 -13  -5    0.86    1.43
   1 -13  -5   -0.72    1.80
  -1 -13   5    3.90    2.24
   1  13  -5   -1.86    2.46
   0 -13  -5    5.71    1.81
   0 -13  -5    6.85    1.35
   0 -13   5    2.31    2.27
   0  13  -5    5.45    2.43
   1 -13   5   12.44    2.74
  -1 -13  -5   14.76    1.13
  -1 -13  -5   16.17    1.10
  -1  13  -5   13.63    2.83
  -2  13  -5    1.44    2.45
   2 -14  -5   -0.45    2.17
  -2 -14   5   -4.08    2.50
   2 -14  -5    1.72    1.81
   1 -14  -5   11.98    2.32
   1 -14  -5    8.28    1.74
  -1 -14   5   10.00    2.59
   1  14  -5   11.16    2.70
   0 -14  -5    4.02    1.97
   0 -14  -5    2.30    1.24
   0 -14   5    4.27    2.44
   0  14  -5    7.41    2.95
   1 -14   5    1.94    2.43
  -1 -14  -5    0.65    0.80
  -1  14  -5   -1.31    2.34
  -2  14  -5    5.08    3.14
  -1 -15   5   13.39    2.83
   1 -15  -5   18.73    2.69
   1 -15  -5   14.81    2.02
   0 -15   5   41.89    4.02
   0 -15  -5   45.11    2.47
   0 -15  -5   47.81    3.40
   0  15  -5   45.31    3.88
  -1 -15  -5    5.32    0.98
   1 -15   5    3.21    2.59
  -1  15  -5    4.27    2.61
   4   0  -6   31.12    2.87
  -4   0   6   27.47    3.03
   4   0  -6   22.06    2.67
  -3   0   6   44.97    3.44
  -3   0   6   59.04    3.47
   3   0  -6   55.70    3.14
  -2   0   6  146.40    5.04
   2   0  -6  144.78    4.72
   1   0  -6  265.94    7.16
   1   0  -6  271.23    7.63
  -1   0   6  272.43    7.65
   0   0   6    0.73    1.13
   0   0  -6    1.05    0.96
   0   0  -6    0.34    0.97
  -1   0  -6  290.07    7.82
   1   0   6  297.13    7.67
  -1   0  -6  299.95    7.99
   2   0   6  119.77    3.71
  -2   0  -6  122.99    4.01
   2   0   6  122.04    3.63
  -3   0  -6   45.19    2.87
  -4   0  -6   39.84    3.03
  -4   0  -6   41.47    3.20
   4  -1  -6   49.66    3.44
   4  -1  -6   49.62    3.76
   4   1  -6   46.70    3.54
  -4   1   6   46.86    3.58
   3  -1  -6   33.80    2.54
  -3  -1   6   36.34    2.89
   3  -1  -6   31.47    2.48
  -3   1   6   34.48    2.71
   3   1  -6   32.21    2.56
   2  -1  -6   71.57    2.93
   2  -1  -6   67.64    2.85
  -2  -1   6   70.81    3.27
  -2   1   6   67.87    3.10
   2   1  -6   72.33    3.25
   2   1  -6   67.63    3.03
  -1  -1   6  245.79    7.13
   1  -1  -6  244.30    6.55
   1   1  -6  240.90    7.03
  -1   1   6  246.80    7.00
   1   1  -6  252.52    6.73
   0  -1  -6   76.22    2.52
   0  -1  -6   73.23    2.54
   0  -1   6   74.81    3.09
   0   1   6   74.02    2.76
   0   1  -6   77.89    2.88
   0   1  -6   71.62    2.87
  -2  -1  -6  218.89    5.95
   2  -1   6  218.30    6.00
   2  -1   6  211.35    6.07
   2   1   6  223.09    5.80
   2   1   6  218.81    5.61
  -2   1  -6  222.86    6.31
  -3  -1  -6    4.79    1.49
  -3  -1  -6    3.04    1.42
  -3  -1  -6    0.81    1.11
  -3   1  -6    4.72    1.76
  -4  -1  -6    3.35    1.97
  -4  -1  -6    3.03    1.84
  -4   1  -6    3.77    1.98
  -4   1  -6    2.61    2.16
   4  -2  -6    2.97    1.94
   4  -2  -6   -3.57    1.79
  -4   2   6    1.71    2.08
   4   2  -6    1.81    2.06
   3  -2  -6   11.64    1.92
   3  -2  -6   12.24    1.80
  -3  -2   6   15.10    2.21
   3   2  -6   13.73    2.06
  -3   2   6    8.01    1.87
  -2  -2   6   30.68    2.46
   2  -2  -6   28.14    1.97
   2  -2  -6   32.05    2.33
   2   2  -6   32.24    2.43
  -2   2   6   32.16    2.29
  -2   2   6   34.57    2.28
   2   2  -6   29.00    2.27
   1  -2  -6    1.23    1.00
  -1  -2   6    2.78    1.21
   1   2  -6   -0.75    1.15
   1   2  -6    1.79    1.23
  -1   2   6    1.34    1.08
   0  -2  -6   91.40    2.81
   0  -2  -6   96.17    2.87
   0  -2   6  101.97    3.87
   0   2  -6   92.81    3.52
   0   2   6   96.74    3.07
   0   2  -6   95.64    3.55
   1  -2   6    2.54    1.29
  -1  -2  -6    3.00    0.82
  -1   2  -6    1.86    1.30
  -1   2  -6    1.61    1.36
   1   2   6    2.89    0.58
   2  -2   6   -0.25    1.17
  -2  -2  -6    0.71    0.75
   2  -2   6    1.36    1.17
  -2  -2  -6    0.60    0.86
  -2  -2  -6   -0.71    0.94
  -2   2  -6   -0.80    1.30
   2   2   6    0.27    0.70
  -3  -2  -6   28.75    2.13
  -3  -2  -6   35.16    2.48
  -3  -2  -6   33.46    1.98
  -3   2  -6   34.76    2.70
  -4  -2  -6    5.42    1.85
  -4  -2  -6    4.94    1.96
  -4   2  -6    2.54    2.35
   4  -3  -6   12.85    2.27
   4  -3  -6    9.20    2.34
  -4   3   6   18.45    2.90
   4   3  -6   14.60    2.56
   3  -3  -6   75.04    3.55
   3  -3  -6   72.07    3.41
  -3  -3   6   70.23    4.19
   3   3  -6   77.41    3.74
  -3   3   6   71.06    3.81
   2  -3  -6    2.05    1.24
  -2  -3   6   -0.52    1.44
   2  -3  -6   -0.14    1.30
   2   3  -6    0.81    1.42
  -2   3   6   -1.94    1.31
  -2   3   6    0.02    1.36
   2   3  -6    1.04    1.37
   1  -3  -6   69.42    2.52
  -1  -3   6   70.83    3.21
   1  -3  -6   69.44    2.56
  -1   3   6   72.19    2.76
   1   3  -6   70.88    3.00
   1   3  -6   71.18    3.19
   0  -3  -6  117.98    3.40
   0  -3  -6  132.16    3.46
   0   3  -6  127.87    4.47
   0   3  -6  128.01    4.40
  -1  -3  -6   55.75    1.69
   1  -3   6   51.96    2.91
  -1   3  -6   51.67    3.03
  -1   3  -6   47.75    3.00
   2  -3   6   63.03    2.95
  -2  -3  -6   66.17    2.35
   2  -3   6   69.44    3.19
  -2   3  -6   67.54    3.35
  -3  -3  -6    0.66    1.12
   3  -3   6   -0.94    1.64
  -3  -3  -6    2.47    1.34
  -3  -3  -6    1.19    1.01
  -3   3  -6    2.38    1.98
  -4  -3  -6   37.64    2.63
  -4  -3  -6   23.01    2.53
  -4   3  -6   25.94    2.96
   4  -4  -6   39.36    3.33
   4  -4  -6   41.15    3.27
  -4   4   6   40.93    3.56
   4   4  -6   42.20    3.44
  -3  -4   6   -2.53    1.87
   3  -4  -6    0.87    1.45
   3  -4  -6    2.02    1.81
  -3   4   6    1.99    1.64
   3   4  -6    1.17    1.77
   2  -4  -6  277.59    7.70
   2  -4  -6  279.08    7.81
  -2  -4   6  279.29    8.61
  -2   4   6  279.80    8.32
   2   4  -6  282.08    8.10
  -2   4   6  292.45    7.83
   1  -4  -6   84.26    2.92
  -1  -4   6   79.82    3.66
   1  -4  -6   80.53    2.82
   1   4  -6   84.74    3.48
  -1   4   6   92.72    2.93
   1   4  -6   80.52    3.60
  -1   4   6   82.84    3.06
   0  -4  -6  136.66    3.67
   0  -4  -6  136.80    3.66
   0   4  -6  139.92    4.70
   0   4  -6  142.30    4.86
   1  -4   6  167.08    5.50
  -1   4  -6  168.18    5.56
  -1   4  -6  159.59    5.62
  -2  -4  -6   15.57    1.09
   2  -4   6   15.80    1.97
   2  -4   6   10.17    1.71
  -2   4  -6   17.36    2.16
  -3  -4  -6   79.64    3.20
   3  -4   6   78.93    3.71
  -3  -4  -6   73.42    2.55
  -3   4  -6   79.34    4.12
  -4  -4  -6   38.88    2.86
  -4  -4  -6   32.15    2.41
  -4   4  -6   28.61    3.24
   4  -5  -6   10.31    2.40
   4  -5  -6   13.42    2.33
  -4   5   6    6.00    2.61
   4   5  -6    7.46    2.46
  -3  -5   6   25.35    3.04
   3  -5  -6   21.14    2.18
   3  -5  -6   21.29    2.30
   3   5  -6   26.19    2.60
  -3   5   6   22.97    2.57
   2  -5  -6  129.52    4.33
  -2  -5   6  125.71    5.07
   2  -5  -6  130.39    4.29
  -2   5   6  127.91    4.46
   2   5  -6  130.79    4.79
   1  -5  -6   69.24    2.52
   1  -5  -6   79.34    2.78
  -1  -5   6   75.39    3.66
  -1   5   6   75.63    2.93
   1   5  -6   70.00    3.51
  -1   5   6   73.43    2.67
   1   5  -6   68.49    3.38
   0  -5  -6  144.39    3.88
   0  -5  -6  144.28    3.83
   0   5  -6  148.20    5.17
   0   5  -6  147.55    5.21
   1  -5   6   93.58    4.25
  -1   5  -6  101.78    4.29
  -1   5  -6   95.60    4.27
  -2  -5  -6  143.47    3.85
   2  -5   6  148.68    5.29
   2  -5   6  134.81    5.08
  -2   5  -6  153.16    5.51
  -3  -5  -6   54.19    2.60
   3  -5   6   48.00    3.62
  -3  -5  -6   48.19    1.75
  -3   5  -6   47.88    3.70
  -4  -5  -6    4.71    1.98
  -4   5  -6    1.29    2.50
   4  -6  -6   14.60    2.38
   4  -6  -6   13.40    2.80
   4   6  -6   14.75    2.77
  -4   6   6   17.68    3.01
   3  -6  -6    5.65    1.70
  -3  -6   6    1.12    2.18
   3  -6  -6    5.44    1.80
  -3   6   6    4.31    1.79
   3   6  -6    6.24    2.37
  -2  -6   6    5.00    1.97
   2  -6  -6    8.18    1.46
   2  -6  -6    4.25    1.54
   2   6  -6    7.50    1.90
  -2   6   6    9.35    1.74
  -1  -6   6   31.18    2.70
   1  -6  -6   35.25    1.80
   1  -6  -6   36.32    2.02
  -1   6   6   33.49    1.86
   1   6  -6   36.10    2.89
   1   6  -6   33.50    2.58
   0  -6  -6   11.94    0.92
   0  -6  -6   11.84    0.90
   0   6  -6   15.69    2.15
   0   6  -6   11.30    1.89
   1  -6   6   18.19    2.24
  -1   6  -6   19.25    2.34
  -1   6  -6   13.49    2.06
   2  -6   6   33.93    2.71
  -2   6  -6   27.73    2.82
   3  -6   6   34.92    3.08
  -3   6  -6   32.91    3.04
  -4  -6  -6    3.42    2.06
  -4   6  -6   -0.49    2.64
   4  -7  -6   26.81    2.86
   4  -7  -6   28.27    3.06
   4   7  -6   27.35    3.52
  -4   7   6   28.88    3.09
  -3  -7   6   21.52    3.22
   3  -7  -6   19.63    2.35
   3  -7  -6   19.01    2.49
  -3   7   6   21.18    2.52
   3   7  -6   18.52    2.65
   2  -7  -6    0.41    1.27
  -2  -7   6   -0.36    1.89
   2  -7  -6    2.54    1.46
  -2   7   6    1.37    1.41
   2   7  -6    2.22    1.79
   1  -7  -6   78.93    2.73
   1  -7  -6   83.53    3.02
  -1  -7   6   86.94    4.21
   1   7  -6   76.36    3.90
  -1   7   6   75.07    2.83
   0  -7  -6  182.88    4.91
   0  -7   6  187.31    6.24
   0  -7  -6  188.46    4.84
   0   7  -6  182.57    6.44
   0   7  -6  175.06    6.08
   1  -7   6    3.35    1.88
  -1   7  -6    3.47    1.97
  -1   7  -6    0.31    1.95
   2  -7   6   -1.27    1.76
  -2   7  -6   -2.99    2.00
   3  -7   6   27.80    3.12
  -3   7  -6   26.02    3.14
  -4   7  -6   11.31    3.21
   4  -8  -6   56.33    3.90
   4  -8  -6   55.88    3.78
  -4   8   6   55.63    4.14
   4   8  -6   59.92    4.64
  -3  -8   6   16.51    2.90
   3  -8  -6    9.61    2.14
   3  -8  -6   13.15    2.18
   3   8  -6   12.04    2.89
  -3   8   6   14.53    2.41
   2  -8  -6   79.22    3.32
   2  -8  -6   81.77    3.54
  -2  -8   6   73.58    4.58
  -2   8   6   83.44    3.68
   2   8  -6   73.44    4.21
   1  -8  -6   60.45    2.79
   1  -8  -6   57.09    2.39
   1   8  -6   58.99    3.64
   0  -8  -6   53.20    2.10
   0  -8   6   48.88    3.29
   0  -8  -6   50.62    1.64
   0   8  -6   54.09    3.42
   1  -8   6  137.76    5.51
  -1   8  -6  122.41    5.27
  -2   8  -6    0.38    1.96
   3  -8   6   20.66    3.29
  -3   8  -6   20.73    2.95
  -4   8  -6   20.65    3.71
   4  -9  -6   15.18    2.80
   4  -9  -6    9.44    2.92
   4   9  -6   20.76    3.61
   3  -9  -6  141.81    5.16
   3  -9  -6  134.47    5.40
  -3  -9   6  132.69    6.24
   3   9  -6  131.91    5.98
   2  -9  -6    0.98    1.40
  -2  -9   6    0.94    2.21
   2  -9  -6    0.66    1.76
   2   9  -6    0.56    2.06
   1  -9  -6  108.83    3.59
   1  -9  -6  111.31    3.93
   1   9  -6  106.06    4.86
   0  -9  -6  129.90    3.88
   0  -9   6  130.39    5.28
   0  -9  -6  128.58    3.46
   0   9  -6  134.09    5.30
   1  -9   6   24.52    2.84
  -1   9  -6   20.32    2.65
  -2   9  -6   52.62    3.82
   3  -9   6   44.48    4.27
  -3   9  -6   36.92    3.63
   3 -10  -6    1.02    1.94
   3 -10  -6    1.18    1.87
  -3 -10   6   -0.85    2.89
   3  10  -6    1.84    2.79
   2 -10  -6    8.94    2.14
   2 -10  -6    7.87    1.70
   2  10  -6    3.79    2.63
   1 -10  -6   57.23    2.87
   1 -10  -6   56.10    2.53
   1  10  -6   55.13    3.94
   0 -10  -6    5.13    0.83
   0 -10  -6    6.53    1.26
   0 -10   6    7.71    2.17
   0  10  -6    8.33    2.28
   1 -10   6   51.46    3.83
  -1  10  -6   56.33    4.02
  -2  10  -6   33.12    3.41
   3 -10   6    0.41    3.30
  -3  10  -6   -1.66    2.44
   3 -11  -6    6.87    2.17
  -3 -11   6    2.77    3.08
   3 -11  -6    7.20    2.42
   3  11  -6    3.95    2.96
   2 -11  -6    7.69    2.25
   2 -11  -6   11.62    1.88
   2  11  -6    4.51    2.78
   1 -11  -6    1.00    1.08
   1 -11  -6    2.76    1.55
   1  11  -6    0.98    2.38
   0 -11   6    3.83    2.17
   0 -11  -6   -1.64    1.21
   0 -11  -6    0.69    0.83
   0  11  -6    1.13    2.09
   1 -11   6   10.05    2.56
  -1  11  -6    7.05    2.48
  -2  11  -6    2.29    2.44
   3 -11   6    5.17    3.29
  -3  11  -6    0.23    2.55
   3 -12  -6   -2.63    2.32
   2 -12  -6    2.42    1.62
   2 -12  -6    0.73    2.16
   2  12  -6    3.33    2.86
   1 -12  -6   42.93    2.39
  -1 -12   6   36.66    3.34
   1 -12  -6   39.21    2.81
   1  12  -6   36.31    3.47
   0 -12  -6    3.35    0.97
   0 -12  -6    5.19    1.55
   0 -12   6    2.81    2.24
   0  12  -6    1.73    2.56
   1 -12   6   39.64    3.61
  -1  12  -6   31.20    3.37
  -2  12  -6   15.46    3.12
   2 -13  -6    6.08    1.83
   2 -13  -6    1.09    2.30
   2  13  -6    0.12    2.79
  -1 -13   6   13.34    2.67
   1 -13  -6    8.86    2.04
   1 -13  -6   14.95    1.72
   1  13  -6   11.11    3.05
   0 -13   6  142.81    6.39
   0 -13  -6  151.48    4.23
   0 -13  -6  149.82    4.89
   0  13  -6  139.64    6.27
   1 -13   6   15.93    2.89
  -1  13  -6   16.25    3.02
  -2  13  -6   14.36    3.61
   2 -14  -6   50.97    3.71
  -2 -14   6   53.72    4.18
  -1 -14   6    9.97    2.72
   1 -14  -6   17.20    2.50
   1 -14  -6   13.65    1.76
   1  14  -6   12.03    3.19
   0 -14  -6   15.90    1.39
   0 -14   6   14.08    2.84
   0 -14  -6   12.99    2.01
   0  14  -6   15.06    3.09
  -1  14  -6   82.87    5.19
   1 -15  -6    2.71    2.29
  -1 -15   6    2.60    2.49
   1  15  -6    4.18    2.66
   0 -15  -6   29.04    1.88
   0 -15   6   30.09    3.79
   0 -15  -6   31.65    2.73
   0  15  -6   30.52    3.93
  -1  15  -6   -2.25    2.49
   4   0  -7    3.99    2.15
   3   0  -7    0.94    1.59
   2   0  -7    1.46    1.43
  -2   0   7   -1.40    1.46
   1   0  -7   -0.21    1.12
   1   0  -7    3.45    1.19
  -1   0   7    1.73    1.27
   0   0  -7   -0.29    1.09
   0   0  -7   -1.21    0.89
   0   0   7    1.67    1.25
  -1   0  -7   -1.67    1.32
  -1   0  -7    1.89    1.03
   1   0   7   -0.13    0.91
   2   0   7    1.74    1.02
  -2   0  -7   -0.65    1.27
  -2   0  -7    0.84    1.28
   2   0   7    0.05    0.93
  -3   0  -7    0.51    1.54
  -4   0  -7    6.87    2.17
  -4   0  -7    7.49    2.00
   4  -1  -7   16.79    2.59
   4   1  -7   19.42    2.97
   3  -1  -7    7.95    1.83
   3   1  -7    9.82    1.98
   2  -1  -7    0.09    1.34
  -2  -1   7   -1.45    1.61
   2   1  -7    0.95    1.31
   2   1  -7   -0.16    1.28
  -2   1   7    0.26    1.50
  -1  -1   7   54.03    2.81
   1  -1  -7   52.93    2.42
  -1   1   7   51.80    2.67
   1   1  -7   52.77    2.70
   1   1  -7   49.13    2.63
   0  -1  -7    9.81    1.16
   0  -1  -7    6.16    1.10
   0  -1   7   10.20    1.64
   0   1  -7    7.34    1.47
   0   1   7    7.71    1.20
   0   1  -7    9.17    1.38
  -1  -1  -7    7.33    1.36
   1  -1   7    7.47    1.54
  -1   1  -7    8.60    1.68
   1   1   7    7.82    1.04
   1   1   7    7.61    0.68
  -1   1  -7   10.07    1.37
   2  -1   7   38.46    2.27
  -2  -1  -7   36.21    2.01
  -2  -1  -7   35.22    2.14
   2  -1   7   39.01    2.11
   2   1   7   38.12    1.88
  -2   1  -7   34.67    2.59
  -2   1  -7   34.63    2.57
  -3  -1  -7   11.79    1.84
  -3  -1  -7   12.25    1.66
  -3  -1  -7   12.35    1.47
  -3   1  -7   13.28    2.07
  -4  -1  -7    1.63    1.75
  -4  -1  -7   -1.92    2.02
  -4   1  -7   -1.00    2.09
  -4   1  -7    0.47    2.04
   4  -2  -7    2.95    2.31
   4  -2  -7    2.93    2.04
   4   2  -7    2.45    2.17
  -4   2   7    3.44    2.59
   3  -2  -7  137.31    4.99
   3  -2  -7  133.58    4.91
   3   2  -7  135.06    5.18
  -3   2   7  142.09    5.22
  -2  -2   7   98.64    4.20
   2  -2  -7   96.07    3.70
   2   2  -7   96.72    3.90
  -2   2   7   98.99    4.00
   2   2  -7   95.29    4.09
  -1  -2   7   92.11    3.71
   1  -2  -7   94.62    3.24
  -1   2   7   91.48    3.41
   1   2  -7   89.21    3.58
   1   2  -7   93.92    3.47
   0  -2   7  475.27   12.99
   0  -2  -7  473.69   11.60
   0  -2  -7  456.93   11.55
   0   2  -7  471.84   12.69
   0   2  -7  481.65   12.23
   1  -2   7    1.27    1.40
  -1   2  -7    6.58    1.63
  -2  -2  -7  113.58    3.53
   2  -2   7  114.12    3.96
   2  -2   7  117.13    4.10
  -2   2  -7  109.96    4.26
   2   2   7  110.50    3.28
  -3  -2  -7  159.97    5.05
  -3  -2  -7  156.12    4.75
  -3   2  -7  153.50    5.47
  -4  -2  -7   29.81    2.78
  -4  -2  -7   30.11    2.36
  -4   2  -7   37.94    3.24
   4  -3  -7  150.12    5.82
   4  -3  -7  144.02    5.79
   4   3  -7  154.75    6.16
  -4   3   7  157.17    6.25
   3  -3  -7    1.65    1.67
   3  -3  -7    2.76    1.60
   3   3  -7    3.65    1.84
  -3   3   7    3.40    1.80
  -2  -3   7   37.31    2.88
   2  -3  -7   41.58    2.23
   2  -3  -7   34.55    2.35
   2   3  -7   31.54    2.58
   2   3  -7   36.15    2.69
  -2   3   7   35.09    2.57
  -1  -3   7  450.42   12.58
   1  -3  -7  450.93   11.37
   1   3  -7  454.67   11.93
   1   3  -7  446.43   12.53
  -1   3   7  463.32   12.08
   0  -3  -7   87.16    2.77
   0  -3  -7   91.14    2.84
   0   3  -7   91.27    3.62
   0   3  -7   91.62    3.76
   1  -3   7  237.79    7.43
  -1   3  -7  256.72    7.55
  -1   3  -7  238.63    7.45
  -2  -3  -7   68.29    2.44
   2  -3   7   64.39    3.19
  -2   3  -7   68.37    3.76
  -3  -3  -7   66.70    2.96
  -3   3  -7   58.40    3.91
  -4  -3  -7   45.61    2.54
  -4  -3  -7   44.36    3.40
  -4   3  -7   47.47    3.63
   4  -4  -7    6.73    2.35
   4  -4  -7    3.22    2.17
   4   4  -7    5.15    2.42
  -4   4   7    2.76    2.51
   3  -4  -7    5.40    1.64
   3  -4  -7    1.11    1.86
   3   4  -7    2.30    1.92
  -3   4   7    3.18    1.96
  -2  -4   7   11.05    2.02
   2  -4  -7   11.10    1.46
   2  -4  -7   12.46    1.62
   2   4  -7    9.06    1.86
  -2   4   7   10.87    1.88
   1  -4  -7   13.36    1.44
  -1  -4   7    9.63    1.81
   1   4  -7   14.10    2.00
   1   4  -7    8.36    1.86
  -1   4   7   14.26    1.45
   0  -4  -7   10.07    0.90
   0  -4  -7    8.13    0.92
   0   4  -7    9.74    1.79
   0   4  -7    6.42    1.61
   1  -4   7   13.98    2.25
  -1   4  -7   13.05    1.98
  -1   4  -7    8.71    2.12
  -2  -4  -7   34.32    1.62
   2  -4   7   35.26    2.55
  -2   4  -7   37.71    2.92
  -3  -4  -7   17.50    1.73
  -3   4  -7   18.08    2.59
  -4  -4  -7    8.65    2.18
  -4   4  -7   10.07    2.68
   4  -5  -7    5.98    2.16
   4  -5  -7    2.10    2.42
  -4   5   7    4.90    2.56
   4   5  -7    3.44    2.71
   3  -5  -7    8.77    1.99
   3  -5  -7    5.98    2.10
  -3   5   7    6.92    1.87
   3   5  -7    7.51    2.20
   2  -5  -7   31.23    2.29
  -2  -5   7   32.22    2.86
   2  -5  -7   26.26    2.05
   2   5  -7   33.14    2.66
  -2   5   7   31.80    2.33
   1  -5  -7   30.59    1.81
  -1  -5   7   38.39    2.98
   1  -5  -7   39.75    2.12
   1   5  -7   38.17    2.86
   1   5  -7   41.17    2.91
   0  -5  -7    3.25    0.76
   0  -5  -7    3.89    0.79
   0   5  -7    4.99    1.65
   0   5  -7    4.71    1.75
   1  -5   7  142.98    5.39
  -1   5  -7  138.87    5.27
  -1   5  -7  138.48    5.36
   2  -5   7   -2.03    1.93
  -2   5  -7   -1.12    1.97
  -3  -5  -7    5.05    1.44
  -3   5  -7    4.54    2.27
  -4  -5  -7    6.70    2.08
  -4   5  -7    6.94    2.85
   4  -6  -7    0.17    1.99
   4  -6  -7    2.11    2.16
  -4   6   7    1.23    2.15
   4   6  -7    1.79    2.73
   3  -6  -7   35.11    2.92
   3  -6  -7   29.35    2.52
  -3   6   7   43.22    3.05
   3   6  -7   32.40    3.03
  -2  -6   7   12.25    2.32
   2  -6  -7   12.42    1.61
   2  -6  -7    9.91    1.90
  -2   6   7   12.40    1.80
   2   6  -7   11.92    2.20
   1  -6  -7   30.34    1.74
  -1  -6   7   36.65    3.09
   1  -6  -7   28.13    2.07
   1   6  -7   34.12    2.71
   1   6  -7   33.79    2.78
   0  -6  -7   26.81    1.48
   0  -6  -7   29.80    1.47
   0   6  -7   27.60    2.64
   0   6  -7   33.08    2.77
   1  -6   7   17.34    2.43
  -1   6  -7   24.07    2.59
  -1   6  -7   16.21    2.56
  -2   6  -7   27.55    3.01
   3  -6   7   24.61    3.03
  -3   6  -7   19.46    3.02
  -4   6  -7    1.17    2.74
   4  -7  -7   67.31    4.43
   4  -7  -7   61.72    4.24
   4   7  -7   76.07    5.21
   3  -7  -7    4.06    1.74
   3  -7  -7    8.05    2.17
   3   7  -7    7.31    2.43
  -3   7   7   11.32    2.48
   2  -7  -7  129.26    4.60
   2  -7  -7  125.62    4.40
  -2  -7   7  129.35    5.67
   2   7  -7  130.32    5.30
  -2   7   7  136.71    4.67
  -1  -7   7  111.48    5.27
   1  -7  -7  119.39    3.83
   1  -7  -7  102.77    3.46
   1   7  -7  114.45    4.83
   0  -7  -7    9.31    0.99
   0  -7   7    9.16    2.03
   0   7  -7   10.87    2.29
   1  -7   7  155.01    6.04
  -1   7  -7  158.72    5.93
  -2   7  -7   38.62    3.51
   3  -7   7   20.80    2.98
  -3   7  -7   16.51    3.17
   4  -8  -7    5.14    2.30
   4  -8  -7    8.06    2.82
   4   8  -7    4.12    3.05
   3  -8  -7   61.23    3.74
   3  -8  -7   64.74    3.49
   3   8  -7   65.32    4.67
  -2  -8   7   20.34    2.84
   2  -8  -7   18.59    2.08
   2  -8  -7   17.41    1.88
   2   8  -7   23.62    3.06
   1  -8  -7   13.91    1.34
   1  -8  -7   14.86    1.67
   1   8  -7   13.55    2.38
   0  -8  -7  231.05    5.99
   0  -8   7  223.29    7.53
   0   8  -7  235.34    7.67
   1  -8   7    5.44    2.23
  -1   8  -7    3.85    2.07
  -2   8  -7   24.29    3.01
   3  -8   7   33.93    3.76
  -3   8  -7   43.33    4.04
   3  -9  -7   17.18    2.43
   3  -9  -7   20.12    2.68
   3   9  -7   18.55    3.40
   2  -9  -7   40.09    3.03
   2  -9  -7   39.65    2.58
  -2  -9   7   46.80    3.84
   2   9  -7   41.91    3.79
   1  -9  -7    7.13    1.54
   1  -9  -7    7.41    1.25
   1   9  -7    1.51    2.05
   0  -9  -7   12.62    1.31
   0  -9   7   10.98    2.29
   0   9  -7   12.26    2.44
   1  -9   7   75.00    4.45
  -1   9  -7   74.36    4.68
  -2   9  -7    1.65    2.36
   3  -9   7    3.68    2.75
  -3   9  -7    2.49    2.57
   3 -10  -7   53.84    3.31
   3 -10  -7   52.94    3.76
   3  10  -7   61.43    4.73
   2 -10  -7   28.04    2.40
   2 -10  -7   31.79    2.59
   2  10  -7   28.44    3.56
   1 -10  -7   48.55    2.28
   1 -10  -7   48.69    2.71
   1  10  -7   49.13    3.93
   0 -10   7   93.39    4.72
   0 -10  -7   91.63    3.14
   0  10  -7   81.93    4.59
   1 -10   7    9.62    2.57
  -1  10  -7    5.52    2.38
  -2  10  -7   82.94    5.37
   3 -10   7    1.25    3.04
  -3  10  -7    1.72    3.11
   3 -11  -7   12.09    2.14
   3 -11  -7   13.07    2.66
   3  11  -7   15.00    3.55
   2 -11  -7   97.00    4.28
   2 -11  -7   86.43    3.74
   2  11  -7   80.14    5.37
   1 -11  -7    5.68    1.26
   1 -11  -7    9.71    1.84
   1  11  -7    4.65    2.32
   0 -11  -7    4.93    1.35
   0 -11   7    6.73    2.40
   0  11  -7    6.48    2.43
  -1  11  -7   57.30    4.15
  -2  11  -7   -2.13    2.86
   3 -11   7   10.22    4.13
  -3  11  -7   -1.86    2.81
   2 -12  -7   13.51    2.31
   2 -12  -7    8.78    1.79
   2  12  -7   11.72    3.05
  -1 -12   7   13.51    2.74
   1 -12  -7   22.58    2.21
   1 -12  -7   23.03    1.85
   1  12  -7   23.52    3.20
   0 -12  -7   32.00    2.35
   0 -12   7   27.32    3.30
   0  12  -7   33.49    3.74
  -1  12  -7   13.11    2.92
  -2  12  -7   41.70    4.18
   2 -13  -7   13.82    2.59
   2  13  -7    5.67    2.77
  -1 -13   7   26.44    3.19
   1 -13  -7   28.51    2.47
   1 -13  -7   23.59    1.94
   1  13  -7   21.79    3.62
   0 -13   7    5.16    2.54
   0 -13  -7    0.78    1.47
   0  13  -7    0.56    2.41
  -1  13  -7   17.93    3.20
  -2  13  -7    8.97    3.21
   1 -14  -7   10.03    2.32
  -1 -14   7   11.22    2.89
   1 -14  -7   14.50    1.72
   1  14  -7    9.61    2.99
   0 -14  -7   22.00    2.18
   0  14  -7   24.23    3.45
  -1  14  -7    2.02    2.65
   4   0  -8   48.90    3.90
   3   0  -8    1.60    1.98
   2   0  -8  204.04    6.34
  -1   0   8   76.78    3.40
   1   0  -8   78.85    3.31
   1   0  -8   72.93    3.19
   0   0  -8    1.80    1.30
   0   0  -8    1.67    1.15
   0   0   8    1.19    1.54
  -1   0  -8  287.20    8.18
   1   0   8  292.79    7.88
  -1   0  -8  279.00    7.80
  -2   0  -8    1.39    1.44
  -2   0  -8    2.08    1.33
  -3   0  -8    0.13    1.56
  -4   0  -8   97.69    4.17
  -4   0  -8   93.22    4.76
   4  -1  -8    8.91    2.43
   4   1  -8    9.30    2.52
   3  -1  -8  110.06    4.57
   3   1  -8  100.08    4.68
   2  -1  -8   10.89    1.62
   2   1  -8    8.79    1.67
  -1  -1   8    6.50    1.63
   1  -1  -8    6.16    1.34
   1   1  -8    8.66    1.58
   1   1  -8   10.06    1.60
  -1   1   8    7.39    1.56
   0  -1   8  317.96    9.50
   0  -1  -8  332.91    8.84
   0  -1  -8  330.59    8.64
   0   1  -8  339.73    9.04
   0   1  -8  327.41    9.18
   1  -1   8    6.28    1.76
  -1  -1  -8    9.70    1.62
  -1  -1  -8    8.99    1.07
  -1   1  -8   10.74    1.58
   1   1   8   10.30    1.21
  -1   1  -8    9.52    2.00
  -2  -1  -8   21.33    1.66
  -2  -1  -8   20.27    1.68
  -2   1  -8   25.56    2.22
  -2   1  -8   21.51    2.28
  -3  -1  -8   69.16    2.87
  -3  -1  -8   70.12    3.10
  -3  -1  -8   67.98    3.34
  -3   1  -8   70.91    3.71
  -4  -1  -8    6.97    2.01
  -4  -1  -8    7.84    1.83
  -4   1  -8    6.20    2.36
  -4   1  -8    4.71    2.05
   4  -2  -8    9.37    2.37
   4   2  -8    8.98    2.87
   3  -2  -8   20.70    2.34
   3   2  -8   22.19    2.77
   2  -2  -8    2.77    1.51
   2   2  -8   -1.72    1.43
  -1  -2   8    6.92    1.53
   1  -2  -8    7.47    1.40
   1   2  -8    8.79    1.54
  -1   2   8    7.96    1.46
   1   2  -8    4.43    1.51
   0  -2  -8   67.46    2.70
   0  -2   8   78.55    3.94
   0  -2  -8   73.00    2.75
   0   2  -8   77.02    3.34
   0   2  -8   71.06    3.38
  -1  -2  -8   23.66    1.82
   1  -2   8   25.24    2.41
  -1   2  -8   24.57    2.11
   1   2   8   25.50    1.48
  -1   2  -8   24.83    2.46
  -2  -2  -8    9.98    1.29
  -2   2  -8   11.05    1.90
  -2   2  -8    8.70    1.92
  -3  -2  -8    6.22    1.67
  -3   2  -8    5.58    1.98
  -4  -2  -8   10.81    1.69
  -4  -2  -8   13.04    2.35
  -4   2  -8   12.99    2.79
   4  -3  -8    4.26    2.14
   4  -3  -8    6.71    2.23
   4   3  -8    3.09    2.33
  -4   3   8    9.31    2.83
   3  -3  -8    9.36    1.89
   3  -3  -8   14.89    2.29
   3   3  -8   13.97    2.62
   2  -3  -8   35.77    2.57
   2   3  -8   36.76    2.81
   1  -3  -8   11.34    1.40
  -1  -3   8    9.14    1.96
   1   3  -8    8.88    1.59
   1   3  -8    8.81    1.67
   0  -3  -8  127.97    3.76
   0  -3  -8  118.94    3.65
   0   3  -8  125.91    4.76
   0   3  -8  126.43    4.72
   1  -3   8   52.62    3.46
  -1  -3  -8   45.81    2.09
  -1   3  -8   41.85    2.96
  -1   3  -8   46.25    3.17
  -2  -3  -8   15.26    1.25
   2  -3   8   10.32    1.80
  -2   3  -8   13.31    2.45
  -2   3  -8   16.29    2.27
  -3  -3  -8   55.86    2.79
  -3   3  -8   56.84    3.91
  -4  -3  -8    0.09    1.99
  -4   3  -8    0.38    2.60
   4  -4  -8   51.94    4.07
   4  -4  -8   61.14    4.12
   4   4  -8   59.59    4.26
  -4   4   8   68.76    4.85
   3  -4  -8   35.87    2.70
   3  -4  -8   40.14    2.95
   3   4  -8   41.69    3.44
  -3   4   8   36.61    3.08
   2  -4  -8   78.02    3.26
   2  -4  -8   73.25    3.41
   2   4  -8   77.59    3.83
   1  -4  -8  132.55    4.11
  -1  -4   8  122.23    5.08
   1   4  -8  134.13    4.83
   1   4  -8  127.05    4.99
   0  -4  -8   30.78    1.68
   0  -4  -8   30.65    1.65
   0   4  -8   32.31    2.66
   0   4  -8   33.93    2.59
   1  -4   8  165.33    6.06
  -1   4  -8  165.27    6.12
  -1   4  -8  173.72    5.91
   2  -4   8  107.53    4.37
  -2   4  -8  116.92    5.10
  -2   4  -8  111.42    4.95
  -3  -4  -8    6.88    1.49
  -3   4  -8    1.57    2.46
  -4  -4  -8   71.04    3.79
  -4   4  -8   64.65    4.64
   4  -5  -8    4.28    2.40
   4  -5  -8    0.68    2.15
   4   5  -8    4.61    2.82
  -4   5   8    1.55    2.66
   3  -5  -8  120.43    4.84
   3  -5  -8  121.48    4.96
   3   5  -8  126.52    5.55
  -3   5   8  130.22    5.28
   2  -5  -8    7.83    1.56
   2  -5  -8    8.68    1.72
   2   5  -8    6.64    2.03
   1  -5  -8   50.69    2.51
  -1  -5   8   49.23    3.43
   1   5  -8   46.76    3.22
   0  -5  -8  206.14    5.41
   0   5  -8  213.09    6.88
   0   5  -8  198.54    6.87
   1  -5   8    8.08    2.31
  -1   5  -8    4.39    1.93
  -1   5  -8   11.51    2.34
   2  -5   8   46.47    3.59
  -2   5  -8   48.28    3.47
  -3  -5  -8   23.15    1.75
  -3   5  -8   22.06    3.09
  -4   5  -8    0.40    2.67
   4  -6  -8    6.21    2.50
   4  -6  -8   10.37    2.81
   4   6  -8   10.38    2.86
   3  -6  -8    7.77    2.05
   3  -6  -8    8.01    2.23
   3   6  -8    9.86    2.78
   2  -6  -8   20.80    2.27
   2  -6  -8   22.81    1.99
   2   6  -8   23.70    2.69
  -1  -6   8   20.08    2.57
   1  -6  -8   21.08    1.74
   1   6  -8   19.77    2.41
   0  -6  -8    7.06    0.95
   0   6  -8    5.13    2.14
  -1   6  -8   71.42    4.29
  -2   6  -8    2.57    2.21
  -3   6  -8    7.88    2.82
   3  -7  -8    0.54    2.04
   3  -7  -8    3.13    1.95
   3   7  -8    1.62    2.61
   2  -7  -8    4.11    1.65
   2  -7  -8    2.82    1.42
   2   7  -8    3.73    2.48
   1  -7  -8   51.99    2.22
   1  -7  -8   51.15    2.61
   1   7  -8   54.52    3.70
   0  -7  -8   -0.37    0.87
   0  -7   8   -0.14    1.80
   0   7  -8    0.87    2.03
  -1   7  -8    7.81    2.17
  -2   7  -8   18.46    3.18
  -3   7  -8    0.35    2.75
   3  -8  -8   16.38    2.40
   3  -8  -8   11.51    2.43
   3   8  -8   12.35    3.16
   2  -8  -8   10.74    1.91
   2  -8  -8   10.82    1.72
   2   8  -8   11.79    2.66
   1  -8  -8  172.09    5.10
   1  -8  -8  160.74    4.76
   1   8  -8  162.02    6.24
   0  -8  -8    6.09    1.07
   0  -8   8    3.72    2.07
   0   8  -8    5.09    2.17
  -2   8  -8  107.53    5.41
  -3   8  -8   18.97    3.24
   3  -9  -8   33.94    2.77
   3  -9  -8   29.04    3.05
   3   9  -8   33.68    4.06
   2  -9  -8  122.99    4.54
   2  -9  -8  127.25    4.84
   2   9  -8  124.44    5.80
   1  -9  -8   32.06    1.92
   1  -9  -8   37.26    2.49
   1   9  -8   32.09    3.21
   0  -9  -8   90.48    2.97
   0  -9   8   95.74    4.72
   0   9  -8   87.72    4.68
  -1   9  -8   85.93    5.07
  -2   9  -8   51.96    4.47
  -3   9  -8   56.13    4.57
   3 -10  -8   -0.40    1.91
   3 -10  -8    4.36    2.54
   3  10  -8   -2.65    2.51
   2 -10  -8   34.24    2.51
   2 -10  -8   36.14    2.73
   2  10  -8   27.72    3.42
   1 -10  -8   33.14    2.02
   1 -10  -8   32.13    2.30
   1  10  -8   25.49    3.52
   0 -10  -8   17.28    1.47
   0 -10   8   13.61    2.67
   0  10  -8   17.75    3.16
  -1  10  -8   39.54    3.67
  -2  10  -8   -4.74    2.89
  -3  10  -8    3.88    3.01
   2 -11  -8    3.25    2.10
   2 -11  -8    1.62    1.69
   2  11  -8    3.40    3.04
   1 -11  -8    2.70    1.26
   1 -11  -8    0.64    1.61
   1  11  -8    1.20    2.33
   0 -11  -8    4.48    1.33
   0  11  -8    2.10    2.35
  -1  11  -8    2.71    2.52
  -2  11  -8   -0.67    3.05
   2 -12  -8   24.09    2.77
   2 -12  -8   21.08    2.28
   2  12  -8   17.53    3.40
   1 -12  -8   29.58    2.48
   1 -12  -8   29.52    1.96
   1  12  -8   27.97    3.45
   0 -12  -8   63.99    2.87
   0  12  -8   61.92    4.57
  -1  12  -8    4.04    2.59
  -2  12  -8   -2.31    3.15
   1 -13  -8   47.88    3.19
   1 -13  -8   44.06    2.35
   1  13  -8   42.54    4.06
   0  13  -8   34.70    4.05
  -1  13  -8   15.32    3.25
   0  14  -8    0.29    2.63
   4   0  -9   11.44    2.87
   3   0  -9   -0.05    1.77
   2   0  -9    3.17    1.75
   1   0  -9   -2.23    1.43
   1   0  -9    0.43    1.54
   0   0  -9    0.68    1.24
   0   0  -9   -0.91    1.42
  -1   0  -9    0.07    1.16
  -1   0  -9   -0.32    1.91
  -2   0  -9   -2.16    1.52
  -2   0  -9   -0.81    1.30
  -3   0  -9    0.40    1.58
  -3   0  -9   -0.26    1.74
  -4   0  -9   12.43    2.51
   4  -1  -9   58.61    4.25
   4   1  -9   54.64    4.02
   3  -1  -9   20.50    2.47
   3   1  -9   22.44    2.80
   2  -1  -9   80.11    3.75
   2   1  -9   81.72    3.77
   1  -1  -9  119.15    4.33
   1   1  -9  117.86    4.43
   1   1  -9  121.53    4.56
   0  -1  -9    5.70    1.43
   0  -1  -9    8.11    1.37
   0   1  -9    6.16    1.69
   0   1  -9    7.25    1.86
  -1  -1  -9  199.49    6.21
  -1  -1  -9  194.59    5.36
  -1   1  -9  199.22    6.63
  -1   1  -9  184.56    5.92
  -2  -1  -9   41.15    2.61
  -2   1  -9   41.37    2.84
  -2   1  -9   43.23    2.76
  -3  -1  -9   18.93    1.64
  -3  -1  -9   16.86    1.51
  -3  -1  -9   16.36    2.04
  -3   1  -9   19.54    2.38
  -3   1  -9   23.61    2.45
  -4  -1  -9   29.04    2.83
  -4  -1  -9   27.14    2.04
  -4  -1  -9   27.51    2.22
  -4   1  -9   28.87    2.74
  -4   1  -9   29.20    3.31
   4  -2  -9   -1.31    2.36
   4   2  -9    0.72    2.32
   3  -2  -9   22.98    2.64
   3   2  -9   18.95    2.58
   2  -2  -9  124.28    4.57
   2   2  -9  119.14    4.72
   1  -2  -9   55.26    2.92
   1   2  -9   60.28    3.16
   1   2  -9   65.75    3.56
   0  -2  -9   22.70    1.81
   0   2  -9   20.93    2.40
   0   2  -9   20.64    2.14
  -1  -2  -9  173.75    5.21
  -1   2  -9  156.97    5.96
  -1   2  -9  161.00    5.53
  -2  -2  -9   47.77    2.42
  -2   2  -9   47.89    3.66
  -2   2  -9   47.59    3.00
  -3  -2  -9   29.77    2.22
  -3   2  -9   27.41    2.85
   4  -3  -9    0.19    2.47
   4   3  -9    0.57    2.78
   3  -3  -9   52.97    3.54
   3   3  -9   51.44    3.66
   2  -3  -9   32.13    2.54
   2   3  -9   33.94    2.70
   1  -3  -9   45.82    2.60
   1   3  -9   43.43    2.94
   1   3  -9   47.44    3.19
   0  -3  -9   25.78    1.77
   0   3  -9   30.11    2.59
   0   3  -9   25.11    2.31
  -1  -3  -9   38.30    2.26
  -1   3  -9   40.48    3.27
  -1   3  -9   41.30    2.96
  -2  -3  -9   38.59    2.06
  -2   3  -9   45.07    3.22
  -2   3  -9   37.84    3.35
  -3  -3  -9    1.14    1.41
  -3   3  -9    0.25    2.29
   4  -4  -9    5.97    2.31
   4   4  -9    6.49    2.60
   3  -4  -9   15.00    2.42
   3   4  -9   12.35    2.54
   2  -4  -9   59.11    3.33
   2   4  -9   58.32    3.64
   1  -4  -9   31.11    2.23
   1   4  -9   29.92    2.61
   0  -4  -9   36.57    2.08
   0   4  -9   45.07    3.34
   0   4  -9   38.62    3.05
  -1   4  -9   26.80    2.93
  -1   4  -9   30.12    2.63
  -2   4  -9   74.43    4.81
  -3   4  -9    1.24    2.56
   4  -5  -9   12.91    2.95
   4  -5  -9   12.63    2.57
   4   5  -9   12.52    2.97
   3  -5  -9    1.50    1.70
   3  -5  -9    2.15    2.02
   3   5  -9   -0.84    2.43
   2  -5  -9    2.27    1.54
   2   5  -9   -0.72    1.87
   1  -5  -9   31.01    2.31
   1   5  -9   34.89    2.88
   0  -5  -9    0.02    0.99
   0   5  -9    1.03    1.75
  -1   5  -9    6.19    2.32
  -2   5  -9    6.77    2.99
  -3   5  -9    3.76    2.63
   3  -6  -9  144.74    5.38
   3  -6  -9  137.96    5.47
   3   6  -9  135.63    6.00
   2  -6  -9   69.88    3.59
   2   6  -9   72.55    4.21
   1  -6  -9   14.21    1.65
   1   6  -9   14.55    2.71
   0  -6  -9  289.48    7.43
   0   6  -9  293.22    8.95
  -1   6  -9   23.72    3.01
  -2   6  -9   53.74    4.27
  -3   6  -9   84.65    5.39
   3  -7  -9   19.77    2.79
   3  -7  -9   22.80    2.62
   3   7  -9   25.42    3.27
   2  -7  -9   16.79    2.16
   2  -7  -9   22.41    2.07
   2   7  -9   21.72    2.93
   1  -7  -9  105.78    3.71
   1   7  -9   93.76    4.78
   0  -7  -9   14.38    1.24
   0   7  -9   15.52    2.74
  -1   7  -9   85.03    5.00
  -2   7  -9   42.23    4.18
  -3   7  -9   -0.35    3.05
   3  -8  -9    3.31    1.75
   3  -8  -9   -0.04    2.14
   3   8  -9   -0.91    2.47
   2  -8  -9   23.68    2.14
   2  -8  -9   31.24    2.66
   2   8  -9   28.15    3.61
   1  -8  -9    3.31    1.46
   1   8  -9    0.36    2.09
   0  -8  -9    9.21    1.15
   0   8  -9    8.57    2.38
  -1   8  -9   14.86    3.08
  -2   8  -9   -4.81    2.38
  -3   8  -9    3.45    2.83
   3  -9  -9   23.10    2.86
   3   9  -9   12.29    3.61
   2  -9  -9   22.76    2.51
   2  -9  -9   21.69    2.04
   2   9  -9   19.91    3.24
   1  -9  -9    0.38    1.46
   1   9  -9   -2.08    2.19
   0  -9  -9    1.60    1.00
   0   9  -9    1.30    2.16
  -1   9  -9    3.02    2.41
  -2   9  -9   -0.67    2.90
   2 -10  -9    5.38    1.74
   2 -10  -9    6.31    2.12
   2  10  -9    4.37    2.98
   1 -10  -9   11.20    1.82
   1  10  -9    7.20    2.70
   0 -10  -9  114.84    3.62
   0  10  -9  120.83    5.89
  -1  10  -9    0.14    2.43
  -2  10  -9   10.24    3.58
   2 -11  -9   31.45    2.46
   2 -11  -9   30.39    2.86
   2  11  -9   31.61    3.80
   1 -11  -9  191.80    6.01
   1  11  -9  197.66    7.52
   0  11  -9    1.57    2.42
  -1  11  -9   95.03    5.66
  -2  11  -9   44.89    4.75
   1 -12  -9    5.09    1.87
   1  12  -9    2.49    2.63
   0  12  -9   97.59    5.89
  -1  12  -9   -0.15    2.96
   1 -13  -9    4.62    2.03
   1  13  -9    1.86    2.71
   0  13  -9    5.72    2.83
   4   0 -10   85.52    5.09
   3   0 -10   61.58    3.72
   2   0 -10    0.26    1.83
   1   0 -10  400.20   11.08
   1   0 -10  379.15   10.62
   0   0 -10    5.95    1.82
   0   0 -10    6.63    1.58
  -2   0 -10  341.42    9.37
  -2   0 -10  354.20    9.65
  -3   0 -10    4.15    1.97
  -3   0 -10    2.88    1.52
   4  -1 -10    1.55    2.71
   4   1 -10    4.10    2.84
   3  -1 -10   10.71    2.24
   3   1 -10   14.08    2.70
   2  -1 -10   64.28    3.59
   2   1 -10   67.67    3.79
   1  -1 -10    4.06    1.72
   1   1 -10    4.77    2.05
   1   1 -10    4.27    1.93
   0  -1 -10   97.78    3.98
   0  -1 -10  100.60    3.65
   0   1 -10   95.77    4.30
   0   1 -10   93.43    3.93
  -1  -1 -10   16.45    1.31
  -1  -1 -10   12.10    2.25
  -1   1 -10   12.89    1.86
  -1   1 -10   15.75    2.45
  -2  -1 -10    4.39    1.55
  -2   1 -10    3.47    1.65
  -2   1 -10    2.20    1.93
  -3  -1 -10   42.70    2.80
  -3   1 -10   36.00    2.87
  -3   1 -10   37.81    3.08
   3  -2 -10   20.53    2.76
   3   2 -10   18.96    2.73
   2  -2 -10    0.71    1.66
   2   2 -10    1.99    1.74
   1  -2 -10    4.85    1.70
   1   2 -10    2.61    1.86
   0  -2 -10   20.91    1.95
   0   2 -10   20.98    2.62
   0   2 -10   25.23    2.38
  -1  -2 -10   -4.08    1.60
  -1   2 -10    0.87    1.50
  -1   2 -10   -0.82    2.13
  -2  -2 -10    1.13    1.29
  -2   2 -10    2.00    1.84
  -2   2 -10   -0.22    2.17
  -3  -2 -10   10.37    1.80
  -3   2 -10   10.25    2.50
   3  -3 -10   28.93    2.93
   3   3 -10   27.85    3.03
   2  -3 -10    3.22    1.97
   2   3 -10    2.42    1.83
   1  -3 -10    3.74    1.54
   1   3 -10    4.08    2.05
   0  -3 -10   44.59    2.53
   0   3 -10   46.82    3.26
   0   3 -10   51.10    3.23
  -1  -3 -10    1.06    1.35
  -1   3 -10    1.14    2.08
  -1   3 -10    1.70    1.75
  -2  -3 -10    2.88    1.10
  -2   3 -10   -0.92    2.45
  -3   3 -10    2.06    2.45
   3  -4 -10    7.08    2.32
   3   4 -10    6.58    2.38
   2  -4 -10   20.50    2.22
   2   4 -10   19.46    2.83
   1  -4 -10  110.77    4.03
   1   4 -10  109.35    4.80
   0  -4 -10   -1.60    1.26
   0   4 -10   -0.97    2.01
  -1   4 -10   36.75    3.35
  -2   4 -10   68.38    4.69
  -3   4 -10    1.19    2.75
   3  -5 -10    6.64    2.28
   3   5 -10    7.77    2.62
   2  -5 -10  200.99    6.36
   2   5 -10  188.12    6.94
   0  -5 -10  130.33    4.09
   0   5 -10  134.53    5.61
  -1   5 -10  121.26    5.60
  -2   5 -10    8.99    3.07
  -3   5 -10  119.48    6.34
   3  -6 -10   -0.68    2.33
   3   6 -10   -0.38    2.41
   2  -6 -10    3.61    1.89
   2   6 -10    2.74    2.31
   1  -6 -10   76.81    3.25
   1   6 -10   70.68    4.28
   0  -6 -10    0.12    1.14
   0   6 -10    5.95    2.47
  -1   6 -10    1.74    2.41
  -2   6 -10   53.26    4.61
  -3   6 -10    3.03    3.43
   3  -7 -10    5.97    2.32
   3   7 -10    6.94    2.76
   2  -7 -10   13.52    2.23
   2   7 -10   16.91    2.89
   1  -7 -10   12.21    1.75
   1   7 -10   11.36    2.58
   0  -7 -10   31.26    1.91
   0   7 -10   31.57    3.09
  -1   7 -10   17.91    3.18
  -2   7 -10   -2.51    2.87
  -3   7 -10   11.48    3.71
   3  -8 -10   30.95    3.15
   3   8 -10   40.80    4.13
   2  -8 -10   55.43    3.48
   2   8 -10   61.85    4.53
   1  -8 -10   14.71    1.77
   1   8 -10   16.33    2.88
   0  -8 -10   24.34    1.57
   0   8 -10   24.76    3.01
  -1   8 -10   62.71    4.68
  -2   8 -10    4.49    3.23
   2  -9 -10   27.57    2.70
   2   9 -10   23.40    3.41
   1  -9 -10    6.43    1.75
   1   9 -10    6.53    2.83
   0   9 -10   63.32    4.33
  -1   9 -10   22.80    3.25
  -2   9 -10   33.40    4.31
   2 -10 -10   -1.54    1.97
   2  10 -10   -0.42    3.03
   1 -10 -10   74.29    3.46
   1  10 -10   64.39    4.88
   0  10 -10   45.62    4.19
  -1  10 -10   32.09    3.96
  -2  10 -10   26.33    3.91
   1 -11 -10   -0.77    1.61
   1  11 -10   -4.05    2.75
   0  11 -10    0.29    2.48
  -1  11 -10    1.92    2.65
   1 -12 -10   24.69    2.46
   1  12 -10   28.91    3.96
   0  12 -10   80.37    5.59
   3   0 -11   -0.09    2.31
   2   0 -11   -0.28    1.96
   1   0 -11   -2.63    1.89
   0   0 -11   -0.79    1.54
   0   0 -11    2.38    1.87
  -1   0 -11   -5.98    1.97
  -1   0 -11   -1.46    1.28
  -2   0 -11   -0.39    1.83
  -2   0 -11   -0.03    1.17
  -3   0 -11   -1.57    1.83
   3  -1 -11   16.67    2.87
   3   1 -11   14.93    2.60
   2  -1 -11   11.82    2.28
   2   1 -11    9.12    2.35
   1  -1 -11   31.77    2.64
   1   1 -11   24.72    2.68
   0  -1 -11   52.70    3.43
   0   1 -11   52.82    3.70
   0   1 -11   57.14    3.27
  -1  -1 -11   12.55    2.34
  -1   1 -11    9.65    1.82
  -1   1 -11   11.75    2.53
  -2  -1 -11    0.15    1.62
  -2   1 -11    0.77    2.21
  -2   1 -11    3.56    1.66
  -3  -1 -11   38.71    2.75
  -3   1 -11   37.51    3.19
  -3   1 -11   33.33    2.48
   3  -2 -11   97.22    4.82
   3   2 -11   96.59    4.83
   2  -2 -11   73.29    3.83
   2   2 -11   69.04    4.16
   1  -2 -11    9.58    1.98
   1   2 -11    7.09    2.25
   0  -2 -11  231.22    6.89
   0   2 -11  236.88    7.56
   0   2 -11  219.03    7.31
  -1  -2 -11   37.32    2.64
  -1   2 -11   37.12    3.37
  -1   2 -11   36.94    2.79
  -2  -2 -11    3.70    1.43
  -2   2 -11    1.92    1.83
  -2   2 -11    2.65    2.41
  -3   2 -11   88.07    4.74
   3  -3 -11   33.61    3.29
   3   3 -11   40.44    3.74
   2  -3 -11   17.39    2.53
   2   3 -11   15.85    2.82
   1  -3 -11  132.43    4.81
   1   3 -11  133.32    5.56
   0  -3 -11   23.50    2.19
   0   3 -11   26.00    2.84
  -1  -3 -11   96.36    3.77
  -1   3 -11   97.83    5.12
  -2   3 -11   37.02    3.77
  -3   3 -11   -3.78    2.66
   3  -4 -11    0.51    2.20
   3   4 -11   -1.52    2.26
   2  -4 -11   10.11    2.10
   2   4 -11   10.86    2.54
   1  -4 -11   88.92    3.78
   1   4 -11   68.07    4.45
   0  -4 -11   24.00    2.00
   0   4 -11   21.42    3.10
  -1  -4 -11    2.90    1.26
  -1   4 -11    3.25    2.64
  -2   4 -11   31.87    3.72
  -3   4 -11    7.59    3.07
   3  -5 -11   28.47    2.99
   3   5 -11   21.04    3.26
   2  -5 -11    8.78    2.03
   2   5 -11   10.85    2.91
   1  -5 -11   32.16    2.42
   1   5 -11   27.42    3.27
   0  -5 -11    0.23    1.41
   0   5 -11    2.47    2.37
  -1   5 -11   16.04    2.97
  -2   5 -11   10.70    3.37
   3  -6 -11    1.06    2.16
   3   6 -11    2.20    2.66
   2  -6 -11   56.47    3.45
   2   6 -11   47.43    3.92
   1  -6 -11   14.27    1.96
   1   6 -11   14.10    2.93
   0  -6 -11   10.28    1.52
   0   6 -11   11.07    2.80
  -1   6 -11   65.33    4.67
  -2   6 -11    2.85    3.11
   2  -7 -11    0.27    1.89
   2   7 -11    2.23    2.50
   1  -7 -11  110.30    4.09
   1   7 -11  101.48    5.50
   0   7 -11   22.04    2.97
  -1   7 -11   23.20    3.07
  -2   7 -11   69.99    5.26
   2  -8 -11    8.97    2.32
   2   8 -11   13.82    3.13
   1  -8 -11    2.56    1.65
   1   8 -11    2.94    2.82
   0   8 -11   91.02    5.23
  -1   8 -11    2.79    2.88
  -2   8 -11   -1.68    3.15
   2  -9 -11    4.45    2.15
   2   9 -11    7.14    3.27
   1  -9 -11   16.97    2.09
   1   9 -11   14.56    3.42
   0   9 -11    5.47    2.64
  -1   9 -11    6.64    2.90
   1 -10 -11   25.00    2.27
   1  10 -11   12.56    2.97
   0  10 -11   11.73    2.96
  -1  10 -11   59.81    4.90
   0  11 -11   26.49    3.98
   3   0 -12   51.42    4.04
   2   0 -12   34.37    3.17
   1   0 -12   12.46    2.54
   0   0 -12   76.51    4.08
   0   0 -12   64.88    3.48
  -1   0 -12   27.47    2.17
  -1   0 -12   32.89    3.04
  -2   0 -12   27.77    2.71
   3  -1 -12    1.84    2.48
   3   1 -12    2.71    2.29
   2  -1 -12   83.97    4.51
   2   1 -12   79.90    4.42
   1  -1 -12   13.14    2.37
   1   1 -12   14.51    2.67
   0  -1 -12   36.62    2.90
   0   1 -12   33.98    3.14
  -1  -1 -12   85.76    4.39
  -1   1 -12   89.17    3.69
  -1   1 -12   86.16    4.82
  -2  -1 -12    4.90    1.91
  -2   1 -12    9.08    1.76
  -2   1 -12   13.71    2.64
   3  -2 -12   35.30    3.42
   3   2 -12   32.76    3.43
   2  -2 -12    1.21    2.24
   2   2 -12   -1.13    2.36
   1  -2 -12    4.98    2.26
   1   2 -12    3.44    2.28
   0  -2 -12   49.41    3.51
   0   2 -12   49.24    3.75
  -1  -2 -12    9.59    2.09
  -1   2 -12   11.14    2.80
  -2   2 -12   -0.28    2.67
   3  -3 -12   -0.74    2.33
   3   3 -12    5.95    2.59
   2  -3 -12   69.81    4.08
   2   3 -12   71.65    4.58
   1  -3 -12   25.28    2.60
   1   3 -12   16.63    2.89
   0  -3 -12   62.00    3.54
   0   3 -12   64.31    4.23
  -1  -3 -12   39.79    2.86
  -1   3 -12   35.76    3.65
  -2   3 -12    4.11    2.90
   2  -4 -12    0.78    2.13
   2   4 -12    3.05    2.67
   1  -4 -12  106.60    4.43
   1   4 -12  102.27    5.28
   0  -4 -12   97.06    4.00
   0   4 -12  102.60    5.14
  -1   4 -12   24.00    3.39
  -2   4 -12   82.29    5.71
   2  -5 -12   23.11    2.71
   2   5 -12   18.60    3.08
   1  -5 -12   -0.11    1.77
   1   5 -12    6.34    2.71
   0  -5 -12    5.14    1.79
   0   5 -12    7.05    2.73
  -1   5 -12   29.79    3.73
  -2   5 -12    1.33    2.95
   2  -6 -12   10.65    2.45
   2   6 -12   18.74    3.19
   1  -6 -12    4.90    2.02
   1   6 -12    4.50    2.80
   0   6 -12   60.90    4.46
  -1   6 -12   13.26    3.14
  -2   6 -12   -5.49    2.86
   2  -7 -12   -0.73    2.02
   2   7 -12    2.37    2.71
   1  -7 -12    2.01    1.79
   1   7 -12   -0.19    2.32
   0   7 -12   15.11    3.15
  -1   7 -12    8.07    3.12
   1  -8 -12   78.34    3.69
   1   8 -12   70.65    4.81
   0   8 -12   27.86    3.70
  -1   8 -12    8.06    2.71
   1  -9 -12   32.21    2.62
   1   9 -12   28.85    4.01
   0   9 -12   68.48    5.15
   2   0 -13    2.83    2.69
   1   0 -13    3.06    2.18
   0   0 -13    1.63    2.36
  -1   0 -13    1.14    1.23
  -1   0 -13   -1.47    2.20
  -2   0 -13    2.47    2.22
   2  -1 -13   -0.37    2.41
   2   1 -13   -4.64    2.29
   1  -1 -13   84.50    4.63
   1   1 -13   92.69    4.98
   0  -1 -13    4.77    2.30
   0   1 -13    3.71    2.40
  -1  -1 -13   17.15    2.59
  -1   1 -13   22.21    2.21
  -1   1 -13   14.37    2.66
  -2   1 -13   26.45    2.09
  -2   1 -13   25.98    3.17
   2  -2 -13   74.86    4.45
   2   2 -13   66.79    4.62
   1  -2 -13   47.22    3.62
   1   2 -13   37.62    3.81
   0  -2 -13    1.07    2.20
   0   2 -13   -2.57    2.43
  -1  -2 -13  131.61    5.18
  -1   2 -13  138.93    6.02
  -2   2 -13    1.09    2.60
   2  -3 -13   27.48    2.93
   2   3 -13   24.09    3.49
   1  -3 -13   46.20    3.36
   1   3 -13   39.38    3.74
   0  -3 -13   47.49    3.47
   0   3 -13   41.23    3.82
  -1   3 -13   12.67    3.09
  -2   3 -13   82.45    5.48
   2  -4 -13   59.92    4.07
   2   4 -13   51.65    4.42
   1  -4 -13   21.45    2.47
   1   4 -13   16.98    3.26
   0  -4 -13    1.37    1.96
   0   4 -13    2.51    2.79
  -1   4 -13    7.89    2.70
   2  -5 -13    0.69    2.21
   2   5 -13    0.55    3.00
   1  -5 -13    3.29    1.96
   1   5 -13   -1.87    2.68
   0   5 -13   43.81    3.94
  -1   5 -13   11.18    3.03
   1  -6 -13    7.02    2.21
   1   6 -13    4.68    2.95
   0   6 -13   62.95    4.68
  -1   6 -13   31.84    3.76
   1  -7 -13   51.50    3.39
   1   7 -13   43.12    4.06
   0   7 -13   27.72    3.74
   1   0 -14   78.03    4.88
   0   0 -14  142.72    6.07
  -1   0 -14    4.95    2.43
   1  -1 -14   41.54    3.58
   1   1 -14   35.03    3.74
   0  -1 -14   16.47    2.91
   0   1 -14   22.40    3.21
  -1  -1 -14    9.35    2.50
  -1   1 -14    5.71    2.46
   1  -2 -14    1.34    2.22
   1   2 -14    3.75    2.84
   0  -2 -14   16.70    2.62
   0   2 -14   12.61    3.04
  -1   2 -14    3.82    2.61
   1  -3 -14   -0.25    2.33
   1   3 -14    2.01    2.62
   0  -3 -14    4.36    2.23
   0   3 -14    4.82    2.83
  -1   3 -14    9.50    3.09
   1  -4 -14   16.31    2.73
   1   4 -14   11.52    3.28
   0   4 -14   32.59    3.78
   0   5 -14   62.28    4.67
   0   0   0    0.00    0.00
;
_shelx_hkl_checksum              35651
loop_
_space_group_symop_operation_xyz
'x, y, z'
'-x, y+1/2, -z+1/2'
'-x, -y, -z'
'x, -y-1/2, z-1/2'
loop_
_atom_site_label
_atom_site_type_symbol
_atom_site_fract_x
_atom_site_fract_y
_atom_site_fract_z
_atom_site_U_iso_or_equiv
_atom_site_adp_type
_atom_site_occupancy
_atom_site_site_symmetry_order
_atom_site_calc_flag
_atom_site_refinement_flags_posn
_atom_site_refinement_flags_adp
Br1 Br 0.31287(18) 0.36320(6) 0.03129(6) 0.0146(3) Uani 1 1 d . .
S1 S 0.0279(4) 0.32474(15) 0.29825(16) 0.0132(4) Uani 1 1 d . .
S2 S 0.2975(5) 0.54136(14) 0.24359(17) 0.0133(4) Uani 1 1 d . .
B1 B 0.218(2) 0.4096(7) 0.1908(8) 0.0143(17) Uani 1 1 d . .
C1 C 0.1340(17) 0.5211(6) 0.3883(7) 0.0121(15) Uani 1 1 d . .
C2 C 0.0089(17) 0.4205(6) 0.4138(7) 0.0113(15) Uani 1 1 d . .
C3 C -0.1281(18) 0.3984(6) 0.5245(6) 0.0122(15) Uani 1 1 d . .
H3 H -0.2158 0.3305 0.5411 0.015 Uiso 1 1 calc R U
loop_
_atom_site_aniso_label
_atom_site_aniso_U_11
_atom_site_aniso_U_22
_atom_site_aniso_U_33
_atom_site_aniso_U_23
_atom_site_aniso_U_13
_atom_site_aniso_U_12
Br1 0.0202(4) 0.0139(4) 0.0098(4) -0.0019(3) 0.0024(3) -0.0004(3)
S1 0.0163(9) 0.0110(9) 0.0124(10) -0.0017(7) 0.0017(7) -0.0014(7)
S2 0.0179(9) 0.0113(9) 0.0107(9) 0.0010(7) 0.0022(7) -0.0002(7)
B1 0.019(4) 0.013(4) 0.011(4) -0.004(3) -0.002(3) 0.003(3)
C1 0.012(3) 0.012(4) 0.012(4) 0.002(3) 0.000(3) 0.002(3)
C2 0.012(3) 0.010(4) 0.012(4) 0.001(3) -0.002(3) 0.002(3)
C3 0.017(4) 0.011(3) 0.009(4) 0.000(3) 0.001(3) 0.000(3)
loop_
_atom_type_symbol
_atom_type_description
_atom_type_scat_dispersion_real
_atom_type_scat_dispersion_imag
_atom_type_scat_source
C C 0.0033 0.0016 'International Tables Vol C Tables 4.2.6.8 and 6.1.1.4'
H H 0.0000 0.0000 'International Tables Vol C Tables 4.2.6.8 and 6.1.1.4'
B B 0.0013 0.0007 'International Tables Vol C Tables 4.2.6.8 and 6.1.1.4'
S S 0.1246 0.1234 'International Tables Vol C Tables 4.2.6.8 and 6.1.1.4'
Br Br -0.2901 2.4595 'International Tables Vol C Tables 4.2.6.8 and 6.1.1.4'
loop_
_geom_angle_atom_site_label_1
_geom_angle_atom_site_label_2
_geom_angle_atom_site_label_3
_geom_angle
_geom_angle_site_symmetry_1
_geom_angle_site_symmetry_3
C2 S1 B1 95.4(4) . .
C1 S2 B1 95.1(4) . .
S1 B1 S2 114.9(5) . .
S1 B1 Br1 121.9(5) . .
S2 B1 Br1 123.2(5) . .
C2 C1 C3 120.7(7) . 3_566
C2 C1 S2 117.4(6) . .
C3 C1 S2 121.9(6) 3_566 .
C3 C2 C1 121.0(7) . .
C3 C2 S1 121.7(6) . .
C1 C2 S1 117.2(6) . .
C2 C3 C1 118.3(7) . 3_566
C2 C3 H3 120.9 . .
C1 C3 H3 120.9 3_566 .
loop_
_geom_bond_atom_site_label_1
_geom_bond_atom_site_label_2
_geom_bond_distance
_geom_bond_site_symmetry_2
Br1 B1 1.905(8) .
S1 C2 1.763(7) .
S1 B1 1.788(9) .
S2 C1 1.764(7) .
S2 B1 1.795(9) .
C1 C2 1.402(10) .
C1 C3 1.402(10) 3_566
C2 C3 1.383(10) .
C3 C1 1.402(10) 3_566
C3 H3 0.9500 .
loop_
_geom_torsion_atom_site_label_1
_geom_torsion_atom_site_label_2
_geom_torsion_atom_site_label_3
_geom_torsion_atom_site_label_4
_geom_torsion
_geom_torsion_site_symmetry_1
_geom_torsion_site_symmetry_4
C2 S1 B1 S2 0.2(5) . .
C2 S1 B1 Br1 -178.0(5) . .
C1 S2 B1 S1 -0.2(5) . .
C1 S2 B1 Br1 177.9(5) . .
B1 S2 C1 C2 0.1(6) . .
B1 S2 C1 C3 -179.9(6) . 3_566
C3 C1 C2 C3 1.0(12) 3_566 .
S2 C1 C2 C3 -179.1(6) . .
C3 C1 C2 S1 -180.0(5) 3_566 .
S2 C1 C2 S1 0.0(8) . .
B1 S1 C2 C3 179.0(6) . .
B1 S1 C2 C1 -0.1(6) . .
C1 C2 C3 C1 -0.9(12) . 3_566
S1 C2 C3 C1 -180.0(5) . 3_566
