#------------------------------------------------------------------------------
#$Date: 2019-11-23 07:02:17 +0200 (Sat, 23 Nov 2019) $
#$Revision: 232381 $
#$URL: file:///home/coder/svn-repositories/cod/cif/4/34/75/4347557.cif $
#------------------------------------------------------------------------------
#
# This file is available in the Crystallography Open Database (COD),
# http://www.crystallography.net/
#
# All data on this site have been placed in the public domain by the
# contributors.
#
data_4347557
loop_
_publ_author_name
'Schl\"afer, J'
'Graf, D.'
'Fornalczyk, G.'
'Mettenb\"orger, A'
'Mathur, S.'
_publ_section_title
;
 Fluorinated Cerium(IV) Enaminolates: Alternative Precursors for Chemical
 Vapor Deposition of CeO2 Thin Films.
;
_journal_issue                   11
_journal_name_full               'Inorganic chemistry'
_journal_page_first              5422
_journal_page_last               5429
_journal_paper_doi               10.1021/acs.inorgchem.6b00348
_journal_volume                  55
_journal_year                    2016
_chemical_formula_sum            'C10 H10 F6 N2 O2'
_chemical_formula_weight         304.20
_space_group_crystal_system      triclinic
_space_group_IT_number           2
_space_group_name_Hall           '-P 1'
_space_group_name_H-M_alt        'P -1'
_atom_sites_solution_hydrogens   mixed
_audit_creation_method           SHELXL-2014/7
_cell_angle_alpha                109.754(15)
_cell_angle_beta                 101.386(16)
_cell_angle_gamma                97.169(14)
_cell_formula_units_Z            1
_cell_length_a                   5.7104(7)
_cell_length_b                   7.3062(8)
_cell_length_c                   8.2087(12)
_cell_measurement_temperature    293(2)
_cell_measurement_theta_max      27.915
_cell_measurement_theta_min      2.728
_cell_volume                     309.10(8)
_computing_cell_refinement       'X-Area (Stoe & Cie, 2001)'
_computing_data_collection       'X-Area (Stoe & Cie, 2001)'
_computing_data_reduction        'X-Area (Stoe & Cie, 2001)'
_computing_structure_refinement  'SHELXL-2014/7 (Sheldrick, 2014)'
_computing_structure_solution    'SHELXS-97 (Sheldrick, 1990)'
_diffrn_ambient_temperature      293(2)
_diffrn_detector_area_resol_mean 'not measured'
_diffrn_measured_fraction_theta_full 0.933
_diffrn_measured_fraction_theta_max 0.921
_diffrn_measurement_device_type  'IPDS 2T (Stoe & Cie)'
_diffrn_measurement_method       '\w and \f scans'
_diffrn_radiation_monochromator  graphite
_diffrn_radiation_source         'fine-focus sealed tube'
_diffrn_radiation_type           MoK\a
_diffrn_radiation_wavelength     0.71073
_diffrn_reflns_av_R_equivalents  0.0370
_diffrn_reflns_av_unetI/netI     0.0377
_diffrn_reflns_Laue_measured_fraction_full 0.933
_diffrn_reflns_Laue_measured_fraction_max 0.921
_diffrn_reflns_limit_h_max       7
_diffrn_reflns_limit_h_min       -7
_diffrn_reflns_limit_k_max       9
_diffrn_reflns_limit_k_min       -9
_diffrn_reflns_limit_l_max       10
_diffrn_reflns_limit_l_min       -10
_diffrn_reflns_number            3749
_diffrn_reflns_point_group_measured_fraction_full 0.933
_diffrn_reflns_point_group_measured_fraction_max 0.921
_diffrn_reflns_theta_full        25.242
_diffrn_reflns_theta_max         27.915
_diffrn_reflns_theta_min         2.728
_exptl_absorpt_coefficient_mu    0.173
_exptl_absorpt_correction_T_max  0.9828
_exptl_absorpt_correction_T_min  0.9177
_exptl_absorpt_correction_type   numerical
_exptl_absorpt_process_details
;
The absorption correction (X-RED; Stoe & Cie, 2001)
was preformed after optimizing the crystal shape
using X-SHAPE (Stoe & Cie, 1999).
;
_exptl_crystal_colour            colorless
_exptl_crystal_density_diffrn    1.634
_exptl_crystal_density_meas      ?
_exptl_crystal_density_method    'not measured'
_exptl_crystal_description       prism
_exptl_crystal_F_000             154
_exptl_crystal_size_max          0.3
_exptl_crystal_size_mid          0.2
_exptl_crystal_size_min          0.1
_refine_diff_density_max         0.256
_refine_diff_density_min         -0.154
_refine_diff_density_rms         0.035
_refine_ls_extinction_method     none
_refine_ls_goodness_of_fit_ref   0.992
_refine_ls_hydrogen_treatment    mixed
_refine_ls_matrix_type           full
_refine_ls_number_parameters     128
_refine_ls_number_reflns         1370
_refine_ls_number_restraints     0
_refine_ls_restrained_S_all      0.992
_refine_ls_R_factor_all          0.0611
_refine_ls_R_factor_gt           0.0419
_refine_ls_shift/su_max          0.004
_refine_ls_shift/su_mean         0.001
_refine_ls_structure_factor_coef Fsqd
_refine_ls_weighting_details
'w=1/[\s^2^(Fo^2^)+(0.0686P)^2^] where P=(Fo^2^+2Fc^2^)/3'
_refine_ls_weighting_scheme      calc
_refine_ls_wR_factor_gt          0.1056
_refine_ls_wR_factor_ref         0.1120
_reflns_Friedel_coverage         0.000
_reflns_number_gt                941
_reflns_number_total             1370
_reflns_threshold_expression     'I > 2\s(I)'
_cod_data_source_file            ic6b00348_si_002.cif
_cod_data_source_block           2a
_cod_depositor_comments
;
The following automatic conversions were performed:

data item '_exptl_crystal_density_meas' value 'not measured' was
changed to '?' -- the value is perceived as not measured.

Automatic conversion script
Id: cif_fix_values 6909 2019-04-08 15:41:33Z antanas 
;
_cod_database_code               4347557
_shelx_shelxl_version_number     2014/7
_shelx_space_group_comment
;
The symmetry employed for this shelxl refinement is uniquely defined
by the following loop, which should always be used as a source of
symmetry information in preference to the above space-group names.
They are only intended as comments.
;
_shelx_res_file
;

    shelx.res created by SHELXL-2014/7


TITL mb133 in P 1                New: P-1
CELL  0.71073   5.7104   7.3062   8.2087  109.754  101.386   97.169
ZERR     1.00   0.0007   0.0008   0.0012    0.015    0.016    0.014
LATT   1
SFAC  C    H    F    N    O
UNIT  10 10 6 2 2
MERG   2
FMAP   2
PLAN   10
ACTA
BOND   $H
CONF
L.S.   5
WGHT    0.068600
FVAR       2.97750   0.68926
F1A   3    0.241855    0.902465    0.436641    21.00000    0.10489    0.05012 =
         0.07278   -0.00351    0.00243    0.02677
F2A   3   -0.098367    0.703168    0.361758    21.00000    0.13449    0.08522 =
         0.16457    0.07872    0.11882    0.07045
F3A   3    0.008241    0.836751    0.188548    21.00000    0.08178    0.07154 =
         0.06814    0.02919    0.01555    0.04847
F1B   3    0.200708    0.869550    0.474849   -21.00000    0.14408    0.12158 =
         0.05020   -0.02843   -0.01048    0.09516
F2B   3   -0.130675    0.684127    0.316534   -21.00000    0.03214    0.08385 =
         0.12467    0.00944    0.02494    0.01452
F3B   3    0.050092    0.859173    0.207551   -21.00000    0.15709    0.07740 =
         0.18158    0.09695    0.10311    0.07129
O1    5    0.316176    0.596849    0.109019    11.00000    0.07680    0.06003 =
         0.06959    0.03862    0.04362    0.03451
N1    4    0.467109    0.254204    0.135458    11.00000    0.05957    0.03563 =
         0.04944    0.01978    0.01885    0.02062
C1    1    0.579471    0.081240    0.085153    11.00000    0.05372    0.04002 =
         0.05369    0.01852    0.01477    0.02444
AFIX  23
H2    2    0.603215    0.031043    0.181251    11.00000   -1.20000
H3    2    0.738265    0.120211    0.067319    11.00000   -1.20000
AFIX   0
C2    1    0.343942    0.290479    0.256246    11.00000    0.06899    0.03988 =
         0.05111    0.02316    0.02202    0.01890
AFIX  43
H4    2    0.337938    0.203975    0.317098    11.00000   -1.20000
AFIX   0
C5    1    0.221009    0.443984    0.303764    11.00000    0.07597    0.04580 =
         0.05591    0.02455    0.03717    0.02572
AFIX  43
H8    2    0.135869    0.451914    0.390686    11.00000   -1.20000
AFIX   0
C6    1    0.219334    0.587073    0.227005    11.00000    0.04644    0.03605 =
         0.04447    0.01367    0.01685    0.01380
C7    1    0.085018    0.754479    0.303447    11.00000    0.05972    0.04127 =
         0.05599    0.01699    0.02209    0.01946
H1    2    0.483827    0.334267    0.082102    11.00000    0.10741    0.04111 =
         0.04647    0.00526    0.03902    0.04555
HKLF    4

REM  mb133 in P 1                New: P-1
REM R1 =  0.0419 for     941 Fo > 4sig(Fo)  and  0.0611 for all    1370 data
REM    128 parameters refined using      0 restraints

END

WGHT      0.0686      0.0000

REM Highest difference peak  0.256,  deepest hole -0.154,  1-sigma level  0.035
Q1    1   0.1421  0.6627  0.2612  11.00000  0.05    0.26
Q2    1   0.2784  0.3781  0.2801  11.00000  0.05    0.20
Q3    1   0.3438  0.4182  0.3173  11.00000  0.05    0.15
Q4    1   0.4328  0.6412  0.2003  11.00000  0.05    0.14
Q5    1   0.5134  0.1384  0.1012  11.00000  0.05    0.14
Q6    1  -0.1479  0.7201  0.1596  11.00000  0.05    0.14
Q7    1   0.4255  0.9344  0.4621  11.00000  0.05    0.13
Q8    1   0.2958  0.8147  0.4619  11.00000  0.05    0.12
Q9    1   0.2395  0.4984  0.4700  11.00000  0.05    0.12
Q10   1   0.2459  0.7028  0.1448  11.00000  0.05    0.11
;
_shelx_res_checksum              43710
_shelx_hkl_file
;
  -1  -3   3    3.63    5.57   0
  -1   2  -3 3812.65   20.97   0
   0   2  -3  802.96   11.60   0
   1  -5   4  350.74    7.29   0
   2  -4   3    5.81    5.33   0
   5  -6   2    4.39    6.13   0
  -4   2  -7   -3.11   10.28   0
  -2   3  -6   45.46    8.51   0
   2  -9   5   -1.02   11.43   0
   3  -7   4   63.08    9.39   0
   3  -5   3 2264.89   16.41   0
   5   2  -9   11.35   11.26   0
  -3   2  -4    3.01    6.50   0
  -1  -7   5  239.15    7.83   0
   0  -7   5  190.15    7.47   0
  -2  -2   2 1238.80   20.01   0
  -5   0  -3    4.19    9.25   0
  -4  -5   3   85.97   10.12   0
  -4   2  -6   -6.66    9.11   0
  -3   1  -2 1541.14   16.37   0
  -3   3  -8    7.20   10.33   0
  -2  -8   5   21.05   10.15   0
  -2  -5   4   72.17    9.02   0
  -1   3  -5 1110.65   12.37   0
   0   3  -5  472.64   10.13   0
   0   4 -10   15.72   10.34   0
   0   4  -9    2.00    9.04   0
   1  -8   5   21.10    8.69   0
   1   4 -10   42.48   10.43   0
   2  -6   4  975.27   11.89   0
   6  -5   0   35.32   10.31   0
  -5   1  -6    0.80    7.96   0
  -4   1  -3   16.80    6.09   0
   1   4  -9   27.01    6.49   0
   2   3  -6  193.00    7.76   0
  -3  -6   4   11.87    9.27   0
  -3   3  -7   10.04    9.11   0
  -2   2  -3  855.63   12.32   0
  -1   4 -10   27.11   11.61   0
  -1   4  -9   10.67   10.55   0
   0  -5   4  107.62    7.99   0
   3  -8   4    6.03   10.25   0
   4  -7   3   -1.89    8.74   0
   4   2  -6   57.44    8.16   0
   4   3 -10    1.05   11.05   0
  -1  -8   5    4.68    7.53   0
  -1  -5   4  119.22    6.06   0
   0  -8   5   -0.73    6.28   0
   0   4  -8   18.37    6.64   0
   1  -9   5   14.03    7.00   0
   2   4 -10   -0.16    7.20   0
   4  -5   2   43.10    5.59   0
   6   1  -8    3.38   13.53   0
  -5   1  -5    5.34   10.75   0
  -4   2  -5   16.73    9.36   0
  -3  -4   3    6.98    8.81   0
  -2   3  -5  133.83    9.72   0
  -1  -9   5    8.21   11.40   0
  -1   4  -8    1.90    9.22   0
   1   3  -5  287.20    9.35   0
   1   4  -8   71.24    8.81   0
   2  -3   2    0.04    7.43   0
   3   3  -7  103.01    8.45   0
   4   3  -9    2.77   10.17   0
   5  -7   2  143.52   11.09   0
   5  -5   1    2.28    9.03   0
   5   2  -8   14.30   10.24   0
  -3   3  -6   -1.62    5.50   0
   0  -9   5   65.91    7.74   0
   3  -9   4   11.39    7.91   0
   4   1  -4   15.43   12.53   0
  -3  -7   4    5.59   10.46   0
  -2   4  -9   -5.11   10.42   0
  -1  -2   2 3258.64   26.12   0
   1  -6   4  295.04    9.70   0
   1   2  -3   -2.77    8.31   0
   2  -7   4  158.28    9.61   0
   2   4  -9   47.83    9.32   0
   3  -4   2    0.68    7.24   0
   4  -8   3  268.00   11.70   0
   6  -4  -1   21.66    8.90   0
   0   4  -7    0.42    5.69   0
   1  -4   3  452.31    8.22   0
  -4  -1   0   50.25   13.70   0
  -2   0   0  254.19   16.02   0
  -3  -8   4   19.50   11.70   0
  -2   4  -8   13.83    8.91   0
  -1   4  -7    4.88    7.82   0
   3  -6   3  292.50    9.02   0
  -2  -6   4    5.73    5.41   0
  -6  -2  -2   -1.50   13.89   0
  -5  -6   2    3.49   13.61   0
  -5   1  -4   -0.75    9.14   0
  -4  -6   3   14.29   10.56   0
   1   4  -7  375.55   10.04   0
   2  -8   4    7.61    8.89   0
   2  -5   3  340.23    9.65   0
   2   4  -8  247.31   10.39   0
   3   4 -10    2.54   11.68   0
   6  -6   0   96.29   11.99   0
   6  -3  -2   -0.81    8.91   0
  -4   3  -7    1.69    7.29   0
  -3   2  -3  332.19    7.97   0
  -3   3  -5   46.49    6.05   0
  -2   4  -7   29.71    6.72   0
   0  -6   4   -0.94    5.84   0
   2  -9   4   24.67    8.69   0
   4   3  -8   60.37    6.95   0
  -5  -1  -1    1.52   11.43   0
  -4   0  -1    6.05   11.21   0
  -6  -1  -3   -1.40   11.24   0
  -4   2  -4   17.70    7.84   0
  -1  -6   4  265.83    9.49   0
  -1   3  -4   40.20    8.07   0
   1  -7   4    9.45    7.56   0
   2  -2   1 2038.39   18.52   0
   4  -6   2    7.91    8.96   0
   4  -4   1  522.05   11.27   0
   5  -4   0  461.31   10.57   0
  -4  -7   3    2.02    8.07   0
   3  -7   3   51.97    6.74   0
   5  -6   1   14.32    6.37   0
   6  -2  -3   21.53   11.00   0
  -5   2  -6    1.91   11.81   0
  -3   4  -8   -1.71   10.44   0
  -2  -7   4   49.02    9.38   0
  -2  -4   3   72.22    8.04   0
  -1   4  -6   10.04    8.71   0
   0  -4   3  335.53    9.29   0
   0   3  -4 1613.39   14.68   0
   0   4  -6  356.25   10.59   0
   0   5 -10   18.39   11.80   0
   3   4  -9    4.16   10.28   0
  -4   3  -6   -0.11    6.51   0
  -2   3  -4  161.59    6.59   0
  -1   5 -10   20.59    8.07   0
   1  -8   4  311.64    7.98   0
   2   3  -5 1652.72   14.41   0
  -5   0  -2    3.98   11.35   0
   2   1  -2  283.63   14.66   0
  -2  -8   4   51.40   10.65   0
  -2   1  -1  186.61   10.54   0
  -2   4  -6   13.43    7.90   0
  -1  -7   4   13.01    9.07   0
   0  -7   4  152.81    8.16   0
   0   5  -9   35.31    9.89   0
   1  -9   4   19.40   10.05   0
   1   5 -10    9.18   10.06   0
   3  -8   3    4.41   10.21   0
   3  -3   1  601.58   10.98   0
   3   3  -6   38.54    8.51   0
  -3   4  -7   19.40    6.49   0
  -1  -4   3   12.16    5.36   0
  -1   5  -9    5.03    7.37   0
   3  -9   3   -1.11    7.93   0
   4  -7   2  155.47    7.19   0
  -5   2  -5    6.61   10.73   0
  -4   1  -2    6.90    8.92   0
  -3  -5   3  177.93    9.31   0
  -1  -9   4   45.95   11.56   0
  -1  -8   4   98.05    9.47   0
   0  -9   4   37.16   10.21   0
   0  -8   4   31.33    9.02   0
   2  -6   3  973.55   12.16   0
   2   4  -7 1103.68   13.33   0
   3  -5   2  575.45   11.18   0
   5  -7   1  133.73   10.59   0
   5   2  -7    0.00    8.81   0
   6  -5  -1   46.43   10.24   0
   7  -3  -4   36.15   11.58   0
   1  -5   3  683.09    9.02   0
   1  -3   2  811.24   10.78   0
   1   4  -6   46.84    6.64   0
   1   5  -9   33.75    6.53   0
  -5   1  -3   23.52    9.39   0
  -4  -4   2   15.55    7.95   0
  -2   5  -9   28.61   11.19   0
  -1   5  -8   22.39    9.09   0
   0   5  -8   -0.02    9.08   0
   2   5 -10    9.55   11.83   0
   3   4  -8   -2.96    9.11   0
   4  -8   2   18.00   10.05   0
   5  -3  -1   37.47    8.02   0
  -4   3  -5   30.73    6.81   0
  -3   3  -4   28.12    6.46   0
   4  -3   0  294.42    8.57   0
  -3  -3   2   98.79    8.82   0
  -3   4  -6   58.07    9.50   0
  -1   2  -2 1467.38   16.98   0
   1   3  -4  235.61    9.12   0
   2  -7   3   -0.40    7.53   0
   2  -4   2  273.72    8.97   0
   4   3  -7    1.30    9.17   0
  -2   5  -8   73.57    8.02   0
   4  -5   1  403.96    8.05   0
   5  -5   0   17.27    6.61   0
  -5  -2   0  111.29   20.69   0
   3   2  -4  546.85   13.90   0
  -4   2  -3  113.89    9.20   0
  -3  -8   3   -1.28   11.31   0
  -3  -6   3    4.11    9.11   0
  -2   2  -2  819.96   12.82   0
  -1   4  -5   77.58    7.87   0
   1   5  -8  154.06    9.90   0
   2  -9   3    5.40   10.08   0
   2  -8   3   35.06    8.90   0
   2  -1   0 1916.00   23.16   0
   2   5  -9   16.85   10.69   0
   5   3  -9   -3.40   11.26   0
  -4   4  -7    3.51    7.34   0
  -2   4  -5   19.77    6.37   0
   0  -5   3  201.65    6.59   0
   3  -6   2  483.27    8.17   0
   6  -6  -1   10.61    8.12   0
   6   1  -7   13.29   14.34   0
  -5   2  -4   38.72    9.44   0
  -3  -7   3    7.71   10.53   0
  -2  -5   3   38.75    8.92   0
  -1   5  -7  159.15    8.44   0
   0   4  -5   11.88    7.64   0
   1  -6   3  866.82   11.90   0
  -5   3  -6    9.67    8.44   0
  -3   5  -8    9.05    7.27   0
   0   5  -7    4.78    5.36   0
   3  -2   0  483.69    9.81   0
  -5  -4   1    2.64   12.48   0
  -6   0  -3    9.26   11.03   0
  -3   1  -1 1024.48   15.24   0
  -2   5  -7   13.13    9.22   0
  -1  -5   3  118.61    7.92   0
   1  -9   3   15.55   10.18   0
   3   5 -10    8.61   11.18   0
   4   2  -5  110.57    9.37   0
   4   4  -9    3.46    9.95   0
   5  -2  -2  611.64   13.32   0
   6  -4  -2    4.10    9.35   0
   0   6 -10    7.87    7.85   0
   1  -8   3  103.81    6.82   0
   1  -7   3  137.76    6.16   0
   2   4  -6  498.60    9.28   0
   3  -9   2   62.72    8.24   0
   3  -7   2   45.98    6.65   0
   4  -6   1   22.16    6.53   0
   5  -6   0   38.40    6.56   0
  -6  -1  -2    3.12   12.72   0
  -4  -5   2   35.73    9.47   0
  -4   3  -4    3.77    7.68   0
  -4   4  -6    2.55    8.93   0
  -3   4  -5    4.24    7.84   0
  -2  -8   3   24.71   10.45   0
  -2  -6   3   28.01    7.71   0
  -1   3  -3 6204.90   25.89   0
   0  -3   2 3385.37   21.36   0
   2   2  -3 1066.74   15.96   0
   3  -8   2  128.25   11.07   0
   3   4  -7  173.76    8.80   0
  -3   2  -2 1534.39   14.41   0
  -2   3  -3  712.13    9.84   0
  -1  -9   3   28.02    8.25   0
   0  -9   3   77.62    7.82   0
   0  -6   3  134.51    6.86   0
   2  -5   2 4519.62   19.55   0
   2   5  -8    1.33    6.45   0
   3  -4   1  971.09   10.74   0
  -6   1  -4    5.33   11.41   0
  -4  -7   2    1.41   11.14   0
  -4  -6   2    6.20   10.21   0
  -3   5  -7   -2.85    8.93   0
  -2  -7   3  128.24    9.85   0
  -1  -6   3   47.42    8.28   0
  -1   6  -9   10.49   10.15   0
   1   5  -7   20.85    7.72   0
   1   6 -10   34.53   11.22   0
   4  -8   1  149.46   11.12   0
   4  -7   1   77.67    9.37   0
   4  -2  -1    0.32    7.34   0
   5  -7   0    6.40    9.98   0
  -1  -8   3  114.23    7.18   0
   0  -8   3  110.48    6.85   0
   0  -7   3   46.07    5.60   0
   0   6  -9   48.59    7.79   0
   1   4  -5  453.37    8.31   0
  -5  -5   1   -0.64   12.40   0
  -5   3  -5    6.47   10.57   0
  -2  -3   2  644.28   12.74   0
  -2   6  -9   12.21   11.24   0
  -1  -7   3   75.26    9.39   0
  -1   5  -6  107.22    8.62   0
   1  -4   2   69.91    7.79   0
   3   5  -9    7.38   10.01   0
   5  -4  -1    3.80    7.51   0
  -2   5  -6    7.96    5.46   0
   0   3  -3  321.02    8.07   0
   1  -2   1 1049.63   14.69   0
   4  -4   0   52.47    6.29   0
   5   1  -5   68.46   14.23   0
  -3   0   0    0.46    9.46   0
  -3   3  -3   14.07    7.55   0
  -1  -3   2 1943.97   17.89   0
   0   5  -6    7.57    8.37   0
   1   6  -9   45.64   10.44   0
   2  -9   2   13.64   10.71   0
   2  -6   2  397.55   10.04   0
   2  -3   1 3638.10   21.07   0
   3   3  -5   79.61    9.39   0
   5   3  -8    3.74    9.84   0
   6  -5  -2   45.31   10.31   0
  -1   6  -8   14.12    6.27   0
   2   6 -10   27.22    8.01   0
   6  -3  -3   46.80   10.99   0
  -5   1  -2   37.75    8.08   0
  -4   4  -5  429.60   11.28   0
  -4   5  -7   39.14   10.49   0
  -3   5  -6  196.94   10.03   0
  -2   4  -4  827.25   11.20   0
  -2   6  -8    1.31   10.42   0
  -1   4  -4 1690.55   14.29   0
   0   6  -8   41.27    9.14   0
   2  -8   2   27.38    9.03   0
   2  -7   2  164.86    8.31   0
   2   3  -4   32.48    7.81   0
   4   4  -8    5.84   10.26   0
   3  -5   1  118.83    6.82   0
   6  -6  -2    7.20    7.84   0
   5  -1  -3  153.02   13.09   0
  -5   2  -3   69.44    9.70   0
  -5   4  -6   61.66   12.36   0
  -3  -4   2   28.50    9.08   0
   1  -9   2   26.82    9.87   0
   3  -9   1  -16.40   11.20   0
  -3   6  -8    6.07    8.52   0
   1  -5   2  668.64    8.95   0
   2   5  -7   51.32    5.83   0
   5  -5  -1   59.79    6.70   0
  -3  -7   2   22.84   10.48   0
  -3   4  -4  177.95    9.54   0
   0   4  -4  363.90    9.59   0
   3  -8   1  105.54   10.75   0
   4  -5   0   44.86    7.77   0
   4   3  -6  145.95    9.11   0
  -5   3  -4   37.28    6.77   0
  -4   2  -2   57.52    6.89   0
  -1  -9   2   22.46    8.18   0
  -1   6  -7   80.55    6.78   0
   0  -9   2   13.28    8.28   0
   0  -4   2 2660.80   16.69   0
   1  -8   2    9.79    6.21   0
   1   5  -6   21.79    5.98   0
   1   6  -8   60.34    6.80   0
   2   6  -9   21.23    7.67   0
   3  -7   1   72.09    6.66   0
   3  -6   1    0.47    5.31   0
   3   5  -8   89.05    7.03   0
  -6   1  -3   21.92   10.62   0
  -5   0  -1   31.97    8.24   0
  -4   3  -3   60.03    8.57   0
  -3  -5   2   -1.45    7.73   0
  -2   6  -7    8.66    8.95   0
   1  -6   2  165.18    9.44   0
   3  -1  -1   68.98    8.52   0
   4  -8   0  -16.20   11.82   0
   5  -7  -1   31.70   10.73   0
   5  -6  -1    0.92   10.14   0
  -4   5  -6   31.65    7.67   0
  -3  -6   2    1.30    6.32   0
  -2  -8   2   63.75    8.22   0
  -2   5  -5   12.02    5.90   0
  -1   5  -5  121.18    7.05   0
   1  -7   2   89.95    5.97   0
   4  -6   0   53.31    6.60   0
  -6   2  -4   11.82   11.94   0
  -4   1  -1  371.17   10.89   0
   0   6  -7   -6.35    9.19   0
   2   4  -5  534.93   11.88   0
   3   4  -6  876.26   13.24   0
   4  -7   0   80.82    9.18   0
   5  -3  -2  307.18   10.02   0
   6  -4  -3   43.12   10.54   0
  -3   6  -7   65.21    7.68   0
  -2  -4   2   12.62    5.44   0
  -1  -8   2    7.87    7.30   0
  -1   7  -9   30.18    8.03   0
   0  -8   2   42.23    6.38   0
   2  -9   1   90.45    8.62   0
   3  -3   0  116.97    6.31   0
   5   2  -6   88.64   12.14   0
  -5   4  -5   87.60   11.16   0
  -4   4  -4  314.03    9.64   0
  -3   5  -5   99.14    8.21   0
  -2  -7   2   -7.77    9.15   0
  -1  -4   2  857.80   12.10   0
   0  -5   2  137.27    8.29   0
   1   2  -2 2832.39   24.70   0
   1   3  -3    4.97    7.92   0
   2  -4   1   75.19    7.81   0
   4  -1  -2  230.97   10.44   0
   6  -2  -4    8.10    8.93   0
   0  -7   2  701.19    9.04   0
   0   5  -5  121.34    7.01   0
   0   7  -9    9.38    8.09   0
  -6   0  -2    8.50   12.72   0
  -1  -7   2  165.55    9.80   0
   0  -6   2   54.89    8.80   0
   2  -8   1    8.55    8.78   0
   4  -3  -1  394.71   11.18   0
   4   5  -9    6.84   11.30   0
  -2  -6   2    8.92    5.43   0
  -2  -5   2    5.78    6.16   0
   1  -9   1  -10.16    8.12   0
   2   6  -8   36.22    6.52   0
   6  -5  -3    5.81    7.14   0
  -4   6  -7   25.74   11.52   0
  -2   6  -6   33.57    9.35   0
  -2   7  -8   25.80   10.08   0
  -1  -6   2   59.29    8.31   0
  -1  -5   2   66.94    7.66   0
  -1   6  -6   11.89    7.64   0
  -1   7  -8    3.52   10.18   0
   1   4  -4  115.78    8.40   0
   1   6  -7   -1.52    9.13   0
   4   4  -7   48.41    9.43   0
  -4   5  -5   35.32    6.74   0
   1   7  -9   19.93    8.25   0
   2  -7   1  324.52    8.00   0
   2  -5   1  171.73    6.37   0
  -5   5  -6   19.49   11.55   0
  -4  -6   1   -0.27   10.08   0
  -4  -3   1   36.74    8.67   0
  -3   6  -6    4.47    9.03   0
  -2   3  -2    2.48    7.82   0
  -2   4  -3    2.44    7.65   0
   0  -9   1   -2.24   11.20   0
   1  -3   1  311.77    9.92   0
   2  -6   1  444.10   10.24   0
   2   5  -6  387.51   10.09   0
   3  -8   0   55.45   10.23   0
   3   6  -9   87.78   12.11   0
   0  -2   1   60.13    8.75   0
   0   7  -8    0.96    7.33   0
   4  -8  -1    1.17    8.00   0
   5  -4  -2  130.81    7.37   0
  -3   3  -2  166.82    8.76   0
  -1   3  -2  786.13   12.20   0
  -1   4  -3  458.70    9.98   0
   0   6  -6  516.72   10.21   0
   1  -8   1  100.73    9.27   0
   3  -4   0   26.38    7.38   0
   3   5  -7   26.76    9.27   0
   5  -7  -2   -7.13   11.13   0
  -5   3  -3  244.48    8.28   0
  -3   4  -3  108.17    7.10   0
   2  -9   0   57.39    8.16   0
   3  -7   0   -6.07    6.45   0
   2   0  -1  673.70   28.01   0
   5   0  -4  108.95   14.44   0
   5   3  -7    6.89   12.77   0
  -6   3  -4   84.34   12.99   0
  -5   2  -2   16.49    7.76   0
  -5   4  -4   55.02    9.43   0
  -4  -5   1    1.24    8.94   0
  -3  -7   1   10.53   10.10   0
  -2  -8   1   21.88   11.57   0
  -2   2  -1 2181.08   19.23   0
  -2   5  -4  101.65    9.39   0
   1   5  -5   34.18    9.00   0
   4  -7  -1   24.79   10.23   0
   4  -4  -1    6.46    8.19   0
   5  -6  -2   48.54   10.14   0
   5  -5  -2   53.22    9.15   0
  -4   6  -6    4.37    7.29   0
  -2   7  -7   -2.59    7.36   0
   0  -8   1    8.23    6.23   0
   3  -6   0   10.76    5.34   0
   3  -5   0   16.43    6.26   0
  -4  -4   1    7.55    9.42   0
  -6   2  -3    6.66   10.56   0
  -5  -5   0    1.04   11.17   0
  -3   5  -4  768.33   11.67   0
  -1  -8   1   16.85   10.08   0
  -1   5  -4  342.23    9.07   0
  -1   7  -7    2.43    8.90   0
   1  -7   1   80.14    7.88   0
   1   7  -8   26.18   10.29   0
   4  -6  -1   80.71    9.31   0
   4  -5  -1    8.09    7.58   0
   6  -3  -4   22.41   10.31   0
  -3   2  -1   12.00    5.48   0
  -3   7  -7   27.55    7.43   0
   1  -9   0   28.46    7.86   0
   1  -4   1   26.69    5.49   0
   2   7  -9   14.83    8.31   0
   6  -1  -5    2.40   10.30   0
  -5   5  -5   11.91   10.41   0
  -2   6  -5  248.32    8.87   0
  -1   2  -1 1047.40   16.86   0
   1  -6   1 2126.47   15.37   0
   2  -8   0   10.70   10.34   0
   2   6  -7  172.97   10.00   0
   4   5  -8   10.84   10.18   0
  -4   4  -3   94.49    6.45   0
   0   7  -7    5.50    6.29   0
   1  -5   1  145.45    6.25   0
   5  -2  -3  117.36   10.38   0
  -4   3  -2   89.13    9.33   0
  -3  -6   1    3.23    8.90   0
  -3   6  -5   58.46    9.30   0
  -2  -7   1   87.70    9.39   0
  -1   6  -5   88.56    8.37   0
   0  -7   1   28.32    8.33   0
   0   4  -3  373.60    9.69   0
   1   6  -6   38.35    7.86   0
   3  -8  -1  157.30   10.61   0
   3   6  -8   17.82   10.20   0
   6  -5  -4   35.20   11.17   0
   6  -4  -4  164.72   11.28   0
  -4   5  -4   17.08    6.64   0
   0   5  -4  109.07    6.02   0
  -3  -2   1   84.45   10.65   0
  -6   1  -2   32.00   11.04   0
  -1  -7   1  292.77   10.45   0
   0   3  -2 4293.52   23.64   0
   2  -7   0   -1.80    8.99   0
   5   4  -8    9.87   11.49   0
  -1   8  -8   20.79    8.38   0
   1  -8   0   -6.55    7.33   0
  -5  -4   0   -1.74   12.75   0
  -4   6  -5   58.96    9.29   0
  -2   7  -6  166.67    9.74   0
   0  -6   1  225.01    9.36   0
   0  -3   1  532.36   11.40   0
   3   4  -5   54.79    8.66   0
  -3  -5   1    3.06    5.40   0
  -3   7  -6   88.38    8.01   0
  -2  -6   1   33.72    5.61   0
  -1  -2   1 2423.35   23.01   0
  -1   7  -6   64.21    6.82   0
   0   6  -5  266.79    7.39   0
   1  -1   0  547.81   13.64   0
   3  -7  -1   11.29    6.23   0
   3  -2  -1  722.68   11.27   0
   4  -7  -2   10.84    7.43   0
   5  -6  -3   14.40    7.12   0
  -4   0   0   81.06   12.00   0
  -5   1  -1  138.20   11.04   0
   3   3  -4  575.53   13.53   0
  -4  -6   0   11.57   11.60   0
  -4   2  -1  210.49    9.22   0
  -1  -6   1   29.52    7.77   0
   0  -8   0   -8.24   10.22   0
   1   7  -7  104.85    9.49   0
   2  -6   0  273.54    9.02   0
   2  -3   0 1113.31   13.22   0
   2   4  -4   45.31    7.82   0
   2   7  -8   18.49   10.42   0
   4  -2  -2  205.75    9.12   0
  -3  -7   0   -2.72    8.43   0
  -1  -8   0   -1.29    7.19   0
   0  -5   1 1705.18   12.90   0
   0   8  -8   94.07    9.05   0
   5  -3  -3    0.34    5.30   0
  -5  -2   0  107.48   19.48   0
  -5  -3   0   -1.16   11.05   0
  -6   3  -3   -3.03   10.70   0
  -6   4  -4    5.85   12.04   0
  -5   4  -3   43.20    9.51   0
  -5   5  -4   -1.15   10.70   0
  -4   7  -6   17.08   11.88   0
  -3  -4   1  599.20   12.85   0
   0  -4   1  144.95    8.30   0
   2  -8  -1   -5.22   10.10   0
   2  -5   0   50.51    7.36   0
   2   5  -5    1.51    8.29   0
   3   5  -6  237.24    9.32   0
   5  -5  -3   24.74    8.73   0
   1  -7   0  624.52    9.30   0
   2  -4   0 1768.28   13.45   0
   3  -8  -2    4.10    7.79   0
   3  -6  -1  255.83    6.85   0
   4  -6  -2   33.84    6.44   0
   5  -4  -3    8.63    6.40   0
  -3  -3   1    3.40    7.43   0
  -2  -5   1   -0.61    8.37   0
  -2  -2   1   28.78    8.35   0
  -2   5  -3  328.35    9.01   0
  -2   8  -7    1.68   10.92   0
   0   7  -6   28.23    9.28   0
   2   3  -3  946.88   14.16   0
   4   4  -6  231.48   10.95   0
   6  -2  -5   16.32   10.60   0
  -5   6  -5    0.97    8.49   0
  -3   5  -3 2147.15   14.58   0
  -2   6  -4  902.64    9.94   0
  -1  -5   1  193.23    6.58   0
  -1   8  -7    6.59    7.43   0
   4   3  -5   19.88    9.57   0
  -5   3  -2   92.88    8.36   0
  -3   4  -2    2.36    7.48   0
  -3   6  -4   33.50    7.70   0
  -2  -7   0   55.61   10.74   0
  -2   4  -2  260.73    9.02   0
   1   5  -4  120.75    8.02   0
   2   6  -6   -2.42    9.25   0
   3  -5  -1  124.32    8.78   0
   3  -3  -1  481.47   10.30   0
   4  -5  -2  204.92    8.56   0
   4  -3  -2  241.35   10.06   0
  -1  -3   1  232.70    7.79   0
  -1   5  -3  627.41    8.78   0
   0  -7   0  129.74    7.15   0
   1  -8  -1   15.99    7.17   0
   1   8  -8   40.27    8.51   0
   3   6  -7   -0.79    6.32   0
  -4  -5   0   27.64    9.00   0
  -4   5  -3  123.77    8.37   0
  -2  -4   1   11.54    7.48   0
  -2   1   0 1924.92   23.46   0
  -2   7  -5  212.24    9.98   0
  -1  -7   0   77.48    9.48   0
  -1  -4   1 1218.49   13.63   0
  -1   6  -4  293.86    9.72   0
   0   2  -1   60.16   12.14   0
   1  -6   0   26.61    8.20   0
   1   4  -3    8.75    7.69   0
   1   6  -5  105.10    8.33   0
   2  -7  -1   -8.27    8.91   0
   3  -4  -1 2321.85   16.00   0
   4  -7  -3   56.97   11.45   0
   4  -4  -2  153.01    8.63   0
   4   5  -7   35.04    9.04   0
   6  -4  -5  100.74   12.00   0
   6  -3  -5  224.84   11.88   0
  -4   6  -4   36.26    6.77   0
  -3   7  -5   54.29    6.82   0
   5  -6  -4   12.36    7.82   0
  -6   2  -2   56.80    9.52   0
  -3  -6   0   17.33    8.80   0
  -2  -3   1 1617.92   17.39   0
  -1  -8  -1    5.42   11.13   0
  -1   4  -2   70.93    8.02   0
   0  -8  -1   24.63    9.98   0
   0   8  -7   56.61   10.46   0
   2  -8  -2   55.41   12.18   0
   3  -7  -2   -1.09   10.26   0
  -4   4  -2  643.68    9.92   0
  -1   7  -5  121.53    7.07   0
   2   7  -7   51.67    7.65   0
  -3   1   0  684.68   15.68   0
   3   2  -3  566.02   16.10   0
   6   0  -6   13.88   12.19   0
  -4   7  -5  -16.13   10.51   0
   1   7  -6   21.42    9.20   0
  -3   3  -1  579.62    9.57   0
  -3   8  -6  -11.61    8.42   0
  -2   3  -1 3708.85   20.46   0
  -2   8  -6   15.22    7.29   0
   1  -5   0   49.49    5.44   0
  -6   5  -4   -0.87   11.31   0
   0  -6   0  904.55   11.80   0
   1  -7  -1   14.84    8.92   0
   2  -6  -1  197.48    8.43   0
   3   7  -8   22.53   11.40   0
   4  -6  -3   20.77   10.30   0
   4   6  -8   17.82   11.49   0
   5  -5  -4   14.83   10.30   0
  -2  -6   0    4.14    6.39   0
  -1   8  -6   91.28    8.08   0
   0   5  -3  200.34    6.63   0
   0   6  -4    0.34    5.90   0
   1  -8  -2    4.10    8.08   0
   4   0  -3  445.23   16.61   0
  -6   4  -3   42.71   10.75   0
  -5   2  -1   32.39    8.29   0
  -5   5  -3   -9.46    9.15   0
  -5   6  -4   38.35   10.44   0
  -1  -6   0  387.81    9.79   0
   0   7  -5  194.91    9.25   0
   1  -2   0 6254.99   32.26   0
   1   3  -2 1838.48   17.45   0
   3  -6  -2   47.23    9.28   0
   5  -1  -4 1841.42   20.74   0
  -2  -7  -1   52.96    7.71   0
   0  -8  -2   26.68    7.91   0
   1  -4   0    2.33    5.20   0
   1   8  -7   45.78    7.49   0
   2   8  -8    5.83    7.73   0
  -4  -4   0   67.81    9.73   0
  -4   3  -1   98.09    9.72   0
   0  -7  -1   22.90    9.05   0
   2  -7  -2  -10.87    8.87   0
   3  -7  -3   36.02   10.24   0
   5  -4  -4   61.76    9.04   0
  -3  -5   0   11.35    6.53   0
  -1  -7  -1   51.85    7.62   0
   4  -5  -3  154.89    7.17   0
  -5   4  -2    5.85    9.24   0
  -3   6  -3  256.38    9.06   0
  -3   7  -4   68.35    9.39   0
  -1   3  -1  320.51   10.12   0
   0  -5   0  196.78    8.26   0
   0   4  -2 2655.13   17.72   0
   0   8  -6    5.05   10.33   0
   2  -5  -1  206.29    9.62   0
   5  -3  -4    9.80    9.10   0
   5  -2  -4   17.17    7.73   0
  -2   6  -3  881.52   10.11   0
  -2   7  -4  136.35    7.21   0
   3   0  -2  117.16   12.80   0
   2   2  -2 1119.26   19.18   0
  -6   3  -2   -0.21   10.78   0
  -5  -4  -1   13.87    9.89   0
  -4   6  -3   40.71    9.38   0
  -3  -6  -1   -0.02   10.21   0
  -3   5  -2  546.75   11.24   0
  -3   8  -5    8.21   10.41   0
  -1   1   0  563.69   15.21   0
   1  -6  -1  183.01    8.60   0
   2   6  -5   27.03    7.77   0
   3  -5  -2   16.27    7.65   0
   5   4  -7    3.90   10.03   0
   6  -3  -6   21.05   11.19   0
   6  -1  -6    2.69    9.90   0
  -4   7  -4   -7.68    7.48   0
  -2   5  -2 4363.53   19.02   0
  -2   8  -5   68.34    7.73   0
   4  -6  -4   31.46    7.24   0
   5  -5  -5  101.80    8.68   0
   5   5  -8   -2.52   13.44   0
  -4   1   0    6.13    7.53   0
  -4   8  -5    5.92   11.30   0
  -2  -5   0   -0.40    7.77   0
  -1  -5   0   11.52    8.67   0
  -1   7  -4   13.92    7.63   0
   1  -7  -2  -12.75    8.75   0
   2   5  -4   69.67    9.14   0
   2   7  -6   23.78    8.93   0
   3   5  -5  253.40    9.55   0
   3   6  -6   78.93    9.39   0
   4  -4  -3   48.27    7.77   0
   6  -2  -6   20.25   10.37   0
  -4   5  -2   38.67    5.74   0
  -2  -7  -2   42.17    8.12   0
  -1   6  -3  832.04   10.08   0
   0   9  -7   -5.69    7.83   0
   2  -4  -1  656.31    9.03   0
   3  -7  -4    4.48    7.71   0
   4   2  -4  215.49   17.24   0
  -6   5  -3   14.71   11.04   0
  -4  -5  -1   -0.19   10.12   0
  -2   9  -6   16.03   11.36   0
  -1   8  -5   13.89    8.82   0
   1   6  -4  274.75    9.61   0
   1   7  -5  232.56   10.21   0
   2  -7  -3   21.23    9.92   0
   2  -6  -2    3.13    8.26   0
   3  -6  -3    1.04    8.82   0
   3   7  -7   10.01   10.23   0
  -1  -7  -2    3.28    7.08   0
   0  -7  -2   11.00    7.19   0
   0  -6  -1    3.74    5.44   0
   0  -4   0  187.70    6.56   0
   3  -4  -2    1.61    6.23   0
  -5   6  -3   31.30   10.77   0
  -5   7  -4   47.40   11.86   0
  -4  -3   0  217.82   10.13   0
  -2  -6  -1   16.67    8.99   0
  -1   5  -2  676.87   10.66   0
   1   8  -6   50.94   10.39   0
   2   8  -7    1.47   11.63   0
   4  -3  -3    3.85    8.04   0
  -3  -4   0   41.93    6.08   0
  -1  -6  -1  323.36    8.30   0
  -1   9  -6    5.68    8.02   0
   1   5  -3  107.53    6.14   0
   2  -3  -1 1573.02   13.57   0
   5  -4  -5    2.23    7.20   0
  -5   3  -1    1.34    7.72   0
  -3   4  -1  991.22   12.22   0
   1  -5  -1  428.27   10.67   0
   2   4  -3   71.36    7.97   0
   3   4  -4  683.72   13.30   0
   4  -6  -5   21.07   11.16   0
   4  -5  -4   12.46    8.74   0
   4  -2  -3 2600.68   20.29   0
   4  -1  -3  239.54    9.75   0
   4   6  -7    5.28   10.00   0
  -2   4  -1   76.41    5.96   0
   0   7  -4  131.55    6.25   0
   1  -7  -3   33.87    7.39   0
   4   5  -6   24.05   11.05   0
  -6   4  -2   10.91   10.49   0
  -5   5  -2  156.76    9.98   0
  -4   4  -1  525.93   11.49   0
  -3  -6  -2    4.88   11.53   0
  -3   2   0  487.86   11.44   0
  -1  -4   0  254.33    8.96   0
   0   8  -5    0.58    8.86   0
   2  -7  -4   52.61   11.59   0
   2  -2  -1 4981.79   26.81   0
   3  -3  -2  135.36    8.11   0
   0  -3   0   19.36    5.78   0
   0   6  -3  132.22    6.92   0
   1  -6  -2  233.24    6.77   0
  -6   0  -1   10.28   16.89   0
   5   3  -6   91.52   15.37   0
  -6   1  -1    7.87   12.86   0
  -3  -5  -1    6.19    8.96   0
  -3   7  -3   55.90    9.25   0
  -3   8  -4    8.50   10.34   0
  -2  -4   0  168.91    8.40   0
  -1  -7  -3   -1.91   11.07   0
   0  -7  -3    7.63    9.99   0
   0   3  -1  498.50   11.39   0
   2  -5  -2  494.13   10.36   0
   3  -6  -4   11.55   10.01   0
   3  -5  -3   26.87    7.56   0
  -4   7  -3    1.40    6.24   0
  -4   8  -4   14.02    8.66   0
  -2   7  -3   -4.39    5.37   0
  -2   8  -4   20.28    6.36   0
   0   9  -6   10.23    8.17   0
   2  -6  -3   -2.42    6.34   0
   3  -2  -2  107.06    6.27   0
   5  -3  -5   27.49    6.42   0
  -5  -3  -1   14.30    9.80   0
  -4  -5  -2   12.80   11.51   0
  -3   6  -2  504.78   10.07   0
  -2   9  -5    1.41   11.66   0
   0  -5  -1    1.00    8.68   0
   1  -7  -4    2.93   10.96   0
   3  -1  -2  503.20   12.19   0
   6  -2  -7   12.80   10.92   0
  -6   6  -3   12.32    8.06   0
  -2  -6  -2    6.20    7.50   0
  -1   4  -1   23.68    5.63   0
   0  -6  -2   21.35    6.44   0
   4  -4  -4   79.04    6.80   0
   5   1  -5   66.76   13.12   0
   4   4  -5   46.24    9.68   0
   6   1  -7   10.15   12.31   0
  -6   2  -1   47.20    9.67   0
  -5  -4  -2    0.32   11.04   0
  -4  -4  -1   -2.66    9.02   0
  -4   2   0  465.43   11.38   0
  -4   6  -2   -5.20    9.22   0
  -2   6  -2  383.13   10.24   0
  -1  -6  -2   66.95    9.25   0
   0   5  -2  146.44    8.28   0
   1  -4  -1   46.75    7.60   0
   1   4  -2  848.82   12.21   0
   4  -5  -5   41.20   10.34   0
   5  -4  -6  158.60   11.66   0
  -2  -5  -1  281.48    7.42   0
  -1  -5  -1   48.11    5.94   0
  -1   7  -3  127.17    6.28   0
  -1   8  -4  312.46    7.94   0
   3  -6  -5  144.34    8.96   0
  -5   4  -1   38.98    7.95   0
  -5   7  -3    0.84   10.44   0
  -3  -3   0   18.53    9.10   0
  -1   9  -5   31.77   10.04   0
   0  -2   0 3212.57   25.06   0
   2   7  -5   53.50    9.09   0
   2   8  -6    3.06   10.30   0
   5  -2  -5    3.39    9.00   0
   6  -1  -7   -3.37   11.46   0
   1  -6  -3  148.78    7.09   0
   1   2  -1 2388.24   22.81   0
   6   0  -7   46.00   12.61   0
  -6   5  -2   14.94   10.43   0
  -5   6  -2    8.16    8.86   0
  -3   5  -1  118.20    9.48   0
  -1  -3   0 1341.07   14.69   0
   1   7  -4    7.82    9.21   0
   1   8  -5   11.25    9.68   0
   2  -6  -4   -4.86   10.19   0
   2  -4  -2  116.69    7.84   0
   2   6  -4    4.75    7.63   0
   3  -4  -3  801.19   11.70   0
   3   7  -6   90.05   10.74   0
  -1   6  -2  149.14    7.11   0
   1  -5  -2  144.02    6.68   0
   1   9  -6   13.32    8.06   0
   3  -5  -4   47.31    6.55   0
  -4  -2   0    3.24   10.55   0
  -4   5  -1  404.86   10.01   0
  -3   3   0  117.54    8.44   0
  -2  -6  -3    1.29   10.86   0
  -1   2   0 6132.02   32.19   0
   2  -5  -3  523.82    9.92   0
   3   6  -5   97.09    9.76   0
   4  -5  -6   23.12   11.53   0
   4  -3  -4   -0.82    7.58   0
   5  -1  -5    0.50    8.95   0
  -3  -5  -2   19.48    7.49   0
  -2  -3   0  885.41   11.89   0
  -2   5  -1  180.16    6.46   0
   0  -6  -3    7.78    6.36   0
   1   6  -3   46.73    6.13   0
   5  -3  -6   55.10    7.36   0
  -6   3  -1   21.73   11.18   0
   5   0  -5   13.67    9.18   0
  -4   8  -3  245.00   11.74   0
  -3   8  -3    2.52   10.46   0
  -3   9  -4   10.85   11.25   0
  -1  -6  -3   27.64   10.26   0
   0  -1   0  467.10   14.11   0
   0   8  -4   25.78    8.97   0
   0   9  -5   65.82   10.60   0
   4  -4  -5   -0.81    8.70   0
  -2   3   0 1095.19   12.14   0
  -2   9  -4   27.16    7.51   0
   0  -4  -1  217.48    6.82   0
   0   7  -3   48.48    5.56   0
   1  -6  -4   24.83    7.33   0
   1  -3  -1 5476.57   23.62   0
   2  -6  -5   19.08    7.13   0
   3   3  -3    8.82    9.04   0
  -6  -2  -2    1.00   11.11   0
  -4   3   0  300.65   11.00   0
  -3  -4  -1  179.92    8.89   0
  -3   7  -2   47.77    9.41   0
  -2   8  -3   27.96    9.14   0
   0  -5  -2  399.00   10.00   0
   2   3  -2  621.41   12.55   0
   2   5  -3   41.32    8.89   0
  -4   7  -2  150.34    7.32   0
   3  -5  -5    8.57    7.19   0
  -5   1   0    4.39    9.82   0
   5   5  -7   10.48   14.22   0
  -6   6  -2   16.58   12.20   0
  -5   5  -1    0.81    9.17   0
  -2  -5  -2   16.78    9.23   0
  -2   7  -2  155.57    8.45   0
   0  -6  -4   56.04   10.29   0
   0   4  -1  145.69    8.45   0
   3  -3  -3   21.06    7.16   0
   3   5  -4  147.01    8.82   0
  -1  -6  -4   28.73    8.31   0
  -1  -5  -2   53.03    5.80   0
  -1   5  -1  150.61    6.32   0
  -1   9  -4    9.62    7.22   0
   1  -6  -5    2.53    8.12   0
   4   6  -6    0.98   12.29   0
  -6   4  -1   70.20    9.76   0
  -5   2   0   67.63    8.82   0
  -5   7  -2  134.91   11.27   0
  -4  -4  -2   11.07   10.48   0
  -3  -5  -3   -3.20   10.08   0
  -2  -4  -1   17.86    8.50   0
  -1  -4  -1    7.01    7.37   0
  -1   8  -3   89.54    9.40   0
   0   6  -2   60.68    8.91   0
   1  -5  -3   -1.30    7.57   0
   2  -5  -4  134.82    9.60   0
   2  -3  -2  993.65   12.04   0
   3  -4  -4  115.23    8.05   0
   4  -2  -4   47.09    8.70   0
   5  -3  -7   64.94   11.69   0
   5  -2  -6    6.22    8.70   0
   1   5  -2   64.52    5.73   0
   4  -4  -6   51.67    7.39   0
  -5  -3  -2    6.00   10.05   0
  -4  -3  -1   10.26    7.72   0
  -4   6  -1   15.32    9.38   0
  -3   4   0   22.16    7.65   0
  -3   6  -1    0.93    7.79   0
   0  -6  -5   20.01   11.09   0
   1  -4  -2  126.79    8.06   0
   3  -5  -6   46.35   10.49   0
  -1  -2   0  257.71    9.21   0
   1   9  -5    4.58    8.13   0
   2  -4  -3   91.24    6.66   0
   2   8  -5    0.29    7.29   0
  -5  -2  -1    2.56   11.15   0
  -5   3   0  312.14   10.40   0
  -4   4   0   61.66    8.93   0
  -2   6  -1  468.55   10.28   0
  -1   7  -2  105.17    8.20   0
   1   8  -4   88.99    9.35   0
   4  -3  -5    6.95    8.96   0
  -3   9  -3   -6.78    8.15   0
  -2  -5  -3   21.10    6.51   0
  -2   4   0 1809.58   13.68   0
   0  -5  -3   35.86    5.67   0
   1   3  -1  228.50    7.80   0
   2   7  -4   42.67    6.74   0
   4  -4  -7   39.58    8.32   0
  -6   5  -1   42.48   10.90   0
  -5   6  -1   26.31    8.92   0
  -3  -2   0  140.75    9.24   0
   0   9  -4   25.67   10.26   0
   2  -5  -5   55.05    9.00   0
   3   8  -6   -1.35   11.19   0
   4   5  -5  289.58   11.58   0
  -4   8  -2   -1.99    7.39   0
  -3   8  -2  144.56    8.11   0
  -2   9  -3    3.20    7.26   0
  -1  -5  -3    9.07    6.34   0
   0  -3  -1  524.11    8.96   0
   0   1   0  481.52   13.60   0
   1  -5  -4  273.17    7.92   0
   1   7  -3   71.41    6.81   0
   3   7  -5    0.19    7.14   0
  -4  -4  -3    4.58   10.31   0
  -3  -4  -2   -2.29    9.06   0
   0   8  -3  107.64    9.33   0
   3  -4  -5   47.76    9.05   0
   3  -2  -3  629.93   11.03   0
   4  -1  -4  125.42    9.76   0
   5  -1  -6    8.45    8.92   0
  -2   8  -2   34.76    6.57   0
   0  -4  -2 2665.86   15.51   0
   2  -5  -6   -0.03    7.02   0
   5  -2  -7    2.66    6.97   0
   6   1  -8    1.92   13.45   0
  -5   4   0  458.44   10.60   0
  -2  -5  -4   33.77   10.35   0
  -2  -2   0  854.37   14.43   0
  -1   6  -1 2029.80   15.30   0
   0   5  -1 1741.51   14.20   0
   2   4  -2   10.38    7.48   0
   2   6  -3   19.66    7.81   0
  -3   5   0   25.05    6.28   0
  -3   7  -1   68.45    6.72   0
   0  -5  -4    0.24    6.31   0
   2  -2  -2 3747.49   21.20   0
   3  -3  -4  947.70   10.79   0
   4  -3  -6   34.35    6.53   0
   4   3  -4   15.92   11.53   0
  -5  -3  -3   21.90   11.43   0
  -4   5   0   39.74    7.96   0
  -4   7  -1   79.70    9.48   0
  -3  -3  -1  145.80    9.48   0
  -2  -4  -2   43.75    8.02   0
  -1  -5  -4   -6.75    8.73   0
  -1   9  -3   17.50   10.29   0
   0   7  -2  703.49   10.75   0
   1  -5  -5   78.91    9.14   0
   2  -4  -4   10.33    7.65   0
   3   4  -3    3.81    8.59   0
   3   6  -4   13.71    9.21   0
  -1  -4  -2  190.40    7.35   0
  -1   4   0   11.27    5.41   0
   0   2   0 3249.83   23.99   0
   1  -4  -3  128.48    7.00   0
   1   6  -2   55.92    6.12   0
   3  -4  -6    0.43    6.02   0
  -6   6  -1    9.27   12.01   0
  -5   7  -1  110.41   11.03   0
  -2   5   0   48.78    7.56   0
  -2   7  -1  307.00    9.02   0
  -1  -3  -1  468.85   10.27   0
   1  -5  -6   -5.07   10.08   0
   4  -2  -5 1353.22   14.36   0
   5  -2  -8    4.37   10.98   0
  -1  -5  -5    0.41    7.18   0
  -1   8  -2    0.71    6.37   0
   0  -5  -5   21.56    7.50   0
   1  -3  -2  734.87    9.56   0
   2  -3  -3    4.68    5.30   0
   5   4  -6    1.56   14.20   0
  -5   5   0   26.04    9.27   0
  -4  -3  -2   33.20    9.30   0
  -3  -4  -3    2.99    8.76   0
  -2  -3  -1  261.33    9.21   0
   1   4  -1 1258.99   13.81   0
   1   9  -4   31.66   11.74   0
   3  -4  -7   10.31    9.96   0
   4  -3  -7    3.32   10.02   0
   4   7  -6    2.96   11.30   0
  -3   9  -2   67.70    8.45   0
   0  -5  -6   27.06    8.19   0
  -7   3  -1    4.44   14.36   0
  -4  -1   0   45.71   11.83   0
   5   0  -6   27.61   11.03   0
  -7   4  -1   -2.72   11.13   0
   2  -4  -5   34.95    8.98   0
   2   8  -4   53.22   10.40   0
   4  -3  -8    4.36   11.01   0
   4   0  -4  262.37   11.27   0
   5  -1  -7   10.30   10.00   0
  -4   6   0   49.63    6.81   0
  -3   6   0    8.61    5.50   0
   0  -4  -3  297.12    7.73   0
   0   3   0   17.48    5.88   0
   0   9  -3   80.31    7.62   0
   1   8  -3  117.43    6.90   0
  -6   3   0   11.20    9.10   0
  -4   8  -1  180.01   11.16   0
  -2  -4  -3   77.40    8.65   0
  -2   9  -2    9.53   10.99   0
  -1   7  -1   80.61    7.98   0
   0   6  -1  201.31    9.44   0
   1  -4  -4  790.52   11.31   0
   3  -3  -5   21.10    7.62   0
   3  -1  -3    5.07    7.35   0
  -3  -4  -4    8.76    7.23   0
  -3   8  -1  105.43    7.99   0
  -1  -4  -3  626.14    9.17   0
  -1   5   0   53.05    5.61   0
   3   8  -5   10.58    8.27   0
  -6  -1  -2    1.39   12.44   0
  -6   4   0   12.36    9.09   0
  -5  -2  -2   -0.24    8.66   0
  -5   6   0   33.58    9.28   0
  -3   2   1  803.22   13.14   0
  -2   6   0  251.40    9.23   0
   2  -4  -6   16.08    8.74   0
   2   5  -2    3.59    8.71   0
   2   7  -3  132.78    9.74   0
   4  -2  -6   18.87    9.08   0
   4   6  -5    2.17   10.23   0
  -3  -4  -5   -1.53    7.83   0
  -3   3   1  503.69    8.97   0
   0   8  -2   38.29    6.58   0
   1  -1  -1 3798.43   28.87   0
   2  -4  -7   13.09    7.09   0
  -6   2   0    9.27   11.32   0
  -4  -2  -1    2.48    9.76   0
  -6   5   0   21.73   10.84   0
  -2   8  -1   17.99    8.82   0
   1   7  -2  165.48    9.89   0
   3  -2  -4  876.91   11.73   0
   3   5  -3  171.82    9.08   0
   5  -1  -8   41.22    9.98   0
  -4   3   1  408.34    9.25   0
  -2  -4  -4    9.88    6.17   0
  -1   9  -2    3.81    7.43   0
   0  -4  -4    3.63    5.32   0
   0  -3  -2  530.29    8.59   0
   0  -2  -1   25.87    6.85   0
   1  -4  -5   35.53    6.57   0
   1   5  -1  197.55    6.69   0
   3  -3  -6  213.25    7.56   0
   4   4  -4   25.66    9.55   0
  -4  -3  -3   21.96    8.75   0
  -4   2   1    4.70    7.42   0
  -3  -3  -2    3.92    7.78   0
  -2   2   1 5597.74   28.38   0
   0   4   0  194.58    8.63   0
   2  -3  -4   36.74    8.87   0
   3   7  -4   -2.12   10.38   0
   4  -1  -5 1208.21   14.60   0
  -4   7   0   87.53    6.78   0
  -3   4   1 2354.47   15.25   0
  -3   7   0    4.76    6.32   0
  -2   3   1 1655.04   13.89   0
  -1  -4  -4   17.25    6.54   0
   1  -4  -6   46.05    6.48   0
   1  -3  -3 1607.57   12.54   0
   2  -1  -2  627.69   11.40   0
  -3   1   1   72.97   10.18   0
   5   1  -6   81.55   11.72   0
  -4   4   1    3.47    8.29   0
  -2  -4  -5   -7.96   10.08   0
  -1  -1   0  407.97   15.90   0
   1  -4  -7   67.40   10.30   0
   3  -3  -7    0.33   10.27   0
   4  -2  -7    9.05    8.67   0
   5   0  -7   17.30    8.66   0
  -5   7   0    3.28    7.30   0
  -2  -4  -6    2.39    7.86   0
  -1   6   0   14.55    6.00   0
  -1   8  -1   86.14    6.86   0
   0  -4  -5   81.56    6.71   0
   0   7  -1   24.15    5.47   0
   3  -3  -8    9.87    8.18   0
  -6   0  -1    9.30   16.65   0
  -7   2  -1    8.98   18.76   0
  -6   6   0   87.73   12.50   0
  -4  -3  -4    5.21   10.04   0
  -3   9  -1    4.43   11.10   0
  -2  -3  -2  149.29    9.72   0
  -2   4   1  694.42   10.71   0
  -2   7   0   -6.16    9.13   0
  -1  -4  -5    7.77    8.67   0
  -1  -3  -2   17.37    7.49   0
   0  -4  -6   -1.14   10.29   0
   1   9  -3   21.34   11.78   0
   2  -2  -3   96.89    7.79   0
   4  -2  -8   39.66    9.97   0
  -3   5   1  128.12    6.58   0
  -1  -4  -6    6.16    7.00   0
   0  -4  -7   82.82    8.39   0
   2   6  -2    6.33    5.46   0
  -5  -1  -1    3.01   11.15   0
  -5  -2  -3   20.77   10.06   0
  -5   3   1   36.67    8.14   0
  -5   4   1    3.03    7.66   0
  -4   5   1   15.55    7.79   0
   0   5   0  191.65    8.35   0
   1  -2  -2  107.48    8.46   0
   2  -3  -5 1836.58   14.79   0
  -2   9  -1  100.67    8.88   0
   0   9  -2   24.46    8.31   0
   1   6  -1   17.94    5.77   0
   2   8  -3   34.65    7.33   0
   3  -2  -5  106.29    6.56   0
   4   1  -4   15.91   12.42   0
   5   5  -6    8.22   13.91   0
  -4   8   0  -17.05   11.12   0
  -3  -3  -3    1.72    9.04   0
  -3  -2  -1 1926.77   18.54   0
   1   8  -2   14.21   10.23   0
   3   6  -3   -1.13    9.12   0
   4   7  -5   29.59   11.70   0
  -5   5   1   61.09    6.91   0
  -3   8   0   48.82    7.57   0
  -2   5   1  209.07    7.49   0
   0  -3  -3  482.95    8.07   0
   1  -3  -4   66.57    6.59   0
   2  -3  -6   14.38    6.43   0
   4  -1  -6   64.64    5.96   0
   5   0  -8   19.66    7.43   0
  -6  -1  -3    1.33   13.53   0
  -5  -2  -4   -1.88   11.05   0
  -4   6   1   79.01    9.51   0
  -1  -2  -1  303.51   10.02   0
  -1   3   1 5607.58   24.78   0
  -1   7   0  655.16   11.54   0
   2  -3  -8   41.16   11.02   0
   3   8  -4   20.96   11.54   0
   4   5  -4    3.23    8.94   0
  -3   6   1  270.56    6.88   0
   2  -3  -7   80.55    6.65   0
  -4   1   1  129.34   11.03   0
  -5   2   1   14.54    8.16   0
  -4  -2  -2  374.03   10.78   0
  -3  -3  -4   -6.39    8.83   0
  -3  -1   0   98.63    9.25   0
  -2  -3  -3   17.61    7.81   0
  -2  -2  -1  238.80    9.45   0
  -2   8   0   17.09   10.53   0
  -1   4   1   52.73    7.79   0
  -1   9  -1   -5.28   11.54   0
   0   8  -1   10.08    8.74   0
   2   3  -1 1601.78   17.34   0
   3   0  -3 1425.12   18.52   0
   5   0  -9    0.83   10.91   0
  -5   6   1   -6.28    7.65   0
  -1  -3  -3   -1.25    6.22   0
   0   6   0  915.74   10.15   0
   3  -2  -6 1123.33   11.24   0
  -7   4   0    1.63   13.98   0
   5   2  -6   95.44   12.08   0
  -3  -3  -5    6.69   10.22   0
  -2   6   1  209.50    8.62   0
   1  -3  -5   19.38    7.86   0
   2   2  -1   28.67    8.10   0
   2   7  -2   -4.54    8.95   0
   3  -1  -4   44.18    7.64   0
   4  -1  -7   40.76    9.02   0
   4   0  -5  208.30    9.83   0
   5   1  -7   41.00    9.05   0
   0  -3  -4 1025.90   10.78   0
   1  -3  -8   42.04    8.32   0
   1   7  -1  288.70    8.08   0
   2  -2  -4  271.05    7.09   0
   2   4  -1   13.22    5.33   0
   3  -2  -9   10.14    7.69   0
   3  -2  -7  114.12    7.03   0
  -4   7   1   30.70   10.62   0
  -2  -3  -4   66.16    7.87   0
  -2  -1   0 2269.70   26.93   0
  -1   5   1  450.54   10.87   0
   1  -3  -7    2.11    8.51   0
   1  -3  -6  594.98   11.36   0
   1   3   0 1381.93   14.99   0
   3  -2  -8   -6.40   10.01   0
   4  -1  -9   23.93   11.36   0
   4  -1  -8    2.48    9.99   0
  -6   5   1   28.81    7.79   0
  -3   7   1   -4.06    6.40   0
   0  -3  -8   -2.18    7.83   0
   1   4   0  248.24    7.25   0
   1   9  -2   36.35    7.96   0
  -6   4   1   22.79    9.19   0
  -5   7   1   19.55   11.21   0
  -2  -3  -6    3.33    9.86   0
  -2  -3  -5    9.81    8.71   0
  -1  -3  -4   28.31    8.02   0
  -1   8   0   -2.65   10.32   0
   0  -3  -5   16.88    7.60   0
   1   2   0  260.24   11.24   0
   3   7  -3   18.34   10.13   0
   4   6  -4   53.56   10.92   0
  -6   6   1    9.34    8.50   0
  -1  -3  -7   -3.29    7.09   0
   0  -3  -7   24.01    7.37   0
   0  -2  -2    0.72    5.43   0
   0   7   0  134.54    7.14   0
   3   3  -2  100.45   10.02   0
   5   6  -6    8.16   13.70   0
  -4  -2  -3    0.42    9.08   0
  -2   7   1    5.80    8.90   0
  -2   9   0   68.35   11.46   0
  -1  -3  -6   16.73    8.76   0
  -1  -3  -5   34.95    8.38   0
   0  -3  -6   34.97    8.93   0
   0   9  -1    3.86   11.34   0
   1  -2  -3   92.75    7.86   0
   2   5  -1    1.13    8.27   0
   3   4  -2   31.52    8.79   0
   5   1  -8    1.27    9.90   0
  -1   6   1  192.16    6.65   0
   1   5   0    5.78    6.34   0
  -7   3   0   14.69   14.73   0
  -6   3   1  161.65   10.61   0
  -4   8   1    5.59   11.30   0
  -3  -2  -2   10.84    8.63   0
  -1   1   1 3678.04   29.69   0
   2  -2  -9    3.40   11.01   0
   2  -2  -5    4.68    8.63   0
   2   8  -2  104.05   10.72   0
   5   1  -9    6.36   11.06   0
  -4  -2  -4   52.84    6.66   0
  -4   4   2  152.34    6.74   0
  -3   4   2    0.31    6.40   0
  -3   8   1  150.39    8.01   0
   1   8  -1   14.38    7.23   0
  -5  -1  -2   23.67   11.22   0
  -4  -2  -5   24.73   10.19   0
  -4   5   2  220.75    8.71   0
  -3   3   2  126.43    8.41   0
  -3   5   2   14.13    7.92   0
   0   3   1  557.99   10.78   0
   0   4   1  238.99    8.85   0
   2  -2  -8   -3.13    9.98   0
   2  -2  -6    4.32    7.58   0
   2  -1  -3    6.30    7.27   0
   3  -1  -5   -1.43    8.68   0
   3   5  -2    3.67    7.58   0
   4   0  -6   39.33    7.83   0
  -1   9   0   22.66    7.99   0
   2  -2  -7  308.67    8.14   0
   2   6  -1   31.29    5.68   0
  -4   3   2  264.31   10.46   0
  -2   8   1   -4.77   10.29   0
  -1  -2  -2 2825.25   18.96   0
  -1   7   1   19.95    9.06   0
   0   8   0    8.33   10.22   0
   1  -2  -9  -10.75   11.05   0
   1   6   0  419.40    9.84   0
   3   8  -3    7.72   11.19   0
   4   7  -4    4.44   11.59   0
  -4   6   2   34.79    6.62   0
  -2  -2  -2 1009.64   11.59   0
  -2   4   2  125.59    6.10   0
   0   5   1    0.31    6.35   0
  -5   4   2  142.29    9.95   0
  -5   5   2   48.71    9.28   0
  -4  -1  -1   37.02    9.05   0
  -3   6   2   50.79    9.36   0
  -2   3   2 1042.20   12.39   0
  -2   5   2  491.58   10.47   0
   1  -2  -4  251.04    8.71   0
   3  -1  -9    2.54    9.97   0
   3  -1  -6    0.38    7.72   0
   3   6  -2   -1.70    9.13   0
   4   0  -7    6.06    8.90   0
  -5   6   2   43.96    7.78   0
  -3  -2  -3  124.24    6.56   0
   0  -1  -1 1403.84   17.61   0
   1  -2  -8   43.71    7.50   0
   3  -1  -8   15.09    6.16   0
   4   0  -9    6.83    6.91   0
  -6   0  -2    6.09   12.40   0
   5   2  -7   -2.84   10.56   0
  -5  -1  -3    0.33    8.58   0
  -4   7   2   13.25   10.42   0
  -3  -2  -6   10.12    9.83   0
  -3   2   2  116.99    8.59   0
   0  -2  -3  162.70    8.26   0
   0   2   1   19.46    9.89   0
   0   6   1   10.49    7.59   0
   3  -1  -7    0.37    8.99   0
   4   0  -8   32.38    8.71   0
  -2   6   2    1.40    5.29   0
   1  -2  -7    1.07    6.41   0
   1  -2  -5    4.62    6.20   0
   1  -1  -2 7448.58   33.11   0
   1   7   0   82.55    6.79   0
   2   7  -1   80.17    6.89   0
  -5  -1  -4    4.37    9.86   0
  -5   3   2  324.55   10.21   0
  -5   7   2   -3.94   11.43   0
  -3  -2  -5    8.80    8.70   0
  -3  -2  -4   53.20    9.28   0
  -3   7   2    0.07   10.43   0
  -1  -2  -8   12.71   11.19   0
  -1   8   1   21.14   10.19   0
   0  -2  -8    2.16   10.00   0
   1  -2  -6   22.24    7.56   0
   2   0  -2   82.32    9.71   0
  -2  -2  -7    3.84    7.05   0
   5   3  -6   93.82   13.93   0
  -6   5   2   42.47   10.81   0
  -4   2   2  224.69    9.29   0
  -2  -2  -3   28.01    8.88   0
  -2   2   2 4099.98   23.02   0
  -1  -2  -3    7.06    7.41   0
  -1   4   2  138.71    8.20   0
   0  -2  -7   16.48    8.70   0
   3   0  -4   17.00    7.54   0
   3   7  -2   22.83   10.42   0
   4   1  -5  338.16   11.34   0
   5   2  -8   11.38    9.77   0
  -6   6   2   11.43    7.92   0
  -2  -2  -6   43.77    6.54   0
  -2   7   2    6.76    6.26   0
  -1  -2  -7   33.51    7.48   0
  -1   5   2  141.02    6.95   0
   0  -2  -4  497.69    8.14   0
   0   7   1   30.69    6.36   0
   3   2  -2   53.80   11.58   0
  -7   4   1    3.60   14.16   0
  -6   0  -3   -0.56   10.68   0
  -3   8   2   10.74   11.14   0
  -2  -2  -5   22.85    7.54   0
  -2  -2  -4    3.61    7.76   0
  -1   3   2  787.36   11.36   0
   0  -2  -6  158.55    8.25   0
   0  -2  -5   95.56    8.92   0
   2  -1  -9   -0.42    9.95   0
   2  -1  -4  239.53    8.77   0
   5   2  -9    5.18   11.11   0
  -1  -2  -6    0.26    6.39   0
  -1  -2  -4   -0.59    6.19   0
   1   8   0   -0.19    7.11   0
   2   8  -1   10.13    8.30   0
   4   5  -3   86.53   11.82   0
  -6   4   2   -6.27    9.77   0
  -1  -2  -5    4.81    7.74   0
  -1   6   2  260.35    8.71   0
   3   0 -10    2.87   10.88   0
   2  -1  -8   -3.48    6.22   0
  -6   2   1    2.93   11.23   0
   4   4  -3  265.55   12.53   0
  -4  -1  -6   23.97   11.32   0
  -4  -1  -2    6.76    7.82   0
  -2   8   2  136.85   11.94   0
   0   8   1    8.03   10.05   0
   1  -1  -9   -2.57    9.84   0
   1   1   0  413.06   15.89   0
   1   4   1    7.51    7.42   0
   2  -1  -5   89.77    7.74   0
   2   4   0  183.97    8.45   0
   2   5   0   -0.24    7.90   0
   4   6  -3   18.63   10.31   0
  -1   7   2   -1.22    6.26   0
   1   5   1   45.84    6.08   0
   2  -1  -7   54.99    5.63   0
   3   0  -9   -1.27    7.08   0
   4   2  -4  228.59   17.32   0
  -4   5   3  164.98    9.87   0
  -4   6   3    7.79   10.60   0
  -3  -1  -1   29.97    7.78   0
  -3   5   3   34.12    7.70   0
   2  -1  -6   16.27    8.23   0
   4   1  -9    4.02    9.83   0
   4   1  -6   68.11    8.14   0
  -4   4   3   55.04    5.85   0
  -3   4   3  839.43   10.19   0
  -3   6   3   -1.91    6.31   0
   0  -1  -9   21.95    8.25   0
   1   6   1  345.75    8.45   0
   2   6   0    1.81    6.52   0
  -5   5   3   26.92    8.86   0
  -5   6   3   16.76   10.42   0
  -4  -1  -5    1.34   10.20   0
  -4  -1  -3   -3.58    7.56   0
  -3  -1  -7    4.75   11.47   0
  -1   2   2  114.79    8.81   0
   1  -1  -8   57.85    9.13   0
   1   3   1  511.04   10.56   0
   2   3   0  939.18   13.48   0
   3   0  -8  120.50    9.58   0
   3   0  -5    5.08    7.02   0
   4   1  -8   -0.39    8.57   0
   4   1  -7  277.71   10.67   0
   4   7  -3    1.67   11.39   0
  -4  -1  -4  100.65    7.12   0
  -4   7   3   30.50    8.45   0
  -2  -1  -8   21.15    8.04   0
  -2   5   3  521.02    8.25   0
   0   4   2 2786.55   15.86   0
   0   5   2  406.14    8.11   0
   1  -1  -3  325.68    8.00   0
   2   0 -10    1.46    7.81   0
  -5   1   1   27.74   13.27   0
  -6   3   2    4.79    8.94   0
  -5   2   2  629.65   13.70   0
  -3   7   3   38.92   10.46   0
  -2   4   3  101.02    9.17   0
  -1   8   2   10.43   11.52   0
   2   7   0   74.43   10.52   0
   3   0  -7    3.52    7.39   0
   3   0  -6  174.64    9.20   0
   3   4  -1  637.38   12.90   0
   3   5  -1    3.77    7.52   0
  -5   4   3    7.95    6.45   0
  -3   3   3   19.83    5.29   0
  -2   6   3   -5.82    6.50   0
  -1  -1  -8    1.13    7.28   0
   0  -1  -8   57.13    6.55   0
   0   6   2   18.22    6.59   0
   1   7   1   48.99    7.68   0
   3   6  -1   -1.89    6.25   0
   5   6  -5    1.14   15.83   0
   5   3  -7   14.71   12.32   0
  -4   3   3    4.31    8.27   0
  -3  -1  -6   -1.39    9.49   0
  -2  -1  -1  138.31    9.23   0
   0   1   1 1729.12   20.40   0
   1  -1  -7  201.06    8.41   0
   5   3  -9    4.47   11.02   0
  -2  -1  -7   16.77    7.22   0
  -2   7   3   -0.01    7.42   0
   0  -1  -2   56.01    7.55   0
   0   3   2  566.90    8.86   0
   1   0 -10   17.45    7.91   0
  -5   0  -1   34.90    9.69   0
  -3   1   2  547.34   12.71   0
  -2   3   3    1.99    7.52   0
   0   7   2    2.13   10.40   0
   1  -1  -6    4.35    8.31   0
   1  -1  -4  487.51    9.84   0
   1   0  -1  993.41   23.48   0
   2   0  -9  165.37   11.06   0
   3   7  -1   -0.07   10.05   0
   5   3  -8    1.90    9.76   0
  -6   5   3    9.89    7.38   0
   0  -1  -7   86.14    6.82   0
   1  -1  -5   -1.62    5.08   0
   1   8   1    7.07    8.02   0
   3   1 -10   36.05    8.34   0
  -7   3   1   19.53   12.79   0
   3   1  -3 1169.48   21.26   0
  -5   0  -5   14.83   11.56   0
  -3  -1  -5   25.54    9.15   0
  -3  -1  -2   20.51    7.41   0
  -2   1   2  697.30   13.33   0
  -1  -1  -7    9.35    9.10   0
  -1   5   3    2.60    7.64   0
   4   2 -10    1.34   10.98   0
  -2  -1  -6   16.25    6.50   0
  -1   4   3  141.44    7.11   0
  -1   6   3  152.06    7.22   0
   5   5  -5   91.60   19.10   0
  -7   4   2    2.77   11.36   0
  -5   3   3   -1.99    7.65   0
  -3  -1  -4    1.57    7.65   0
  -3  -1  -3 1078.00   14.08   0
   0  -1  -6   20.95    7.95   0
   0   8   2   23.12   11.22   0
   1   2   1  326.52   10.26   0
   2   0  -8    1.34    8.85   0
  -1  -1  -6   13.49    5.34   0
  -1   7   3   35.43    7.59   0
   1   0  -9   15.10    7.08   0
  -6   4   3   56.47   10.79   0
  -5   0  -4   22.42   10.52   0
  -5   0  -3    5.40    8.92   0
  -5   0  -2    5.24    9.13   0
  -3   2   3  688.09   11.59   0
   0  -1  -3  773.79   11.72   0
   2   0  -3 1091.23   15.18   0
   3   1  -9    2.57   10.17   0
   3   3  -1    3.22    7.24   0
   4   2  -9   32.98   10.04   0
  -4   5   4   13.65    6.39   0
  -4   6   4   30.00    7.37   0
  -2  -1  -5   34.24    5.76   0
  -1  -1  -2 5103.19   25.62   0
  -1   0  -9   10.03    7.99   0
  -1   3   3 1724.14   13.00   0
   0  -1  -5  134.74    6.00   0
   0   0  -9   17.55    7.46   0
  -3   5   4   47.14    9.27   0
  -3   6   4   -0.76   10.40   0
  -2  -1  -2 5630.11   27.53   0
   0  -1  -4  221.74    8.54   0
   0   2   2    5.14    7.84   0
   1   5   2   65.82    7.93   0
   1   6   2   63.43    9.25   0
   2   0  -7  100.64    8.08   0
   2   1 -10   15.70   10.85   0
   2   2   0  888.63   14.55   0
   2   5   1  323.19    9.52   0
   4   6  -2    5.94   10.01   0
  -5   6   4   23.64    7.91   0
  -4   0  -6    7.20    7.05   0
  -3   7   4    1.70    7.87   0
  -2  -1  -4  152.40    7.13   0
  -2   2   3  100.58    6.07   0
  -1  -1  -5    1.08    6.09   0
   2   6   1   15.65    6.30   0
  -4   1   2  253.37   12.04   0
  -5   5   4   28.72   10.56   0
  -4   2   3 2911.73   21.61   0
  -4   4   4   85.84    9.51   0
  -3   4   4  117.55    8.34   0
  -2  -1  -3 1659.16   15.14   0
   1   0  -8  146.57    9.56   0
   1   4   2  210.36    9.91   0
   2   4   1   16.50    8.64   0
   3   1  -8  262.63   10.24   0
   4   2  -8   11.20    8.80   0
   4   5  -2   38.26    9.28   0
   4   7  -2   -0.27   11.11   0
  -2   0  -8    0.75    7.19   0
  -2   5   4  150.09    7.22   0
  -2   6   4   -0.11    7.44   0
  -1  -1  -4  380.51    7.72   0
  -1  -1  -3 2691.66   17.18   0
   0   5   3   40.36    5.69   0
   1   7   2   -5.33    7.38   0
   2   0  -6  338.49    8.14   0
   2   7   1   60.77    7.85   0
   4   2  -5  122.61   11.03   0
  -6   1  -4    2.26   11.19   0
  -3   0  -7    5.04   10.06   0
  -1   1   2 6993.46   33.19   0
   0   6   3   15.93    8.82   0
   2   0  -5  844.97   11.74   0
   2   0  -4 1033.35   13.22   0
  -2   4   4   10.14    5.59   0
  -2   7   4   85.45    8.47   0
  -1   0  -8   20.57    6.20   0
   0   0  -8    0.52    6.30   0
   0   4   3  317.31    7.96   0
   1   1 -10    0.98    8.13   0
  -6   1  -1    6.31   12.57   0
  -6   1  -3   18.80   10.04   0
  -5   4   4   68.15    9.27   0
  -4   0  -5    8.01    8.76   0
   0   7   3   -0.56   10.08   0
   3   1  -7   -4.43    7.51   0
   3   2 -10   -1.42   10.66   0
   3   5   0    6.74    9.12   0
   3   6   0   22.50    8.75   0
   4   2  -7  280.67   10.78   0
   4   2  -6   58.06    8.04   0
  -3   3   4 1001.41   11.11   0
   0   1 -10   10.43    7.69   0
   1   0  -7   57.89    5.72   0
   1   3   2   23.39    5.49   0
   2   1  -9   24.37    6.42   0
   3   7   0    2.92    8.23   0
   4   3 -10   -2.40    7.73   0
   5   4  -6    0.62   15.83   0
  -7   2  -1   10.11   16.46   0
  -4   0   0   81.66   11.78   0
  -2   0   1  692.89   27.47   0
  -6   1  -2   30.96   10.89   0
  -6   5   4   42.81   11.33   0
  -4   3   4    1.80    7.69   0
  -1   2   3  101.43    8.07   0
   3   1  -4 2144.88   20.76   0
   5   4  -8    5.77   11.46   0
  -5   1  -6    8.85    7.52   0
  -2   0  -7    9.83    6.24   0
  -1   5   4  302.20    7.99   0
  -1   6   4    6.72    7.60   0
   2   3   1  278.75    7.55   0
   5   4  -7    7.44   12.00   0
  -6   3   3   42.03    9.33   0
  -4   0  -4   66.61    9.51   0
  -3   0  -6   -5.00    8.91   0
  -2   3   4   34.07    9.06   0
  -1   7   4   -5.54   11.23   0
   0   3   3  530.78   10.12   0
   3   1  -6  265.29    9.90   0
   3   1  -5  189.23    8.66   0
   3   4   0   44.89    8.25   0
   4   4  -2   13.72    7.68   0
  -2   1  -9   18.07    7.99   0
  -1   0  -7   -0.90    6.37   0
  -1   4   4  815.28    9.72   0
   0   0  -7   16.39    5.39   0
   4   3  -3   24.86   15.47   0
   5   6  -4   10.96   13.80   0
  -5   2   3  123.13    9.03   0
  -4   6   5   12.27   11.43   0
   1   0  -6   24.44    8.64   0
   1   1  -9   32.98    8.97   0
  -4   1  -7   -4.45    8.11   0
  -3   6   5  149.42    9.33   0
   2   1  -8   68.02    6.81   0
   3   2  -9   69.81    6.60   0
  -6   4   4  177.13   11.72   0
  -5   3   4   19.04    9.19   0
  -4   0  -3  201.60    9.23   0
  -4   5   5   45.03   10.81   0
  -3   1  -8    2.08   11.39   0
  -3   5   5   15.30    8.65   0
  -1   1  -9   20.53   10.33   0
   0   1  -9    0.93   10.34   0
   1   6   3   21.20   10.45   0
   2   2 -10   11.50    9.98   0
   4   3  -9   -4.59    9.87   0
  -3   0  -5  122.39    6.20   0
  -2   0  -6   51.68    5.63   0
   1   5   3    5.81    6.39   0
   2   6   2   23.62    7.16   0
  -6   2   2   21.90   11.35   0
  -5   1  -5   -5.39   10.00   0
  -5   5   5  128.65   12.53   0
  -4   0  -1    5.31    8.85   0
  -2   6   5   20.15   10.11   0
  -1   3   4   64.78    9.35   0
   1   0  -5 2141.72   15.72   0
   1   7   3   -5.15   11.16   0
   2   5   2   24.81    9.25   0
   2   7   2   58.86   11.44   0
   4   6  -1    4.83    9.97   0
  -4   0  -2   21.21    6.07   0
  -4   4   5    0.51    6.32   0
  -3   4   5   45.38    6.69   0
  -2   5   5   60.37    6.52   0
  -1   0  -6  614.91    8.97   0
   0   0  -6   66.22    6.61   0
   0   5   4    5.90    6.33   0
   0   6   4   47.61    7.45   0
  -7   3   2   13.34   13.46   0
  -3   2   4  949.87   12.15   0
   1   2   2 2977.25   19.38   0
   1   4   3  695.27   11.42   0
  -2   1  -8    6.40    7.13   0
   1   0  -2 2653.43   24.39   0
   1   1  -8    2.66    6.31   0
   1   2 -10   -3.12    7.12   0
   2   1  -7  140.95    6.62   0
   2   4   2   37.38    6.00   0
   3   2  -8   35.19    6.51   0
  -5   4   5   -5.41   10.49   0
  -4   1  -6   35.38   10.65   0
  -3   1   3   10.63    7.53   0
  -2   1   3    3.37    7.65   0
  -2   2   4  294.78    9.07   0
  -2   4   5   28.66    9.12   0
   0   1   2   56.47   10.53   0
   0   2   3  168.16    8.56   0
   0   4   4   -5.17    7.70   0
   1   0  -4  139.94    8.22   0
   3   3 -10    9.76   10.51   0
   3   3   0   24.63    8.95   0
   3   6   1   -8.09   10.04   0
   4   3  -8   64.34    9.25   0
   4   5  -1   -2.12    8.80   0
  -4   2   4   52.53    6.45   0
  -3   0  -4    1.03    5.79   0
  -3   1  -7    3.05    7.10   0
  -2   0  -5   14.50    5.98   0
   0   2 -10   41.15    8.10   0
  -5   1  -4    2.38    8.73   0
  -1   1  -8   16.63    8.58   0
  -1   6   5   13.01   10.80   0
   0   0  -5  671.29   10.55   0
   0   1  -8    0.44    8.87   0
   1   0  -3  342.19   10.74   0
   2   2  -9    3.16    8.68   0
   3   5   1   -2.48    8.91   0
  -3   3   5   17.96    5.65   0
  -1   5   5   91.67    6.88   0
   1   3   3    0.61    6.34   0
  -4   3   5    3.14    9.26   0
  -1   0  -5    4.21    7.26   0
   2   2   1  254.10    9.48   0
  -2   3   5 1881.92   13.48   0
  -1   4   5   39.57    6.69   0
   0   3   4 1079.55   11.07   0
   2   1  -6  523.51    8.56   0
   5   5  -8    1.54   13.39   0
  -6   3   4   24.12   10.75   0
  -3   0  -3   32.42    7.28   0
  -2   2  -9   28.92   11.55   0
  -1   1   3  343.68   10.05   0
  -1   2   4  277.53    8.99   0
   1   1  -7   39.37    8.17   0
   2   3   2  167.69    9.76   0
   3   2  -7  266.66    9.34   0
   3   4   1  190.19    9.09   0
   4   3  -7    0.68    8.79   0
  -4   5   6   28.50    8.51   0
  -3   5   6   57.12    7.73   0
  -2   0  -4  267.21    7.12   0
  -2   1  -7  122.90    7.02   0
   1   2  -9   -0.46    6.24   0
   1   6   4   20.63    7.39   0
  -6   2  -4    8.46   11.28   0
  -6   4   5  111.71   12.49   0
  -5   1  -3   24.69    9.20   0
  -5   2  -6    7.15   11.09   0
  -4   1  -5   11.27    8.87   0
  -4   1   3  272.40   10.16   0
  -1   0   1 1013.97   24.06   0
   0   0  -4  173.81    8.49   0
   1   5   4    9.27    8.62   0
   2   3 -10   -5.32   10.09   0
   2   6   3    4.56    9.99   0
   3   3  -9   -1.04    9.47   0
   4   4  -9   -1.22    9.80   0
  -5   3   5   35.96    6.59   0
  -3   1  -6   -1.44    6.35   0
  -1   2  -9   87.29    7.81   0
   0   2  -9    3.63    6.16   0
   2   5   3   27.16    6.34   0
   3   2  -1   84.16   10.40   0
   5   6  -3   -0.47   13.67   0
  -5   2   4   21.41    7.72   0
  -4   4   6   47.42   10.79   0
  -3   2  -8   -4.12    9.92   0
  -3   4   6   -1.33    8.70   0
  -2   5   6   -4.08   10.14   0
  -1   0  -4  979.94   12.01   0
  -1   1  -7   20.21    7.60   0
  -1   3   5   30.87    7.98   0
   0   1  -7  183.65    8.63   0
   0   5   5   38.19   10.33   0
   0   6   5   18.44   11.08   0
   2   2  -8   40.21    7.68   0
   4   4  -1    6.76    7.60   0
   4   6   0    4.18   11.34   0
  -4   2  -7   -1.58    7.01   0
   1   4   4   21.34    6.57   0
   2   1  -5  148.97    6.49   0
   5   5  -7   11.47   14.08   0
  -3   0  -2  150.46    8.64   0
   3   6   2   -0.20   11.59   0
   4   3  -6  153.51    9.00   0
  -3   2   5  110.94    6.74   0
  -2   4   6   15.88    6.29   0
   0   0  -3  750.34   11.01   0
   0   4   5   88.51    6.84   0
   1   3 -10   -7.34    7.09   0
   2   4   3   73.26    5.98   0
   3   2  -6   -1.58    5.80   0
   3   4 -10    0.75    8.11   0
  -5   4   6  179.58   12.44   0
  -2   0  -3   46.95    7.70   0
  -2   2   5    3.43    8.88   0
  -1   3 -10    8.75   11.34   0
   0   3 -10   70.26   10.27   0
   1   1  -6   32.16    7.25   0
   1   2   3    4.12    7.57   0
   3   5   2   24.82    8.78   0
   4   5   0   32.67    9.14   0
  -2   1  -6   28.57    5.46   0
  -2   2  -8    7.64    6.33   0
  -1   5   6    2.56    7.08   0
   0   2   4  513.49    8.38   0
  -7   3   3   24.54   14.74   0
  -6   2   3   23.66   11.30   0
  -5   1  -2   35.97    9.61   0
  -6   2  -3    9.42   10.15   0
  -4   1  -4  116.27    8.38   0
  -4   2   5 1433.95   14.98   0
  -3   0  -1 1041.01   15.89   0
  -3   1   4   50.37    7.95   0
  -3   3   6  236.31   10.16   0
  -2   1   4  251.04    9.14   0
   1   2  -8   -1.67    7.49   0
   3   3  -8  107.07    9.47   0
   3   3   1  154.72    9.58   0
   4   4  -8    0.82   10.05   0
  -5   2  -5    7.04    7.13   0
  -4   3   6   40.75    6.67   0
  -1   0  -3  635.35    9.81   0
   0   1   3  761.27   10.43   0
   1   3   4   23.65    5.82   0
   2   3  -9    9.23    6.36   0
  -3   1  -5  596.65   11.08   0
  -2   3   6   12.91    9.14   0
  -1   2  -8  378.78   10.63   0
  -1   4   6   42.82    9.25   0
   0   1  -6   25.59    7.08   0
   0   3   5   22.63    7.79   0
   2   1  -4 1705.27   16.79   0
  -3   2  -7   42.82    6.51   0
  -1   1  -6  191.10    7.11   0
  -1   2   5   13.58    6.46   0
   0   2  -8  216.39    7.64   0
   2   2  -7   28.12    6.03   0
  -5   1   2  747.39   24.26   0
   5   5  -6    1.19   14.09   0
  -3   0   0    1.72    9.15   0
   4   3  -5   21.87    9.42   0
  -6   3   5  234.50   12.35   0
  -4   2  -6   -0.36    8.57   0
  -2   0  -2   78.00    8.24   0
  -2   3  -9   -4.51    9.90   0
   1   1   2 4939.53   26.06   0
   1   5   5    2.58   10.30   0
   2   2   2 1084.77   13.43   0
   2   3   3   15.45    8.04   0
   3   4   2   -1.93    9.01   0
  -1   1   4  510.55    8.65   0
   2   4 -10   12.87    6.82   0
   2   5   4   26.34    7.58   0
   3   2  -5  340.20    8.45   0
  -5   1  -1  137.74    9.38   0
  -5   3   6   61.43   10.75   0
  -4   4   7   50.85   11.92   0
  -3   4   7    0.09   10.41   0
   0   5   6   30.02   11.66   0
   1   3  -9  258.30   10.11   0
   4   5  -9   -6.94   11.35   0
  -1   3   6  599.30    9.46   0
   1   1  -5  274.60    7.16   0
   1   4   5   -3.61    6.25   0
   3   4  -9   -2.31    7.17   0
  -5   2   5    7.66    9.09   0
  -4   1   4  141.88    9.93   0
  -1   0  -2 1550.81   17.83   0
  -1   3  -9    7.68   10.14   0
   0   0  -1  302.59   12.17   0
   0   3  -9  125.28    9.50   0
   4   4   0   69.60    9.71   0
  -3   3  -8   -2.82    7.08   0
  -2   1  -5    6.47    6.12   0
  -2   2  -7    0.60    6.33   0
  -2   4   7   22.64    7.20   0
   0   4   6   -3.23    7.37   0
   2   4   4    8.43    6.33   0
   3   5 -10    3.87    7.80   0
  -6   2  -2   62.50   11.99   0
   2   1   0 2352.08   28.26   0
  -5   2  -4   37.38    9.22   0
  -5   3  -6   11.75   11.22   0
  -4   1  -3   20.33    7.90   0
  -3   2   6 1234.75   13.56   0
  -2   0   2   87.27   10.07   0
  -1   4 -10   -0.20   11.32   0
   1   2  -7  240.22    9.27   0
   1   4 -10   30.53   10.17   0
   2   1  -3 2130.25   21.68   0
   3   2   0  148.65    9.09   0
   3   3  -7  100.47    8.21   0
   3   5   3   11.99    9.97   0
   4   4  -7   60.86    9.12   0
   4   5   1    5.24   10.11   0
  -2   2   6   -1.34    5.52   0
   0   2   5   94.78    6.74   0
   0   4 -10   27.29    7.00   0
   1   2   4    2.55    6.29   0
   2   3  -8  108.69    6.17   0
   4   3  -2   32.65   13.24   0
   4   3  -4   19.79    9.87   0
  -4   2   6   22.71    9.25   0
  -4   3  -7   -5.91    9.95   0
  -3   1  -4   15.57    8.58   0
  -3   3   7   -8.79    9.68   0
  -1   0   2 2661.50   25.99   0
  -1   1  -5  171.56    8.12   0
  -1   2  -7   19.16    7.65   0
   0   1  -5  331.20    9.08   0
  -4   3   7    9.45    7.39   0
  -3   1   5    1.23    6.30   0
  -3   2  -6   34.39    6.61   0
  -2   1   5   96.62    6.05   0
  -1   4   7   62.04    7.66   0
   0   2  -7  642.37    9.18   0
   1   3   5   35.09    5.55   0
   2   2  -6   11.41    5.03   0
   3   3   2    3.09    5.45   0
   5   5  -5   91.03   19.11   0
  -7   3   4   37.50   14.16   0
  -6   2   4   16.04   10.97   0
  -4   2  -5   18.14    9.00   0
  -2   0  -1 2925.64   25.40   0
  -2   3   7   97.69    9.26   0
   0   1   4  230.52    8.87   0
   0   3   6   34.78    9.11   0
  -2   3  -8   32.75    6.50   0
  -1   2   6   24.12    5.56   0
   2   3   4   66.94    5.93   0
   3   4   3    0.00    6.16   0
   5   5  -3    5.78   15.70   0
  -5   1   0    3.23    9.53   0
   3   2  -4  598.56   14.02   0
  -6   3  -4   91.69   12.30   0
  -6   3   6   14.38   11.53   0
   1   1   3 2819.19   18.60   0
   2   2   3   23.92    8.15   0
   2   4  -9   44.02    9.06   0
   4   5  -8   14.32    9.90   0
  -5   3   7   53.14    9.09   0
  -1   1   5    5.77    5.25   0
   1   3  -8  398.66    7.77   0
   2   5 -10   20.31    8.02   0
  -5   1   3  159.33   12.11   0
  -2   4  -9    1.32    9.94   0
  -1   3  -8    1.88    8.92   0
  -1   3   7   12.40    8.76   0
   1   1  -4  682.65   11.47   0
   1   4   6    4.60   10.17   0
   3   4  -8    6.60    8.74   0
   4   4   1   -1.17    8.81   0
  -5   2   6    2.82    6.43   0
  -4   1   5 1255.68   13.57   0
   0   0   1  293.19   11.51   0
   0   3  -8  168.92    6.38   0
  -6   2  -1   52.51   11.57   0
   4   3  -1   40.97   10.07   0
  -4   1  -2    7.98    8.53   0
  -3   2   7  129.54    9.70   0
  -3   3  -7   14.05    8.83   0
  -2   0   3 1135.19   15.56   0
  -2   1  -4  757.51   11.23   0
  -2   2  -6  579.81   10.83   0
   0   4   7  106.76   12.07   0
   2   1   1  142.01    9.13   0
   2   4   5   19.03    9.94   0
   3   2   1 2083.19   19.13   0
   3   5  -9    8.69    9.72   0
   4   5   2   14.32   11.43   0
  -2   2   7  339.76    8.33   0
   0   2   6  166.02    6.39   0
   1   2  -6    7.19    5.04   0
   1   2   5    4.33    5.65   0
   1   4  -9   28.30    6.20   0
  -7   3  -1    3.80   13.80   0
   5   5  -2   22.63   12.47   0
  -5   2  -3   72.64    9.58   0
  -5   3  -5    8.28   10.14   0
  -4   2   7   13.84    8.98   0
  -4   3  -6    3.55    8.64   0
  -3   3   8   18.24   10.89   0
  -1   0   3  335.04   11.07   0
  -1   4  -9   10.17    9.94   0
  -1   5 -10   20.06   11.03   0
   0   4  -9    8.44    8.58   0
   1   5 -10    5.30   10.65   0
   3   3  -6   35.43    8.16   0
   4   4  -6  244.10   11.09   0
  -3   1  -3    3.58    5.10   0
  -2   1   6   13.86    6.13   0
   0   5 -10   23.43    8.13   0
   1   3   6   11.37    6.45   0
   2   3  -7  151.31    6.68   0
   3   3   3   -0.07    6.44   0
   2   1  -2  325.70   14.84   0
  -6   2   5   21.67   10.80   0
  -4   3   8    9.16   11.25   0
  -3   1   6    4.01    7.96   0
  -3   4  -8   -7.06   10.00   0
  -2   3   8   33.84   10.41   0
  -1   1  -4  986.20   12.18   0
  -1   2  -6   77.15    8.86   0
   0   1  -4  546.10   10.57   0
   0   1   5  143.52    8.06   0
   0   3   7   18.67   10.64   0
  -3   2  -5   17.31    5.52   0
  -1   2   7    2.56    6.45   0
   0   2  -6   94.80    5.63   0
   1   1   4  401.54    7.92   0
   2   2  -5   21.61    5.35   0
   2   2   4   -1.39    5.68   0
   2   3   5    9.31    6.25   0
   3   4   4   11.63    7.14   0
  -5   1   4 2127.95   23.69   0
  -4   2  -4   16.32    7.52   0
  -1   1   6   14.34    8.52   0
   4   3   0  234.19   10.19   0
  -6   3  -3    2.12    7.18   0
  -4   4  -7    7.94    6.74   0
  -2   3  -7    3.73    6.33   0
   2   1   2 5547.16   26.65   0
  -3   0   2  129.19   12.09   0
  -5   4  -6   60.07   11.79   0
  -4   1   6   74.71    8.19   0
  -3   0   3 1585.27   19.69   0
  -2   0   4 1083.90   13.75   0
  -1   3   8   56.62   12.18   0
   2   4  -8  242.01   10.10   0
   2   6 -10   28.07   11.03   0
   3   2   2    5.90    8.65   0
   4   4   2   30.03   10.18   0
   5   6  -6    9.34   11.18   0
  -5   2   7   -3.00    7.70   0
  -1   0   4  147.78    6.68   0
   1   3  -7  362.02    7.96   0
   2   5  -9   26.88    7.18   0
  -2   0   0  247.63   15.62   0
   5   5  -1    3.09   12.07   0
  -3   2   8   -5.29   10.39   0
  -2   4  -8    2.66    8.57   0
  -1   3  -7  196.35    8.68   0
   0   0   3  770.33   12.90   0
   2   4   6    0.47   11.21   0
   3   4  -7  181.54    8.64   0
   4   5  -7   44.20    9.62   0
   4   6  -8   15.48   11.42   0
  -2   2   8   10.34    7.30   0
  -2   5  -9   34.26    8.27   0
   0   2   7    3.74    6.51   0
   1   2   6    3.46    6.42   0
   3   2  -3  632.52   16.59   0
  -6   2   6   33.19   10.55   0
  -5   1   5   -1.79    9.13   0
  -4   2   8   23.64   10.72   0
  -3   0   4   21.17    7.72   0
  -3   1   7    1.16    8.49   0
  -3   3  -6    2.84    9.02   0
  -2   1   7   62.86    7.87   0
  -2   2  -5  162.43    9.56   0
   0   1   6   21.33    8.17   0
   0   3  -7  314.61    9.59   0
   1   1  -3 2166.12   19.93   0
   1   6 -10   23.72   11.14   0
   3   3   4   -3.72    8.87   0
   3   6  -9   78.42   11.80   0
   4   3   1   13.07    7.59   0
  -2   1  -3  337.59    7.91   0
   1   1   5    4.86    6.32   0
   1   3   7   -6.58    7.24   0
   1   4  -8   60.98    6.78   0
   2   1   3 1676.05   14.03   0
   3   5  -8   99.24    7.02   0
   4   3  -3   25.69   15.51   0
  -5   1   1   28.29   13.24   0
  -6   2   0   12.55   11.05   0
  -5   2  -2   15.47    7.67   0
  -5   3  -4   43.22    9.19   0
  -4   1  -1  383.34   10.91   0
  -2   0   5  889.69   12.14   0
  -1   2   8   53.77   10.50   0
  -1   4  -8  -10.09    8.97   0
  -1   5  -9    8.76    9.96   0
   0   3   8   12.44   11.10   0
   0   6 -10    3.83   11.08   0
   1   5  -9   41.55    9.66   0
   2   2   5   26.42    7.62   0
   2   3   6  -10.97   10.23   0
   3   4   5    3.38   10.99   0
  -4   3  -5   34.47    6.44   0
  -1   1   7  196.36    6.74   0
   0   4  -8   15.30    6.38   0
   0   5  -9   42.77    7.24   0
   1   2  -5   59.21    5.64   0
   3   2   3  148.10    6.70   0
  -7   3   0   14.47   14.37   0
   5   5   0    2.76   13.53   0
  -6   4  -4    6.33   11.42   0
  -4   1   7   43.76    9.34   0
  -3   4  -7   21.89    8.84   0
  -1   0   5 2283.48   16.28   0
   0   0   4  179.49    8.78   0
   2   3  -6  205.88    9.58   0
   3   3  -5   79.95    9.09   0
   4   4   3   12.92   10.10   0
  -3   5  -8    4.42    7.11   0
  -1   2  -5   49.48    5.49   0
  -5   2   8   11.29   11.32   0
  -3   0   5    9.27    7.29   0
  -3   1  -2 1556.58   16.33   0
  -3   2  -4   10.68    8.54   0
   4   3   2   34.24    9.25   0
   4   4  -5   50.75    8.03   0
  -5   1   6   11.57    6.45   0
  -3   2   9    8.82    7.85   0
  -2   3  -6   47.58    5.86   0
  -1   1  -3   -1.27    5.46   0
   0   2  -5   88.48    5.76   0
   1   2   7   37.86    6.28   0
  -6   2   7    5.58   11.36   0
  -6   3  -2   -4.27   10.41   0
  -5   4  -5   94.19   10.85   0
  -4   2  -3  115.21    8.72   0
  -4   4  -6   -0.50    8.64   0
  -2   2   9    2.24   11.41   0
   0   1  -3 1448.14   16.28   0
   0   1   7   96.15    8.75   0
   0   2   8    7.41   10.33   0
   2   1   4  152.81    9.79   0
   3   3   5   20.96   10.24   0
  -4   5  -7   31.90    7.47   0
  -3   1   8   11.50    6.44   0
  -2   0   6  354.33    8.34   0
  -2   1   8   -3.44    6.45   0
   0   0   5  691.63    9.24   0
   1   1   6   13.82    5.45   0
   2   4  -7 1087.43   11.48   0
   2   6  -9   31.30    7.16   0
  -5   5  -6   13.60   10.99   0
  -2   6  -9  -10.81   11.28   0
  -1   0   6   19.79    9.04   0
   1   0   2 1536.33   17.92   0
   2   2  -4  109.33    8.05   0
   2   2   6   62.98    9.01   0
   2   5  -8   -1.45    8.81   0
   3   2   4   57.40    9.40   0
  -3   0   6  174.90    7.29   0
  -2   4  -7   28.96    6.49   0
  -2   5  -8   81.94    7.80   0
  -1   1   8   53.94    6.76   0
  -1   2   9    0.00    7.85   0
   1   0   3  615.34    9.86   0
  -4   1   8    3.37   10.38   0
  -1   3  -6    2.20    8.41   0
   1   3  -6 1617.18   14.03   0
   4   3   3   20.43    8.71   0
   4   5  -6   25.53    8.95   0
  -1   6  -9    6.60    6.88   0
   1   6  -9   36.62    7.19   0
   3   4  -6  873.54   11.64   0
  -5   1   7    2.26   10.62   0
  -3   3  -5   49.18    7.97   0
   0   3  -6   22.72    6.92   0
   0   6  -9   59.36   10.36   0
   1   0   4 1028.92   12.40   0
   2   1   5   33.42    8.02   0
   3   6  -8    5.57   10.04   0
   4   6  -7    4.04    9.80   0
  -2   0   7   99.79    6.22   0
  -1   4  -7    8.68    5.28   0
  -1   5  -8   14.71    6.18   0
   0   0   6   84.02    6.81   0
   1   2   8    9.17    8.24   0
   1   4  -7  330.19    7.61   0
   1   5  -8  152.55    7.21   0
   3   5  -7   30.70    6.44   0
   5   6  -5    3.30   15.83   0
  -5   3  -3  273.11   10.71   0
  -3   1   9   -2.40   10.30   0
  -3   6  -8    4.78   11.38   0
  -2   1   9   -3.74   10.29   0
  -2   2  -4  820.29   11.35   0
  -1   0   7   65.56    8.09   0
   0   1   8   67.74    9.28   0
   0   4  -7   -1.11    7.60   0
   0   5  -8    3.15    8.85   0
   1   1   7   28.23    8.93   0
   3   2   5   12.20    8.67   0
  -4   3  -4   -1.71    5.34   0
  -3   0   7    2.23    5.37   0
  -3   4  -6   49.56    6.71   0
   2   2   7    2.45    7.07   0
  -6   4  -3   42.75   10.34   0
  -4   0   4  303.68   11.83   0
  -4   0   5  219.95   10.33   0
  -3   5  -7   -8.69    8.43   0
   1   0   5   10.14    7.30   0
   5   4   0    5.68    9.92   0
  -1   1   9    2.23    7.14   0
   2   7  -9   16.66    7.94   0
   4   3   4    6.10    7.05   0
  -5   1   8   41.81   10.47   0
  -5   2  -1   32.78    7.95   0
  -4   0   6   44.93    7.94   0
  -4   1   9   20.74   12.02   0
  -2   1  -2  416.15   10.77   0
   2   1   6   25.91    9.20   0
   3   1   2   18.79    7.40   0
   5   4   1    9.24    9.88   0
  -6   5  -4    2.69    7.82   0
  -4   4  -5  420.96    8.83   0
  -4   6  -7   24.06    7.90   0
  -2   0   8    5.41    6.42   0
   0   0   7   18.40    5.52   0
   1   2  -4  690.01   10.16   0
   3   1   3 1082.93   12.44   0
   5   4  -1    6.27   11.96   0
  -7   3   1   17.11   12.58   0
  -7   4  -1    1.02   13.47   0
  -5   4  -4   61.03    9.12   0
  -4   5  -6   34.87   10.37   0
  -3   0   8  132.68    9.80   0
  -3   2  -3  350.27    9.46   0
  -2   3  -5  139.80    9.34   0
  -1   0   0  495.52   21.45   0
  -1   0   8  156.71    9.79   0
  -1   2  -4    4.62    7.36   0
   1   0   6  670.19   11.47   0
   2   3  -5 1748.90   15.76   0
   3   1   1   33.34    7.73   0
  -2   6  -8   10.42    6.97   0
  -1   7  -9   16.70    7.92   0
   1   1   8    3.61    7.20   0
   1   7  -9   17.29    8.15   0
   2   6  -8   34.79    6.37   0
   3   2   6    4.52    7.15   0
   4   2   2  373.65    9.10   0
  -6   2   1    4.70   11.01   0
   4   2   1    2.78    9.44   0
  -6   3  -1   20.43    8.92   0
  -5   5  -5   -0.67   10.12   0
  -4   0   7    3.20    9.20   0
  -4   2  -2   61.36    8.96   0
   0   1   9   34.51   11.80   0
   0   2  -4 2886.32   18.57   0
   0   7  -9   -7.62   11.44   0
   3   1   4   -2.11    7.72   0
   3   7  -8   18.38   11.32   0
   5   4   2    4.44   10.84   0
  -2   4  -6    8.41    5.39   0
  -2   5  -7    4.31    6.27   0
   2   4  -6  492.48    9.03   0
   2   5  -7   51.66    5.74   0
  -4   1   0    7.14    7.45   0
   2   0   3   53.94    7.87   0
   2   0   4  293.93    9.08   0
   2   1   7   35.95   10.32   0
   3   3  -4  597.45   12.41   0
   4   2   3    2.54    9.10   0
   4   7  -7   14.81   10.98   0
  -2   0   9  162.44    8.45   0
  -1   6  -8    9.12    6.12   0
   0   0   8    3.42    6.47   0
   1   6  -8   68.75    6.44   0
  -6   1   6    4.82   10.40   0
  -4   0   8   30.72    9.17   0
  -3   0   9   19.50   10.36   0
  -3   1  -1 1232.31   16.26   0
  -1   3  -5 1133.76   12.16   0
   0   6  -8   37.64    8.89   0
   1   0   7   -0.92    8.41   0
   1   1  -2 1868.63   23.57   0
   3   1   5   32.14    9.27   0
  -1  -1   5  284.43    7.44   0
  -1   0   9   -8.47    7.53   0
  -1   5  -7  147.70    6.20   0
   1   3  -5  285.59    7.36   0
   2   0   2   75.04    6.35   0
   2   0   5   21.05    6.11   0
   3   6  -7    7.86    6.02   0
   4   2   4   67.16    6.66   0
  -4   0   3  516.17   16.67   0
   4   2   0    3.18   10.12   0
   4   4  -4   32.60    9.46   0
  -6   1   7    3.20   11.82   0
  -3   3  -4   26.67    8.58   0
  -3   6  -7   61.38   10.20   0
  -1  -1   6   32.57    7.50   0
  -1   4  -6    3.53    8.24   0
   1   5  -7   11.75    7.64   0
   4   6  -6   -3.45   10.03   0
  -2  -1   6  507.27    8.48   0
  -1  -1   4  681.76   10.34   0
  -1   1  -2  190.16    9.14   0
   0   3  -5  481.76    8.26   0
   0   5  -7    1.28    5.23   0
   1   4  -6   41.75    6.37   0
  -7   2   5    6.79   15.85   0
  -6   1   5    0.64   10.90   0
  -5   3  -2   96.83    8.26   0
  -3   4  -5   11.92    7.55   0
  -3   5  -6  197.48    9.84   0
  -2  -1   5  157.70    8.66   0
  -2   7  -8   11.61   10.61   0
   0  -1   5  336.19    9.42   0
   0   4  -6  362.22   10.30   0
   2   0   6   49.32    7.90   0
   2   1   8   17.16   11.53   0
   3   1   6   10.85    8.47   0
   3   4  -5   48.09    8.48   0
   3   5  -6  226.46    9.85   0
   4   5  -5  293.42   11.51   0
  -6   4  -2    7.09    6.98   0
  -4   0   9   -2.36    7.46   0
  -2  -1   7  148.32    6.75   0
  -1  -1   7   45.60    6.02   0
   0  -1   4  563.96    9.28   0
   0  -1   6   30.94    5.27   0
   0   0   9   29.15    7.41   0
   1   0   8   20.84    6.37   0
   2   7  -8   22.02    7.16   0
  -4   3  -3   58.84    8.23   0
  -4   6  -6   -4.56   10.07   0
  -2   0  10   -7.57   11.43   0
   4   2   5   30.17   10.14   0
  -3   0  10   -2.12    7.92   0
  -2   2  -3  870.01   10.71   0
  -1   0  10   27.51    8.14   0
   3   1   0  100.92   10.58   0
  -6   5  -3    1.70   10.64   0
  -5   0   7   19.01    9.03   0
  -5   6  -5    0.92   11.44   0
  -2  -1   4 1769.27   17.40   0
  -2  -1   8   63.91    8.72   0
  -1   7  -8   16.21    9.68   0
   0  -1   7  188.92    8.97   0
   2   2  -3 1123.18   16.21   0
   5   3   2   -0.28   10.05   0
  -4   4  -4  305.99    7.58   0
  -4   5  -5   37.60    6.60   0
  -2   6  -7    4.42    6.19   0
  -1  -1   8   -1.62    5.39   0
   1   7  -8   12.79    7.17   0
   2   0   7    8.66    6.35   0
  -5   0   6   32.70   11.35   0
  -7   4   0    2.10   11.09   0
  -5   0   8   22.73   10.67   0
  -5   4  -3   49.07    9.14   0
  -5   5  -4    3.70   10.25   0
  -3  -1   6  274.21   10.41   0
  -3  -1   7    3.18    7.63   0
  -1  -1   3 2177.50   20.31   0
   0   7  -8   -8.03   10.28   0
   1  -1   5  190.38    8.51   0
   1   0   9   14.31   10.85   0
   2   6  -7  174.16    9.73   0
   3   1   7   -6.29   11.65   0
   5   3   1   18.17   10.37   0
   5   3   3   23.58   11.47   0
   0  -1   3 1455.58   15.12   0
   0  -1   8    7.63    6.33   0
   1  -1   6  190.72    7.36   0
   5   6  -4    6.70   13.88   0
  -3  -1   5  204.24    8.97   0
  -3  -1   8  262.21   10.53   0
  -3   7  -7   23.05   10.07   0
  -2  -1   9   25.45    9.17   0
  -2   5  -6    0.82    7.51   0
   1  -1   4  998.14   12.38   0
   2   8  -8    8.24   10.79   0
   3   7  -7   23.25    9.98   0
  -2   3  -4  167.22    6.36   0
  -1  -1   9   36.93    6.59   0
  -1   6  -7   77.36    6.80   0
   2   0   8    6.38    7.31   0
  -5   0   9    6.91   11.15   0
  -2   4  -5   36.80    8.47   0
   1  -1   7   19.36    7.79   0
   1   6  -7    3.06    8.94   0
   2   0   1 2859.79   25.17   0
   2   5  -6  405.39   10.05   0
   3   0   4    0.37    8.35   0
   3   0   5  137.75    8.35   0
   4   1   3    1.05    7.53   0
   4   1   4  109.55    9.84   0
   4   7  -6    6.09   11.16   0
  -3  -1   9   -0.56    7.64   0
   0   6  -7   -1.10    6.40   0
   5   5  -3    3.43   17.26   0
  -5   0   5   12.78    9.46   0
  -5   2   0   71.36    8.57   0
  -4   7  -6   15.22   11.32   0
  -3   2  -2 1592.72   15.83   0
  -3   6  -6   -4.10    8.83   0
  -1   8  -8   19.66   11.39   0
   0  -1   9    2.15   10.53   0
   1   8  -8   51.59   11.38   0
   2   3  -4   32.65    7.59   0
   3   0   3   32.85    7.37   0
   3   0   6   -6.14    8.96   0
   4   1   5    6.12   10.14   0
  -2  -1  10   23.02    7.32   0
  -1   2  -3 3924.69   21.04   0
  -1   5  -6  107.75    6.09   0
   0   8  -8  103.86    8.49   0
   1  -1   8    1.06    6.36   0
  -6   3   0    5.41   10.99   0
  -2   7  -7    7.23    9.87   0
  -1  -1  10    9.33   10.82   0
   1  -1   3    2.42    7.94   0
   2   4  -5  545.61   11.68   0
   3   6  -6   72.62    9.37   0
   4   1   2    6.06    7.82   0
  -3  -1  10   34.05    8.74   0
   1   5  -6   21.47    5.78   0
  -7   3   2   12.85   15.39   0
   5   3   0    1.52   12.24   0
  -4  -1   7  288.20   11.00   0
  -4  -1   8    3.34    8.93   0
  -4   2  -1  215.82    9.13   0
  -3   5  -5   99.62    8.00   0
  -1   3  -4   43.69    7.62   0
  -1   4  -5   75.87    7.58   0
   0  -1  10   -0.28   11.44   0
   0   5  -6   14.38    7.83   0
   1   2  -3    0.61    7.93   0
   2  -1   5    8.97    8.88   0
   2  -1   6   35.04    8.00   0
   2   7  -7   52.47   10.53   0
   3   0   7   -0.15   10.28   0
   4   1   6   19.92   11.55   0
  -4   6  -5   48.75    6.52   0
   1  -1   9   24.20    7.43   0
   2  -1   7  119.50    7.23   0
   3   2  -2   58.52   11.61   0
  -6   4  -1   78.77   10.26   0
  -6   6  -3   14.91   11.11   0
  -4  -1   9    9.05   10.46   0
  -3  -1   4 2298.22   21.53   0
  -3   3  -3    9.14    7.24   0
  -3   4  -4  173.68    9.22   0
  -2  -1   3 2316.84   22.60   0
  -1   7  -7    5.01    8.59   0
   0   2  -3  849.10   13.13   0
   2  -1   4  791.69   11.61   0
   3   0   2  149.30    8.75   0
   4   6  -5    3.45   10.02   0
  -5   6  -4   27.81    7.32   0
   0   4  -5    5.60    5.22   0
   1   4  -5  452.78    8.18   0
  -6   5  -2    4.56   10.14   0
  -4  -1   6   73.05    8.45   0
  -2   1  -1  182.80   10.27   0
  -2   6  -6   29.13    9.18   0
  -1  -2   7  254.37    9.70   0
   0   7  -7    5.93    8.67   0
   1   3  -4  220.02    8.71   0
   1   7  -7  108.14    9.31   0
   2  -1   8  -10.02   10.49   0
   3   5  -5  259.07    9.51   0
   5   2   3    6.55   10.23   0
   5   2   4   -2.98   11.05   0
  -4   5  -4   19.36    6.46   0
  -3   7  -6   78.24    7.76   0
  -2   8  -7    2.81    8.16   0
  -1  -2   8    2.32    5.34   0
   0   3  -4 1621.81   13.27   0
  -5   3  -1    0.58    7.54   0
  -5   5  -3    6.39    8.57   0
  -4   3  -2   86.52    9.08   0
  -1  -2   6   -0.90    7.39   0
   0  -2   7  684.03   11.41   0
   0  -2   8  241.41    8.87   0
   5   2   2    0.67    8.64   0
  -4   4  -3   93.30    6.09   0
  -2  -2   7   40.09    6.02   0
  -2  -2   8   49.18    5.65   0
  -1  -2   9    8.08    6.32   0
   0  -2   6   99.38    5.88   0
   2   8  -7    4.48    8.04   0
  -5   1   2  727.89   24.19   0
  -5   4  -2    1.55    9.05   0
  -2  -2   9    0.42    9.06   0
   0  -2   9    8.34    8.98   0
   2  -1   3  362.64    9.80   0
   2  -1   9   31.65   11.40   0
   2   6  -6    1.64    9.02   0
   3   7  -6   92.28   10.67   0
   4   1   1   42.27    8.89   0
  -2   5  -5    9.99    5.69   0
  -1   6  -6   12.25    5.29   0
  -1   8  -7   10.52    6.98   0
  -6   2   2   19.40   11.34   0
   4   5  -4    1.18   10.95   0
  -7   4   1    4.28   11.20   0
  -4   7  -5   -8.36   10.08   0
  -2  -2   6   20.47    7.29   0
  -2  -2  10    4.15   10.55   0
  -1  -2  10   14.09   10.09   0
   0  -2   5   88.62    8.15   0
   1  -2   6   77.90    9.29   0
   1  -2   7   24.32    7.90   0
   1  -2   8  405.91   10.93   0
   1   8  -7   51.21   10.11   0
   3  -1   6   -1.26    9.07   0
   3   4  -4  729.03   13.44   0
   4   0   5    3.81    8.94   0
   4   0   6   -0.05   10.18   0
  -1  -2   5   63.07    5.96   0
   0   8  -7   39.90    7.52   0
   1   6  -6   39.41    5.59   0
   3  -1   5  577.87    9.28   0
   4   0   4   66.98    7.02   0
  -5   7  -4   27.97   11.53   0
  -3  -2   8   37.68    9.38   0
  -3  -2   9   64.83    9.46   0
  -3   6  -5   46.58    9.18   0
  -3   8  -6  -24.40   11.65   0
   0  -2  10   45.60   10.94   0
   0   6  -6  509.70    9.92   0
   1  -1   2  193.77   12.05   0
   3  -1   7    1.13    9.58   0
   3   3  -3   11.19    7.33   0
   4   7  -5   24.44   11.72   0
  -2   4  -4  817.58    9.54   0
  -2   7  -6  145.90    6.98   0
   1  -2   9   89.06    7.82   0
  -5  -1   8    7.69   10.34   0
  -5  -1   9   -7.93   11.56   0
  -4  -1   5  373.19   11.94   0
  -3  -2   7  270.26    9.66   0
  -3  -2  10   -5.92   11.13   0
  -2   2  -2  831.67   12.53   0
   1  -2   5   48.99    7.85   0
   3  -1   8   -7.34   11.71   0
   3   8  -6    0.18   11.14   0
  -2   3  -3  710.87    9.60   0
  -1   5  -5  121.85    6.71   0
   2   5  -5    0.63    5.66   0
   3  -1   4   19.74    6.35   0
  -6   0   7   48.48   13.23   0
   4   4  -3  274.06   12.52   0
  -6   6  -2   24.27   11.45   0
  -4   6  -4   41.26    8.92   0
  -1  -1   2 1600.43   22.56   0
   1  -2  10    1.60   11.12   0
   2  -2   7    1.42    9.07   0
   2   7  -6   22.95    8.75   0
   4   0   3  204.29    9.32   0
   5   1   4    5.78    9.92   0
   5   2   1    4.61    8.80   0
  -4   8  -5    2.68    7.76   0
  -3   5  -4  759.71    9.58   0
   2  -2   6  604.34    9.20   0
   2  -2   8   14.67    6.34   0
  -5   6  -3   36.38   10.31   0
  -3   1   0  732.92   14.70   0
  -2  -2   5   20.22    7.80   0
  -1   7  -6   62.85    9.26   0
   3   6  -5   99.33    9.60   0
  -2   8  -6    8.96    7.12   0
   0  -2   4 2930.52   17.91   0
   0   5  -5  116.20    6.87   0
   1   5  -5   24.22    6.16   0
   2  -2   9   28.79    8.31   0
   5   6  -3    3.17   13.65   0
  -6   5  -1   33.82   10.49   0
  -5  -1   7   44.32    9.48   0
  -3   7  -5   60.51    9.11   0
  -2   6  -5  247.40    8.61   0
   0   7  -6   15.99    9.18   0
   1   7  -6   27.09    8.99   0
   2  -2   5  173.80    9.73   0
   3   0   1  997.97   15.64   0
   5   1   3    2.00    8.35   0
  -4  -2   9   22.50    7.65   0
  -4  -2  10   -0.31    8.04   0
  -3  -2   6    1.17    6.04   0
  -1   4  -4 1687.33   12.74   0
   1  -2   4    9.59    5.43   0
  -6   3   1  159.98   12.39   0
   1   0   0  485.15   22.03   0
  -6   4   0   12.82    8.69   0
  -4   5  -3  129.60    8.22   0
  -3   4  -3  104.60    9.29   0
  -1  -3   9  265.94   10.38   0
  -1  -2   4  720.60   12.04   0
   2   4  -4   48.07    7.46   0
   2   8  -6    9.95    9.92   0
   3  -1   3    3.77    7.37   0
  -2   9  -6   19.41    7.75   0
  -1  -3   8  412.40    8.01   0
  -1  -3  10    5.27    7.29   0
  -1   8  -6   90.68    7.77   0
   0  -3   8  180.31    6.57   0
   0  -3   9  131.17    7.19   0
   2  -1   2  402.51    9.15   0
   4   3  -2   33.84   13.33   0
  -4   1   1  130.89   11.00   0
  -5   5  -2  155.00    9.82   0
  -4  -2   8    9.33    9.17   0
   0  -3  10   75.23   10.51   0
   4  -1   6   43.22   10.77   0
   4  -1   7    5.37   11.38   0
   4   6  -4   55.91   10.79   0
  -4   7  -4    3.15    7.01   0
  -3   3  -2  172.52    6.65   0
  -2  -3   9   15.19    6.55   0
  -2  -3  10   14.13    7.34   0
  -1   3  -3 6332.58   25.09   0
   0  -3   7  320.89    7.76   0
   1   8  -6   45.07    7.36   0
   3  -2   7   47.02    6.61   0
   3  -2   8   -3.50    7.15   0
   4  -1   5    3.08    6.44   0
  -5   0   4  121.22   14.90   0
  -3   2  -1   10.05    7.47   0
  -3   8  -5   20.13   10.04   0
  -1  -3   7  390.01   10.36   0
  -1   6  -5   86.59    8.03   0
   0   4  -4  362.93    9.35   0
   0   8  -6    7.84   10.12   0
   1  -3   8    1.43    9.11   0
   1  -3   9   28.40   10.41   0
   1   4  -4  120.31    8.01   0
   2   6  -5   23.16    7.57   0
   3  -2   6   35.77    9.36   0
   3   7  -5    0.94   10.20   0
   4   0   2   17.80    8.64   0
  -5   7  -3    1.73    7.01   0
  -4   4  -2  657.46    9.86   0
  -2  -3   8  126.53    6.28   0
  -2   5  -4   98.46    6.72   0
  -1   9  -6    3.40    7.82   0
   1  -3   7  202.96    6.81   0
   1  -3  10   20.59    8.22   0
   2  -2   4  843.92   10.30   0
  -7   3   3   29.13   14.39   0
  -5   2   1   10.80    8.10   0
  -5   4  -1   43.91    7.74   0
  -3   6  -4   32.85    7.56   0
  -2   7  -5  213.88    9.78   0
  -1   2  -2 1502.10   16.76   0
   1   9  -6   17.20   11.03   0
   3   5  -4  150.28    8.89   0
   5   0   5   15.01   11.62   0
   5   1   2   21.50    9.14   0
   0   6  -5  282.05    7.17   0
   0   9  -6   11.60    7.96   0
  -7   4   2    0.22   11.04   0
  -5   3   0  309.07   10.20   0
  -4  -2   7  288.59   11.11   0
  -4   3  -1  108.54    9.59   0
  -4   8  -4   17.57   11.52   0
  -3  -3  10   -0.17   10.32   0
   0  -3   6   12.12    7.38   0
   1   6  -5   97.30    8.14   0
   2   3  -3  961.79   14.09   0
   3  -2   5   15.57    7.91   0
   3   8  -5   15.24   11.22   0
   4  -1   4  131.56    8.40   0
  -2  -3   7  177.89    7.00   0
   1  -3   6    5.28    6.18   0
   2  -3   8   47.63    6.43   0
   2  -3   9   -1.43    7.16   0
   5   0   4   19.39    7.53   0
  -6   0   6    6.29   14.98   0
  -5  -1   6   92.74   12.09   0
  -6   6  -1    2.31   11.54   0
  -4   2   0  474.89   11.32   0
  -3  -3   9    0.03    8.95   0
  -1  -3   6 1746.56   14.58   0
   0   3  -3  328.05    9.73   0
   2  -3   7    7.42    8.32   0
   4   7  -4    7.76   11.52   0
  -4   6  -3   36.87    6.52   0
  -2   8  -5   73.17    7.50   0
  -1   7  -5  112.67    6.94   0
  -5   6  -2    6.16    8.48   0
  -3  -2   5  366.31   10.23   0
  -2  -2   4  110.24    8.51   0
  -2   4  -3    2.25    7.45   0
   1   3  -3    0.64    7.51   0
   2   7  -5   41.34    9.19   0
  -3  -3   8  107.22    7.31   0
  -3   7  -4   64.29    6.75   0
  -1   5  -4  336.46    7.14   0
   0  -2   3  867.82   11.89   0
   1  -2   3 4051.31   21.56   0
  -5  -2   9    6.37   11.72   0
  -3   5  -3 2177.08   16.03   0
  -2   9  -5   -3.94   11.36   0
   0   7  -5  178.92    9.85   0
   2  -3   6   53.62    8.39   0
   4  -2   7   -0.37   10.05   0
  -2   6  -4  900.25    9.91   0
   1   7  -5  232.64    7.71   0
   3  -2   4   11.88    6.24   0
   3  -1   2 1558.37   15.14   0
  -3  -1   3 1242.94   22.12   0
   2   2  -2 1212.73   19.67   0
   5   5  -2   19.20   12.45   0
  -6   5   0   30.75   10.33   0
  -1  -4  10   35.35   10.55   0
  -1   8  -5    5.84    8.71   0
   0  -4   9   11.35    8.99   0
   0  -4  10   34.53   10.26   0
   0  -3   5  537.57   10.35   0
   1  -3   5 1217.36   12.62   0
   2   5  -4   73.64    8.81   0
   2   8  -5    9.01   10.01   0
   3  -3   8    9.80   10.16   0
   4  -2   6    0.50    8.74   0
   4  -1   3   20.12    8.05   0
   4   5  -3   85.47    9.85   0
   5  -1   6    1.87   11.01   0
   5   0   3    7.21    8.94   0
  -2  -3   6  204.80    7.76   0
  -1  -4   9   30.27    6.41   0
   3  -3   7   11.69    6.35   0
  -4  -3  10   -5.94   11.30   0
  -4   7  -3   -1.76    8.64   0
  -3   8  -4   16.08   10.08   0
  -1   9  -5    3.75   10.79   0
   0   5  -4  123.73    7.80   0
   1  -4   9   12.76   10.39   0
   1  -4  10   10.95   11.50   0
   2  -2   3  949.50   12.54   0
   3   6  -4   11.68    9.08   0
  -5   7  -2  140.67    8.14   0
  -4   5  -2   33.61    5.66   0
  -2  -4  10   -5.02    7.45   0
   0  -4   8   14.51    6.62   0
   0   8  -5    4.65    6.08   0
   1   5  -4  117.99    5.94   0
   1   8  -5   22.63    7.32   0
  -5   5  -1   -2.70    8.97   0
  -4  -3   9    7.86   10.35   0
  -4  -2   6   60.67    8.35   0
  -3  -3   7   99.28    8.53   0
  -3   9  -4    1.58   11.13   0
  -2   3  -2    0.68    7.37   0
  -1  -4   8   70.31    8.86   0
  -1  -3   5  328.14    9.40   0
   0   9  -5   64.18   11.12   0
   1  -4   8    2.83    9.05   0
   1   9  -5    8.43   11.26   0
   2  -3   5  149.57    9.71   0
   3   4  -3    2.49    8.53   0
   4  -2   5   13.46    9.20   0
   5  -1   5    7.95   10.11   0
   3  -3   6    2.34    5.33   0
  -6  -1   8    2.94   13.71   0
  -5  -2   8   11.75   12.82   0
  -4  -1   4   17.43   11.11   0
   4   1   0   45.87   11.59   0
  -6   4   1   19.49    8.84   0
  -4   8  -3  260.35   11.45   0
  -3   4  -2   -0.14    7.28   0
  -2  -4   9   58.49    9.49   0
  -2   7  -4  146.29    9.55   0
  -1  -2   3    0.56    8.36   0
  -1   6  -4  307.39    9.45   0
   1   2  -2 3088.74   25.34   0
   2  -4   9    3.27   10.30   0
   3   7  -4   -1.10   10.26   0
  -3   6  -3  242.82    6.93   0
  -1   4  -3  439.77    8.07   0
   0  -4   7    2.58    5.61   0
   1  -4   7    8.88    5.42   0
   2  -4   8   -0.02    6.27   0
   2   0   0  235.42   15.35   0
   6   2   2    0.02   13.66   0
   3   8  -4   28.15   11.20   0
  -2   5  -3  332.50    8.14   0
  -2   8  -4   16.59    6.17   0
   2   6  -4    2.47    5.27   0
  -6   3   2    3.96    8.72   0
  -6   6   0   86.05   11.35   0
  -3  -4  10   -4.41   12.01   0
  -2  -4   8  255.33   10.49   0
  -1  -4   7  399.49   10.06   0
   4   0   1    2.04    8.83   0
   4   6  -3   18.08   10.19   0
   5  -1   4    3.99    8.70   0
  -5   4   0  439.29    8.89   0
  -4  -3   8   67.49    6.84   0
  -4   4  -1  526.99    9.31   0
  -2   9  -4   45.63    7.11   0
   0   6  -4    2.06    5.69   0
   2  -4   7   31.53    6.72   0
   3  -3   5   55.31    5.91   0
   3  -2   3  362.11    8.05   0
   4  -3   7   -6.42    7.13   0
   4  -2   4   12.34    5.43   0
  -6   2   3   18.56   11.29   0
   5   1   1    3.71   10.97   0
   6   1   3    4.76   13.36   0
  -5   6  -1   28.95    8.62   0
  -4   6  -2    0.07    8.98   0
  -2   2  -1 2132.33   18.81   0
  -1   7  -4   11.78    7.44   0
   1  -3   4   39.37    7.97   0
   1   6  -4  283.49    9.44   0
  -3   7  -3   39.88    6.69   0
   0  -3   4 1705.86   13.85   0
   3  -4   8    1.64    7.17   0
   5  -2   6   -2.78    8.01   0
  -3  -4   9   10.17   10.48   0
   0  -5  10   20.84   11.90   0
   0  -4   6  383.53   10.49   0
   0   4  -3  369.03    9.35   0
   1  -4   6    9.01    8.63   0
   2  -3   4  176.97    8.55   0
   2   4  -3   73.49    7.90   0
   2   7  -4   49.80    9.14   0
   4  -3   6   -1.47    8.86   0
   4   7  -3    3.59   11.44   0
   5   0   2    2.81    9.05   0
  -3   3  -1  603.57    9.61   0
  -2  -3   5 1824.94   15.08   0
  -1   8  -4  304.14    7.99   0
  -1   9  -4    8.38    7.01   0
   1  -5  10   14.50    8.01   0
   2   8  -4   44.84    7.50   0
  -2  -1   2  327.44   15.33   0
  -3  -3   6   38.10    8.65   0
  -3   8  -3   15.06   10.26   0
  -1  -5  10   -0.90   10.31   0
   0  -5   9   29.00    9.93   0
   0   7  -4  137.41    8.13   0
   1   4  -3    8.55    7.39   0
   1   7  -4    4.39    9.07   0
   2  -4   6    8.78    7.89   0
   2  -1   1  190.36   10.28   0
   3  -4   7   20.23    9.07   0
   4  -1   2    4.99    8.71   0
  -5   7  -1  106.55    7.75   0
  -4   7  -2  152.00    7.07   0
  -3   9  -3   -3.43    8.07   0
  -2  -4   7 1156.63   11.79   0
  -2   6  -3  897.84   10.05   0
   1  -5   9    6.35    7.33   0
  -7   2   5    3.85   15.82   0
  -7   3   4   32.21   13.96   0
  -6   5   1   31.95   10.44   0
  -5  -2   7   -2.03    9.08   0
  -5   3   1   38.53    7.97   0
  -3   5  -2  548.32   10.97   0
  -1  -5   9   44.09    9.19   0
  -1   3  -2  832.32   12.12   0
  -1   5  -3  700.41   10.47   0
   0   8  -4   22.24    8.89   0
   0   9  -4   23.49   10.17   0
   1   8  -4  104.84    9.08   0
   1   9  -4   19.49   11.75   0
   3   5  -3  167.74    9.08   0
   5  -2   5    9.17   10.13   0
  -4   8  -2    1.11    7.18   0
  -1  -4   6   46.95    6.65   0
   2  -5   9   20.73    7.40   0
   5   2   0   96.51   17.73   0
  -4   3   0  308.28   10.86   0
  -3  -4   8    1.19    9.05   0
  -2  -5  10   11.71   12.07   0
   0  -5   8    2.86    9.12   0
   1  -5   8   12.17    9.13   0
   4  -3   5   37.19    9.37   0
   4   4  -2   15.12    7.73   0
   5  -1   3   27.69    9.28   0
  -2   4  -2  274.29    7.08   0
  -1  -3   4  241.21    7.46   0
   1  -2   2 1516.37   15.50   0
   3  -3   4   27.16    6.38   0
  -5   5   0   13.39    9.06   0
  -4  -3   7    3.73    9.12   0
  -4   5  -1  410.39    9.79   0
  -3  -2   4  599.18   13.16   0
  -2   1   0 1942.46   23.55   0
  -2   7  -3    1.87    7.40   0
   2  -5   8   89.19   10.09   0
   3  -4   6   61.97    9.41   0
   3   3  -2   94.60    8.51   0
  -2   9  -3    6.26    6.92   0
   1  -4   5   83.79    5.82   0
   2  -2   2  855.11   11.46   0
   4  -2   3  117.81    6.78   0
  -6   6   1   24.41   11.43   0
  -5  -3   9   -1.58   11.39   0
  -2  -5   9   29.26   10.76   0
  -2   8  -3   38.91    8.86   0
  -1  -5   8  176.26   10.03   0
   3   6  -3   -0.66    8.99   0
   3   8  -3    5.63   11.12   0
   4  -4   7   -2.24   10.20   0
  -3   6  -2  479.06    8.22   0
  -1   6  -3  836.62    9.95   0
   0  -4   5   12.19    5.35   0
   0   5  -3  205.32    6.58   0
   1  -5   7  165.25    6.45   0
   2  -4   5   27.50    6.40   0
   2   5  -3   31.25    6.37   0
  -6  -1   7   14.52   12.71   0
  -6   4   2    4.06    9.34   0
  -3   2   0  511.38   11.47   0
   3   7  -3   10.47   10.30   0
   5  -3   6    7.44   11.60   0
   5  -2   4   49.64    9.07   0
   0  -5   7   -1.03    5.45   0
   1   5  -3  112.74    5.96   0
   2  -5   7    8.96    6.40   0
   3  -5   8    7.60    7.22   0
   5   4  -1    0.91   12.31   0
  -5   2   2  615.59   14.86   0
   6   0   3    0.57   13.34   0
   6   1   2    5.36   12.23   0
  -5   6   0   46.65    8.76   0
  -4  -4   9    6.41   10.38   0
  -4  -2   5  122.77    9.66   0
  -4   6  -1   17.77    9.19   0
  -3  -5  10    5.46   11.38   0
  -3   7  -2   49.38    9.10   0
  -2  -2   3 1180.25   16.72   0
  -1   7  -3  138.12    8.07   0
  -1   9  -3   22.98   10.05   0
   0  -2   2 9999.99   39.82   0
   3  -1   1 1043.57   15.38   0
  -3   8  -2  140.35    8.05   0
  -3   9  -2   59.62    8.13   0
  -2  -4   6  534.33    9.47   0
  -1   8  -3   92.81    7.01   0
   0  -6  10   13.49    7.83   0
   0   3  -2 3451.61   20.61   0
   1  -3   3 6812.18   26.02   0
   4  -4   6    5.47    6.24   0
  -3  -4   7  185.54    9.04   0
  -3   4  -1  995.07   12.07   0
   0   6  -3  135.33    9.02   0
   2  -3   3  778.47   11.52   0
   2   6  -3   19.48    7.72   0
   2   8  -3   24.96   10.39   0
   3  -4   5    7.43    7.80   0
   3  -2   2 1663.43   16.01   0
   4  -3   4    0.79    7.66   0
   4   5  -2   36.29    9.30   0
   6  -1   4    1.25   11.12   0
  -5   7   0   -5.53    7.14   0
  -4   7  -1   80.63    6.73   0
  -2  -5   8    0.09    6.46   0
  -2   5  -2 4495.36   19.43   0
  -1  -6  10   28.53    8.30   0
  -1  -5   7   24.14    5.58   0
   0   9  -3   70.77    7.56   0
   1   9  -3   23.73    8.20   0
   3  -5   7   -3.25    6.25   0
  -4   2   1    0.54    7.34   0
  -4   8  -1  187.61   10.75   0
  -1  -4   5  518.93   10.23   0
   0  -6   9   85.06   10.70   0
   0   8  -3  111.17    9.40   0
   1  -6   9   -8.06   10.34   0
   1   6  -3   50.83    8.22   0
   2   7  -3  133.77    9.69   0
   4   6  -2    7.60   10.08   0
   4   7  -2    6.68   10.98   0
  -1   4  -2   66.37    5.74   0
   0   7  -3   46.50    5.61   0
   1  -5   6  123.83    6.43   0
   1   8  -3  119.59    7.04   0
   2  -6   9    5.77    8.16   0
   5  -3   5    5.07    7.34   0
   3   0   0    1.29    9.12   0
  -6   5   2   46.56   10.27   0
  -5   4   1    2.48    7.54   0
  -4   4   0   52.00    8.73   0
  -3  -5   9  -10.42   10.67   0
   1   7  -3   70.49    9.30   0
   2  -5   6    7.37    7.74   0
   2   3  -2  638.41   12.44   0
  -2   9  -2   -3.11    8.27   0
  -1   2  -1 1070.94   14.80   0
   0  -3   3  355.97    8.36   0
   1   3  -2 1854.93   16.51   0
   3  -3   3   13.50    5.34   0
  -5  -1   5   74.64   13.54   0
   5   5  -1    5.11   12.08   0
  -6   3   3   40.23    9.14   0
  -5  -3   8    1.29   10.45   0
  -3  -3   5   86.76    9.63   0
  -2   3  -1 3626.05   21.20   0
  -2   6  -2  401.84    9.99   0
  -1  -6   9   42.00   10.61   0
   0  -5   6    9.91    8.23   0
   1  -6   8   13.72    8.90   0
  -4  -4   8   -4.24    7.54   0
  -2  -6  10   28.23    8.10   0
  -2   8  -2   38.72    6.47   0
   1  -4   4 1822.64   13.46   0
   2  -6   8    4.88    7.25   0
   2  -4   4  879.77   10.00   0
   4  -4   5  452.47    9.24   0
  -5   1   3  148.45   11.97   0
  -6   6   2    4.48   11.19   0
  -3   5  -1  119.78    9.25   0
  -2  -3   4   43.30    7.86   0
  -2   7  -2  167.23    8.24   0
   0  -6   8   28.39    9.36   0
   3  -5   6  204.82   10.07   0
   4  -5   7   35.65   10.41   0
   5  -2   3   73.21    9.67   0
   5  -1   2   40.25    7.90   0
  -5   5   1   54.38    9.36   0
  -3   9  -1    4.98   10.96   0
  -2  -5   7   64.33    8.05   0
  -1   9  -2   20.69    9.99   0
   3   4  -2   28.44    8.82   0
   5  -4   6   54.34   12.07   0
  -1   5  -2  679.81    9.06   0
   3  -6   8   16.57    8.26   0
   3  -4   4  190.65    7.27   0
  -4  -3   6  160.94    9.23   0
  -4   5   0   42.49    7.76   0
  -3  -5   8  103.80    9.70   0
  -3   6  -1    1.77    7.56   0
  -3   8  -1  107.05   10.81   0
  -1  -6   8   64.59    9.45   0
  -1  -5   6   31.64    8.36   0
   0  -4   4  394.39    9.74   0
   0   4  -2 2582.44   17.38   0
   4  -2   2   63.45    9.20   0
   5  -3   4   42.98    9.20   0
  -5   6   1   -0.01    7.24   0
  -3   7  -1   74.58    6.65   0
  -2  -6   9   37.20    7.63   0
  -1   8  -2    0.85    6.23   0
   0   9  -2   31.49    8.04   0
   1  -6   7   90.32    6.92   0
   1   9  -2   21.82    8.04   0
   2  -6   7    4.52    6.35   0
   3   7  -2   20.10    7.27   0
   5   0   1   32.73    9.66   0
   6  -1   3   15.35   12.58   0
  -5   7   1   24.82   10.76   0
  -4   8   0   -1.00   10.77   0
  -3   1   1   71.09    8.60   0
  -1   6  -2  166.66    9.25   0
  -1   7  -2  108.00    7.98   0
   1  -5   5  133.11    9.59   0
   2  -5   5   14.19    8.16   0
   3   5  -2    1.12    7.57   0
   4  -5   6   43.95   10.69   0
   4  -3   3   67.62    8.44   0
   6  -2   4    4.66   11.54   0
  -4   6   0   52.20    6.64   0
  -4   7   0   87.97    6.65   0
   0  -6   7    1.98    6.54   0
   2   8  -2   83.94    7.77   0
   3   6  -2   -2.01    6.36   0
   4  -1   1  383.14   12.23   0
  -6   4   3   40.94   10.63   0
  -5   3   2  312.11   10.12   0
  -3  -4   6  956.38   13.72   0
  -3   3   0  123.13    8.31   0
  -2  -4   5  592.75   12.17   0
  -2   9  -1  109.33   12.04   0
   0   8  -2   56.32    8.84   0
   1  -7   9   29.02   11.74   0
   3  -6   7   76.14   10.60   0
  -2   4  -1   71.68    5.76   0
   1   4  -2  812.02   10.59   0
   1   8  -2  -10.74    7.35   0
   2   4  -2   12.03    5.38   0
   3  -5   5  124.30    6.12   0
   5  -4   5   86.42    8.12   0
  -6   2   4   12.66   10.84   0
  -5  -2   6   98.38   12.44   0
  -4   1   2  250.14   12.13   0
   6   0   2    6.16   12.39   0
  -1  -3   3   11.61    7.94   0
  -1  -2   2 3149.59   25.82   0
   0  -7   9   15.55   11.84   0
   0  -5   5  127.54    9.43   0
   0   5  -2  140.79    8.24   0
   2   7  -2    8.67    8.90   0
   4  -4   4  345.47    9.72   0
   0   7  -2  702.08    9.04   0
  -6   5   3   18.68   10.61   0
  -4  -5   9    4.30   11.74   0
  -4   3   1  392.76   11.27   0
  -2   8  -1   14.07    8.63   0
   0   6  -2   60.48    8.67   0
   1   7  -2  165.28    9.74   0
  -2  -6   8   41.06    6.68   0
  -1  -6   7    4.07    6.45   0
  -1   9  -1   -3.85    8.01   0
   2  -6   6   41.93    6.66   0
   2   5  -2    4.30    5.94   0
   2   6  -2    8.20    5.36   0
  -4  -4   7   57.94    9.51   0
  -2   5  -1  193.31    8.12   0
  -2   7  -1  328.95    9.61   0
  -1  -4   4  128.57    8.50   0
   1  -7   8   -1.41   10.16   0
   1  -6   6    7.49    7.71   0
   1   5  -2   69.64    7.58   0
   1   6  -2   50.84    8.17   0
   2  -7   8    3.56   10.01   0
   4  -6   7   22.29   11.43   0
  -2   6  -1  449.93    8.16   0
  -1  -7   9   21.53    8.27   0
   0   9  -1    2.46    7.89   0
   2  -3   2    0.80    5.45   0
   4  -5   5   48.35    6.56   0
   5  -5   6    4.17    8.18   0
  -5   4   2  135.24    9.88   0
  -4   8   1   10.01   11.12   0
  -3  -6   9   86.10   12.47   0
  -3   8   0   43.51   10.58   0
  -2  -5   6  425.76   10.39   0
  -1   3  -1  323.59    9.94   0
   0  -7   8   17.42   10.37   0
   0   2  -1   62.27   11.84   0
   2  -4   3    6.52    7.55   0
   3  -6   6    8.56    8.99   0
   4   6  -1   -1.55   10.15   0
  -5   7   2   -3.09    7.92   0
  -3  -5   7   36.67    6.61   0
  -3   4   0   20.94    5.34   0
  -2   0   1  635.87   27.47   0
   4   3  -1   39.54   10.16   0
  -1   8  -1  107.23    9.12   0
   0  -6   6  563.53   10.29   0
   1  -4   3  481.24   10.13   0
   1  -3   2  868.44   12.58   0
   3  -4   3  118.76    9.67   0
   3  -3   2  184.31    8.72   0
   5  -3   3  286.13   10.84   0
  -5   5   2   48.22    6.70   0
  -5   6   2   49.06    7.49   0
  -4   4   1    5.24    5.78   0
  -3   7   0   -0.01    6.28   0
  -1  -5   5   29.35    6.58   0
   2  -5   4  111.75    7.02   0
   2  -2   1 2196.05   18.20   0
   2   8  -1   33.84    8.07   0
  -5   0   4  108.07   15.67   0
  -5  -3   7   14.62   13.14   0
  -6   3   4   18.56   10.48   0
  -4   7   1   35.85   10.35   0
  -3   5   0   31.67    8.60   0
  -3   6   0    5.99    7.62   0
   3   7  -1    7.45    9.93   0
   4  -6   6    9.00   10.28   0
   4   5  -1    0.69    8.76   0
   5  -4   4   60.54    9.41   0
   5  -2   2   12.89    7.64   0
   6  -3   4  108.53   12.33   0
   6  -2   3    8.23   10.18   0
  -1   7  -1   80.13    5.86   0
   0   8  -1   -1.91    6.29   0
   1  -7   7    6.89    6.28   0
   1  -5   4  382.47    7.58   0
   2  -7   7   -2.38    7.37   0
   3  -5   4  832.03   10.10   0
   4   4  -1    9.39    9.18   0
  -4   5   1   13.41    7.65   0
  -4   6   1   88.37    9.36   0
  -2  -7   9   23.83   11.71   0
  -1  -7   8    8.40   10.61   0
   1   8  -1    8.78   10.37   0
   3  -7   7   31.94   10.33   0
   3  -2   1    8.57    7.50   0
  -2   8   0   14.16    7.30   0
  -1   4  -1   25.80    5.43   0
  -1   9   0   26.88    7.90   0
   5  -5   5   11.10    7.31   0
  -6   1   5    3.77   10.62   0
   5   5   0   -1.58   13.91   0
  -6   4   4  165.95   11.21   0
  -5   2   3  121.09    8.84   0
  -4  -5   8   10.60   10.59   0
  -2  -6   7  186.34   10.10   0
  -1   6  -1 2178.93   15.55   0
   1  -2   1 1093.69   17.07   0
   2  -6   5  272.21    8.96   0
   4  -4   3  111.30    8.42   0
  -6   5   4   27.26    8.25   0
  -1  -6   6   50.31    5.80   0
  -1   5  -1  157.12    6.29   0
   0  -7   7    1.22    6.44   0
   0  -4   3  393.56    8.11   0
   3  -6   5   52.30    6.77   0
   4  -3   2   84.56    6.87   0
  -3  -6   8   15.28   10.47   0
  -3   8   1  171.01   10.77   0
   0   7  -1   26.93    8.43   0
   1  -6   5   88.24    8.25   0
   2   7  -1   88.66    9.38   0
   3   6  -1    0.15    8.91   0
   4  -5   4   22.22    9.16   0
   6  -1   2   36.73   10.74   0
   0  -5   4  120.24    6.09   0
   1   7  -1  294.38    8.05   0
   3   2  -1   83.73   10.42   0
  -5  -4   8   15.85   10.98   0
  -2   7   0    6.60    8.93   0
   0  -3   2 3555.67   21.91   0
  -1   8   0   -2.45    7.22   0
   1  -8   8   33.68    8.47   0
   2  -7   6  177.37    7.37   0
   4  -6   5   59.57    6.67   0
   4   0   0   79.72   11.72   0
   5   4   0    3.32   12.28   0
  -4   7   2   26.62   10.03   0
  -3  -4   5   51.51    8.91   0
  -3  -3   4  602.35   12.60   0
  -3   2   1  775.95   12.95   0
   0   3  -1  523.07   11.23   0
   0   6  -1  198.85    9.34   0
   1   2  -1 2551.84   24.54   0
   3  -7   6   99.57   10.95   0
   5  -1   1  126.29    9.10   0
  -5   6   3    9.55    7.19   0
  -3   7   1    0.97    6.20   0
  -2  -7   8   12.40    7.69   0
  -2   3   0 1086.78   12.00   0
  -2   6   0  241.83    7.04   0
  -1   1   0  560.84   13.82   0
   0  -6   5  295.79    7.48   0
   1  -7   6   80.82    6.86   0
   2   6  -1   33.69    5.67   0
   3   5  -1    3.43    5.32   0
  -5   3   3    2.43    7.52   0
  -4   2   2  212.41    9.20   0
  -2  -4   4   54.93    7.86   0
  -1  -7   7  109.32    9.62   0
   0  -8   8  116.62   12.36   0
   0   5  -1 1810.30   14.35   0
   0   8   0   -6.29   10.11   0
   1   6  -1   14.91    7.92   0
   1   8   0   14.14    9.79   0
   4  -2   1  220.61    9.17   0
   4   6   0   -0.78   11.57   0
   6  -4   4   11.00   11.54   0
  -5   5   3   21.62    6.32   0
  -2   8   1   -2.08    7.19   0
   0   4  -1  139.23    6.27   0
   3   7   0    6.37    7.97   0
   5   3   0   -0.42   10.66   0
  -5   4   3   11.16    8.91   0
  -4   6   2   28.57    9.06   0
  -3  -5   6  235.28    9.43   0
  -2  -5   5    1.45    8.41   0
  -2  -3   3 1003.91   14.41   0
  -2   4   0 1826.66   14.61   0
  -2   5   0   44.49    7.41   0
  -1   7   0  679.07   11.58   0
   3   4  -1  584.85   12.63   0
   4  -7   6   21.49   11.72   0
   5  -5   4    2.30   10.35   0
   5  -4   3   57.09    9.23   0
   6  -3   3    3.43   10.03   0
  -3   6   1  269.41    6.81   0
  -3   8   2   -3.21    7.91   0
   0  -7   6   28.12    6.73   0
   2  -8   7   -1.05    7.37   0
   5   2   0  103.95   17.73   0
   3   3  -1    3.65    8.90   0
  -6   2   5   20.92   10.42   0
  -4  -4   6  233.48   11.10   0
   1   5  -1  201.61    8.42   0
   2  -5   3  356.15    9.11   0
   2   2  -1   29.42    8.14   0
   2   5  -1   -5.80    8.28   0
   3  -5   3 2351.40   16.67   0
   5  -6   5   -7.33   11.69   0
   5  -3   2  105.28    8.29   0
  -4   5   2  210.01    6.80   0
  -2  -6   6    4.18    6.54   0
   1  -8   7   17.94    7.27   0
   2  -6   4 1010.20   10.38   0
   2  -4   2  295.71    7.33   0
   3  -6   4   31.28    5.63   0
  -4  -3   5   21.24    9.86   0
  -6   3   5  212.47   11.86   0
  -6   4   5   98.71   12.00   0
  -4   3   2  252.73   10.24   0
  -3   3   1  501.03   10.41   0
  -3   5   1  124.07    8.90   0
  -1  -5   4  129.03    8.10   0
  -1   8   1   29.35   10.00   0
   0   7   0  150.26    9.70   0
   1   3  -1  229.11    9.37   0
   2   7   0   64.19   10.63   0
   3  -4   2    4.13    7.39   0
  -4   4   2  147.53    6.63   0
  -4   7   3   27.52    8.20   0
  -3  -6   7    5.10    6.32   0
  -3   4   1 2308.02   15.12   0
  -2   7   1   15.23    6.10   0
  -1  -8   8   42.72    8.50   0
  -1  -4   3   14.70    5.46   0
   1  -5   3  718.13    9.31   0
   1   4  -1 1234.47   12.28   0
  -5   6   4    8.12   11.13   0
  -4  -5   7   42.29    9.18   0
  -1  -6   5  103.20    8.51   0
  -1   6   0   17.30    8.18   0
   0  -2   1   66.73   12.15   0
   1  -6   4  298.42    9.91   0
   1   7   0   88.38    9.35   0
   2  -7   5  237.72   10.10   0
   2  -1   0 1850.64   23.07   0
   2   4  -1   13.01    7.35   0
   3  -7   5   76.75    9.33   0
   4  -6   4   38.99    9.24   0
   4  -5   3  138.08    8.46   0
   4   5   0   33.06    8.79   0
   6  -2   2   48.39    9.43   0
  -3   7   2   12.17    7.18   0
  -2   8   2  125.55    8.65   0
   0  -8   7   51.01    7.65   0
   0   8   1   14.07    7.05   0
   1   8   1   11.70    7.71   0
   2   3  -1 1549.96   15.89   0
  -2  -7   7   65.60   10.94   0
   1  -7   5  145.03    9.70   0
   1  -4   2   72.66    8.06   0
   3  -1   0  706.49   14.47   0
   3   6   0   19.85    8.79   0
   4  -4   2  728.92   12.03   0
   4  -7   5   -8.93    7.26   0
  -6   0   6   13.37   14.54   0
  -3  -2   3  619.80   16.82   0
  -1  -7   6   23.38    9.18   0
  -1   5   0   59.38    7.59   0
   2  -8   6   30.89   10.13   0
   2  -3   1 3821.60   21.60   0
   3  -8   6    1.13   11.66   0
   3  -3   1  637.70   11.26   0
   6  -5   4    3.67   11.15   0
  -5   5   4   26.73    7.27   0
  -4   6   3   13.54    7.41   0
  -3  -7   8   22.47    8.52   0
  -2   6   1  213.29    6.57   0
   0   6   0  973.24   10.32   0
  -4   0   3  444.88   16.93   0
  -5   1   4 1863.52   20.96   0
  -4  -6   8   18.49   11.89   0
  -1   7   1   12.38    9.02   0
  -1   8   2   15.02   11.38   0
   0  -6   4    0.16    8.51   0
   1  -8   6  126.15   10.88   0
   2   6   0    1.49    9.04   0
   6  -4   3   38.18   10.58   0
  -3   6   2   56.89    6.57   0
  -1  -3   2 1984.26   17.01   0
   0  -5   3  216.93    6.88   0
   5  -6   4   26.70    7.36   0
   5  -5   3   -2.76    6.39   0
   5  -2   1   32.39    9.59   0
  -2  -8   8   -1.27   11.18   0
  -1  -8   7   51.33   10.52   0
  -1   2   0 6211.85   32.37   0
  -1   4   0    1.58    7.44   0
   0  -7   5  216.44   10.03   0
   1   6   0  413.20    9.78   0
   2   7   1   66.06   10.62   0
  -5   4   4   64.40    6.70   0
  -3   7   3   46.02    7.35   0
  -2   7   2   14.43    6.19   0
   0   7   1   26.37    6.48   0
  -4   5   3  166.34    9.77   0
   1   7   1   53.27   10.70   0
   3   5   0   13.10    9.15   0
   4  -3   1  106.17    9.57   0
   4   4   0   70.41    9.65   0
   5  -4   2    9.37    9.12   0
  -2   5   1  232.61    7.32   0
   0  -8   6   -5.39    7.58   0
   1  -3   1  331.83    8.36   0
   3  -6   3  279.17    7.16   0
  -6   3   6    4.99   11.47   0
  -5   2   4   17.82    7.74   0
  -5   3   4   12.29    9.14   0
  -2  -2   2 1221.31   18.96   0
   0  -4   2 2854.84   18.26   0
   0   5   0  208.20    8.29   0
   2  -7   4  167.31    9.78   0
   2  -6   3 1003.00   12.42   0
   3  -7   4   70.84    9.36   0
   6  -3   2   -0.32    9.62   0
  -3   5   2   14.91    5.48   0
  -1   6   1  205.61    6.65   0
   1  -1   0  563.58   13.98   0
  -3   0   2  134.81   13.29   0
  -6   1   6   -0.53   12.39   0
  -6   2   6   31.27   10.21   0
  -5  -4   7    3.62   10.49   0
  -5   5   5  103.69   12.39   0
  -4   6   4   27.20   10.39   0
  -2  -6   5   18.87    7.89   0
   2  -8   5   80.45   10.82   0
   3  -8   5   25.04   10.32   0
   3  -5   2  606.95   11.49   0
   3   6   1   -7.41   10.24   0
   4  -7   4    7.60   10.33   0
   4  -6   3   38.30    9.24   0
   5   4   1   13.31   10.01   0
  -2  -5   4   75.64    6.79   0
  -1   7   2    1.42    6.10   0
   1   5   0    5.47    6.31   0
   2  -5   2 4898.35   20.35   0
   2   5   0    1.96    5.56   0
  -5  -5   8    0.45   13.75   0
   4  -1   0    6.95    9.09   0
  -4   4   3   57.17    7.96   0
  -3  -6   6   76.84    9.70   0
  -3  -5   5  270.56    9.72   0
  -3   7   4    1.03   10.94   0
  -2  -7   6   23.35    9.24   0
  -2   4   1  716.07   10.68   0
   1  -7   4   13.77    7.61   0
   1  -6   3  941.60   12.32   0
   4  -8   5    7.58   11.16   0
   4  -5   2   44.92    7.90   0
   4   5   1    0.02   10.20   0
  -3   6   3   -6.14    6.25   0
  -2   6   2   -0.94    5.32   0
  -2   7   3   12.09    7.31   0
  -1  -7   5  233.90    7.87   0
  -1  -6   4  290.70    7.63   0
   1  -8   5    4.18    6.35   0
   2   7   2   48.24    8.22   0
  -4  -2   4  230.97   17.89   0
  -3  -7   7   17.76   10.65   0
  -3   4   2    5.18    8.71   0
   0   4   0  205.49    8.55   0
   0   6   1    4.37    7.61   0
   0   7   2   11.76   10.25   0
   2  -9   6   17.65   11.24   0
   6  -5   3   10.49   10.69   0
  -2  -8   7   16.50    8.34   0
   1   7   2    4.69    7.10   0
   2   6   1    3.64    6.55   0
   5  -7   4   33.30    8.44   0
   5  -6   3   31.32    7.59   0
   6   0   1    9.28   13.83   0
  -5   4   5    6.88   10.26   0
  -4   1   3  256.26   10.09   0
  -4   3   3   -3.74    8.23   0
  -3  -4   4  746.12   13.78   0
  -2   1   1 7059.73   40.35   0
  -2   3   1 1669.92   14.96   0
  -1  -8   6   38.56   10.79   0
  -1  -5   3  118.03    8.12   0
   1  -9   6    6.35   11.63   0
   1  -5   2  729.84   10.81   0
   1   6   1  368.00   10.74   0
   3   4   0   48.01    8.29   0
   4   3   0  231.21   10.11   0
   5  -3   1   -0.22    7.58   0
  -4   5   4    6.26    6.20   0
  -4   6   5   19.09    7.90   0
  -1   5   1  471.33    8.83   0
   3  -4   1 1063.30   11.06   0
  -4  -6   7   -0.66   10.54   0
  -4  -5   6   28.88    9.26   0
  -4   2   3 2749.64   21.00   0
  -2  -4   3   79.98    8.21   0
  -1   7   3   40.98   10.26   0
   0  -7   4  156.51    8.36   0
   2  -4   1   82.86    8.06   0
   3  -2   0  505.81   11.44   0
  -3   3   2  137.16    6.33   0
  -2   2   1 5579.93   27.57   0
  -2   7   4   88.50    8.32   0
   0  -8   5    7.53    6.33   0
   5  -5   2  158.76    7.50   0
   6  -4   2    2.39    7.13   0
   6  -1   1    6.20   10.77   0
  -1   6   2  270.93    8.75   0
   0  -6   3  149.18    9.35   0
   1   4   0  261.04    9.06   0
   3   6   2   11.76   11.43   0
   4  -4   1  563.81   11.58   0
  -3   5   3   34.75    5.62   0
  -3   6   4    2.46    7.08   0
  -2   5   2  495.14    8.55   0
   0  -3   1  544.40   10.03   0
   0   3   0   20.03    5.72   0
   0   7   3   -7.68    7.22   0
   1   7   3   -8.68    7.92   0
   2   4   0  182.98    6.68   0
   3  -8   4   -5.53    7.58   0
   3  -7   3   47.30    6.75   0
  -5  -3   6   90.62   15.68   0
  -5   3   5   28.73    9.19   0
  -3   1   2  529.02   12.60   0
  -3   2   2  121.43    8.37   0
  -2   6   3   -4.42    8.92   0
   0  -9   6   28.48   11.72   0
   2  -8   4   18.02    8.96   0
   2  -7   3   -1.15    7.58   0
   3   5   1   -4.08    9.06   0
   4  -8   4   21.62   11.84   0
   4  -7   3    2.14    8.79   0
  -6   2   7    6.14    8.03   0
   2  -9   5    0.33    8.34   0
   3  -6   2  513.97    8.47   0
  -6  -1   7   12.79   12.62   0
  -4   4   4   90.14    9.50   0
  -1   7   4   -7.22   11.17   0
   0   5   1    1.76    8.83   0
   0   6   2   19.88    9.18   0
   2   6   2   10.93   10.55   0
   4  -2   0  469.59   11.28   0
   4   5   2   19.72   11.42   0
   5   3   1   10.10   10.58   0
   6  -6   3   20.71   11.15   0
  -5   4   6  173.17    9.51   0
  -4   5   5   55.72    7.67   0
  -1  -4   2  884.83   11.10   0
  -1   4   1   59.20    5.63   0
   0  -5   2  149.22    6.51   0
   1  -4   1   28.17    5.59   0
   2  -6   2  415.21    8.31   0
   4  -6   2   -1.05    6.41   0
  -5  -1   5   66.78   14.48   0
  -4  -4   5   54.75    9.94   0
   6  -2   1   52.55   11.27   0
  -6   1   7    0.40   11.55   0
  -5   2   5    3.98    9.02   0
   1  -8   4  353.46   10.42   0
   1   6   2   60.14    9.39   0
   2   5   1  339.03    9.45   0
   4   4   1   -4.63    8.94   0
   5  -7   3   -3.31   10.21   0
   5   4   2    0.56   11.06   0
  -3   6   5  147.88    9.29   0
  -2  -7   5   42.01    6.80   0
   0   2   0 3336.70   24.16   0
   1  -9   5   12.91    7.23   0
   1  -7   3  141.85    6.21   0
   1   5   1   46.47    6.15   0
   5  -4   1   40.22    5.82   0
  -6   0   7   42.74   10.56   0
  -2  -8   6    8.32   10.49   0
  -1  -2   1 2579.95   24.84   0
  -1   6   3  172.24    9.71   0
   3   3   0   21.99    9.13   0
   6  -5   2    2.74   10.07   0
  -3   4   3  883.44   10.26   0
  -2  -6   4    6.35    5.54   0
  -2   4   2  130.31    6.15   0
  -2   6   4    7.84    7.18   0
  -1  -8   5   17.66    7.67   0
  -1  -7   4    7.97    6.58   0
  -5   1   5    2.48    9.10   0
  -3  -7   6   92.93   11.34   0
  -3  -6   5  105.11    9.87   0
  -3   5   4   44.66    9.27   0
  -1  -9   6   26.97   11.49   0
  -1   5   2  159.72    9.16   0
   1  -6   2  167.27    9.69   0
   1   3   0 1416.42   14.94   0
   3  -5   1  133.08    9.53   0
   4   2   0    3.22    8.41   0
   5  -6   2   -2.99    8.84   0
  -4   5   6   28.22    8.32   0
   1  -2   0 6393.64   31.74   0
   2   6   3    7.26    6.94   0
   4  -5   1  403.47    8.24   0
  -5   0   5    9.95    7.74   0
  -5   3   6   55.01   10.59   0
  -4   3   4    1.53    7.74   0
  -2   5   3  575.66   10.35   0
  -1  -6   3   47.87    8.61   0
   0   6   3    4.30    8.94   0
   2  -5   1  199.60    8.53   0
   2   3   0  961.86   13.47   0
   3  -3   0  120.93    8.44   0
   6  -3   1   23.10    8.95   0
   0  -9   5   67.27    7.73   0
   0  -8   4   24.89    6.63   0
   0   1   0  505.13   13.63   0
   1   6   3   17.36    7.48   0
   3  -9   4   12.86    7.97   0
   3  -8   3   -4.27    7.46   0
   3   5   2   17.82    6.32   0
  -4   4   5   -3.04    8.91   0
  -3  -3   3   12.83    7.65   0
  -2   6   5   26.06   10.06   0
  -1   3   1 5812.64   25.02   0
   0  -7   3   59.46    7.96   0
   0   4   1  251.56    8.87   0
   2  -9   4   42.41   10.57   0
   2  -3   0 1121.82   13.41   0
   4  -8   3  276.96   11.76   0
   4  -3   0  310.70   10.96   0
  -1   6   4   33.92    7.22   0
   2  -8   3   36.43    6.55   0
   3  -7   2   55.43    6.73   0
   3   4   1  183.48    7.15   0
   5  -1   0    5.10    9.52   0
  -3  -5   4  150.92    9.21   0
  -2  -5   3   41.76    9.16   0
  -2  -3   2  654.25   12.89   0
   0   5   2  434.79   10.15   0
   4  -7   2  165.51    9.59   0
   5  -5   1    3.71    9.01   0
  -3   5   5    2.65    6.13   0
   0  -4   1  148.83    6.62   0
   2  -7   2  167.11    6.43   0
   2   5   2   26.48    6.61   0
  -5  -5   7    7.29   14.15   0
   6   2   2    0.00   13.62   0
  -4  -6   6    8.80   10.44   0
  -3   3   3   16.95    7.32   0
   0   6   4   45.01   10.54   0
   1  -5   1  161.99    8.43   0
   1   5   2   67.28    7.92   0
   1   6   4   21.55   11.92   0
   5  -2   0   71.11    8.61   0
   6  -6   2   24.93   11.65   0
   6  -4   1   83.55    9.60   0
  -5   3   7   78.64    8.55   0
  -4   2   4   54.49    6.47   0
  -2   3   2 1083.50   11.20   0
  -1   5   3    6.26    5.35   0
  -1   6   5    4.97    8.23   0
   0  -6   2   64.16    6.49   0
   1  -9   4    6.99    7.29   0
   1  -8   3  103.77    6.90   0
   1   4   1    7.37    5.26   0
   2   4   1   14.15    6.05   0
   4   4   2   20.54    7.48   0
  -5   2   6   -4.09    8.92   0
  -4   4   6   59.78   10.58   0
  -3   4   4  132.34    8.24   0
  -2   5   4  163.66    9.69   0
  -1  -5   2   67.85    7.91   0
   3   5   3    5.91    9.94   0
   5  -7   2  170.25   11.11   0
  -3   5   6   57.49    7.60   0
  -1   4   2  149.82    6.34   0
   0   6   5   12.80    8.04   0
   3  -6   1   -0.22    5.46   0
   3  -4   0   27.01    5.50   0
   4  -6   1   30.82    6.57   0
  -2  -8   5   -8.76   10.75   0
  -2   4   3  101.57    9.25   0
  -1  -9   5    4.38   11.82   0
   1   2   0  272.28   11.37   0
   4   3   1   11.12    7.73   0
   5   3   2    3.48   10.12   0
  -4   3   5    3.65    6.51   0
  -1  -8   4   95.72    6.93   0
   1  -7   2  113.66    6.09   0
   2  -6   1  464.42    8.40   0
   4  -4   0   54.75    6.40   0
   5   2   1    5.90   10.91   0
  -4   4   7   44.37   11.66   0
  -2  -7   4   52.00    9.41   0
  -1  -3   1  246.29    9.83   0
   0   5   3   46.62    7.79   0
   2  -4   0 1917.20   15.08   0
   3  -9   3    3.65   11.41   0
   5  -3   0  308.41   10.06   0
  -3  -8   6    3.64    7.97   0
  -2   5   5   65.51    6.61   0
   2   5   3   29.99    6.41   0
   5  -6   1    8.71    6.44   0
   3   2   0  146.28   10.54   0
  -4  -5   5  287.03   11.53   0
  -3  -7   5    5.36   10.53   0
  -1  -7   3   79.35    8.83   0
  -1   5   4  327.21   10.48   0
   0  -9   4   31.15   10.42   0
   0  -1   0  500.40   15.09   0
   1   5   3    2.14    9.11   0
   2  -9   3   -1.66   10.15   0
   3  -8   2  149.92   11.12   0
   4  -8   2    0.83   10.26   0
   6  -5   1   41.43   10.48   0
  -3   2   3  671.17   10.05   0
  -3   4   5   46.67    6.65   0
   0  -8   3  113.85    7.09   0
   0   3   1  565.37    9.17   0
  -6  -1   8    3.74   13.54   0
  -5   1   6   10.56    9.14   0
  -5   2   7    6.92   10.18   0
  -4   1   4  133.61    9.93   0
  -2   5   6    1.53   10.02   0
   0   4   2 3077.10   17.54   0
   2   2   0  888.69   14.64   0
   3   4   2    1.96    8.98   0
   4   4   3   10.47   10.08   0
   0  -5   1 1776.21   13.27   0
   1  -6   1 2136.50   14.03   0
   2  -8   2   38.69    6.67   0
   5  -4   0  461.91    8.93   0
;
_shelx_hkl_checksum              83439
loop_
_space_group_symop_operation_xyz
'x, y, z'
'-x, -y, -z'
loop_
_atom_site_label
_atom_site_type_symbol
_atom_site_fract_x
_atom_site_fract_y
_atom_site_fract_z
_atom_site_U_iso_or_equiv
_atom_site_adp_type
_atom_site_occupancy
_atom_site_site_symmetry_order
_atom_site_calc_flag
_atom_site_refinement_flags_posn
_atom_site_refinement_flags_adp
_atom_site_refinement_flags_occupancy
F1A F 0.2419(16) 0.9025(8) 0.4366(10) 0.0851(16) Uani 0.69(2) 1 d . . P
F2A F -0.0984(15) 0.7032(9) 0.3618(14) 0.103(2) Uani 0.69(2) 1 d . . P
F3A F 0.0082(10) 0.8368(8) 0.1885(6) 0.0705(13) Uani 0.69(2) 1 d . . P
F1B F 0.201(4) 0.870(4) 0.475(3) 0.121(6) Uani 0.31(2) 1 d . . P
F2B F -0.1307(18) 0.6841(17) 0.317(2) 0.087(4) Uani 0.31(2) 1 d . . P
F3B F 0.050(4) 0.859(2) 0.208(2) 0.112(5) Uani 0.31(2) 1 d . . P
O1 O 0.3162(3) 0.59685(17) 0.10902(18) 0.0593(4) Uani 1 1 d . . .
N1 N 0.4671(3) 0.25420(19) 0.13546(19) 0.0454(4) Uani 1 1 d . . .
C1 C 0.5795(3) 0.0812(2) 0.0852(2) 0.0473(4) Uani 1 1 d . . .
H2 H 0.6032 0.0310 0.1813 0.057 Uiso 1 1 calc R U .
H3 H 0.7383 0.1202 0.0673 0.057 Uiso 1 1 calc R U .
C2 C 0.3439(3) 0.2905(2) 0.2562(2) 0.0499(5) Uani 1 1 d . . .
H4 H 0.3379 0.2040 0.3171 0.060 Uiso 1 1 calc R U .
C5 C 0.2210(4) 0.4440(2) 0.3038(2) 0.0534(5) Uani 1 1 d . . .
H8 H 0.1359 0.4519 0.3907 0.064 Uiso 1 1 calc R U .
C6 C 0.2193(3) 0.5871(2) 0.2270(2) 0.0414(4) Uani 1 1 d . . .
C7 C 0.0850(4) 0.7545(2) 0.3034(2) 0.0507(4) Uani 1 1 d . . .
H1 H 0.484(4) 0.334(3) 0.082(3) 0.062(6) Uani 1 1 d . . .
loop_
_atom_site_aniso_label
_atom_site_aniso_U_11
_atom_site_aniso_U_22
_atom_site_aniso_U_33
_atom_site_aniso_U_23
_atom_site_aniso_U_13
_atom_site_aniso_U_12
F1A 0.105(2) 0.0501(16) 0.073(4) -0.0035(16) 0.002(2) 0.0268(16)
F2A 0.134(5) 0.085(3) 0.165(4) 0.079(3) 0.119(4) 0.070(3)
F3A 0.082(2) 0.072(2) 0.068(2) 0.0292(18) 0.0155(19) 0.0485(15)
F1B 0.144(12) 0.122(10) 0.050(5) -0.028(6) -0.010(6) 0.095(9)
F2B 0.032(5) 0.084(4) 0.125(6) 0.009(5) 0.025(5) 0.015(3)
F3B 0.157(10) 0.077(5) 0.182(12) 0.097(7) 0.103(9) 0.071(5)
O1 0.0768(10) 0.0600(7) 0.0696(8) 0.0386(6) 0.0436(7) 0.0345(6)
N1 0.0596(10) 0.0356(7) 0.0494(8) 0.0198(6) 0.0188(7) 0.0206(6)
C1 0.0537(10) 0.0400(8) 0.0537(9) 0.0185(7) 0.0148(7) 0.0244(7)
C2 0.0690(13) 0.0399(8) 0.0511(9) 0.0232(7) 0.0220(8) 0.0189(8)
C5 0.0760(13) 0.0458(8) 0.0559(10) 0.0246(8) 0.0372(9) 0.0257(8)
C6 0.0464(10) 0.0360(7) 0.0445(8) 0.0137(6) 0.0168(7) 0.0138(6)
C7 0.0597(14) 0.0413(8) 0.0560(10) 0.0170(7) 0.0221(8) 0.0195(8)
H1 0.107(18) 0.041(11) 0.046(13) 0.005(10) 0.039(13) 0.046(12)
loop_
_atom_type_symbol
_atom_type_description
_atom_type_scat_dispersion_real
_atom_type_scat_dispersion_imag
_atom_type_scat_source
C C 0.0033 0.0016 'International Tables Vol C Tables 4.2.6.8 and 6.1.1.4'
H H 0.0000 0.0000 'International Tables Vol C Tables 4.2.6.8 and 6.1.1.4'
F F 0.0171 0.0103 'International Tables Vol C Tables 4.2.6.8 and 6.1.1.4'
N N 0.0061 0.0033 'International Tables Vol C Tables 4.2.6.8 and 6.1.1.4'
O O 0.0106 0.0060 'International Tables Vol C Tables 4.2.6.8 and 6.1.1.4'
loop_
_geom_angle_atom_site_label_1
_geom_angle_atom_site_label_2
_geom_angle_atom_site_label_3
_geom_angle
_geom_angle_site_symmetry_1
_geom_angle_site_symmetry_3
F1B F1A C7 82(2) . .
F1A F1B C7 75(2) . .
C2 N1 C1 123.55(14) . .
C2 N1 H1 119.0(12) . .
C1 N1 H1 117.5(12) . .
N1 C1 C1 110.84(16) . 2_655
N1 C1 H2 109.5 . .
C1 C1 H2 109.5 2_655 .
N1 C1 H3 109.5 . .
C1 C1 H3 109.5 2_655 .
H2 C1 H3 108.1 . .
N1 C2 C5 126.91(14) . .
N1 C2 H4 116.5 . .
C5 C2 H4 116.5 . .
C2 C5 C6 122.76(15) . .
C2 C5 H8 118.6 . .
C6 C5 H8 118.6 . .
O1 C6 C5 127.31(14) . .
O1 C6 C7 116.81(13) . .
C5 C6 C7 115.86(13) . .
F3B C7 F2A 116.2(8) . .
F3B C7 F2B 106.6(9) . .
F2A C7 F2B 15.4(8) . .
F3B C7 F3A 11.3(10) . .
F2A C7 F3A 108.1(4) . .
F2B C7 F3A 97.0(7) . .
F3B C7 F1A 92.8(9) . .
F2A C7 F1A 108.1(5) . .
F2B C7 F1A 122.1(7) . .
F3A C7 F1A 103.3(4) . .
F3B C7 F1B 111.1(11) . .
F2A C7 F1B 87.4(12) . .
F2B C7 F1B 102.4(13) . .
F3A C7 F1B 120.1(12) . .
F1A C7 F1B 22.7(15) . .
F3B C7 C6 112.9(6) . .
F2A C7 C6 115.2(2) . .
F2B C7 C6 111.9(5) . .
F3A C7 C6 112.5(2) . .
F1A C7 C6 109.0(4) . .
F1B C7 C6 111.3(7) . .
loop_
_geom_bond_atom_site_label_1
_geom_bond_atom_site_label_2
_geom_bond_distance
_geom_bond_site_symmetry_2
F1A F1B 0.53(4) .
F1A C7 1.319(7) .
F2A C7 1.299(5) .
F3A C7 1.315(4) .
F1B C7 1.348(16) .
F2B C7 1.313(12) .
F3B C7 1.276(11) .
O1 C6 1.2236(19) .
N1 C2 1.301(2) .
N1 C1 1.4606(17) .
N1 H1 0.85(2) .
C1 C1 1.515(3) 2_655
C1 H2 0.9700 .
C1 H3 0.9700 .
C2 C5 1.383(2) .
C2 H4 0.9300 .
C5 C6 1.391(2) .
C5 H8 0.9300 .
C6 C7 1.544(2) .
loop_
_geom_torsion_atom_site_label_1
_geom_torsion_atom_site_label_2
_geom_torsion_atom_site_label_3
_geom_torsion_atom_site_label_4
_geom_torsion
_geom_torsion_site_symmetry_4
C2 N1 C1 C1 99.1(2) 2_655
C1 N1 C2 C5 -176.02(18) .
N1 C2 C5 C6 -1.6(3) .
C2 C5 C6 O1 1.7(3) .
C2 C5 C6 C7 -176.67(17) .
F1B F1A C7 F3B 145(3) .
F1B F1A C7 F2A 26(3) .
F1B F1A C7 F2B 33(3) .
F1B F1A C7 F3A 140(3) .
F1B F1A C7 C6 -100(3) .
F1A F1B C7 F3B -38(3) .
F1A F1B C7 F2A -155(3) .
F1A F1B C7 F2B -152(2) .
F1A F1B C7 F3A -46(3) .
F1A F1B C7 C6 88(3) .
O1 C6 C7 F3B 13.6(11) .
C5 C6 C7 F3B -167.8(11) .
O1 C6 C7 F2A 150.4(6) .
C5 C6 C7 F2A -31.1(6) .
O1 C6 C7 F2B 133.9(8) .
C5 C6 C7 F2B -47.5(8) .
O1 C6 C7 F3A 25.9(4) .
C5 C6 C7 F3A -155.5(3) .
O1 C6 C7 F1A -88.0(4) .
C5 C6 C7 F1A 90.5(4) .
O1 C6 C7 F1B -112.1(18) .
C5 C6 C7 F1B 66.4(18) .
