#------------------------------------------------------------------------------
#$Date: 2019-11-23 07:06:42 +0200 (Sat, 23 Nov 2019) $
#$Revision: 232387 $
#$URL: file:///home/coder/svn-repositories/cod/cif/4/34/75/4347580.cif $
#------------------------------------------------------------------------------
#
# This file is available in the Crystallography Open Database (COD),
# http://www.crystallography.net/
#
# All data on this site have been placed in the public domain by the
# contributors.
#
data_4347580
loop_
_publ_author_name
'Chang, Stephanie W.'
'Lewis, Andrew R.'
'Prosser, Kathleen E.'
'Thompson, John R.'
'Gladkikh, Margarita'
'Bally, Marcel B.'
'Warren, Jeffrey J.'
'Walsby, Charles J.'
_publ_section_title
;
 CF3 Derivatives of the Anticancer Ru(III) Complexes KP1019, NKP-1339, and
 Their Imidazole and Pyridine Analogues Show Enhanced Lipophilicity,
 Albumin Interactions, and Cytotoxicity.
;
_journal_issue                   10
_journal_name_full               'Inorganic chemistry'
_journal_page_first              4850
_journal_page_last               4863
_journal_paper_doi               10.1021/acs.inorgchem.6b00359
_journal_volume                  55
_journal_year                    2016
_chemical_formula_moiety         'C12 H8 Cl4 F6 N2 Ru, 2(C6 H4.50 F3 N)'
_chemical_formula_sum            'C24 H17 Cl4 F12 N4 Ru'
_chemical_formula_weight         832.28
_space_group_crystal_system      triclinic
_space_group_IT_number           2
_space_group_name_Hall           '-P 1'
_space_group_name_H-M_alt        'P -1'
_atom_sites_solution_hydrogens   mixed
_cell_angle_alpha                104.9010(10)
_cell_angle_beta                 95.0470(10)
_cell_angle_gamma                92.4630(10)
_cell_formula_units_Z            1
_cell_length_a                   7.7795(4)
_cell_length_b                   7.7876(4)
_cell_length_c                   13.3463(7)
_cell_measurement_reflns_used    9980
_cell_measurement_temperature    296(2)
_cell_measurement_theta_max      33.96
_cell_measurement_theta_min      2.63
_cell_volume                     776.54(7)
_computing_cell_refinement       'Bruker SAINT (Bruker, 2013)'
_computing_data_collection       'Bruker APEX2 (Bruker, 2014)'
_computing_data_reduction        'Bruker SAINT (Bruker, 2013)'
_computing_structure_refinement  'SHELXL-2014/7 (Sheldrick, 2015)'
_computing_structure_solution    'SHELXT (Sheldrick, 2015)'
_diffrn_ambient_temperature      296(2)
_diffrn_measured_fraction_theta_full 0.999
_diffrn_measured_fraction_theta_max 0.999
_diffrn_measurement_device_type  'Bruker APEX-II CCD'
_diffrn_measurement_method       '\f and \w scans'
_diffrn_radiation_monochromator  graphite
_diffrn_radiation_type           MoK\a
_diffrn_radiation_wavelength     0.71073
_diffrn_reflns_av_R_equivalents  0.1112
_diffrn_reflns_limit_h_max       9
_diffrn_reflns_limit_h_min       -9
_diffrn_reflns_limit_k_max       9
_diffrn_reflns_limit_k_min       -9
_diffrn_reflns_limit_l_max       16
_diffrn_reflns_limit_l_min       -16
_diffrn_reflns_number            18392
_diffrn_reflns_theta_full        25.242
_diffrn_reflns_theta_max         25.348
_diffrn_reflns_theta_min         1.587
_exptl_absorpt_coefficient_mu    0.945
_exptl_absorpt_correction_T_max  0.7466
_exptl_absorpt_correction_T_min  0.6364
_exptl_absorpt_correction_type   multi-scan
_exptl_absorpt_process_details   '(Sheldrick , 1996)'
_exptl_crystal_colour            orange
_exptl_crystal_density_diffrn    1.780
_exptl_crystal_description       plate
_exptl_crystal_F_000             409
_exptl_crystal_size_max          0.164
_exptl_crystal_size_mid          0.161
_exptl_crystal_size_min          0.056
_refine_diff_density_max         0.497
_refine_diff_density_min         -0.324
_refine_ls_extinction_method     none
_refine_ls_goodness_of_fit_ref   1.082
_refine_ls_hydrogen_treatment    mixed
_refine_ls_matrix_type           full
_refine_ls_number_parameters     265
_refine_ls_number_reflns         2844
_refine_ls_number_restraints     222
_refine_ls_restrained_S_all      1.199
_refine_ls_R_factor_all          0.0370
_refine_ls_R_factor_gt           0.0321
_refine_ls_shift/su_max          0.022
_refine_ls_shift/su_mean         0.002
_refine_ls_structure_factor_coef Fsqd
_refine_ls_weighting_details
'w=1/[\s^2^(Fo^2^)+(0.0261P)^2^+0.5966P] where P=(Fo^2^+2Fc^2^)/3'
_refine_ls_weighting_scheme      calc
_refine_ls_wR_factor_gt          0.0816
_refine_ls_wR_factor_ref         0.0878
_reflns_Friedel_coverage         0.000
_reflns_number_gt                2603
_reflns_number_total             2844
_reflns_threshold_expression     'I > 2\s(I)'
_cod_data_source_file            ic6b00359_si_002.cif
_cod_data_source_block           1a
_cod_depositor_comments
;
The following automatic conversions were performed:

data item '_exptl_absorpt_correction_type' value 'Multi-scan' was
changed to 'multi-scan' in accordance with the
/home/saulius/struct/COD-crude-data/automatic-downloads/DataCite-retrospective/ACS/depositions/lib/dictionaries/cif_core.dic
dictionary named 'cif_core.dic' version 2.4.2 last updated on
2011-04-26.

Automatic conversion script
Id: cif_fix_values 6909 2019-04-08 15:41:33Z antanas 
;
_cod_database_code               4347580
_shelx_res_file
;
TITL mo_SC_169_11Jan2016_0ma_a_a.res in P-1
REM Old TITL mo_SC_169_11Jan2016_0ma_a.res in P-1
REM SHELXT solution in P-1
REM R1 0.186,  Rweak 0.007,  Alpha 0.042,  Orientation as input
REM Formula found by SHELXT:  C28 N6 F6 Cl4 Ru
CELL  0.71073   7.7795   7.7876  13.3463  104.901   95.047   92.463
ZERR    1.000   0.0004   0.0004   0.0007    0.001    0.001    0.001
LATT  1
SFAC C H N F CL RU
UNIT 24 17 4 12 4 1
LIST 6 ! automatically inserted. Change 6 to 4 for CHECKCIF!!
L.S. 10
BOND $H
LIST 6
FMAP 2
SHEL 999 0.83
RIGU
ACTA
PLAN 20
WGHT    0.026100    0.596600
FVAR       0.49076   0.76131   0.53891
RU1   6    1.000000    0.500000    0.000000    10.50000    0.03254    0.04441 =
         0.05187    0.02007   -0.01066   -0.00250
N1    3    0.852670    0.566085    0.126150    11.00000    0.03611    0.04935 =
         0.05528    0.02058   -0.01095   -0.00310
CL1   5    1.183862    0.755685    0.078627    11.00000    0.04666    0.04900 =
         0.07173    0.02000   -0.01254   -0.01108
CL2   5    1.169135    0.335604    0.091917    11.00000    0.04697    0.05585 =
         0.06523    0.02817   -0.01131    0.00681
N3    3    0.592001    0.045701    0.096703    11.00000    0.09336    0.05465 =
         0.05078    0.01991   -0.02303   -0.00975
H3    2    0.538763    0.026938    0.036288    10.50000    0.07510
C11   1    0.678685    0.561723    0.111107    11.00000    0.04017    0.07825 =
         0.05216    0.01721   -0.01140   -0.00363
AFIX  43
H11   2    0.625885    0.527668    0.043063    11.00000   -1.20000
AFIX   0
C12   1    0.576273    0.604571    0.190327    11.00000    0.04011    0.08047 =
         0.06334    0.02033   -0.00225   -0.00045
AFIX  43
H12   2    0.456688    0.599521    0.176139    11.00000   -1.20000
AFIX   0
C13   1    0.651258    0.655165    0.291086    11.00000    0.05928    0.05565 =
         0.05948    0.01939    0.00166    0.00228
C31   1    0.761536    0.029640    0.104076    11.00000    0.10088    0.07891 =
         0.05152    0.02125    0.00405   -0.00152
AFIX  43
H31   2    0.814127   -0.016185    0.043790    11.00000   -1.20000
AFIX   0
C16   1    0.539871    0.701548    0.379189    11.00000    0.08216    0.09789 =
         0.06533    0.01809    0.01160    0.01092
C15   1    0.925051    0.616467    0.225424    11.00000    0.04507    0.05851 =
         0.05592    0.01917   -0.01525   -0.00072
AFIX  43
H15   2    1.044861    0.621106    0.238107    11.00000   -1.20000
AFIX   0
C14   1    0.829479    0.661182    0.308528    11.00000    0.06199    0.06434 =
         0.04936    0.01551   -0.01067    0.00212
AFIX  43
H14   2    0.883981    0.695329    0.376166    11.00000   -1.20000
AFIX   0
C32   1    0.860968    0.078646    0.197911    11.00000    0.06151    0.08254 =
         0.06860    0.02853   -0.00013    0.00111
AFIX  43
H32   2    0.979541    0.066163    0.201933    11.00000   -1.20000
AFIX   0
C33   1    0.781884    0.146147    0.285237    11.00000    0.07715    0.05348 =
         0.05300    0.01528   -0.01228    0.00100
C34   1    0.605341    0.159727    0.277539    11.00000    0.08137    0.08288 =
         0.06291    0.01074    0.00236    0.02080
AFIX  43
H34   2    0.549188    0.203357    0.336685    11.00000   -1.20000
AFIX   0
C35   1    0.515317    0.107929    0.181604    11.00000    0.06872    0.07673 =
         0.08154    0.02519   -0.01227    0.01086
AFIX  43
H35   2    0.396195    0.116631    0.175677    11.00000   -1.20000
AFIX   0
C36   1    0.887075    0.202337    0.390167    11.00000    0.12575    0.10494 =
         0.06923    0.01654   -0.03623   -0.00623
Part 1
F11   4    0.622784    0.741434    0.471730    21.00000    0.11404    0.24629 =
         0.05833    0.01366    0.01215    0.01310
F12   4    0.441147    0.832199    0.374078    21.00000    0.16149    0.13577 =
         0.13438    0.04682    0.07191    0.08190
F13   4    0.429304    0.564346    0.377824    21.00000    0.13252    0.12853 =
         0.12656    0.02145    0.07106   -0.01614
PART 2
F11A  4    0.564322    0.601176    0.438118   -21.00000    0.14251    0.13592 =
         0.07916    0.04627    0.03963    0.02262
F12A  4    0.594148    0.862712    0.435703   -21.00000    0.13661    0.10956 =
         0.08954   -0.00526    0.04114    0.01114
F13A  4    0.383912    0.697766    0.350184   -21.00000    0.08006    0.19670 =
         0.07991    0.01864    0.01970    0.02271
Part 0
Part 1
F31   4    0.933208    0.087695    0.426610    31.00000    0.22732    0.13097 =
         0.10731    0.04966   -0.09162   -0.00304
F32   4    0.812292    0.334977    0.456730    31.00000    0.14734    0.15424 =
         0.06169   -0.02363   -0.00840   -0.00892
F33   4    1.036481    0.300768    0.382763    31.00000    0.10447    0.17149 =
         0.11173    0.00676   -0.04285   -0.02953
Part 2
F31A  4    1.036592    0.104757    0.385856   -31.00000    0.11270    0.19829 =
         0.12924    0.04466   -0.05259    0.01630
F32A  4    0.811403    0.125826    0.459553   -31.00000    0.14835    0.20364 =
         0.06571    0.05388   -0.01522    0.01338
F33A  4    0.936953    0.351322    0.419050   -31.00000    0.23227    0.10515 =
         0.13009    0.00656   -0.09898   -0.03530
Part 0
HKLF 4

REM  mo_SC_169_11Jan2016_0ma_a_a.res in P-1
REM R1 =  0.0321 for    2603 Fo > 4sig(Fo)  and  0.0370 for all    2844 data
REM    265 parameters refined using    222 restraints

END

WGHT      0.0248      0.6076

REM Highest difference peak  0.497,  deepest hole -0.324,  1-sigma level  0.062
Q1    1   1.0013  0.6421  0.0373  11.00000  0.05    0.50
Q2    1   1.1779  0.8809  0.1201  11.00000  0.05    0.33
Q3    1   1.0536  0.7808  0.0971  11.00000  0.05    0.33
Q4    1   1.1617  0.6176  0.0787  11.00000  0.05    0.33
Q5    1   0.7663  0.2271  0.4594  11.00000  0.05    0.31
Q6    1   1.1683  0.4487  0.0804  11.00000  0.05    0.30
Q7    1   0.9066  0.5236  0.0616  11.00000  0.05    0.30
Q8    1   1.2466  0.2764  0.0388  11.00000  0.05    0.30
Q9    1   1.1233  0.4998 -0.0054  11.00000  0.05    0.29
Q10   1   1.0171  0.2111  0.4087  11.00000  0.05    0.29
Q11   1   0.7060  0.2069  0.2793  11.00000  0.05    0.28
Q12   1   1.1597  0.4504  0.1551  11.00000  0.05    0.28
Q13   1   1.0274  0.4930  0.0734  11.00000  0.05    0.28
Q14   1   0.3881  0.6054  0.3386  11.00000  0.05    0.24
Q15   1   0.5485  0.8885  0.3825  11.00000  0.05    0.24
Q16   1   0.9999  0.3452  0.3880  11.00000  0.05    0.24
Q17   1   1.2927  0.7435  0.0520  11.00000  0.05    0.23
Q18   1   0.9766  0.0752  0.0045  11.00000  0.05    0.22
Q19   1   0.6517  0.4461  0.0399  11.00000  0.05    0.22
Q20   1   1.1376  0.1845  0.0479  11.00000  0.05    0.22
;
_shelx_res_checksum              99855
_shelx_hkl_file
;
   0   0   1  440.22    1.12
   0   0   2  596.18    2.24
   0   0   2  650.40    1.81
   0   0  -2  611.76    2.74
   0   0  -2  641.12    1.80
   0   0   3  128.30    1.30
   0   0   3  147.71    1.11
   0   0   3   74.83    0.98
   0   0  -3  128.38    1.19
   0   0  -3  144.81    1.39
   0   0  -3  145.02    1.11
   0   0  -3  149.43    1.32
   0   0   4  274.02    2.12
   0   0   4  310.03    1.80
   0   0   4  305.06    1.79
   0   0   4  155.68    1.28
   0   0  -4  328.04    1.75
   0   0  -4  272.39    1.95
   0   0  -4  295.33    2.21
   0   0  -4  201.54    1.47
   0   0  -4  291.50    1.76
   0   0  -4  307.99    2.10
   0   0   5    0.93    0.33
   0   0   5    1.00    0.28
   0   0   5    1.03    0.28
   0   0   5    3.57    0.37
   0   0  -5    1.45    0.29
   0   0  -5    1.38    0.32
   0   0  -5    0.99    0.35
   0   0  -5    1.09    0.26
   0   0  -5    0.82    0.27
   0   0  -5    1.39    0.38
   0   0   6  113.56    1.77
   0   0   6  122.85    1.46
   0   0   6  119.54    1.44
   0   0   6   66.82    1.06
   0   0  -6  129.31    1.41
   0   0  -6  111.07    1.60
   0   0  -6  118.32    1.82
   0   0  -6   81.39    1.20
   0   0  -6  125.27    1.75
   0   0   7    2.48    0.50
   0   0   7    2.16    0.40
   0   0   7    2.26    0.40
   0   0   7    2.13    0.32
   0   0  -7    2.35    0.38
   0   0  -7    2.41    0.45
   0   0  -7    2.39    0.53
   0   0  -7    2.01    0.34
   0   0  -7    2.35    0.53
   0   0   8   42.88    1.46
   0   0   8   40.15    1.12
   0   0   8   38.95    1.12
   0   0   8   23.55    0.82
   0   0  -8   45.31    1.09
   0   0  -8   38.87    1.26
   0   0  -8   40.81    1.45
   0   0  -8   27.58    0.93
   0   0  -8   40.89    1.36
   0   0   9   99.91    2.20
   0   0   9  104.90    1.77
   0   0   9   61.91    1.31
   0   0  -9  106.77    1.66
   0   0  -9   97.50    1.96
   0   0  -9  108.59    2.28
   0   0  -9   68.78    1.44
   0   0  -9  103.98    2.09
   0   0  10  305.21    3.81
   0   0  10  300.31    2.98
   0   0  10  181.98    2.27
   0   0 -10  307.44    2.79
   0   0 -10  284.64    3.37
   0   0 -10  290.21    3.73
   0   0 -10  208.73    2.49
   0   0 -10  201.10    2.44
   0   0 -10  301.32    3.54
   0   0  11  259.24    3.82
   0   0  11  260.60    2.98
   0   0  11  163.33    2.30
   0   0 -11  250.47    3.41
   0   0 -11  256.07    3.77
   0   0 -11  182.26    2.52
   0   0 -11  171.82    2.42
   0   0 -11  255.62    3.53
   0   0  12    7.21    1.12
   0   0 -12    7.69    1.00
   0   0 -12    8.25    1.17
   0   0 -12    5.20    0.72
   0   0 -12    8.26    1.12
   0   0  13   49.87    2.52
   0   0 -13   46.81    2.10
   0   0 -13   49.22    2.35
   0   0 -13   48.29    2.20
   0   0  14    3.57    1.17
   0   0 -14    3.22    1.01
   0   0 -14    3.95    1.19
   0   0 -14    4.41    1.17
   0   0  15    2.36    1.25
   0   0 -15   -0.46    0.95
   0   0 -15    0.73    1.19
   0   0 -15    2.88    1.18
   0   0  16   -0.63    1.26
   0   0 -16   -1.79    1.00
   0   0 -16    1.12    1.33
   0   0 -16    1.07    1.27
   0   0  17    2.47    1.60
   0   0 -17   -0.23    1.47
   0   0 -17    0.56    1.48
   0   0 -17    2.43    1.44
   1   0 -17    2.91    1.61
   1   0 -17    3.01    1.56
  -1   0  17    2.13    1.59
   1   0 -16    8.26    1.68
   1   0 -16    7.75    1.64
  -1   0  16    8.40    1.70
   1   0 -15   25.97    2.11
   1   0 -15   22.72    2.43
   1   0 -15   24.62    2.28
  -1   0  15   27.70    2.64
   1   0 -14   35.67    2.11
   1   0 -14   33.93    2.32
   1   0 -14   31.48    2.23
  -1   0  14   33.52    2.47
   1   0 -13   66.72    2.29
   1   0 -13   67.64    2.65
   1   0 -13   64.67    2.44
  -1   0  13   66.12    2.69
  -1   0  13   35.84    1.52
   1   0 -12   38.52    1.70
   1   0 -12   34.18    1.75
   1   0 -12   33.81    1.99
   1   0 -12   34.21    1.93
  -1   0  12   35.44    2.12
  -1   0  12   17.16    1.15
   1   0 -11   28.48    1.45
   1   0 -11   25.61    1.46
   1   0 -11   26.94    1.75
   1   0 -11   25.66    1.64
  -1   0  11   28.07    1.76
  -1   0  11   14.54    0.96
   1   0 -10   17.29    1.17
   1   0 -10   16.01    1.18
   1   0 -10   16.62    1.43
   1   0 -10   12.71    0.79
   1   0 -10   10.06    0.77
   1   0 -10   15.19    1.33
  -1   0  10   20.02    1.46
  -1   0  10   14.49    0.99
  -1   0  10    8.75    0.80
   1   0  -9   46.13    1.37
   1   0  -9   41.14    1.34
   1   0  -9   43.39    1.63
   1   0  -9   32.65    0.92
   1   0  -9   30.15    0.88
   1   0  -9   43.92    1.54
  -1   0   9   41.56    1.56
  -1   0   9   43.86    1.09
  -1   0   9   22.14    0.94
   1   0  -8    4.43    0.55
   1   0  -8    4.75    0.57
   1   0  -8    4.65    0.68
   1   0  -8    4.55    0.66
  -1   0   8    4.35    0.61
  -1   0   8    3.85    0.42
  -1   0   8    2.02    0.39
   1   0  -7    1.04    0.39
   1   0  -7    1.21    0.40
   1   0  -7    1.65    0.48
   1   0  -7    1.50    0.48
   1   0  -7    1.22    0.47
  -1   0   7    1.06    0.42
  -1   0   7    1.34    0.31
  -1   0   7    0.59    0.28
   1   0  -6  401.49    2.79
   1   0  -6  357.17    2.56
   1   0  -6  371.51    3.05
   1   0  -6  377.97    3.03
   1   0  -6  353.57    2.69
  -1   0   6  330.44    2.87
  -1   0   6  171.02    1.87
   1   0  -5   39.89    0.95
   1   0  -5   38.63    0.87
   1   0  -5   39.68    1.05
   1   0  -5   40.07    1.04
   1   0  -5   38.20    0.95
  -1   0   5   34.73    0.99
  -1   0   5   16.58    0.64
   1   0  -4 1253.12    4.18
   1   0  -4 1244.37    3.68
   1   0  -4 1307.46    4.57
   1   0  -4 1271.99    4.54
   1   0  -4 1178.86    4.10
  -1   0   4 1078.61    4.11
  -1   0   4  502.85    2.69
   1   0  -3  918.64    3.28
   1   0  -3  955.89    2.85
   1   0  -3  991.70    3.48
   1   0  -3  980.89    3.56
  -1   0   3  749.00    3.00
   1   0  -2 1892.73    7.15
   1   0  -2 1998.32    6.82
   1   0  -2 1898.27    5.79
  -1   0   2 1346.95    3.65
  -1   0   0  467.18    1.60
   1   0   1 3537.57   14.11
   1   0   1 2843.91   12.84
   1   0   1 2764.83   10.94
   1   0   2  141.36    1.30
   1   0   2  128.92    1.24
  -1   0  -2  117.28    1.20
  -1   0  -2  135.96    1.22
   1   0   3    7.32    0.57
   1   0   3    9.18    0.58
   1   0   3   12.54    0.58
   1   0   3   13.48    0.61
  -1   0  -3    7.05    0.51
  -1   0  -3    9.16    0.56
  -1   0  -3    9.56    0.75
  -1   0  -3   11.67    0.53
   1   0   4   34.71    0.94
   1   0   4   36.27    0.88
   1   0   4   36.19    0.89
  -1   0  -4   31.69    0.87
  -1   0  -4   41.28    0.88
   1   0   5  297.83    2.61
   1   0   5  310.21    2.43
   1   0   5  301.92    2.40
   1   0   5  249.33    1.57
  -1   0  -5  263.26    2.39
  -1   0  -5  304.79    2.62
  -1   0  -5  205.99    2.00
  -1   0  -5  312.15    2.33
   1   0   6  323.39    2.97
   1   0   6  345.59    2.75
   1   0   6  339.93    2.74
   1   0   6  251.80    1.75
  -1   0  -6  290.61    2.71
  -1   0  -6  326.88    2.98
  -1   0  -6  225.37    2.24
  -1   0  -6  338.18    2.68
   1   0   7  311.11    3.16
   1   0   7  318.63    2.83
   1   0   7  321.32    2.86
   1   0   7  229.42    1.84
  -1   0  -7  281.28    2.88
  -1   0  -7  304.67    3.13
  -1   0  -7  213.89    2.34
  -1   0  -7  315.10    2.82
   1   0   8  183.38    2.68
   1   0   8  191.32    2.39
   1   0   8  194.75    2.42
   1   0   8  137.86    1.59
  -1   0  -8  169.27    2.45
  -1   0  -8  181.31    2.67
  -1   0  -8  128.57    1.98
  -1   0  -8  192.05    2.45
   1   0   9  287.21    3.54
   1   0   9  294.59    3.11
   1   0   9  294.48    3.11
   1   0   9  205.56    2.07
  -1   0  -9  272.88    3.28
  -1   0  -9  282.27    3.50
  -1   0  -9  197.08    2.56
  -1   0  -9  292.29    3.19
   1   0  10  153.32    2.91
   1   0  10  161.71    2.56
   1   0  10  111.97    1.72
  -1   0 -10  151.55    2.71
  -1   0 -10  155.99    2.92
  -1   0 -10  109.91    2.11
  -1   0 -10  160.69    2.68
   1   0  11  117.92    2.80
   1   0  11  123.15    2.43
  -1   0 -11  110.93    2.55
  -1   0 -11  116.70    2.78
  -1   0 -11   83.08    1.98
  -1   0 -11  124.49    2.58
   1   0  12   52.30    2.29
   1   0  12   57.35    2.00
  -1   0 -12   51.48    2.08
  -1   0 -12   50.54    2.25
  -1   0 -12   39.50    1.71
  -1   0 -12   39.11    1.59
  -1   0 -12   55.41    2.11
   1   0  13   13.43    1.38
   1   0  13   15.25    1.63
  -1   0 -13   13.04    1.32
  -1   0 -13   11.17    1.37
  -1   0 -13   11.00    1.37
  -1   0 -13   10.20    1.27
  -1   0 -13   17.36    1.77
   1   0  14    4.56    1.17
  -1   0 -14    3.95    1.10
  -1   0 -14    5.21    1.24
  -1   0 -14    5.26    1.15
   1   0  15    1.32    1.19
  -1   0 -15   -0.91    0.98
  -1   0 -15    0.69    1.16
  -1   0 -15    0.75    1.07
   1   0  16   -0.33    1.30
  -1   0 -16   -1.33    1.11
  -1   0 -16   -0.33    1.29
  -1   0 -16    0.87    1.18
   2   0 -17    1.38    1.49
   2   0 -17   -1.35    1.40
  -2   0  17   -1.82    1.56
   2   0 -16    8.82    1.66
   2   0 -16    7.39    1.60
  -2   0  16    9.55    1.68
   2   0 -15   22.46    2.40
   2   0 -15   20.64    2.27
  -2   0  15   21.31    2.57
   2   0 -14   13.56    1.57
   2   0 -14   14.03    1.60
  -2   0  14   18.80    2.23
  -2   0  14   10.20    1.20
   2   0 -13   35.22    1.86
   2   0 -13   27.75    1.78
   2   0 -13   31.28    2.12
   2   0 -13   29.11    2.02
  -2   0  13   32.79    2.24
  -2   0  13   15.28    1.21
   2   0 -12   31.45    1.78
   2   0 -12   29.78    1.66
   2   0 -12   29.46    1.94
   2   0 -12   26.96    1.85
  -2   0  12   30.21    1.96
  -2   0  12   15.69    1.18
   2   0 -11    3.07    0.81
   2   0 -11    3.16    0.70
   2   0 -11    2.12    0.82
   2   0 -11    3.30    0.89
  -2   0  11    3.74    0.86
  -2   0  11    1.31    0.51
   2   0 -10    5.19    0.79
   2   0 -10    4.08    0.67
   2   0 -10    4.07    0.86
   2   0 -10    5.72    0.89
  -2   0  10    4.28    0.77
  -2   0  10    2.65    0.53
   2   0  -9   22.91    1.26
   2   0  -9   19.93    1.06
   2   0  -9   19.48    1.32
   2   0  -9   20.88    1.33
   2   0  -9   17.85    1.20
  -2   0   9   21.45    1.35
  -2   0   9    9.17    0.79
   2   0  -8   50.13    1.45
   2   0  -8   50.12    1.26
   2   0  -8   50.25    1.57
   2   0  -8   46.37    1.51
   2   0  -8   44.80    1.42
  -2   0   8   43.76    1.45
  -2   0   8   21.22    0.95
   2   0  -7   16.90    0.98
   2   0  -7   16.75    0.82
   2   0  -7   17.47    1.06
   2   0  -7   15.23    1.03
   2   0  -7   14.96    0.97
  -2   0   7   13.25    0.97
  -2   0   7    7.94    0.69
   2   0  -6  103.38    1.71
   2   0  -6  104.66    1.40
   2   0  -6  108.10    1.79
   2   0  -6  104.71    1.79
   2   0  -6   96.65    1.68
  -2   0   6   83.62    1.57
  -2   0   6   40.72    1.10
   2   0  -5 3443.34   11.14
   2   0  -5 3600.29    8.65
   2   0  -5 3707.61   12.87
   2   0  -5 3618.41   14.17
   2   0  -5 3332.52    8.47
  -2   0   5 2842.23    8.35
   2   0  -4  819.32    3.97
   2   0  -4  863.09    3.05
   2   0  -4  883.06    3.97
   2   0  -4  867.89    4.18
   2   0  -4  804.67    3.95
  -2   0   4  625.46    3.32
   2   0  -3 1290.98    4.66
   2   0  -3 1370.50    3.50
   2   0  -3 1394.72    4.50
   2   0  -3 1378.17    4.80
   2   0  -3 1283.85    4.65
  -2   0   3  843.79    3.50
   2   0  -2 1210.11    4.20
   2   0  -2 1261.63    3.26
   2   0  -2 1249.29    3.87
   2   0  -2 1188.07    4.16
   2   0  -1   22.58    0.70
   2   0  -1   23.06    0.69
   2   0  -1   22.53    0.60
   2   0  -1   21.02    0.64
   2   0  -1   20.18    0.55
   2   0  -1   22.34    0.66
   2   0  -1   22.28    0.69
   2   0   0  360.75    2.06
   2   0   0  355.75    1.98
   2   0   0  353.19    1.95
   2   0   0  298.59    1.84
   2   0   0  294.88    1.84
   2   0   0  347.64    1.91
   2   0   0  345.89    1.95
   2   0   1  190.26    1.62
   2   0   1  197.61    1.33
   2   0   1  190.72    1.64
   2   0   1  190.08    1.55
   2   0   1  166.85    1.57
   2   0   1  190.06    1.41
   2   0   1  190.03    1.36
   2   0   2  457.34    2.67
   2   0   2  435.22    2.64
   2   0   2  432.82    2.50
   2   0   2  379.56    2.50
   2   0   2  428.90    2.11
  -2   0  -2  378.90    2.34
  -2   0  -2  353.14    1.93
   2   0   3   22.09    0.83
   2   0   3   20.59    0.81
   2   0   3   17.68    0.75
   2   0   3   17.56    0.76
  -2   0  -3   17.12    0.77
  -2   0  -3   19.03    0.73
  -2   0  -3   19.12    0.60
   2   0   4  131.50    1.79
   2   0   4  116.36    1.68
   2   0   4  113.86    1.66
   2   0   4  124.47    1.52
  -2   0  -4  103.94    1.60
  -2   0  -4  124.13    1.68
  -2   0  -4   78.47    1.40
  -2   0  -4  127.58    1.43
   2   0   5 1311.22    5.78
   2   0   5 1234.21    5.48
   2   0   5 1213.44    5.44
   2   0   5 1228.61    3.27
  -2   0  -5 1050.04    5.18
  -2   0  -5 1281.17    5.60
  -2   0  -5  808.88    4.45
  -2   0  -5 1337.14    4.81
   2   0   6  619.23    4.31
   2   0   6  601.85    4.09
   2   0   6  599.50    4.08
   2   0   6  575.18    2.43
  -2   0  -6  503.97    3.87
  -2   0  -6  603.24    4.19
  -2   0  -6  394.44    3.33
  -2   0  -6  636.73    3.66
   2   0   7  271.14    3.12
   2   0   7  270.33    2.94
   2   0   7  270.05    2.95
   2   0   7  241.80    1.74
  -2   0  -7  228.36    2.83
  -2   0  -7  266.67    3.06
  -2   0  -7  179.49    2.43
  -2   0  -7  272.54    2.66
   2   0   8  490.99    4.43
   2   0   8  462.79    4.01
   2   0   8  462.09    4.02
   2   0   8  378.09    2.30
  -2   0  -8  381.66    3.83
  -2   0  -8  432.84    4.13
  -2   0  -8  308.70    3.31
  -2   0  -8  446.90    3.60
   2   0   9  123.60    2.58
   2   0   9  130.33    2.41
   2   0   9  132.58    2.44
  -2   0  -9  109.43    2.32
  -2   0  -9  120.52    2.52
  -2   0  -9   88.22    2.01
  -2   0  -9  124.36    2.20
   2   0  10  173.93    3.16
   2   0  10  184.33    2.97
   2   0  10  184.63    2.94
  -2   0 -10  163.56    2.94
  -2   0 -10  172.27    3.12
  -2   0 -10  127.47    2.45
  -2   0 -10  177.57    2.76
   2   0  11    7.62    1.06
   2   0  11    7.36    0.97
  -2   0 -11    6.34    0.93
  -2   0 -11    6.67    1.04
  -2   0 -11    4.66    0.77
  -2   0 -11    8.26    1.05
   2   0  12    0.05    0.80
   2   0  12    0.77    0.81
  -2   0 -12   -0.18    0.82
  -2   0 -12    1.04    0.96
  -2   0 -12    1.20    0.71
  -2   0 -12    0.34    0.62
  -2   0 -12    1.17    0.90
   2   0  13   -1.04    0.82
   2   0  13   -2.23    0.83
  -2   0 -13   -0.63    0.91
  -2   0 -13   -1.26    0.93
  -2   0 -13   -0.31    0.72
  -2   0 -13   -0.83    0.63
  -2   0 -13    0.86    0.94
   2   0  14    0.76    1.02
   2   0  14   -2.73    0.92
  -2   0 -14   -0.05    1.01
  -2   0 -14   -0.88    1.06
  -2   0 -14   -0.54    0.77
  -2   0 -14   -1.48    0.83
  -2   0 -14    1.34    1.03
   2   0  15    0.91    1.20
  -2   0 -15   -0.31    1.13
  -2   0 -15    0.49    1.30
   2   0  16    9.54    1.76
  -2   0 -16    8.05    1.59
  -2   0 -16    9.19    1.69
   3   0 -16    0.68    1.31
   3   0 -16   -0.34    1.27
  -3   0  16    0.55    1.39
   3   0 -15    3.34    1.44
   3   0 -15    2.96    1.33
   3   0 -15    3.05    1.31
  -3   0  15    1.61    1.27
  -3   0  15    0.29    0.67
   3   0 -14    8.53    1.30
   3   0 -14    7.36    1.31
   3   0 -14    8.38    1.38
  -3   0  14    7.27    1.34
  -3   0  14    3.36    0.81
   3   0 -13   -1.18    0.92
   3   0 -13   -0.31    0.90
   3   0 -13   -0.91    0.93
  -3   0  13    0.46    0.96
  -3   0  13    0.36    0.57
   3   0 -12    3.94    1.03
   3   0 -12    4.00    1.01
   3   0 -12    4.38    1.08
  -3   0  12    4.75    1.04
  -3   0  12    2.33    0.64
   3   0 -11   -0.11    0.81
   3   0 -11    0.69    0.61
   3   0 -11    0.17    0.76
   3   0 -11   -0.31    0.83
  -3   0  11   -0.09    0.74
  -3   0  11    0.67    0.50
   3   0 -10    6.02    0.92
   3   0 -10    7.66    0.95
   3   0 -10    5.90    0.88
   3   0 -10    4.71    0.95
   3   0 -10    5.03    0.90
  -3   0  10    5.12    0.84
  -3   0  10    3.84    0.61
   3   0  -9   82.60    2.07
   3   0  -9   85.33    1.62
   3   0  -9   84.26    2.11
   3   0  -9   79.62    2.14
   3   0  -9   73.16    2.00
  -3   0   9   71.74    1.99
  -3   0   9   35.40    1.34
   3   0  -8  196.51    2.79
   3   0  -8  195.89    2.15
   3   0  -8  198.20    2.81
   3   0  -8  181.91    2.81
   3   0  -8  164.36    2.58
  -3   0   8  165.87    2.57
  -3   0   8   73.70    1.74
   3   0  -7  188.77    2.61
   3   0  -7  191.04    1.97
   3   0  -7  197.41    2.61
   3   0  -7  183.73    2.63
   3   0  -7  167.18    2.49
  -3   0   7  162.61    2.35
  -3   0   7   76.09    1.68
   3   0  -6  371.52    3.40
   3   0  -6  388.72    2.56
   3   0  -6  401.17    3.39
   3   0  -6  372.66    3.46
   3   0  -6  338.90    3.27
  -3   0   6  299.91    2.91
   3   0  -5   86.78    1.67
   3   0  -5   91.24    1.25
   3   0  -5   92.72    1.63
   3   0  -5   91.18    1.70
   3   0  -5   79.87    1.64
  -3   0   5   66.45    1.37
   3   0  -4  988.78    4.96
   3   0  -4 1060.90    3.73
   3   0  -4 1072.46    4.75
   3   0  -4 1047.76    5.06
   3   0  -4  959.99    4.88
  -3   0   4  678.81    3.79
   3   0  -3  357.73    2.87
   3   0  -3  380.78    2.24
   3   0  -3  370.33    2.66
   3   0  -3  366.20    2.85
   3   0  -3  343.17    2.82
  -3   0   3  228.48    2.12
   3   0  -2    9.34    0.73
   3   0  -2    8.73    0.66
   3   0  -2    9.21    0.57
   3   0  -2    8.07    0.63
   3   0  -2    8.68    0.51
   3   0  -2    8.04    0.51
   3   0  -2    8.68    0.66
   3   0  -2    7.83    0.65
  -3   0   2    5.79    0.51
  -3   0   2    5.51    0.45
   3   0  -1  147.20    1.67
   3   0  -1  140.66    1.65
   3   0  -1  145.24    1.52
   3   0  -1  144.04    1.56
   3   0  -1  127.56    1.40
   3   0  -1  125.41    1.39
   3   0  -1  143.90    1.63
   3   0  -1  138.36    1.66
   3   0   0  237.71    2.09
   3   0   0  225.81    1.93
   3   0   0  226.47    1.98
   3   0   0  220.96    1.92
   3   0   0  189.69    1.83
   3   0   0  184.64    1.81
   3   0   0  214.40    1.87
   3   0   0  214.77    1.91
   3   0   1   48.94    1.11
   3   0   1   50.08    0.93
   3   0   1   48.48    1.10
   3   0   1   48.24    1.05
   3   0   1   42.53    1.03
   3   0   1   40.55    1.03
   3   0   1   48.09    0.97
   3   0   1   48.14    0.94
   3   0   2  368.80    2.81
   3   0   2  369.55    2.09
   3   0   2  350.12    2.77
   3   0   2  350.96    2.63
   3   0   2  308.57    2.65
   3   0   2  301.64    2.62
   3   0   2  342.00    2.30
   3   0   2  347.96    2.18
  -3   0  -2  295.22    2.40
  -3   0  -2  262.07    2.01
   3   0   3  539.02    3.58
   3   0   3  509.61    3.55
   3   0   3  461.34    3.41
   3   0   3  455.25    3.39
   3   0   3  516.04    2.52
  -3   0  -3  405.52    3.18
  -3   0  -3  459.81    3.17
  -3   0  -3  313.81    2.82
  -3   0  -3  447.56    2.67
   3   0   4  350.70    3.11
   3   0   4  327.77    3.06
   3   0   4  300.64    2.94
   3   0   4  303.86    2.95
   3   0   4  330.54    1.98
  -3   0  -4  263.97    2.76
  -3   0  -4  315.71    2.84
  -3   0  -4  204.13    2.43
  -3   0  -4  312.69    2.36
   3   0   5 1025.37    5.56
   3   0   5  950.15    5.44
   3   0   5  922.55    5.33
   3   0   5  910.43    5.30
   3   0   5  960.37    3.25
  -3   0  -5  785.69    4.95
  -3   0  -5  941.70    5.18
  -3   0  -5  611.35    4.35
  -3   0  -5  978.61    4.38
   3   0   6  418.27    3.83
   3   0   6  388.33    3.68
   3   0   6  394.45    3.72
   3   0   6  390.26    2.10
  -3   0  -6  330.67    3.44
  -3   0  -6  398.99    3.65
  -3   0  -6  257.27    3.01
  -3   0  -6  419.74    3.12
   3   0   7  324.61    3.62
   3   0   7  299.77    3.42
   3   0   7  303.30    3.45
  -3   0  -7  254.69    3.21
  -3   0  -7  304.09    3.43
  -3   0  -7  200.55    2.83
  -3   0  -7  314.03    2.91
   3   0   8  175.25    2.91
   3   0   8  169.53    2.77
   3   0   8  171.48    2.80
  -3   0  -8  141.81    2.60
  -3   0  -8  167.18    2.78
  -3   0  -8  117.71    2.33
  -3   0  -8  174.41    2.41
   3   0   9    3.60    0.79
   3   0   9    2.90    0.75
   3   0   9    3.85    0.78
  -3   0  -9    3.21    0.74
  -3   0  -9    3.95    0.80
  -3   0  -9    1.96    0.62
  -3   0  -9    5.09    0.81
   3   0  10    5.74    0.93
   3   0  10    4.36    0.92
   3   0  10    5.65    0.91
  -3   0 -10    5.63    0.92
  -3   0 -10    6.29    1.01
  -3   0 -10    4.33    0.80
  -3   0 -10    6.21    0.92
   3   0  11    0.56    0.75
   3   0  11   -2.07    0.76
  -3   0 -11   -1.05    0.69
  -3   0 -11   -0.04    0.85
  -3   0 -11   -1.04    0.62
  -3   0 -11    0.24    0.80
   3   0  12    1.63    0.92
   3   0  12    1.24    0.99
  -3   0 -12    3.90    1.08
  -3   0 -12    1.74    1.05
  -3   0 -12    0.84    0.78
  -3   0 -12    2.55    0.94
   3   0  13    1.38    1.02
   3   0  13    0.11    1.01
  -3   0 -13    0.13    0.95
  -3   0 -13    0.96    1.11
  -3   0 -13    1.02    0.90
  -3   0 -13    0.36    0.77
   3   0  14    9.80    1.48
   3   0  14   10.34    1.44
  -3   0 -14   11.38    1.51
  -3   0 -14    9.21    1.53
  -3   0 -14    7.83    1.27
  -3   0 -14    5.79    1.04
   3   0  15    7.60    1.57
   3   0  15    9.60    1.45
  -3   0 -15    8.61    1.56
  -3   0 -15    7.66    1.60
  -3   0 -15    5.34    1.19
   4   0 -16    1.72    1.41
   4   0 -16    3.46    1.47
   4   0 -16    2.44    1.46
  -4   0  16    1.76    1.54
  -4   0  16    0.55    0.83
   4   0 -15   -1.73    1.16
   4   0 -15    0.49    1.15
   4   0 -15   -2.15    1.12
  -4   0  15   -0.38    1.20
  -4   0  15   -1.25    0.61
   4   0 -14   -3.00    1.07
   4   0 -14   -0.97    1.05
   4   0 -14   -1.55    1.03
  -4   0  14   -0.85    1.04
  -4   0  14    0.47    0.67
   4   0 -13    0.63    0.97
   4   0 -13    2.01    1.06
   4   0 -13    1.21    1.01
  -4   0  13    2.75    1.07
  -4   0  13    1.11    0.62
   4   0 -12   15.80    1.55
   4   0 -12   12.66    1.36
   4   0 -12   11.97    1.36
   4   0 -12   10.71    1.33
  -4   0  12   12.45    1.41
  -4   0  12    5.39    0.83
   4   0 -11   18.32    1.77
   4   0 -11   16.15    1.67
   4   0 -11   13.27    1.60
   4   0 -11   15.12    1.65
  -4   0  11   12.58    1.23
  -4   0  11    6.36    0.85
   4   0 -10   43.92    2.01
   4   0 -10   43.52    1.94
   4   0 -10   35.87    1.83
   4   0 -10   35.91    1.81
  -4   0  10   39.57    1.89
  -4   0  10   16.87    1.20
   4   0  -9   47.43    1.87
   4   0  -9   46.84    1.33
   4   0  -9   49.60    1.84
   4   0  -9   43.45    1.80
   4   0  -9   38.85    1.74
  -4   0   9   43.26    1.75
  -4   0   9   17.97    1.16
   4   0  -8  167.12    2.86
   4   0  -8  172.56    2.09
   4   0  -8  175.15    2.81
   4   0  -8  163.78    2.85
   4   0  -8  137.56    2.63
  -4   0   8  145.76    2.53
  -4   0   8   63.12    1.78
   4   0  -7  287.82    3.46
   4   0  -7  296.27    2.55
   4   0  -7  302.67    3.39
   4   0  -7  283.34    3.47
   4   0  -7  253.66    3.28
  -4   0   7  236.87    2.94
   4   0  -6   34.16    1.38
   4   0  -6   34.40    0.99
   4   0  -6   35.38    1.28
   4   0  -6   32.88    1.34
   4   0  -6   29.15    1.33
  -4   0   6   25.85    1.12
   4   0  -5  183.57    2.58
   4   0  -5  203.95    1.97
   4   0  -5  195.78    2.43
   4   0  -5  192.80    2.61
   4   0  -5  165.82    2.47
  -4   0   5  135.19    2.02
   4   0  -4    1.49    0.48
   4   0  -4    1.27    0.35
   4   0  -4    1.00    0.42
   4   0  -4    1.17    0.46
   4   0  -4    0.15    0.45
  -4   0   4    0.93    0.37
   4   0  -3    2.72    0.48
   4   0  -3    2.62    0.51
   4   0  -3    2.90    0.39
   4   0  -3    2.47    0.46
   4   0  -3    2.28    0.33
   4   0  -3    2.67    0.34
   4   0  -3    2.04    0.46
   4   0  -3    1.92    0.50
  -4   0   3    1.24    0.38
  -4   0   3    1.81    0.30
   4   0  -2    1.00    0.43
   4   0  -2    2.09    0.44
   4   0  -2    2.36    0.41
   4   0  -2    2.07    0.43
   4   0  -2    1.33    0.34
   4   0  -2    1.92    0.35
   4   0  -2    1.69    0.42
   4   0  -2    1.43    0.45
  -4   0   2    1.67    0.33
   4   0  -1   52.06    1.31
   4   0  -1   50.96    1.17
   4   0  -1   48.80    1.19
   4   0  -1   44.23    1.09
   4   0  -1   42.78    1.08
   4   0  -1   47.30    1.19
   4   0  -1   45.77    1.21
  -4   0   1   29.42    0.91
   4   0   0    4.63    0.53
   4   0   0    5.58    0.68
   4   0   0    5.07    0.54
   4   0   0    4.89    0.54
   4   0   0    4.87    0.52
   4   0   0    4.54    0.51
   4   0   0    5.56    0.68
   4   0   0    5.25    0.55
  -4   0   0    3.15    0.46
   4   0   1  161.71    2.12
   4   0   1  158.96    1.82
   4   0   1  154.18    2.05
   4   0   1  157.74    1.99
   4   0   1  133.45    1.94
   4   0   1  131.30    1.94
   4   0   1  153.52    1.86
   4   0   1  150.26    1.84
  -4   0  -1   91.07    1.62
   4   0   2  709.86    4.38
   4   0   2  683.37    3.43
   4   0   2  661.78    4.27
   4   0   2  660.75    4.04
   4   0   2  588.42    4.12
   4   0   2  577.44    4.08
   4   0   2  654.28    3.65
   4   0   2  643.59    3.50
  -4   0  -2  536.51    3.64
  -4   0  -2  395.15    3.38
  -4   0  -2  473.32    3.11
   4   0   3  889.10    5.11
   4   0   3  830.06    5.03
   4   0   3  820.47    4.71
   4   0   3  744.56    4.85
   4   0   3  739.14    4.83
   4   0   3  814.97    3.78
  -4   0  -3  646.51    4.46
  -4   0  -3  711.55    4.38
  -4   0  -3  497.91    3.97
  -4   0  -3  659.94    3.68
   4   0   4  632.17    4.55
   4   0   4  577.99    4.45
   4   0   4  524.54    4.28
   4   0   4  530.97    4.31
   4   0   4  568.45    3.06
  -4   0  -4  464.13    4.00
  -4   0  -4  538.40    4.03
  -4   0  -4  357.72    3.55
  -4   0  -4  520.87    3.36
   4   0   5  651.71    4.86
   4   0   5  608.96    4.80
   4   0   5  563.59    4.63
   4   0   5  579.93    4.71
   4   0   5  587.34    3.00
  -4   0  -5  489.83    4.31
  -4   0  -5  579.11    4.42
  -4   0  -5  379.28    3.82
  -4   0  -5  587.12    3.71
   4   0   6  204.99    2.98
   4   0   6  180.90    2.85
   4   0   6  184.13    2.88
   4   0   6  182.98    2.02
  -4   0  -6  152.13    2.60
  -4   0  -6  184.86    2.73
  -4   0  -6  123.16    2.37
  -4   0  -6  191.21    2.30
   4   0   7    4.61    0.77
   4   0   7    5.10    0.77
   4   0   7    4.28    0.78
  -4   0  -7    3.80    0.67
  -4   0  -7    5.40    0.79
  -4   0  -7    2.80    0.64
  -4   0  -7    5.89    0.71
   4   0   8    1.70    0.69
   4   0   8    1.56    0.69
   4   0   8    1.14    0.70
  -4   0  -8    0.73    0.60
  -4   0  -8    1.42    0.68
  -4   0  -8    1.01    0.58
  -4   0  -8    1.81    0.68
   4   0   9    2.61    0.80
   4   0   9    1.18    0.78
   4   0   9    1.96    0.83
  -4   0  -9    1.24    0.67
  -4   0  -9    1.64    0.78
  -4   0  -9    2.49    0.74
  -4   0  -9    2.17    0.79
   4   0  10    6.17    1.00
   4   0  10    5.27    1.07
   4   0  10    5.67    1.05
  -4   0 -10    4.92    0.92
  -4   0 -10    6.23    1.05
  -4   0 -10    4.00    0.87
  -4   0 -10    6.42    1.14
   4   0  11    0.22    0.84
   4   0  11   -1.56    0.86
  -4   0 -11   -0.34    0.79
  -4   0 -11    0.04    0.92
  -4   0 -11    0.05    0.74
   4   0  12   24.09    2.13
   4   0  12   23.24    2.23
  -4   0 -12   19.25    1.95
  -4   0 -12   20.00    2.07
  -4   0 -12   12.05    1.33
   4   0  13   27.01    2.46
   4   0  13   25.98    2.50
  -4   0 -13   24.88    2.26
  -4   0 -13   23.04    2.33
  -4   0 -13   20.41    2.14
  -4   0 -13   18.16    1.88
   4   0  14   32.78    2.80
   4   0  14   39.12    2.89
  -4   0 -14   28.98    2.51
  -4   0 -14   27.09    2.61
  -4   0 -14   26.32    2.45
  -4   0 -14   19.69    1.90
   4   0  15   31.37    3.02
   4   0  15   34.70    3.03
  -4   0 -15   31.57    2.84
  -4   0 -15   28.20    2.87
  -4   0 -15   21.01    2.53
  -4   0 -15   14.01    1.92
   5   0 -15   -1.53    1.33
   5   0 -15   -1.45    1.12
   5   0 -15    0.28    1.33
  -5   0  15    0.33    1.34
  -5   0  15    0.20    0.75
   5   0 -14    0.83    1.30
   5   0 -14    0.57    1.06
   5   0 -14   -1.63    1.15
  -5   0  14   -0.26    1.16
  -5   0  14    0.11    0.59
   5   0 -13    2.88    1.33
   5   0 -13    2.20    1.11
   5   0 -13    0.54    1.12
  -5   0  13    0.98    1.14
  -5   0  13    1.26    0.66
   5   0 -12    4.01    1.03
   5   0 -12    5.38    1.14
   5   0 -12    2.08    1.03
   5   0 -12    4.58    1.16
  -5   0  12    4.52    1.13
  -5   0  12    1.82    0.66
   5   0 -11   81.47    2.74
   5   0 -11   77.69    2.64
   5   0 -11   65.90    2.58
   5   0 -11   57.58    2.40
  -5   0  11   66.98    2.53
  -5   0  11   29.68    1.65
   5   0 -10   40.31    2.14
   5   0 -10   40.56    2.03
   5   0 -10   35.17    1.96
   5   0 -10   28.80    1.85
  -5   0  10   37.89    1.94
  -5   0  10   13.08    1.22
   5   0  -9   61.92    2.26
   5   0  -9   63.13    2.15
   5   0  -9   55.93    2.16
   5   0  -9   45.24    1.99
  -5   0   9   53.11    1.97
  -5   0   9   20.09    1.28
   5   0  -8   54.83    2.04
   5   0  -8   56.51    1.93
   5   0  -8   50.68    1.94
   5   0  -8   41.64    1.82
  -5   0   8   43.31    1.70
  -5   0   8   20.19    1.26
   5   0  -7   26.89    1.56
   5   0  -7   29.37    1.15
   5   0  -7   28.36    1.44
   5   0  -7   27.61    1.51
   5   0  -7   21.77    1.46
  -5   0   7   22.55    1.31
   5   0  -6    0.48    0.59
   5   0  -6   -0.05    0.41
   5   0  -6   -0.15    0.54
   5   0  -6    0.10    0.57
   5   0  -6   -0.69    0.59
  -5   0   6    0.41    0.47
   5   0  -5   11.25    1.15
   5   0  -5   13.36    0.84
   5   0  -5   12.67    1.06
   5   0  -5   13.92    1.12
   5   0  -5    9.58    0.95
  -5   0   5    9.96    0.97
   5   0  -4    3.89    0.69
   5   0  -4    3.99    0.50
   5   0  -4    5.06    0.61
   5   0  -4    3.73    0.42
   5   0  -4    3.70    0.65
   5   0  -4    3.45    0.68
  -5   0   4    2.35    0.50
  -5   0   4    2.97    0.38
   5   0  -3   58.48    1.60
   5   0  -3   53.08    1.59
   5   0  -3   57.25    1.31
   5   0  -3   56.58    1.46
   5   0  -3   53.20    1.20
   5   0  -3   50.77    1.17
   5   0  -3   54.29    1.51
   5   0  -3   49.16    1.53
  -5   0   3   33.33    1.23
  -5   0   3   37.45    1.02
   5   0  -2   33.79    1.41
   5   0  -2   36.85    1.29
   5   0  -2   40.53    1.21
   5   0  -2   40.17    1.30
   5   0  -2   35.89    1.11
   5   0  -2   37.07    1.12
   5   0  -2   38.20    1.30
   5   0  -2   34.62    1.31
  -5   0   2   25.71    0.96
   5   0  -1  215.90    2.69
   5   0  -1  201.25    2.55
   5   0  -1  211.23    2.44
   5   0  -1  211.25    2.50
   5   0  -1  184.73    2.30
   5   0  -1  181.19    2.28
   5   0  -1  204.78    2.51
   5   0  -1  189.55    2.50
  -5   0   1  127.88    1.93
   5   0   0  781.31    4.89
   5   0   0  727.96    4.50
   5   0   0  713.66    4.53
   5   0   0  716.94    4.46
   5   0   0  623.71    4.31
   5   0   0  626.91    4.33
   5   0   0  706.81    4.41
   5   0   0  654.86    4.34
  -5   0   0  424.26    3.58
   5   0   1  284.62    3.12
   5   0   1  276.66    2.70
   5   0   1  269.99    3.01
   5   0   1  267.74    2.89
   5   0   1  235.16    2.84
   5   0   1  235.21    2.86
   5   0   1  262.72    2.72
   5   0   1  251.40    2.67
  -5   0  -1  161.57    2.38
   5   0   2  701.87    4.88
   5   0   2  668.84    3.92
   5   0   2  636.11    4.67
   5   0   2  638.23    4.45
   5   0   2  558.45    4.48
   5   0   2  560.22    4.50
   5   0   2  617.84    4.03
   5   0   2  609.08    3.92
  -5   0  -2  523.89    4.02
  -5   0  -2  381.99    3.72
  -5   0  -2  455.03    3.45
   5   0   3  349.37    3.63
   5   0   3  331.42    2.64
   5   0   3  324.45    3.56
   5   0   3  318.77    3.33
   5   0   3  286.94    3.40
   5   0   3  289.53    3.42
   5   0   3  308.55    2.92
   5   0   3  306.77    2.73
  -5   0  -3  247.44    3.11
  -5   0  -3  271.80    3.05
  -5   0  -3  192.56    2.81
  -5   0  -3  252.82    2.61
   5   0   4  144.53    2.54
   5   0   4  130.46    2.50
   5   0   4  119.59    2.38
   5   0   4  117.81    2.38
   5   0   4  121.17    1.73
  -5   0  -4  105.77    2.21
  -5   0  -4  118.27    2.17
  -5   0  -4   80.67    1.99
  -5   0  -4  112.11    1.82
   5   0   5   12.62    1.30
   5   0   5   11.55    1.31
   5   0   5   10.91    1.20
   5   0   5    9.97    1.23
   5   0   5   10.78    0.79
  -5   0  -5    7.63    0.87
  -5   0  -5   11.95    1.09
  -5   0  -5    6.62    0.84
  -5   0  -5   10.56    0.88
   5   0   6   19.19    1.50
   5   0   6   14.47    1.43
   5   0   6   11.23    1.40
   5   0   6   12.09    1.13
  -5   0  -6   11.82    1.22
  -5   0  -6   16.37    1.28
  -5   0  -6    8.42    0.97
  -5   0  -6   16.47    1.06
   5   0   7    0.99    0.71
   5   0   7   -1.07    0.70
   5   0   7   -1.47    0.69
  -5   0  -7    0.36    0.60
  -5   0  -7    0.51    0.66
  -5   0  -7    0.08    0.60
  -5   0  -7    1.06    0.61
   5   0   8    2.95    0.87
   5   0   8    1.56    0.82
   5   0   8    1.58    0.87
  -5   0  -8    1.61    0.70
  -5   0  -8    1.68    0.76
  -5   0  -8    1.45    0.67
   5   0   9    0.15    0.80
   5   0   9   -0.35    0.78
   5   0   9   -0.94    0.79
  -5   0  -9   -1.17    0.66
  -5   0  -9    0.21    0.80
  -5   0  -9   -0.64    0.64
   5   0  10   31.99    2.14
   5   0  10   26.82    2.06
   5   0  10   28.24    2.07
  -5   0 -10   22.49    1.78
  -5   0 -10   26.85    1.93
  -5   0 -10   20.26    1.72
   5   0  11   48.58    2.56
   5   0  11   44.97    2.59
  -5   0 -11   36.78    2.22
  -5   0 -11   35.60    2.30
  -5   0 -11   29.12    2.01
   5   0  12   70.21    3.07
   5   0  12   74.47    3.24
  -5   0 -12   59.45    2.77
  -5   0 -12   58.94    2.80
  -5   0 -12   55.50    2.67
  -5   0 -12   45.34    2.43
   5   0  13   61.68    3.18
   5   0  13   69.19    3.46
  -5   0 -13   52.34    2.89
  -5   0 -13   51.32    2.92
  -5   0 -13   49.37    2.89
  -5   0 -13   41.01    2.44
   5   0  14   38.73    3.13
   5   0  14   36.21    3.21
  -5   0 -14   34.35    2.83
  -5   0 -14   26.77    2.78
  -5   0 -14   32.15    2.80
   6   0 -14    0.47    1.42
   6   0 -14    1.80    1.25
   6   0 -14    0.06    1.23
  -6   0  14    1.18    1.31
  -6   0  14    1.01    0.68
   6   0 -13   10.78    1.68
   6   0 -13    9.06    1.45
   6   0 -13    5.58    1.39
   6   0 -13    5.93    1.43
  -6   0  13    6.17    1.35
  -6   0  13    1.78    0.73
   6   0 -12   19.48    2.35
   6   0 -12   18.86    2.04
   6   0 -12   12.80    1.55
   6   0 -12   10.59    1.52
  -6   0  12   10.62    1.37
  -6   0  12    4.18    0.88
   6   0 -11    8.46    1.38
   6   0 -11    8.48    1.21
   6   0 -11    5.48    1.19
   6   0 -11    4.20    1.20
  -6   0  11    5.74    1.09
  -6   0  11    2.48    0.71
   6   0 -10   36.72    2.16
   6   0 -10   32.16    2.12
   6   0 -10   30.15    2.04
   6   0 -10   19.63    1.89
  -6   0  10   32.80    1.94
  -6   0  10   11.03    1.26
   6   0  -9    9.88    1.27
   6   0  -9    7.41    1.10
   6   0  -9    9.43    1.22
   6   0  -9    4.94    1.11
  -6   0   9    8.48    1.02
  -6   0   9    3.13    0.73
   6   0  -8   -0.32    0.78
   6   0  -8    0.90    0.80
   6   0  -8    0.78    0.81
   6   0  -8   -0.61    0.79
  -6   0   8    1.16    0.71
  -6   0   8    1.02    0.56
   6   0  -7    6.98    1.12
   6   0  -7    6.37    0.95
   6   0  -7    6.96    1.03
   6   0  -7    4.02    0.94
  -6   0   7    6.38    0.83
   6   0  -6   16.81    1.54
   6   0  -6   18.74    1.41
   6   0  -6   18.51    1.46
   6   0  -6   15.46    1.39
  -6   0   6   14.30    1.26
   6   0  -5   11.03    1.30
   6   0  -5   11.17    1.19
   6   0  -5   10.26    1.21
   6   0  -5    7.91    0.98
  -6   0   5    6.02    0.77
   6   0  -4   11.17    1.24
   6   0  -4   11.29    1.01
   6   0  -4   11.05    1.18
   6   0  -4   11.98    0.90
   6   0  -4   11.58    1.22
   6   0  -4    7.99    0.94
  -6   0   4    5.21    0.76
  -6   0   4    6.71    0.76
  -6   0   4    7.68    0.75
   6   0  -3  146.42    2.62
   6   0  -3  137.71    2.61
   6   0  -3  145.79    2.22
   6   0  -3  144.82    2.44
   6   0  -3  129.14    2.04
   6   0  -3  138.38    2.54
   6   0  -3  120.49    2.45
  -6   0   3   86.80    2.01
  -6   0   3   89.23    1.70
   6   0  -2  307.42    3.54
   6   0  -2  281.45    3.44
   6   0  -2  281.87    3.06
   6   0  -2  284.26    3.24
   6   0  -2  259.71    2.94
   6   0  -2  249.30    2.86
   6   0  -2  279.72    3.35
   6   0  -2  241.24    3.23
  -6   0   2  173.65    2.39
   6   0  -1  428.46    4.11
   6   0  -1  396.80    3.89
   6   0  -1  389.45    3.69
   6   0  -1  389.72    3.72
   6   0  -1  355.59    3.56
   6   0  -1  345.89    3.49
   6   0  -1  381.47    3.76
   6   0  -1  345.97    3.70
  -6   0   1  238.09    2.91
   6   0   0  371.98    3.88
   6   0   0  345.34    3.52
   6   0   0  330.55    3.56
   6   0   0  328.60    3.50
   6   0   0  295.52    3.41
   6   0   0  292.16    3.37
   6   0   0  317.80    3.38
   6   0   0  298.53    3.35
  -6   0   0  199.25    2.80
   6   0   1  221.82    3.11
   6   0   1  204.13    2.66
   6   0   1  199.36    2.93
   6   0   1  192.79    2.80
   6   0   1  174.87    2.80
   6   0   1  171.79    2.76
   6   0   1  190.98    2.67
   6   0   1  177.50    2.56
  -6   0  -1  116.75    2.30
   6   0   2  107.33    2.35
   6   0   2   99.15    1.86
   6   0   2   94.58    2.23
   6   0   2   92.53    2.15
   6   0   2   84.67    2.14
   6   0   2   83.97    2.15
   6   0   2   92.39    1.96
   6   0   2   85.77    1.83
  -6   0  -2   75.00    1.98
  -6   0  -2   75.09    1.84
  -6   0  -2   56.29    1.78
  -6   0  -2   67.95    1.63
   6   0   3    3.67    0.78
   6   0   3    3.28    0.55
   6   0   3    4.21    0.81
   6   0   3    3.58    0.81
   6   0   3    3.96    0.77
   6   0   3    3.52    0.75
   6   0   3    4.90    0.75
   6   0   3    4.45    0.65
  -6   0  -3    3.33    0.72
  -6   0  -3    3.54    0.65
  -6   0  -3    2.82    0.65
  -6   0  -3    2.88    0.57
   6   0   4    2.24    0.77
   6   0   4    1.93    0.76
   6   0   4    1.57    0.70
   6   0   4    2.29    0.75
   6   0   4    1.56    0.57
  -6   0  -4    2.08    0.70
  -6   0  -4    2.10    0.63
  -6   0  -4    0.67    0.56
  -6   0  -4    1.76    0.54
   6   0   5    1.31    0.76
   6   0   5    0.11    0.74
   6   0   5    0.62    0.73
   6   0   5    0.95    0.74
  -6   0  -5    0.75    0.66
  -6   0  -5    1.71    0.65
  -6   0  -5    0.71    0.67
  -6   0  -5    0.65    0.52
   6   0   6    2.40    0.84
   6   0   6    1.11    0.78
   6   0   6    0.25    0.78
   6   0   6    0.68    0.80
  -6   0  -6    0.87    0.72
  -6   0  -6    1.02    0.71
  -6   0  -6    0.38    0.66
   6   0   7   48.71    2.19
   6   0   7   38.60    2.14
   6   0   7   37.70    2.18
  -6   0  -7   36.19    1.89
  -6   0  -7   42.60    1.92
  -6   0  -7   24.88    1.78
   6   0   8   36.27    2.15
   6   0   8   30.60    2.16
   6   0   8   32.17    2.18
  -6   0  -8   26.70    1.82
  -6   0  -8   32.65    1.92
  -6   0  -8   23.64    1.80
   6   0   9   65.33    2.70
   6   0   9   55.60    2.60
   6   0   9   57.05    2.59
  -6   0  -9   45.77    2.28
  -6   0  -9   52.86    2.34
  -6   0  -9   37.88    2.11
   6   0  10   94.28    3.21
   6   0  10   92.38    3.39
  -6   0 -10   67.75    2.73
  -6   0 -10   77.85    2.85
  -6   0 -10   53.20    2.50
   6   0  11   55.59    2.93
   6   0  11   56.43    3.10
  -6   0 -11   40.32    2.53
  -6   0 -11   43.13    2.63
  -6   0 -11   40.63    2.53
  -6   0 -11   30.29    2.31
   6   0  12   39.88    2.89
   6   0  12   45.47    3.15
  -6   0 -12   30.77    2.55
  -6   0 -12   25.80    2.55
  -6   0 -12   29.19    2.62
   7   0 -13    5.69    1.67
   7   0 -13    2.69    1.32
   7   0 -13    3.24    1.38
   7   0 -13    1.42    1.36
  -7   0  13    1.63    1.26
  -7   0  13    1.20    0.73
   7   0 -12    2.68    1.49
   7   0 -12    4.85    1.32
   7   0 -12    3.70    1.23
   7   0 -12    2.09    1.30
  -7   0  12    2.06    1.10
  -7   0  12    1.56    0.75
   7   0 -11    4.82    1.43
   7   0 -11    2.17    1.10
   7   0 -11    2.70    1.14
   7   0 -11    1.12    1.14
  -7   0  11    2.58    0.98
  -7   0  11    0.80    0.65
   7   0 -10    0.24    1.13
   7   0 -10    1.72    1.00
   7   0 -10   -0.15    0.99
  -7   0  10    1.49    0.87
  -7   0  10    0.30    0.58
   7   0  -9   -0.76    1.01
   7   0  -9    0.78    0.90
   7   0  -9    1.51    0.98
   7   0  -9   -0.52    0.95
  -7   0   9    1.03    0.87
  -7   0   9    0.18    0.54
   7   0  -8    0.99    0.97
   7   0  -8    4.35    1.00
   7   0  -8    1.77    0.96
   7   0  -8    1.56    0.97
  -7   0   8    1.93    0.84
  -7   0   8    1.04    0.66
   7   0  -7    0.52    0.90
   7   0  -7    1.32    0.81
   7   0  -7    1.70    0.91
   7   0  -7    0.58    0.88
  -7   0   7    0.67    0.75
   7   0  -6   18.94    1.87
   7   0  -6   25.74    1.70
   7   0  -6   19.90    1.72
   7   0  -6   15.62    1.60
  -7   0   6   13.16    1.49
   7   0  -5   93.14    2.67
   7   0  -5  103.95    2.50
   7   0  -5   94.07    2.60
   7   0  -5   77.61    2.40
  -7   0   5   63.95    2.04
   7   0  -4   35.87    1.88
   7   0  -4   33.08    1.55
   7   0  -4   35.20    1.80
   7   0  -4   29.37    1.71
  -7   0   4   18.65    1.47
   7   0  -3  114.28    2.62
   7   0  -3  109.73    2.63
   7   0  -3  110.86    2.27
   7   0  -3  113.82    2.52
   7   0  -3   98.00    2.07
   7   0  -3  106.70    2.54
   7   0  -3   88.12    2.43
  -7   0   3   66.37    2.04
  -7   0   3   75.26    1.82
  -7   0   3   66.16    1.71
   7   0  -2  189.30    3.16
   7   0  -2  166.78    3.03
   7   0  -2  168.10    2.77
   7   0  -2  173.30    2.91
   7   0  -2  152.04    2.61
   7   0  -2  158.55    2.89
   7   0  -2  139.33    2.81
  -7   0   2  105.41    2.43
  -7   0   2  101.19    2.14
   7   0  -1  147.78    2.86
   7   0  -1  133.99    2.66
   7   0  -1  128.46    2.60
   7   0  -1  126.50    2.57
   7   0  -1  116.48    2.43
   7   0  -1  113.66    2.39
   7   0  -1  125.48    2.55
   7   0  -1  107.10    2.44
  -7   0   1   79.27    1.99
   7   0   0   93.41    2.42
   7   0   0   82.52    2.11
   7   0   0   73.41    2.14
   7   0   0   74.82    2.19
   7   0   0   71.51    2.13
   7   0   0   70.23    2.06
   7   0   0   79.20    2.09
   7   0   0   65.87    1.98
  -7   0   0   50.35    1.73
   7   0   1   41.37    1.91
   7   0   1   35.02    1.54
   7   0   1   35.35    1.74
   7   0   1   30.62    1.70
   7   0   1   30.46    1.74
   7   0   1   29.87    1.67
   7   0   1   32.95    1.59
   7   0   1   28.74    1.47
  -7   0  -1   28.47    1.40
  -7   0  -1   20.42    1.34
   7   0   2    4.22    0.90
   7   0   2    3.26    0.72
   7   0   2    3.47    0.86
   7   0   2    3.51    0.85
   7   0   2    3.86    0.88
   7   0   2    2.81    0.81
   7   0   2    3.49    0.80
   7   0   2    3.40    0.74
  -7   0  -2    3.94    0.85
  -7   0  -2    2.69    0.65
  -7   0  -2    1.60    0.64
  -7   0  -2    3.53    0.68
   7   0   3    1.82    0.80
   7   0   3    2.41    0.87
   7   0   3    2.55    0.86
   7   0   3    0.71    0.77
   7   0   3    1.39    0.76
   7   0   3    1.44    0.67
  -7   0  -3    2.68    0.78
  -7   0  -3    1.95    0.63
  -7   0  -3    1.24    0.65
  -7   0  -3    1.59    0.60
   7   0   4    2.40    0.86
   7   0   4    1.14    0.80
   7   0   4    0.00    0.78
   7   0   4   -0.51    0.78
  -7   0  -4    1.79    0.80
  -7   0  -4    1.40    0.69
  -7   0  -4    0.77    0.68
   7   0   5    5.25    1.04
   7   0   5    3.42    1.03
   7   0   5    2.96    0.97
   7   0   5    4.08    1.05
  -7   0  -5    3.96    0.87
  -7   0  -5    4.92    0.90
  -7   0  -5    2.39    0.77
   7   0   6   31.88    2.11
   7   0   6   25.53    2.00
   7   0   6   24.11    2.04
   7   0   6   24.22    2.03
  -7   0  -6   22.97    1.76
  -7   0  -6   29.66    1.77
  -7   0  -6   15.72    1.67
   7   0   7  111.21    3.16
   7   0   7   90.38    3.03
   7   0   7   84.70    2.95
  -7   0  -7   74.18    2.66
  -7   0  -7   89.39    2.71
  -7   0  -7   56.75    2.42
   7   0   8  111.71    3.35
   7   0   8  100.61    3.33
  -7   0  -8   80.68    2.89
  -7   0  -8   96.15    2.92
  -7   0  -8   64.82    2.66
   7   0   9  108.92    3.48
   7   0   9  102.72    3.62
  -7   0  -9   82.77    3.08
  -7   0  -9   92.42    3.06
  -7   0  -9   65.45    2.80
   7   0  10  106.29    3.62
   7   0  10   98.11    3.77
  -7   0 -10   74.87    3.09
  -7   0 -10   76.86    3.04
  -7   0 -10   68.01    3.08
   7   0  11   34.42    2.78
   7   0  11   33.61    3.16
  -7   0 -11   23.72    2.48
  -7   0 -11   22.67    2.48
  -7   0 -11   25.55    2.65
   8   0 -12    1.49    1.62
   8   0 -12    0.82    1.23
   8   0 -12    0.79    1.27
   8   0 -12   -0.93    1.35
  -8   0  12    0.27    1.17
  -8   0  12    0.29    0.72
   8   0 -11    0.60    1.37
   8   0 -11    0.28    1.11
   8   0 -11    1.19    1.17
   8   0 -11    1.11    1.28
  -8   0  11    0.18    1.01
  -8   0  11    1.14    0.74
   8   0 -10   -2.15    1.09
   8   0 -10   -0.20    0.89
   8   0 -10   -0.62    1.02
   8   0 -10   -0.11    1.12
  -8   0  10   -2.42    0.88
  -8   0  10   -0.21    0.60
   8   0  -9   -0.31    1.19
   8   0  -9    2.70    1.03
   8   0  -9    3.84    1.24
   8   0  -9    0.99    1.10
  -8   0   9    0.95    0.95
  -8   0   9    1.16    0.73
   8   0  -8    3.85    1.27
   8   0  -8    5.50    1.07
   8   0  -8    4.31    1.23
   8   0  -8    3.42    1.15
  -8   0   8    3.34    1.01
  -8   0   8    1.43    0.77
   8   0  -7   13.29    1.57
   8   0  -7   18.51    1.85
   8   0  -7   16.72    1.93
   8   0  -7   11.16    1.40
  -8   0   7    9.42    1.17
  -8   0   7    5.48    1.02
   8   0  -6   45.27    2.45
   8   0  -6   49.96    2.23
   8   0  -6   44.69    2.34
   8   0  -6   36.48    2.12
  -8   0   6   32.88    1.91
   8   0  -5   59.97    2.56
   8   0  -5   54.25    2.30
   8   0  -5   52.61    2.41
  -8   0   5   37.37    1.90
   8   0  -4   77.47    2.71
   8   0  -4   77.06    2.49
   8   0  -4   74.65    2.58
   8   0  -4   59.10    2.34
  -8   0   4   51.32    2.06
   8   0  -3   67.58    2.35
   8   0  -3   58.06    2.36
   8   0  -3   54.89    2.23
   8   0  -3   49.95    2.19
   8   0  -3   43.52    2.08
  -8   0   3   34.98    1.86
   8   0  -2   27.34    1.84
   8   0  -2   21.62    1.78
   8   0  -2   13.35    1.65
   8   0  -2   15.60    1.73
   8   0  -2   19.04    1.51
   8   0  -2   16.88    1.65
   8   0  -2   15.68    1.56
  -8   0   2   12.51    1.27
  -8   0   2   15.67    1.41
  -8   0   2   11.67    1.16
   8   0  -1    9.41    1.11
   8   0  -1   13.19    1.57
   8   0  -1    8.70    1.08
   8   0  -1    7.26    1.12
   8   0  -1    8.24    1.03
   8   0  -1    9.15    1.12
   8   0  -1    8.00    1.07
  -8   0   1    6.32    0.84
   8   0   0    0.38    0.81
   8   0   0   -0.05    0.73
   8   0   0   -0.64    0.74
   8   0   0   -1.31    0.80
   8   0   0    0.63    0.72
   8   0   0    0.11    0.77
   8   0   0    0.41    0.76
  -8   0   0    0.26    0.62
   8   0   1   -0.81    0.79
   8   0   1   -1.63    0.64
   8   0   1   -0.93    0.71
   8   0   1    0.52    0.85
   8   0   1    0.17    0.76
   8   0   1   -0.42    0.74
   8   0   1   -0.82    0.72
  -8   0  -1   -0.32    0.72
  -8   0  -1   -1.22    0.53
  -8   0  -1   -0.79    0.57
  -8   0  -1    0.13    0.61
   8   0   2   10.00    1.21
   8   0   2    6.92    1.07
   8   0   2    7.73    1.11
   8   0   2    7.87    1.19
   8   0   2    6.20    1.55
   8   0   2    4.14    0.97
  -8   0  -2    7.24    1.07
  -8   0  -2    6.27    0.90
  -8   0  -2    4.71    0.90
   8   0   3   10.57    1.26
   8   0   3    8.96    1.19
   8   0   3    8.37    1.28
  -8   0  -3    9.91    1.24
  -8   0  -3   10.79    1.32
  -8   0  -3    5.25    0.99
   8   0   4   32.36    2.14
   8   0   4   26.62    2.07
   8   0   4   24.38    2.20
  -8   0  -4   24.38    1.87
  -8   0  -4   26.10    1.70
  -8   0  -4   17.12    1.70
   8   0   5   70.85    2.77
   8   0   5   59.17    2.69
   8   0   5   58.47    2.77
  -8   0  -5   50.34    2.39
  -8   0  -5   58.68    2.30
  -8   0  -5   36.55    2.13
   8   0   6   97.28    3.20
   8   0   6   91.47    3.36
  -8   0  -6   68.36    2.76
  -8   0  -6   82.18    2.71
  -8   0  -6   56.93    2.56
   8   0   7  138.96    3.76
   8   0   7  116.58    3.79
  -8   0  -7   92.76    3.21
  -8   0  -7  110.91    3.22
  -8   0  -7   80.14    3.10
   8   0   8   69.56    3.16
   8   0   8   55.98    3.29
  -8   0  -8   46.62    2.75
  -8   0  -8   49.24    2.59
  -8   0  -8   48.52    2.92
   8   0   9   22.53    2.56
   8   0   9   24.00    2.95
  -8   0  -9   12.99    1.74
  -8   0  -9   13.75    1.65
  -8   0  -9   20.17    2.50
   9   0 -10    4.68    1.71
   9   0 -10    4.21    1.53
   9   0 -10    2.58    1.41
  -9   0  10    0.98    0.78
   9   0  -9    2.30    1.46
   9   0  -9    3.36    1.36
   9   0  -9    2.34    1.30
  -9   0   9    0.40    0.81
   9   0  -8    9.42    1.65
   9   0  -8    8.95    1.53
   9   0  -8    6.57    1.48
  -9   0   8    7.52    1.29
  -9   0   8    1.89    0.86
   9   0  -7   23.72    2.51
   9   0  -7   20.59    2.25
   9   0  -7   12.68    1.62
  -9   0   7   16.25    1.91
  -9   0   7    5.98    1.14
   9   0  -6   24.68    2.47
   9   0  -6   19.55    2.14
   9   0  -6   17.12    2.10
  -9   0   6   20.16    1.86
  -9   0   6    7.01    1.16
   9   0  -5   28.22    2.40
   9   0  -5   28.19    2.24
   9   0  -5   20.11    1.98
  -9   0   5   23.12    1.82
   9   0  -4   11.22    1.51
   9   0  -4    5.45    1.92
   9   0  -4    7.34    1.29
   9   0  -4    6.78    1.29
  -9   0   4    6.53    1.04
   9   0  -3    2.96    1.05
   9   0  -3    1.56    1.06
   9   0  -3    0.83    1.62
   9   0  -3    2.73    0.99
   9   0  -3    0.64    1.03
  -9   0   3    1.63    0.87
   9   0  -2    3.36    1.04
   9   0  -2    1.64    1.02
   9   0  -2   -0.09    1.06
   9   0  -2    2.31    0.96
   9   0  -2    0.23    0.96
  -9   0   2   -0.41    0.84
   9   0  -1    0.57    0.93
   9   0  -1    0.32    0.93
   9   0  -1    0.41    0.95
   9   0  -1   -0.42    1.00
   9   0  -1   -1.21    0.74
   9   0  -1   -0.13    0.85
   9   0  -1   -0.92    0.88
  -9   0   1   -0.65    0.81
   9   0   0    0.88    1.02
   9   0   0   -0.14    0.89
   9   0   0    0.89    0.85
   9   0   0    0.50    1.00
   9   0   0   -0.11    0.83
   9   0   0    0.02    0.82
  -9   0   0    0.95    0.83
  -9   0   0    1.38    0.93
  -9   0   0   -0.42    0.85
  -9   0   0    0.01    0.68
   9   0   1    6.83    1.26
   9   0   1    6.38    1.13
   9   0   1    4.67    1.11
   9   0   1    4.12    1.06
  -9   0  -1    6.26    1.08
  -9   0  -1    6.65    1.06
  -9   0  -1    2.69    1.07
  -9   0  -1    4.57    0.98
   9   0   2   27.06    2.31
   9   0   2   24.28    2.08
   9   0   2   26.66    2.14
   9   0   2   22.80    2.20
  -9   0  -2   20.30    1.86
  -9   0  -2   24.09    1.73
  -9   0  -2   15.94    1.59
  -9   0  -2   15.36    1.75
   9   0   3   64.47    2.91
   9   0   3   50.46    2.63
   9   0   3   51.98    2.76
  -9   0  -3   46.19    2.40
  -9   0  -3   46.91    2.19
  -9   0  -3   40.90    2.55
  -9   0  -3   32.75    2.18
   9   0   4   79.23    3.16
   9   0   4   66.74    3.02
   9   0   4   64.62    3.10
  -9   0  -4   54.58    2.69
  -9   0  -4   63.32    2.54
  -9   0  -4   55.80    2.87
  -9   0  -4   40.92    2.43
   9   0   5   72.35    3.15
   9   0   5   59.27    3.25
  -9   0  -5   45.81    2.63
  -9   0  -5   54.59    2.53
  -9   0  -5   43.85    2.77
   9   0   6   45.84    2.85
   9   0   6   40.03    3.16
  -9   0  -6   30.59    2.47
  -9   0  -6   35.61    2.35
  -9   0  -6   33.46    2.69
  10   0  -6    5.70    1.56
  10   0  -6    7.46    1.53
  10   0  -6    3.58    1.44
 -10   0   6    3.02    1.02
  10   0  -5    3.02    1.42
  10   0  -5    3.76    1.32
  10   0  -5    1.48    1.30
 -10   0   5    2.77    0.91
  10   0  -4    0.95    1.29
  10   0  -4    1.54    1.19
  10   0  -4   -0.93    1.09
 -10   0   4   -0.11    0.74
  10   0  -3   -0.34    1.16
  10   0  -3   -1.11    1.13
  10   0  -3    0.59    1.08
  10   0  -3   -1.07    1.01
 -10   0   3   -1.45    0.83
  10   0  -2   -2.70    1.11
  10   0  -2   -2.77    0.97
  10   0  -2   -1.51    0.99
 -10   0   2   -0.22    0.90
  10   0  -1    0.28    1.24
  10   0  -1    1.49    1.09
 -10   0   1    2.52    1.03
  10   0   0    5.94    1.48
  10   0   0    7.53    1.37
 -10   0   0    4.77    1.37
  10   0   1   29.94    2.64
  10   0   1   26.71    3.14
  10   0   1   32.03    2.63
 -10   0  -1   22.25    2.35
 -10   0  -1   13.37    2.04
  10   0   2   68.11    3.20
  10   0   2   61.16    3.02
  10   0   2   63.35    3.28
 -10   0  -2   48.66    2.65
 -10   0  -2   48.25    3.02
 -10   0  -2   35.59    3.66
 -10   1  -3   37.83    2.62
 -10   1  -3   42.96    2.43
  10  -1   3   46.59    2.87
  10  -1   3   47.27    2.81
  10  -1   3   48.37    3.04
 -10   1  -2   28.92    2.39
 -10   1  -2   27.55    2.10
 -10   1  -2   18.57    1.99
  10  -1   2   28.41    2.48
  10  -1   2   34.57    2.61
  10  -1   2   36.71    2.76
 -10   1  -1    6.00    1.34
 -10   1  -1    5.41    1.18
  10  -1   1    6.47    1.37
  10  -1   1    7.57    1.46
  10  -1   1    8.22    1.37
 -10   1   0    4.19    1.09
 -10   1   0    5.93    1.50
  10  -1   0    5.29    1.29
  10  -1   0    4.27    1.36
  10  -1   0    5.05    1.39
 -10   1   1    3.67    1.04
 -10   1   1    0.90    0.75
  10  -1  -1    1.46    1.16
  10  -1  -1    0.50    1.17
  10  -1  -1    2.73    1.21
  10  -1  -1    1.76    1.05
 -10   1   2    0.58    0.72
  10  -1  -2   -0.64    1.14
  10  -1  -2   -2.38    1.07
  10  -1  -2   -1.11    1.02
  10  -1  -2    1.85    1.12
 -10   1   3    0.49    0.71
  10  -1  -3    0.18    1.18
  10  -1  -3   -1.11    1.16
  10  -1  -3    0.73    1.14
  10  -1  -3   -0.03    1.09
 -10   1   4    2.31    0.84
  10  -1  -4    3.80    1.46
  10  -1  -4    4.30    1.42
  10  -1  -4    4.86    1.42
  10  -1  -4    4.51    1.35
 -10   1   5    2.45    0.93
  10  -1  -5    4.97    1.55
  10  -1  -5    4.84    1.77
  10  -1  -5    5.04    1.48
  10  -1  -5    3.51    1.37
  -9   1  -7    7.50    1.40
  -9   1  -7    8.29    1.41
   9  -1   7   10.40    1.51
   9  -1   7    6.86    1.60
   9  -1   7    8.45    1.69
  -9   1  -6   20.89    2.26
  -9   1  -6   21.29    2.08
   9  -1   6   30.49    2.44
   9  -1   6   27.02    2.56
   9  -1   6   24.61    2.70
  -9   1  -5   40.27    2.54
  -9   1  -5   42.94    2.36
  -9   1  -5   27.32    2.08
   9  -1   5   57.61    2.78
   9  -1   5   47.44    2.74
   9  -1   5   47.12    2.91
   9  -1   5   47.29    2.64
  -9   1  -4   40.72    2.48
  -9   1  -4   41.89    2.27
  -9   1  -4   30.73    2.07
   9  -1   4   64.37    2.76
   9  -1   4   45.22    2.65
   9  -1   4   49.33    2.81
   9  -1   4   47.64    2.52
  -9   1  -3   20.59    2.06
  -9   1  -3   22.66    1.83
  -9   1  -3   15.31    1.66
   9  -1   3   32.44    2.27
   9  -1   3   22.18    2.26
   9  -1   3   23.58    2.19
   9  -1   3   24.11    2.39
   9  -1   3   21.91    2.01
  -9   1  -2   10.40    1.38
  -9   1  -2    7.37    1.11
  -9   1  -2    4.57    0.94
  -9   1  -2    9.09    1.13
   9  -1   2   17.42    1.98
   9  -1   2    8.54    1.39
   9  -1   2   11.17    1.42
   9  -1   2   11.37    1.46
   9  -1   2    9.20    1.28
   9  -1   2   12.86    1.47
  -9   1  -1    4.62    1.59
  -9   1  -1    7.98    1.11
  -9   1  -1    4.23    0.94
  -9   1  -1    6.71    1.07
   9  -1   1    8.43    1.19
   9  -1   1    7.48    1.31
   9  -1   1    6.60    1.23
   9  -1   1    7.31    1.30
   9  -1   1    5.49    1.20
   9  -1   1    5.71    1.06
   9  -1   1    8.16    1.26
  -9   1   0    3.08    0.91
  -9   1   0    2.29    0.77
  -9   1   0    4.68    0.99
  -9   1   0    1.42    0.67
   9  -1   0    4.52    1.06
   9  -1   0    4.12    1.08
   9  -1   0    3.79    1.09
   9  -1   0    3.41    1.15
   9  -1   0    2.23    1.01
   9  -1   0    3.42    0.98
   9  -1   0    3.95    1.07
   9  -1   0    4.36    0.98
  -9   1   1    7.44    1.25
  -9   1   1    3.31    0.81
   9  -1  -1    6.90    1.39
   9  -1  -1    8.49    1.27
   9  -1  -1    6.40    1.16
   9  -1  -1    7.97    1.30
   9  -1  -1    6.03    1.16
   9  -1  -1    8.98    1.26
   9  -1  -1    6.84    1.15
  -9   1   2    1.74    0.70
   9  -1  -2    2.75    1.08
   9  -1  -2    4.13    1.01
   9  -1  -2    2.51    1.14
   9  -1  -2    3.26    1.07
   9  -1  -2    2.40    1.01
  -9   1   3    0.17    0.63
   9  -1  -3    2.80    1.06
   9  -1  -3   -0.11    1.04
   9  -1  -3    0.07    1.05
   9  -1  -3   -0.76    0.90
  -9   1   4    4.61    0.96
   9  -1  -4   10.80    1.50
   9  -1  -4   10.58    1.49
   9  -1  -4   10.13    1.54
   9  -1  -4    9.37    1.39
  -9   1   5   10.51    1.29
   9  -1  -5   34.35    2.59
   9  -1  -5   32.31    2.40
   9  -1  -5   27.23    2.42
   9  -1  -5   21.42    2.06
  -9   1   6    9.31    1.24
   9  -1  -6   28.88    2.62
   9  -1  -6   32.89    2.42
   9  -1  -6   22.93    2.32
   9  -1  -6   21.60    2.14
  -9   1   7    5.10    1.07
   9  -1  -7   20.51    2.54
   9  -1  -7   26.35    2.27
   9  -1  -7   11.89    1.66
   9  -1  -7   10.23    1.62
  -9   1   8    0.53    0.81
   9  -1  -8    0.72    1.30
   9  -1  -8    2.80    1.23
   9  -1  -8    2.04    1.33
   9  -1  -8    1.05    1.30
  -9   1   9    2.49    0.94
   9  -1  -9    1.23    1.46
   9  -1  -9    3.83    1.35
   9  -1  -9    2.97    1.49
   9  -1  -9    1.15    1.33
  -8   1  -9   28.37    2.43
  -8   1  -9   31.65    2.35
   8  -1   9   40.72    2.68
   8  -1   9   29.62    2.91
  -8   1  -8   48.88    2.64
  -8   1  -8   53.09    2.58
   8  -1   8   72.07    3.01
   8  -1   8   56.03    2.94
   8  -1   8   57.71    3.13
  -8   1  -7   42.17    2.46
  -8   1  -7   50.18    2.42
  -8   1  -7   32.07    2.15
   8  -1   7   64.68    2.75
   8  -1   7   54.37    2.82
   8  -1   7   52.59    2.83
   8  -1   7   49.67    2.62
  -8   1  -6   17.60    1.98
  -8   1  -6   22.58    1.89
  -8   1  -6   15.03    1.73
   8  -1   6   33.20    2.21
   8  -1   6   24.42    2.26
   8  -1   6   25.87    2.26
   8  -1   6   24.77    2.10
  -8   1  -5   16.56    1.88
  -8   1  -5   20.10    1.74
  -8   1  -5   11.25    1.26
   8  -1   5   25.72    2.03
   8  -1   5   19.34    2.13
   8  -1   5   17.40    2.05
   8  -1   5   19.34    1.93
  -8   1  -4   27.56    2.00
  -8   1  -4   29.18    1.80
  -8   1  -4   22.72    1.78
  -8   1  -4   25.94    1.58
   8  -1   4   41.68    2.18
   8  -1   4   29.33    2.22
   8  -1   4   33.80    2.22
   8  -1   4   28.11    2.20
   8  -1   4   28.52    2.07
  -8   1  -3   29.01    1.75
  -8   1  -3   21.28    1.72
  -8   1  -3   29.93    1.62
   8  -1   3   45.94    2.18
   8  -1   3   35.02    2.19
   8  -1   3   36.11    2.13
   8  -1   3   30.38    2.17
   8  -1   3   29.38    2.05
   8  -1   3   36.98    2.01
  -8   1  -2    9.32    1.00
  -8   1  -2   13.51    1.42
  -8   1  -2    8.00    1.08
  -8   1  -2   10.23    1.28
   8  -1   2   12.07    1.25
   8  -1   2   13.53    1.47
   8  -1   2   12.24    1.35
   8  -1   2   15.93    1.78
   8  -1   2   10.79    1.28
   8  -1   2    8.38    1.13
   8  -1   2   14.76    1.59
  -8   1  -1   -0.27    0.66
  -8   1  -1   -0.39    0.56
  -8   1  -1    0.33    0.73
   8  -1   1   -0.85    0.79
   8  -1   1    0.50    0.73
   8  -1   1    0.80    0.84
   8  -1   1   -2.04    0.84
   8  -1   1   -0.25    0.76
   8  -1   1   -0.13    0.72
   8  -1   1    0.82    0.83
   8  -1   1   -0.06    0.69
  -8   1   0    0.19    0.57
   8  -1   0    0.31    0.81
   8  -1   0    1.66    0.82
   8  -1   0    1.65    0.86
   8  -1   0   -0.98    0.89
   8  -1   0    2.24    0.83
   8  -1   0    1.07    0.72
   8  -1   0    2.33    0.91
   8  -1   0    2.69    0.81
  -8   1   1   14.67    1.23
  -8   1   1    8.93    1.08
   8  -1  -1   29.66    1.82
   8  -1  -1   24.25    1.76
   8  -1  -1   23.89    1.78
   8  -1  -1   18.78    1.85
   8  -1  -1   23.94    1.66
   8  -1  -1   22.93    1.52
   8  -1  -1   19.12    1.75
   8  -1  -1   18.71    1.53
  -8   1   2   25.14    1.68
  -8   1   2   25.12    1.53
  -8   1   2   16.11    1.27
   8  -1  -2   47.52    2.02
   8  -1  -2   45.29    2.18
   8  -1  -2   43.41    2.07
   8  -1  -2   37.31    2.11
   8  -1  -2   40.88    1.83
   8  -1  -2   38.52    1.67
   8  -1  -2   34.43    2.02
   8  -1  -2   32.55    1.81
  -8   1   3   40.35    1.82
  -8   1   3   23.38    1.48
   8  -1  -3   76.03    2.37
   8  -1  -3   64.29    2.55
   8  -1  -3   65.64    2.29
   8  -1  -3   63.14    2.51
   8  -1  -3   57.35    2.38
   8  -1  -3   45.41    2.10
  -8   1   4   37.89    1.80
  -8   1   4   18.48    1.43
   8  -1  -4   54.73    2.49
   8  -1  -4   56.78    2.54
   8  -1  -4   51.96    2.39
   8  -1  -4   48.08    2.41
   8  -1  -4   38.40    2.08
  -8   1   5   32.73    1.79
  -8   1   5   13.32    1.38
   8  -1  -5   41.60    2.39
   8  -1  -5   50.18    2.39
   8  -1  -5   41.96    2.30
   8  -1  -5   30.68    2.03
  -8   1   6   27.27    2.17
  -8   1   6   11.15    1.25
   8  -1  -6   33.65    2.36
   8  -1  -6   41.49    2.20
   8  -1  -6   39.27    2.38
   8  -1  -6   24.95    1.99
  -8   1   7    2.50    0.84
   8  -1  -7    7.08    1.29
   8  -1  -7    9.12    1.27
   8  -1  -7    8.49    1.36
   8  -1  -7    5.55    1.24
  -8   1   8    2.05    0.80
   8  -1  -8    4.57    1.34
   8  -1  -8    6.14    1.20
   8  -1  -8    5.54    1.25
   8  -1  -8    4.65    1.26
  -8   1   9   -0.18    0.62
   8  -1  -9   -0.92    1.14
   8  -1  -9   -1.46    0.95
   8  -1  -9    0.68    1.06
   8  -1  -9   -1.03    1.06
  -8   1  10   -1.16    0.53
   8  -1 -10   -0.69    1.25
   8  -1 -10   -0.41    1.05
   8  -1 -10    1.17    1.14
   8  -1 -10    0.20    1.14
  -8   1  11   -0.20    0.64
   8  -1 -11    0.30    1.46
   8  -1 -11   -0.94    1.23
   8  -1 -11    2.23    1.29
   8  -1 -11    0.15    1.29
  -7   1 -11   28.15    2.43
  -7   1 -11   29.63    2.41
   7  -1  11   40.64    2.70
   7  -1  11   36.60    3.06
  -7   1 -10    8.96    1.41
  -7   1 -10   13.02    1.56
  -7   1 -10    7.19    1.54
   7  -1  10   19.42    2.31
   7  -1  10   13.42    1.73
   7  -1  10   13.18    1.79
  -7   1  -9   26.67    2.10
  -7   1  -9   28.66    2.15
  -7   1  -9   20.44    1.91
   7  -1   9   40.61    2.46
   7  -1   9   32.72    2.46
   7  -1   9   31.82    2.30
  -7   1  -8   30.16    2.06
  -7   1  -8   39.48    2.16
  -7   1  -8   22.48    1.88
   7  -1   8   46.37    2.40
   7  -1   8   37.40    2.34
   7  -1   8   37.55    2.33
   7  -1   8   39.42    2.32
  -7   1  -7   33.81    2.07
  -7   1  -7   37.43    2.03
  -7   1  -7   25.12    1.83
   7  -1   7   48.23    2.32
   7  -1   7   40.34    2.33
   7  -1   7   39.40    2.24
   7  -1   7   39.23    2.26
  -7   1  -6   22.72    1.77
  -7   1  -6   28.68    1.83
  -7   1  -6   17.45    1.63
  -7   1  -6   26.96    1.51
   7  -1   6   31.93    2.05
   7  -1   6   27.05    2.11
   7  -1   6   26.09    1.98
   7  -1   6   26.07    1.98
  -7   1  -5   10.83    1.25
  -7   1  -5   10.12    1.12
  -7   1  -5    7.60    1.07
  -7   1  -5   10.76    1.20
   7  -1   5   10.46    1.17
   7  -1   5    9.62    1.26
   7  -1   5    9.45    1.18
   7  -1   5    9.09    1.16
  -7   1  -4   28.24    1.77
  -7   1  -4   26.64    1.60
  -7   1  -4   20.29    1.57
  -7   1  -4   28.75    1.45
   7  -1   4   36.02    1.92
   7  -1   4   30.73    1.98
   7  -1   4   32.11    1.94
   7  -1   4   25.22    1.84
   7  -1   4   28.23    1.89
  -7   1  -3    6.93    0.78
  -7   1  -3    6.79    0.91
  -7   1  -3    4.72    0.87
  -7   1  -3    8.68    1.08
   7  -1   3    7.28    0.99
   7  -1   3    9.32    0.94
   7  -1   3    7.39    1.08
   7  -1   3    9.39    1.12
   7  -1   3    7.27    1.09
   7  -1   3    6.19    0.98
   7  -1   3    9.18    1.07
  -7   1  -2   28.69    1.37
  -7   1  -2   35.93    1.67
  -7   1  -2   25.51    1.52
  -7   1  -2   31.49    1.49
   7  -1   2   47.91    1.94
   7  -1   2   44.90    1.67
   7  -1   2   45.79    2.03
   7  -1   2   42.96    1.97
   7  -1   2   39.46    1.91
   7  -1   2   37.98    1.84
   7  -1   2   39.26    1.82
   7  -1   2   36.82    1.49
  -7   1  -1   49.81    1.80
   7  -1   1   98.38    2.41
   7  -1   1   85.24    2.16
   7  -1   1   87.26    2.39
   7  -1   1   87.73    2.42
   7  -1   1   74.79    2.22
   7  -1   1   75.43    2.18
   7  -1   1   81.26    2.25
   7  -1   1   69.31    1.93
  -7   1   0   28.51    1.41
   7  -1   0   56.43    1.99
   7  -1   0   50.05    1.86
   7  -1   0   51.50    2.00
   7  -1   0   47.99    1.97
   7  -1   0   48.88    1.84
   7  -1   0   44.83    1.73
   7  -1   0   43.86    1.88
   7  -1   0   39.12    1.65
  -7   1   1   48.44    1.63
   7  -1  -1   94.82    2.29
   7  -1  -1   83.37    2.31
   7  -1  -1   87.58    2.31
   7  -1  -1   86.45    2.37
   7  -1  -1   74.90    2.02
   7  -1  -1   74.15    1.98
   7  -1  -1   76.33    2.28
   7  -1  -1   65.75    2.04
  -7   1   2   77.50    2.02
  -7   1   2   63.59    1.75
   7  -1  -2  130.08    2.56
   7  -1  -2  111.83    2.65
   7  -1  -2  121.19    2.54
   7  -1  -2  123.94    2.72
   7  -1  -2  101.95    2.18
   7  -1  -2  101.77    2.13
   7  -1  -2  107.90    2.58
   7  -1  -2   87.48    2.35
  -7   1   3   12.60    1.27
  -7   1   3   12.91    1.01
  -7   1   3    7.18    0.87
   7  -1  -3   23.70    1.65
   7  -1  -3   24.32    1.68
   7  -1  -3   21.96    1.54
   7  -1  -3   20.65    1.66
   7  -1  -3   22.82    1.30
   7  -1  -3   20.91    1.16
   7  -1  -3   20.50    1.63
   7  -1  -3   17.79    1.50
  -7   1   4   22.99    1.41
  -7   1   4   12.20    1.16
   7  -1  -4   33.71    1.96
   7  -1  -4   33.84    1.72
   7  -1  -4   33.19    1.84
   7  -1  -4   31.75    1.93
   7  -1  -4   24.62    1.65
  -7   1   5   35.43    1.64
  -7   1   5   14.79    1.31
   7  -1  -5   43.84    2.21
   7  -1  -5   55.10    1.92
   7  -1  -5   53.04    2.15
   7  -1  -5   49.95    2.14
   7  -1  -5   35.35    1.93
  -7   1   6   16.01    1.46
  -7   1   6    8.49    1.03
   7  -1  -6   22.74    1.97
   7  -1  -6   28.88    1.83
   7  -1  -6   26.87    1.81
   7  -1  -6   18.49    1.71
  -7   1   7    5.16    0.91
  -7   1   7    2.64    0.74
   7  -1  -7    4.86    1.12
   7  -1  -7    6.29    1.10
   7  -1  -7    6.52    1.09
   7  -1  -7    4.99    1.06
  -7   1   8   -0.42    0.71
  -7   1   8   -0.22    0.54
   7  -1  -8    0.30    0.96
   7  -1  -8   -0.74    0.85
   7  -1  -8    0.68    0.84
   7  -1  -8    0.04    0.91
  -7   1   9    0.45    0.74
  -7   1   9    0.37    0.59
   7  -1  -9    0.23    1.00
   7  -1  -9   -1.03    0.92
   7  -1  -9    1.41    0.92
   7  -1  -9   -0.45    0.98
  -7   1  10    0.51    0.87
  -7   1  10    0.39    0.58
   7  -1 -10    0.56    1.20
   7  -1 -10   -0.86    1.08
   7  -1 -10    1.02    1.03
   7  -1 -10    0.27    1.04
  -7   1  11    0.14    1.16
  -7   1  11    0.32    0.60
   7  -1 -11    1.04    1.31
   7  -1 -11    2.11    1.24
   7  -1 -11    1.30    1.14
   7  -1 -11    2.17    1.26
  -7   1  12    1.25    0.71
   7  -1 -12    3.03    1.55
   7  -1 -12    4.14    1.41
   7  -1 -12    3.44    1.34
  -7   1  13    2.14    0.95
   7  -1 -13    5.39    1.69
   7  -1 -13    4.16    1.54
   7  -1 -13    5.48    1.52
  -6   1 -13    3.07    1.30
  -6   1 -13    1.40    1.38
   6  -1  13    3.78    1.44
   6  -1  13    3.28    1.49
  -6   1 -12    4.53    1.20
  -6   1 -12    6.22    1.39
  -6   1 -12    3.63    1.62
   6  -1  12    7.84    1.48
   6  -1  12    5.80    1.49
   6  -1  12    7.09    1.58
  -6   1 -11   29.23    2.18
  -6   1 -11   33.89    2.29
  -6   1 -11   24.19    2.03
   6  -1  11   45.31    2.65
   6  -1  11   39.19    2.63
   6  -1  11   36.37    2.45
  -6   1 -10   32.94    2.10
  -6   1 -10   41.11    2.24
  -6   1 -10   25.29    1.94
   6  -1  10   50.80    2.52
   6  -1  10   41.11    2.42
   6  -1  10   40.95    2.34
  -6   1  -9   38.17    2.07
  -6   1  -9   46.86    2.22
  -6   1  -9   31.13    1.95
   6  -1   9   55.39    2.47
   6  -1   9   40.73    2.26
   6  -1   9   44.22    2.33
   6  -1   9   46.20    2.37
  -6   1  -8   69.53    2.45
  -6   1  -8   88.16    2.61
  -6   1  -8   59.26    2.33
  -6   1  -8   94.10    2.32
   6  -1   8  109.30    2.94
   6  -1   8   89.84    2.85
   6  -1   8   83.69    2.73
   6  -1   8   85.26    2.80
  -6   1  -7   76.47    2.45
  -6   1  -7   89.19    2.51
  -6   1  -7   60.74    2.26
  -6   1  -7   94.80    2.23
   6  -1   7  107.66    2.78
   6  -1   7   93.68    2.78
   6  -1   7   89.59    2.68
   6  -1   7   86.85    2.69
  -6   1  -6    4.74    0.91
  -6   1  -6    4.64    0.87
  -6   1  -6    3.18    0.79
  -6   1  -6    4.81    0.77
   6  -1   6    3.68    0.94
   6  -1   6    3.46    1.01
   6  -1   6    3.69    0.98
   6  -1   6    3.50    0.95
  -6   1  -5    4.32    0.92
  -6   1  -5    3.94    0.79
  -6   1  -5    2.34    0.71
  -6   1  -5    4.45    0.71
   6  -1   5    2.59    0.84
   6  -1   5    2.97    0.89
   6  -1   5    3.61    0.91
   6  -1   5    3.49    0.85
  -6   1  -4   19.27    0.99
  -6   1  -4   24.42    1.38
  -6   1  -4   21.90    1.19
   6  -1   4   29.74    1.63
   6  -1   4   27.71    1.69
   6  -1   4   26.89    1.65
   6  -1   4   22.90    1.61
   6  -1   4   23.08    1.55
  -6   1  -3   48.72    1.38
  -6   1  -3   60.40    1.82
  -6   1  -3   56.40    1.64
   6  -1   3   83.19    2.09
   6  -1   3   74.95    1.71
   6  -1   3   77.42    2.19
   6  -1   3   75.10    2.11
   6  -1   3   68.60    2.07
   6  -1   3   66.16    1.99
   6  -1   3   70.60    1.91
   6  -1   3   61.97    1.49
  -6   1  -2   64.38    1.60
  -6   1  -2   70.99    1.79
   6  -1   2  114.04    2.26
   6  -1   2  101.08    2.00
   6  -1   2  102.47    2.33
   6  -1   2  100.67    2.31
   6  -1   2   88.34    2.15
   6  -1   2   88.27    2.13
   6  -1   2   94.27    2.16
   6  -1   2   87.51    1.80
   6  -1   1  228.69    2.95
   6  -1   1  203.26    2.80
   6  -1   1  208.39    3.05
   6  -1   1  200.11    3.00
   6  -1   1  174.19    2.75
   6  -1   1  172.73    2.72
   6  -1   1  191.08    2.87
   6  -1   1  167.44    2.48
   6  -1   0  252.70    3.04
   6  -1   0  223.39    3.03
   6  -1   0  228.41    3.09
   6  -1   0  223.30    3.11
   6  -1   0  189.86    2.74
   6  -1   0  187.48    2.71
   6  -1   0  212.71    3.04
   6  -1   0  184.07    2.69
   6  -1  -1  251.64    3.28
   6  -1  -1  262.13    3.21
   6  -1  -1  263.20    3.33
   6  -1  -1  216.38    2.78
   6  -1  -1  215.00    2.76
   6  -1  -1  247.26    3.27
   6  -1  -1  204.04    2.92
  -6   1   2   93.62    1.94
   6  -1  -2  164.29    2.52
   6  -1  -2  147.74    2.68
   6  -1  -2  152.76    2.50
   6  -1  -2  154.14    2.64
   6  -1  -2  129.84    2.14
   6  -1  -2  125.06    2.08
   6  -1  -2  143.71    2.62
   6  -1  -2  121.07    2.42
  -6   1   3   82.17    1.85
   6  -1  -3  142.84    2.40
   6  -1  -3  128.05    2.61
   6  -1  -3  134.20    2.32
   6  -1  -3  135.82    2.52
   6  -1  -3  113.14    1.90
   6  -1  -3  108.97    1.85
   6  -1  -3  129.56    2.58
   6  -1  -3  104.12    2.33
  -6   1   4   -1.34    0.46
  -6   1   4    0.32    0.35
  -6   1   4   -0.65    0.44
   6  -1  -4   -0.09    0.69
   6  -1  -4   -0.16    0.52
   6  -1  -4    0.67    0.64
   6  -1  -4    0.46    0.41
   6  -1  -4    0.18    0.39
   6  -1  -4    0.01    0.63
   6  -1  -4   -0.77    0.59
  -6   1   5   14.18    1.12
  -6   1   5    6.40    0.83
   6  -1  -5   17.52    1.53
   6  -1  -5   20.06    1.26
   6  -1  -5   18.24    1.43
   6  -1  -5   18.59    1.42
   6  -1  -5   14.61    1.38
  -6   1   6    2.06    0.60
  -6   1   6    0.48    0.52
   6  -1  -6    2.28    0.84
   6  -1  -6    3.56    0.69
   6  -1  -6    2.18    0.81
   6  -1  -6    2.47    0.76
   6  -1  -6    1.41    0.80
  -6   1   7    9.92    1.21
  -6   1   7    4.39    0.76
   6  -1  -7   11.51    1.31
   6  -1  -7   14.45    1.34
   6  -1  -7   11.74    1.18
   6  -1  -7   11.99    1.44
   6  -1  -7    8.95    1.11
  -6   1   8    6.43    0.86
  -6   1   8    2.86    0.69
   6  -1  -8    7.74    1.20
   6  -1  -8    8.33    1.21
   6  -1  -8    7.26    1.10
   6  -1  -8    5.74    1.06
  -6   1   9   30.73    1.76
  -6   1   9   10.93    1.22
   6  -1  -9   24.97    2.13
   6  -1  -9   22.87    2.12
   6  -1  -9   21.84    1.93
   6  -1  -9   20.34    1.85
  -6   1  10   19.78    1.76
  -6   1  10    5.77    0.88
   6  -1 -10   22.08    2.20
   6  -1 -10   19.62    2.06
   6  -1 -10   17.53    1.88
   6  -1 -10   10.30    1.36
  -6   1  11   21.60    2.02
  -6   1  11    4.46    0.88
   6  -1 -11   18.45    2.27
   6  -1 -11   17.26    2.07
   6  -1 -11   12.31    1.56
  -6   1  12   11.07    1.41
  -6   1  12    4.77    0.94
   6  -1 -12   13.66    1.75
   6  -1 -12   21.11    2.24
   6  -1 -12   10.80    1.57
  -6   1  13    2.96    1.27
  -6   1  13    1.94    0.87
   6  -1 -13    5.05    1.58
   6  -1 -13    6.87    1.42
   6  -1 -13    3.68    1.33
  -6   1  14    1.77    1.38
  -6   1  14    0.90    0.86
   6  -1 -14    2.01    1.55
   6  -1 -14    3.98    1.42
   6  -1 -14    1.96    1.44
  -5   1 -14    8.12    1.54
  -5   1 -14    6.81    1.59
   5  -1  14   11.45    1.72
   5  -1  14    8.85    1.68
  -5   1 -13   17.70    2.12
  -5   1 -13   14.82    1.72
  -5   1 -13    7.51    1.24
   5  -1  13   13.42    1.66
   5  -1  13   16.73    1.80
   5  -1  13   17.94    2.19
  -5   1 -12   10.90    1.35
  -5   1 -12   12.54    1.49
  -5   1 -12    6.82    1.17
   5  -1  12   12.42    1.50
   5  -1  12   18.32    2.22
   5  -1  12   18.08    2.04
  -5   1 -11    8.41    1.20
  -5   1 -11   10.50    1.32
  -5   1 -11    5.90    1.02
   5  -1  11   11.38    1.41
   5  -1  11    9.83    1.29
   5  -1  11   10.84    1.34
  -5   1 -10   14.91    1.61
  -5   1 -10   17.58    1.78
  -5   1 -10   10.39    1.21
  -5   1 -10   19.44    1.66
   5  -1  10   20.03    1.96
   5  -1  10   19.33    1.88
   5  -1  10   21.41    1.90
  -5   1  -9   10.62    1.11
  -5   1  -9   15.61    1.63
  -5   1  -9   13.06    1.44
  -5   1  -9   18.42    1.52
   5  -1   9   18.51    1.81
   5  -1   9   14.13    1.71
   5  -1   9   14.75    1.68
   5  -1   9   14.76    1.74
  -5   1  -8    2.49    0.80
  -5   1  -8    2.31    0.84
  -5   1  -8    2.71    0.72
  -5   1  -8    3.93    0.82
   5  -1   8    3.57    0.90
   5  -1   8    1.62    0.92
   5  -1   8    3.02    0.97
   5  -1   8    2.32    0.93
  -5   1  -7  144.27    2.91
  -5   1  -7  167.78    3.02
  -5   1  -7  113.47    2.62
  -5   1  -7  177.46    2.72
   5  -1   7  203.60    3.28
   5  -1   7  174.04    3.24
   5  -1   7  170.12    3.25
   5  -1   7  159.49    3.11
  -5   1  -6  277.11    3.72
  -5   1  -6  320.19    3.84
  -5   1  -6  322.69    3.42
   5  -1   6  384.13    4.13
   5  -1   6  349.55    4.19
   5  -1   6  325.75    4.07
   5  -1   6  313.20    3.97
  -5   1  -5   42.92    1.55
  -5   1  -5   40.63    1.36
   5  -1   5   49.84    1.70
   5  -1   5   47.33    1.78
   5  -1   5   42.92    1.70
   5  -1   5   44.20    1.67
  -5   1  -4   40.01    1.09
  -5   1  -4   49.67    1.57
  -5   1  -4   48.00    1.39
   5  -1   4   63.25    1.74
   5  -1   4   58.67    1.83
   5  -1   4   55.08    1.77
   5  -1   4   51.68    1.69
   5  -1   4   54.24    1.76
   5  -1   4   51.88    1.12
  -5   1  -3   87.56    1.56
  -5   1  -3  100.68    2.03
  -5   1  -3   98.13    1.85
   5  -1   3  143.20    2.28
   5  -1   3  129.49    1.90
   5  -1   3  134.55    2.42
   5  -1   3  127.30    2.31
   5  -1   3  114.86    2.22
   5  -1   3  116.18    2.25
   5  -1   3  124.68    2.14
   5  -1   3  113.81    1.66
  -5   1  -2   75.98    1.52
  -5   1  -2   83.90    1.72
   5  -1   2  130.94    2.11
   5  -1   2  120.03    1.90
   5  -1   2  122.53    2.25
   5  -1   2  117.63    2.18
   5  -1   2  106.75    2.07
   5  -1   2  104.54    2.06
   5  -1   2  115.29    2.05
   5  -1   2  102.44    1.70
   5  -1   1  151.88    2.17
   5  -1   1  133.68    2.07
   5  -1   1  139.18    2.29
   5  -1   1  134.74    2.26
   5  -1   1  114.90    2.04
   5  -1   1  119.38    2.09
   5  -1   1  131.26    2.17
   5  -1   1  117.49    1.86
   5  -1   0  201.26    2.40
   5  -1   0  185.28    2.47
   5  -1   0  185.35    2.51
   5  -1   0  181.36    2.52
   5  -1   0  150.17    2.18
   5  -1   0  154.69    2.23
   5  -1   0  177.06    2.46
   5  -1   0  157.73    2.23
   5  -1  -1  150.42    2.10
   5  -1  -1  138.69    2.23
   5  -1  -1  141.57    2.17
   5  -1  -1  137.38    2.21
   5  -1  -1  114.56    1.85
   5  -1  -1  114.54    1.86
   5  -1  -1  134.71    2.22
   5  -1  -1  118.88    2.05
  -5   1   2   56.96    1.38
   5  -1  -2  100.51    1.78
   5  -1  -2   94.69    1.98
   5  -1  -2   97.93    1.82
   5  -1  -2   96.40    1.93
   5  -1  -2   81.09    1.51
   5  -1  -2   79.97    1.51
   5  -1  -2   95.47    1.96
   5  -1  -2   79.94    1.79
  -5   1   3   30.39    1.13
  -5   1   3   15.55    0.98
   5  -1  -3   50.12    1.60
   5  -1  -3   51.58    1.40
   5  -1  -3   52.87    1.57
   5  -1  -3   40.41    1.09
   5  -1  -3   42.37    1.11
   5  -1  -3   50.81    1.57
   5  -1  -3   41.84    1.47
  -5   1   4   42.47    1.29
  -5   1   4   21.33    1.12
   5  -1  -4   61.23    1.80
   5  -1  -4   66.76    1.54
   5  -1  -4   64.37    1.74
   5  -1  -4   63.30    1.76
   5  -1  -4   52.01    1.66
  -5   1   5    4.04    0.56
  -5   1   5    2.58    0.55
   5  -1  -5    5.99    0.79
   5  -1  -5    8.12    1.00
   5  -1  -5    5.75    0.79
   5  -1  -5    5.87    0.79
   5  -1  -5    6.81    0.86
  -5   1   6    3.51    0.59
  -5   1   6    0.95    0.47
   5  -1  -6    4.36    0.78
   5  -1  -6    4.24    0.64
   5  -1  -6    3.17    0.76
   5  -1  -6    2.99    0.77
   5  -1  -6    2.95    0.76
  -5   1   7    5.56    0.69
  -5   1   7    3.13    0.60
   5  -1  -7    5.56    0.93
   5  -1  -7    5.89    0.71
   5  -1  -7    5.68    0.85
   5  -1  -7    5.86    0.93
   5  -1  -7    5.42    0.89
  -5   1   8   56.56    1.84
  -5   1   8   22.32    1.35
   5  -1  -8   50.08    2.12
   5  -1  -8   57.30    1.79
   5  -1  -8   53.38    2.09
   5  -1  -8   49.41    2.08
   5  -1  -8   41.43    1.95
  -5   1   9   38.22    1.78
  -5   1   9   15.38    1.22
   5  -1  -9   37.77    2.04
   5  -1  -9   41.57    1.71
   5  -1  -9   42.23    2.03
   5  -1  -9   36.71    1.97
   5  -1  -9   30.25    1.78
  -5   1  10   45.58    2.13
  -5   1  10   17.40    1.37
   5  -1 -10   45.77    2.38
   5  -1 -10   50.99    2.33
   5  -1 -10   42.23    2.19
   5  -1 -10   34.03    2.05
  -5   1  11   33.94    2.20
  -5   1  11   12.12    1.32
   5  -1 -11   39.22    2.43
   5  -1 -11   42.44    2.33
   5  -1 -11   28.98    2.08
  -5   1  12    6.08    1.20
  -5   1  12    3.09    0.82
   5  -1 -12    7.12    1.35
   5  -1 -12    7.17    1.23
   5  -1 -12    5.01    1.19
  -5   1  13   -0.62    1.17
  -5   1  13    0.50    0.72
   5  -1 -13    4.25    1.38
   5  -1 -13    4.31    1.20
   5  -1 -13    2.96    1.23
  -5   1  14    0.43    1.17
  -5   1  14   -0.03    0.73
   5  -1 -14    1.35    1.38
   5  -1 -14    0.69    1.12
   5  -1 -14    0.66    1.25
  -5   1  15    0.26    1.33
  -5   1  15    0.36    0.82
   5  -1 -15   -0.80    1.46
   5  -1 -15   -0.14    1.31
   5  -1 -15   -2.10    1.25
  -4   1 -15    7.46    1.50
  -4   1 -15   10.46    1.78
  -4   1 -15    5.35    1.17
   4  -1  15   12.28    1.80
   4  -1  15    9.12    1.56
  -4   1 -14   13.02    1.56
  -4   1 -14   12.39    1.65
  -4   1 -14    9.38    1.26
   4  -1  14   13.87    1.69
   4  -1  14   20.48    2.40
   4  -1  14   17.28    2.04
  -4   1 -13   28.63    2.16
  -4   1 -13   26.17    2.25
  -4   1 -13   17.83    1.76
   4  -1  13   25.99    2.35
   4  -1  13   27.25    2.33
   4  -1  13   30.00    2.22
  -4   1 -12   57.08    2.41
  -4   1 -12   61.57    2.56
  -4   1 -12   44.33    2.13
  -4   1 -12   60.44    2.38
   4  -1  12   64.95    2.71
   4  -1  12   69.19    2.72
   4  -1  12   69.78    2.62
  -4   1 -11   27.00    1.85
  -4   1 -11   30.89    2.00
  -4   1 -11   23.36    1.72
  -4   1 -11   34.13    1.92
   4  -1  11   30.14    2.08
   4  -1  11   32.55    2.13
   4  -1  11   32.84    2.08
  -4   1 -10   25.26    1.66
  -4   1 -10   30.98    1.82
  -4   1 -10   23.05    1.60
  -4   1 -10   35.94    1.81
   4  -1  10   34.29    1.96
   4  -1  10   31.99    1.97
   4  -1  10   30.14    1.95
  -4   1  -9   23.76    1.51
  -4   1  -9   28.29    1.67
  -4   1  -9   21.54    1.46
  -4   1  -9   33.31    1.64
   4  -1   9   33.09    1.79
   4  -1   9   27.82    1.80
   4  -1   9   28.61    1.75
  -4   1  -8    9.48    1.12
  -4   1  -8   10.93    1.27
  -4   1  -8   10.50    1.19
   4  -1   8   14.40    1.36
   4  -1   8    9.61    1.03
   4  -1   8    9.95    1.03
   4  -1   8   11.10    1.32
  -4   1  -7    7.10    0.86
  -4   1  -7    9.14    1.07
  -4   1  -7    7.91    0.97
   4  -1   7    6.59    0.79
   4  -1   7    7.00    0.87
   4  -1   7    6.54    0.84
   4  -1   7    7.00    0.81
  -4   1  -6  129.34    2.43
  -4   1  -6  155.74    2.55
  -4   1  -6  158.53    2.29
   4  -1   6  175.56    2.64
   4  -1   6  164.04    2.72
   4  -1   6  153.99    2.61
   4  -1   6  156.52    2.65
  -4   1  -5  320.12    3.38
  -4   1  -5  326.44    3.07
   4  -1   5  378.54    3.54
   4  -1   5  360.36    3.70
   4  -1   5  332.85    3.56
   4  -1   5  325.61    3.52
  -4   1  -4  275.32    2.21
  -4   1  -4  310.77    3.19
  -4   1  -4  317.07    2.93
   4  -1   4  394.91    3.41
   4  -1   4  377.54    3.62
   4  -1   4  359.24    3.45
   4  -1   4  337.64    3.43
   4  -1   4  335.58    3.42
   4  -1   4  331.42    2.09
  -4   1  -3  210.32    2.04
  -4   1  -3  253.72    2.79
  -4   1  -3  239.32    2.51
   4  -1   3  334.69    2.97
   4  -1   3  317.46    2.50
   4  -1   3  317.88    3.20
   4  -1   3  308.30    3.08
   4  -1   3  285.32    3.02
   4  -1   3  285.40    3.02
   4  -1   3  295.47    2.81
   4  -1   3  285.62    2.13
  -4   1  -2  310.20    2.55
  -4   1  -2  351.12    2.98
   4  -1   2  524.22    3.48
   4  -1   2  500.87    3.23
   4  -1   2  509.57    3.84
   4  -1   2  494.01    3.71
   4  -1   2  449.66    3.58
   4  -1   2  444.73    3.56
   4  -1   2  476.92    3.48
   4  -1   2  444.28    2.82
   4  -1   1  160.74    1.93
   4  -1   1  150.60    1.91
   4  -1   1  154.89    2.12
   4  -1   1  151.09    2.10
   4  -1   1  136.88    1.96
   4  -1   1  129.67    1.91
   4  -1   1  146.39    2.01
   4  -1   1  137.07    1.72
   4  -1   0   12.71    0.84
   4  -1   0   11.38    0.81
   4  -1   0    9.65    0.86
   4  -1   0   10.52    0.89
   4  -1   0    8.88    0.77
   4  -1   0    7.55    0.75
   4  -1   0   10.60    0.84
   4  -1   0    9.87    0.75
   4  -1  -1   46.31    1.15
   4  -1  -1   44.03    1.26
   4  -1  -1   42.28    1.19
   4  -1  -1   43.97    1.26
   4  -1  -1   37.92    1.05
   4  -1  -1   37.31    1.04
   4  -1  -1   43.68    1.26
   4  -1  -1   39.66    1.16
  -4   1   2   12.25    0.78
   4  -1  -2   22.50    0.94
   4  -1  -2   22.20    1.05
   4  -1  -2   23.32    0.98
   4  -1  -2   23.29    1.03
   4  -1  -2   21.29    0.81
   4  -1  -2   19.16    0.79
   4  -1  -2   22.57    1.02
   4  -1  -2   21.57    1.01
  -4   1   3   12.21    0.75
  -4   1   3    7.33    0.71
   4  -1  -3   22.02    1.08
   4  -1  -3   22.58    0.97
   4  -1  -3   22.73    1.06
   4  -1  -3   20.52    0.73
   4  -1  -3   18.97    0.72
   4  -1  -3   21.89    1.06
   4  -1  -3   20.13    1.04
  -4   1   4   37.76    1.06
  -4   1   4   20.79    0.98
   4  -1  -4   53.19    1.53
   4  -1  -4   53.50    1.30
   4  -1  -4   53.17    1.49
   4  -1  -4   52.58    1.51
   4  -1  -4   44.47    1.41
  -4   1   5   91.44    1.62
  -4   1   5   46.26    1.38
   4  -1  -5  116.56    2.17
   4  -1  -5  122.25    1.85
   4  -1  -5  120.34    2.13
   4  -1  -5  114.36    2.15
   4  -1  -5   98.17    2.00
  -4   1   6   64.35    1.51
  -4   1   6   30.11    1.23
   4  -1  -6   70.29    1.90
   4  -1  -6   77.59    1.61
   4  -1  -6   75.61    1.90
   4  -1  -6   70.15    1.87
   4  -1  -6   60.04    1.77
  -4   1   7  238.26    2.88
  -4   1   7   99.38    2.16
   4  -1  -7  249.22    3.40
   4  -1  -7  262.10    2.84
   4  -1  -7  265.37    3.44
   4  -1  -7  240.50    3.35
   4  -1  -7  200.27    3.08
  -4   1   8   46.03    1.62
  -4   1   8   16.84    1.10
   4  -1  -8   47.33    1.84
   4  -1  -8   48.70    1.50
   4  -1  -8   48.34    1.80
   4  -1  -8   42.12    1.76
   4  -1  -8   36.09    1.63
  -4   1   9   69.40    2.10
  -4   1   9   29.95    1.42
   4  -1  -9   76.92    2.30
   4  -1  -9   78.01    1.89
   4  -1  -9   75.14    2.25
   4  -1  -9   67.07    2.19
   4  -1  -9   54.87    2.03
  -4   1  10   20.30    1.72
  -4   1  10   10.56    1.12
   4  -1 -10   26.15    1.81
   4  -1 -10   28.18    1.50
   4  -1 -10   28.30    1.79
   4  -1 -10   21.74    1.69
  -4   1  11    1.34    0.97
  -4   1  11    1.80    0.64
   4  -1 -11    4.31    1.05
   4  -1 -11    4.27    0.79
   4  -1 -11    3.48    0.93
   4  -1 -11    3.89    1.01
  -4   1  12    2.23    1.07
  -4   1  12    2.03    0.74
   4  -1 -12    1.01    1.07
   4  -1 -12    2.73    1.03
   4  -1 -12    2.98    1.02
  -4   1  13   -1.02    0.96
  -4   1  13    0.22    0.65
   4  -1 -13   -0.94    1.04
   4  -1 -13   -0.11    1.02
   4  -1 -13    1.11    1.07
  -4   1  14   -0.79    1.09
  -4   1  14    0.68    0.71
   4  -1 -14   -0.24    1.13
   4  -1 -14   -1.18    1.03
   4  -1 -14   -0.43    1.12
  -4   1  15    0.65    1.30
  -4   1  15   -0.04    0.77
   4  -1 -15    1.34    1.32
   4  -1 -15   -0.02    1.28
   4  -1 -15    0.37    1.30
  -3   1 -16    0.11    1.24
  -3   1 -16    1.16    1.46
   3  -1  16    0.05    1.44
  -3   1 -15    9.75    1.49
  -3   1 -15    6.66    1.52
  -3   1 -15    4.38    1.10
   3  -1  15    8.21    1.59
   3  -1  15    8.46    1.37
  -3   1 -14   10.81    1.41
  -3   1 -14    8.23    1.40
  -3   1 -14    5.72    1.03
  -3   1 -14   11.03    1.42
   3  -1  14    8.52    1.49
   3  -1  14   10.69    1.40
   3  -1  14    9.56    1.26
  -3   1 -13    4.97    1.11
  -3   1 -13    4.54    1.21
  -3   1 -13    4.43    0.95
  -3   1 -13    6.19    1.22
   3  -1  13    4.79    1.18
   3  -1  13    6.79    1.25
   3  -1  13    4.69    1.10
  -3   1 -12   40.41    2.09
  -3   1 -12   40.76    2.22
  -3   1 -12   33.49    1.82
  -3   1 -12   46.67    2.18
   3  -1  12   55.04    2.38
   3  -1  12   47.93    2.31
   3  -1  12   43.88    2.20
  -3   1 -11   65.11    2.22
  -3   1 -11   74.81    2.49
  -3   1 -11   58.53    2.06
  -3   1 -11   77.55    2.35
   3  -1  11   80.20    2.50
   3  -1  11   78.64    2.46
   3  -1  11   78.23    2.41
  -3   1 -10   41.72    1.76
  -3   1 -10   44.05    1.93
  -3   1 -10   33.50    1.58
  -3   1 -10   47.27    1.88
   3  -1  10   46.46    1.96
   3  -1  10   48.13    1.97
   3  -1  10   46.80    1.92
  -3   1  -9   64.14    1.91
  -3   1  -9   73.43    2.08
  -3   1  -9   77.83    2.01
   3  -1   9   77.56    2.14
   3  -1   9   79.75    2.14
   3  -1   9   74.66    2.06
  -3   1  -8   16.57    1.15
  -3   1  -8   20.30    1.29
  -3   1  -8   20.73    1.24
   3  -1   8   18.53    1.28
   3  -1   8   20.94    1.34
   3  -1   8   18.94    1.27
   3  -1   8   19.30    1.27
  -3   1  -7  213.04    2.90
  -3   1  -7  247.48    3.10
  -3   1  -7  256.24    2.84
   3  -1   7  257.01    3.11
   3  -1   7  257.87    3.19
   3  -1   7  242.83    3.05
   3  -1   7  247.76    3.09
  -3   1  -6   61.88    1.63
  -3   1  -6   71.87    1.69
  -3   1  -6   76.73    1.58
   3  -1   6   75.43    1.71
   3  -1   6   79.33    1.82
   3  -1   6   76.19    1.76
   3  -1   6   75.65    1.76
  -3   1  -5  486.06    3.80
  -3   1  -5  508.57    3.51
   3  -1   5  543.15    3.87
   3  -1   5  535.67    4.05
   3  -1   5  514.04    3.96
   3  -1   5  501.27    3.91
  -3   1  -4   75.71    1.06
  -3   1  -4   81.98    1.57
  -3   1  -4   84.62    1.44
   3  -1   4   96.03    1.63
   3  -1   4   98.09    1.78
   3  -1   4   96.35    1.74
   3  -1   4   94.43    1.74
   3  -1   4   90.94    1.70
  -3   1  -3  102.28    1.27
  -3   1  -3  117.74    1.75
  -3   1  -3  112.89    1.58
   3  -1   3  145.83    1.80
   3  -1   3  148.37    2.02
   3  -1   3  140.17    1.94
   3  -1   3  134.92    1.92
   3  -1   3  132.90    1.90
   3  -1   3  131.19    1.17
  -3   1  -2  148.19    1.56
  -3   1  -2  165.80    1.84
   3  -1   2  231.78    2.05
   3  -1   2  230.13    1.93
   3  -1   2  231.93    2.34
   3  -1   2  222.34    2.26
   3  -1   2  212.51    2.22
   3  -1   2  211.64    2.21
   3  -1   2  218.59    2.14
   3  -1   2  209.47    1.62
   3  -1   1  271.65    2.05
   3  -1   1  268.75    2.18
   3  -1   1  271.03    2.39
   3  -1   1  259.51    2.34
   3  -1   1  251.05    2.25
   3  -1   1  244.75    2.23
   3  -1   1  259.74    2.29
   3  -1   1  245.56    1.90
   3  -1   0   68.46    1.08
   3  -1   0   69.22    1.25
   3  -1   0   69.42    1.27
   3  -1   0   67.13    1.28
   3  -1   0   66.41    1.17
   3  -1   0   63.19    1.14
   3  -1   0   67.55    1.26
   3  -1   0   62.22    1.12
   3  -1  -1  104.17    1.27
   3  -1  -1  100.12    1.52
   3  -1  -1  100.25    1.44
   3  -1  -1   98.21    1.50
   3  -1  -1   92.10    1.25
   3  -1  -1   89.84    1.24
   3  -1  -1   95.07    1.49
   3  -1  -1   89.99    1.40
  -3   1   2    0.07    0.27
  -3   1   2    0.23    0.25
  -3   1   2   -0.18    0.25
   3  -1  -2    0.26    0.37
   3  -1  -2    0.40    0.34
   3  -1  -2   -0.68    0.34
   3  -1  -2    0.88    0.26
   3  -1  -2    0.68    0.27
   3  -1  -2    0.26    0.35
   3  -1  -2    0.72    0.39
  -3   1   3  426.11    2.61
  -3   1   3  243.13    2.45
   3  -1  -3  632.50    3.95
   3  -1  -3  639.73    3.45
   3  -1  -3  652.36    3.91
   3  -1  -3  572.05    2.45
   3  -1  -3  548.63    2.39
   3  -1  -3  625.76    3.93
   3  -1  -3  541.56    3.65
  -3   1   4  242.97    2.16
  -3   1   4  125.92    1.89
   3  -1  -4  322.80    2.99
   3  -1  -4  330.01    2.59
   3  -1  -4  330.46    2.96
   3  -1  -4  325.18    3.01
   3  -1  -4  275.85    2.79
  -3   1   5  149.22    1.88
  -3   1   5   69.12    1.50
   3  -1  -5  171.18    2.35
   3  -1  -5  179.46    2.04
   3  -1  -5  183.07    2.40
   3  -1  -5  171.65    2.36
   3  -1  -5  147.55    2.20
  -3   1   6  366.62    3.13
  -3   1   6  171.55    2.43
   3  -1  -6  405.64    3.67
   3  -1  -6  421.59    3.20
   3  -1  -6  425.46    3.77
   3  -1  -6  415.20    3.77
   3  -1  -6  344.67    3.44
  -3   1   7   15.47    1.07
  -3   1   7    7.02    0.76
   3  -1  -7   18.99    1.23
   3  -1  -7   19.27    1.00
   3  -1  -7   19.80    1.21
   3  -1  -7   18.59    1.18
   3  -1  -7   13.52    1.14
  -3   1   8  117.64    2.27
  -3   1   8   60.56    1.68
   3  -1  -8  137.71    2.49
   3  -1  -8  138.64    2.15
   3  -1  -8  145.73    2.60
   3  -1  -8  132.52    2.49
  -3   1   9    5.90    0.83
  -3   1   9    3.68    0.60
   3  -1  -9    8.80    0.93
   3  -1  -9   10.56    1.07
   3  -1  -9    7.05    0.88
   3  -1  -9    8.26    0.95
  -3   1  10   10.23    1.06
  -3   1  10    6.00    0.78
   3  -1 -10   12.59    1.44
   3  -1 -10   14.45    1.26
   3  -1 -10   13.36    1.45
   3  -1 -10   12.28    1.38
  -3   1  11    0.85    0.80
  -3   1  11    0.90    0.53
   3  -1 -11    0.41    0.83
   3  -1 -11    0.85    0.66
   3  -1 -11    0.54    0.81
   3  -1 -11    0.56    0.79
  -3   1  12    0.56    0.94
  -3   1  12    0.45    0.56
   3  -1 -12    1.30    0.94
   3  -1 -12   -0.24    0.74
   3  -1 -12   -0.11    0.89
   3  -1 -12    0.51    0.89
  -3   1  13   -0.28    0.93
  -3   1  13   -0.46    0.54
   3  -1 -13   -1.02    0.91
   3  -1 -13   -1.79    0.76
   3  -1 -13   -1.06    0.93
   3  -1 -13   -0.85    0.94
  -3   1  14    5.77    1.34
  -3   1  14    2.00    0.78
   3  -1 -14    3.04    1.18
   3  -1 -14    3.77    1.31
   3  -1 -14    3.00    1.32
  -3   1  15    0.74    1.27
  -3   1  15    0.77    0.77
   3  -1 -15   -1.43    1.24
   3  -1 -15    0.14    1.30
  -3   1  16    4.55    1.62
   3  -1 -16    3.60    1.54
   3  -1 -16    6.00    1.65
  -2   1 -16    4.20    1.34
  -2   1 -16    6.90    1.59
  -2   1 -16    8.56    1.49
   2  -1  16    2.52    1.46
  -2   1 -15   26.02    2.27
  -2   1 -15   26.59    2.46
  -2   1 -15   33.10    2.36
   2  -1  15   33.48    2.72
  -2   1 -14   25.83    2.05
  -2   1 -14   24.83    2.25
  -2   1 -14   18.70    1.59
  -2   1 -14   27.44    2.10
   2  -1  14   27.41    2.40
   2  -1  14   27.81    2.08
   2  -1  14   22.74    1.90
  -2   1 -13   20.03    1.83
  -2   1 -13   23.91    2.08
  -2   1 -13   17.32    1.48
  -2   1 -13   21.33    1.95
   2  -1  13   28.21    2.11
   2  -1  13   24.52    1.93
   2  -1  13   24.47    1.78
  -2   1 -12    5.94    1.02
  -2   1 -12    3.43    1.02
  -2   1 -12    5.00    0.80
  -2   1 -12    5.99    1.15
   2  -1  12    7.51    1.07
   2  -1  12    5.93    0.99
   2  -1  12    5.03    0.91
  -2   1 -11   50.59    1.88
  -2   1 -11   54.33    2.11
  -2   1 -11   37.94    1.61
  -2   1 -11   56.08    2.04
   2  -1  11   62.22    2.23
   2  -1  11   60.43    1.99
   2  -1  11   61.13    1.99
  -2   1 -10   40.47    1.61
  -2   1 -10   43.11    1.81
  -2   1 -10   29.81    1.44
  -2   1 -10   45.96    1.78
   2  -1  10   45.65    1.87
   2  -1  10   49.30    1.76
   2  -1  10   49.72    1.72
  -2   1  -9  111.16    2.22
  -2   1  -9  127.05    2.48
  -2   1  -9  136.10    2.39
   2  -1   9  125.36    2.47
   2  -1   9  136.07    2.36
   2  -1   9  132.90    2.35
  -2   1  -8    8.28    0.89
  -2   1  -8    8.90    0.99
  -2   1  -8    8.22    1.03
   2  -1   8    6.16    0.73
   2  -1   8    9.12    0.96
   2  -1   8   10.01    1.01
  -2   1  -7   71.01    1.61
  -2   1  -7   85.29    1.81
  -2   1  -7   90.57    1.74
   2  -1   7   77.34    1.74
   2  -1   7   85.43    1.80
   2  -1   7   86.06    1.75
   2  -1   7   85.49    1.75
  -2   1  -6   59.90    1.44
  -2   1  -6   69.80    1.55
  -2   1  -6   72.07    1.46
   2  -1   6   71.14    1.56
   2  -1   6   74.51    1.60
   2  -1   6   70.01    1.54
   2  -1   6   69.69    1.53
  -2   1  -5  311.75    2.81
  -2   1  -5  372.45    3.07
  -2   1  -5  384.20    2.87
   2  -1   5  366.35    2.96
   2  -1   5  387.23    3.11
   2  -1   5  379.35    3.05
   2  -1   5  372.70    3.03
  -2   1  -4  717.37    2.72
  -2   1  -4  699.88    3.88
  -2   1  -4  726.27    3.65
   2  -1   4  748.66    3.80
   2  -1   4  789.06    4.11
   2  -1   4  746.06    3.98
   2  -1   4  731.66    3.95
  -2   1  -3    8.36    0.43
  -2   1  -3   11.39    0.66
  -2   1  -3    9.28    0.55
   2  -1   3   10.00    0.62
   2  -1   3    9.96    0.71
   2  -1   3   12.98    0.75
   2  -1   3    9.91    0.67
   2  -1   3    9.47    0.67
  -2   1  -2  255.10    1.71
  -2   1  -2  274.95    2.04
   2  -1   2  365.82    2.48
   2  -1   2  349.01    2.42
   2  -1   2  346.63    2.40
   2  -1   2  336.96    2.37
   2  -1   2  332.44    2.25
  -2   1  -1    8.13    0.49
  -2   1  -1    5.09    0.37
   2  -1   1   13.23    0.59
   2  -1   1   14.41    0.69
   2  -1   1   12.08    0.67
   2  -1   1   14.25    0.65
   2  -1   1   14.03    0.66
   2  -1   1   13.70    0.51
  -2   1   0  438.68    2.31
  -2   1   0  179.96    1.47
   2  -1   0  469.51    2.53
   2  -1   0  461.90    2.53
   2  -1   0  454.66    2.56
   2  -1   0  439.84    2.31
   2  -1   0  428.36    2.28
   2  -1   0  452.25    2.55
   2  -1   0  404.76    2.19
  -2   1   1   21.59    0.61
  -2   1   1   10.02    0.51
   2  -1  -1   24.79    0.79
   2  -1  -1   23.55    0.73
   2  -1  -1   22.20    0.77
   2  -1  -1   22.67    0.61
   2  -1  -1   21.82    0.61
   2  -1  -1   23.12    0.75
   2  -1  -1   20.93    0.72
  -2   1   2 1243.52    3.21
  -2   1   2  543.46    3.02
   2  -1  -2 1392.09    4.82
   2  -1  -2 1378.46    4.37
   2  -1  -2 1393.11    4.78
   2  -1  -2 1273.43    3.25
   2  -1  -2 1240.42    3.20
   2  -1  -2 1380.76    4.80
   2  -1  -2 1169.35    4.42
  -2   1   3   49.03    0.88
  -2   1   3   24.34    0.79
   2  -1  -3   61.13    1.20
   2  -1  -3   59.36    1.06
   2  -1  -3   61.07    1.19
   2  -1  -3   63.15    1.21
   2  -1  -3   51.22    1.13
  -2   1   4  796.60    3.59
  -2   1   4  377.52    2.90
   2  -1  -4  934.21    4.44
   2  -1  -4  943.37    4.05
   2  -1  -4  951.63    4.59
   2  -1  -4  769.48    4.14
  -2   1   5  336.65    2.65
  -2   1   5  166.90    2.08
   2  -1  -5  387.52    3.05
   2  -1  -5  389.65    2.83
   2  -1  -5  406.64    3.28
   2  -1  -5  398.65    3.20
  -2   1   6  125.57    1.86
  -2   1   6   63.31    1.40
   2  -1  -6  143.31    2.03
   2  -1  -6  146.47    1.93
   2  -1  -6  147.82    2.21
   2  -1  -6  146.08    2.13
  -2   1   7  106.56    1.91
  -2   1   7   60.91    1.47
   2  -1  -7  134.20    2.09
   2  -1  -7  130.55    1.96
   2  -1  -7  134.89    2.25
   2  -1  -7  130.73    2.16
  -2   1   8   13.53    1.13
  -2   1   8    8.10    0.76
   2  -1  -8   16.39    1.11
   2  -1  -8   15.50    1.06
   2  -1  -8   16.16    1.22
   2  -1  -8   14.69    1.12
  -2   1   9    3.16    0.70
  -2   1   9    1.80    0.48
   2  -1  -9    3.90    0.72
   2  -1  -9    3.79    0.67
   2  -1  -9    3.37    0.75
   2  -1  -9    2.99    0.73
  -2   1  10    5.82    0.84
  -2   1  10    4.05    0.62
   2  -1 -10    6.33    0.85
   2  -1 -10    5.03    0.80
   2  -1 -10    4.99    0.91
   2  -1 -10    5.84    0.91
  -2   1  11   21.37    1.75
  -2   1  11   10.71    1.04
   2  -1 -11   19.47    1.54
   2  -1 -11   14.17    1.48
   2  -1 -11   14.97    1.66
   2  -1 -11   15.70    1.64
  -2   1  12    5.22    1.05
  -2   1  12    2.31    0.64
   2  -1 -12    4.27    0.97
   2  -1 -12    2.57    0.91
   2  -1 -12    1.53    1.00
   2  -1 -12    3.65    1.10
  -2   1  13   31.99    2.30
  -2   1  13   15.22    1.33
   2  -1 -13   21.83    1.91
   2  -1 -13   23.96    2.16
   2  -1 -13   21.45    2.00
  -2   1  14    4.98    1.31
  -2   1  14    1.50    0.74
   2  -1 -14    1.85    1.03
   2  -1 -14    1.75    1.24
   2  -1 -14    2.08    1.26
  -2   1  15   15.92    1.81
   2  -1 -15   11.07    1.63
   2  -1 -15   11.44    1.69
  -2   1  16    3.54    1.58
   2  -1 -16    1.71    1.42
   2  -1 -16    3.93    1.49
  -1   1 -17    5.16    1.38
  -1   1 -17   11.74    1.83
  -1   1 -17   10.87    1.71
   1  -1  17   11.18    1.98
  -1   1 -16   -0.18    1.11
  -1   1 -16    0.68    1.32
  -1   1 -16    2.47    1.35
   1  -1  16    1.33    1.32
  -1   1 -15    9.29    1.36
  -1   1 -15    8.70    1.52
  -1   1 -15    9.46    1.52
   1  -1  15   10.69    1.49
  -1   1 -14   12.43    1.32
  -1   1 -14   11.28    1.46
  -1   1 -14   13.54    1.51
   1  -1  14   21.21    2.12
  -1   1 -13    9.25    1.12
  -1   1 -13    8.89    1.26
  -1   1 -13    7.80    0.85
  -1   1 -13    9.97    1.30
   1  -1  13    9.75    1.21
   1  -1  13   13.68    1.52
   1  -1  13   13.49    1.40
  -1   1 -12   13.96    1.42
  -1   1 -12   10.04    1.17
  -1   1 -12    9.99    1.11
  -1   1 -12   12.77    1.57
   1  -1  12   10.59    1.19
   1  -1  12   15.05    1.37
   1  -1  12   13.47    1.32
  -1   1 -11   26.49    1.45
  -1   1 -11   26.88    1.67
  -1   1 -11   17.04    1.20
  -1   1 -11   25.21    1.61
   1  -1  11   24.81    1.75
   1  -1  11   31.07    1.47
   1  -1  11   30.42    1.46
  -1   1 -10  139.00    1.82
  -1   1 -10  115.28    2.23
  -1   1 -10  123.74    2.55
  -1   1 -10   81.58    1.89
  -1   1 -10  128.07    2.47
   1  -1  10  128.35    2.64
   1  -1  10  135.49    2.28
   1  -1  10  135.78    2.27
  -1   1  -9  105.27    1.52
  -1   1  -9   86.23    1.84
  -1   1  -9   99.93    2.08
   1  -1   9   95.61    2.16
   1  -1   9  101.28    1.89
   1  -1   9  102.40    1.89
   1  -1   9   65.07    1.02
  -1   1  -8  158.79    1.69
  -1   1  -8  132.26    2.07
  -1   1  -8  146.85    2.36
  -1   1  -8  149.71    2.26
   1  -1   8  149.86    2.40
   1  -1   8  150.91    2.11
   1  -1   8  152.15    2.12
   1  -1   8   96.97    1.10
  -1   1  -7  238.83    1.92
  -1   1  -7  189.93    2.27
  -1   1  -7  218.02    2.61
  -1   1  -7  224.50    2.52
   1  -1   7  208.10    2.57
   1  -1   7  224.25    2.37
   1  -1   7  222.70    2.37
  -1   1  -6    0.11    0.30
  -1   1  -6    0.38    0.32
  -1   1  -6    0.10    0.36
  -1   1  -6    0.33    0.45
   1  -1   6   -0.03    0.38
   1  -1   6    0.49    0.40
   1  -1   6    0.09    0.36
   1  -1   6    0.44    0.36
  -1   1  -5   42.70    0.81
  -1   1  -5   34.07    0.97
  -1   1  -5   39.64    1.05
  -1   1  -5   40.05    1.04
   1  -1   5   34.95    1.03
   1  -1   5   40.27    1.03
   1  -1   5   40.10    1.00
   1  -1   5   37.56    0.99
  -1   1  -4  699.78    2.62
  -1   1  -4  642.90    3.36
  -1   1  -4  668.40    3.29
   1  -1   4  574.64    3.08
   1  -1   4  684.23    3.30
   1  -1   4  678.40    3.28
   1  -1   4  664.00    3.25
  -1   1  -3  162.25    1.23
  -1   1  -3  158.62    1.50
   1  -1   3  139.30    1.38
   1  -1   3  173.10    1.57
   1  -1   3  170.36    1.57
   1  -1   3  164.12    1.55
  -1   1  -2 2035.88    6.16
  -1   1  -2 1860.57    5.25
  -1   1  -2 2064.86    7.50
   1  -1   2 2080.43    7.26
   1  -1   2 2417.94    7.82
   1  -1   2 2324.31    7.42
   1  -1   2 2279.31    8.09
   1  -1   2 2220.80    9.52
  -1   1  -1  115.01    1.02
   1  -1   1  160.18    1.29
   1  -1   1  150.92    1.25
   1  -1   1  148.90    1.24
   1  -1   1  149.82    1.27
  -1   1   0  571.18    2.28
  -1   1   0  794.35    2.51
  -1   1   0  451.96    1.99
   1  -1   0  885.14    2.83
   1  -1   0  872.85    2.81
   1  -1   0  881.76    2.83
   1  -1   0  809.94    3.10
   1  -1   0  782.18    2.81
   1  -1   0  865.83    2.81
  -1   1   1 1967.99    5.98
  -1   1   1 1122.82    4.46
   1  -1  -1 2370.38    9.27
   1  -1  -1 2345.01    7.58
   1  -1  -1 2087.07    7.30
   1  -1  -1 2341.21    8.67
  -1   1   2    1.46    0.22
  -1   1   2    0.93    0.24
   1  -1  -2    1.52    0.32
   1  -1  -2    1.81    0.31
   1  -1  -2    1.80    0.32
   1  -1  -2    1.56    0.22
   1  -1  -2    1.93    0.31
  -1   1   3 1689.94    4.78
  -1   1   3 1577.16    3.47
  -1   1   3  994.41    3.90
   1  -1  -3 2155.91    5.36
   1  -1  -3 2099.41    5.40
   1  -1  -3 2168.05    7.36
   1  -1  -3 1748.14    4.27
   1  -1  -3 1705.08    4.01
   1  -1  -3 2180.27    6.00
  -1   1   4   64.32    1.11
  -1   1   4   57.69    0.80
  -1   1   4   39.00    0.91
   1  -1  -4   78.18    1.20
   1  -1  -4   76.17    1.23
   1  -1  -4   82.38    1.37
   1  -1  -4   64.11    0.84
   1  -1  -4   62.30    0.82
   1  -1  -4   81.69    1.28
  -1   1   5   67.66    1.34
  -1   1   5   60.49    0.89
  -1   1   5   42.28    1.02
   1  -1  -5   84.72    1.34
   1  -1  -5   84.45    1.41
   1  -1  -5   85.91    1.55
   1  -1  -5   69.07    0.96
   1  -1  -5   66.56    0.93
   1  -1  -5   88.42    1.46
  -1   1   6   61.29    1.39
  -1   1   6   47.22    0.95
  -1   1   6   34.51    0.99
   1  -1  -6   69.72    1.33
   1  -1  -6   66.85    1.39
   1  -1  -6   68.63    1.55
   1  -1  -6   54.66    0.95
   1  -1  -6   49.81    0.90
   1  -1  -6   72.52    1.46
  -1   1   7    7.88    0.90
  -1   1   7    3.15    0.43
   1  -1  -7    8.69    0.79
   1  -1  -7    8.81    0.83
   1  -1  -7    8.25    0.94
   1  -1  -7    7.15    0.58
   1  -1  -7    6.57    0.54
   1  -1  -7    9.57    0.89
  -1   1   8   11.15    1.07
  -1   1   8    6.84    0.69
   1  -1  -8   11.81    0.91
   1  -1  -8   10.15    0.96
   1  -1  -8   10.06    1.09
   1  -1  -8    8.31    0.66
   1  -1  -8    8.30    0.62
   1  -1  -8   12.03    1.04
  -1   1   9   29.98    1.52
  -1   1   9   18.26    0.99
   1  -1  -9   31.45    1.27
   1  -1  -9   25.96    1.34
   1  -1  -9   24.98    1.51
   1  -1  -9   20.66    0.91
   1  -1  -9   19.94    0.88
   1  -1  -9   27.35    1.43
  -1   1  10    3.43    0.82
  -1   1  10    2.07    0.54
   1  -1 -10    3.23    0.70
   1  -1 -10    1.22    0.75
   1  -1 -10    1.80    0.88
   1  -1 -10    2.03    0.61
   1  -1 -10    2.40    0.47
   1  -1 -10    1.80    0.84
  -1   1  11   95.03    2.60
  -1   1  11   53.71    1.67
   1  -1 -11   93.13    2.07
   1  -1 -11   86.16    2.33
   1  -1 -11   86.08    2.58
   1  -1 -11   82.22    2.34
  -1   1  12   67.93    2.58
  -1   1  12   37.17    1.59
   1  -1 -12   59.81    2.31
   1  -1 -12   57.19    2.43
   1  -1 -12   59.61    2.32
  -1   1  13   44.25    2.54
  -1   1  13   22.26    1.48
   1  -1 -13   39.32    2.18
   1  -1 -13   34.50    2.26
   1  -1 -13   36.49    2.19
  -1   1  14   29.21    2.54
   1  -1 -14   28.22    2.17
   1  -1 -14   28.26    2.30
   1  -1 -14   28.37    2.20
  -1   1  15    8.45    1.59
   1  -1 -15   10.24    1.41
   1  -1 -15   10.01    1.57
   1  -1 -15   10.74    1.51
  -1   1  16    1.95    1.47
   1  -1 -16    1.56    1.18
   1  -1 -16    1.64    1.42
   1  -1 -16    3.06    1.33
   0   1 -17   17.47    2.06
   0   1 -17   16.96    1.96
   0  -1  17   27.35    3.12
   0   1 -16    5.32    1.65
   0   1 -16    7.51    1.55
   0   1 -16    9.66    1.65
   0  -1  16    8.87    1.58
   0   1 -15    3.15    1.01
   0   1 -15    2.85    1.24
   0   1 -15    4.48    1.32
   0  -1  15    5.05    1.29
   0   1 -14   10.50    1.15
   0   1 -14    9.99    1.36
   0   1 -14   12.78    1.57
   0  -1  14    9.24    1.28
   0   1 -13   12.61    1.49
   0   1 -13    9.65    1.23
   0   1 -13   10.99    1.31
   0  -1  13    9.05    1.20
   0   1 -12   -0.24    0.62
   0   1 -12    1.30    0.85
   0   1 -12    0.22    0.46
   0   1 -12    0.66    0.86
   0  -1  12    0.09    0.79
   0  -1  12    0.81    0.64
   0  -1  12    0.48    0.55
   0   1 -11    6.52    0.75
   0   1 -11    9.71    1.18
   0   1 -11    7.73    0.99
   0   1 -11    4.61    0.64
   0   1 -11    7.42    0.99
   0  -1  11    7.02    0.95
   0  -1  11    5.60    0.70
   0  -1  11    9.20    1.07
   0  -1  11    3.70    0.49
   0   1 -10   53.24    1.42
   0   1 -10   45.42    1.47
   0   1 -10   49.17    1.79
   0   1 -10   30.88    1.16
   0   1 -10   49.95    1.75
   0  -1  10   45.35    1.79
   0  -1  10   46.45    1.38
   0  -1  10   48.45    1.39
   0  -1  10   25.95    0.91
   0   1  -9  201.86    2.26
   0   1  -9  177.62    2.34
   0   1  -9  189.50    2.77
   0   1  -9  186.99    2.69
   0  -1   9  181.60    2.76
   0  -1   9  188.76    2.20
   0  -1   9  189.70    2.20
   0  -1   9   97.83    1.45
   0   1  -8  108.46    1.62
   0   1  -8   89.78    1.60
   0   1  -8   99.87    1.95
   0   1  -8  102.19    1.93
   0  -1   8   93.78    1.92
   0  -1   8  100.82    1.57
   0  -1   8  101.21    1.57
   0  -1   8   47.66    0.98
   0   1  -7  233.96    2.13
   0   1  -7  186.81    2.03
   0   1  -7  206.73    2.47
   0   1  -7  209.73    2.46
   0   1  -7  202.86    1.81
   0  -1   7  192.37    2.42
   0  -1   7  223.35    2.07
   0  -1   7  217.29    2.04
   0  -1   7   95.53    1.23
   0   1  -6  377.03    2.49
   0   1  -6  302.54    2.32
   0   1  -6  330.22    2.80
   0   1  -6  332.40    2.80
   0   1  -6  348.79    2.11
   0  -1   6  304.24    2.73
   0  -1   6  363.57    2.39
   0  -1   6  356.03    2.37
   0  -1   6  148.57    1.38
   0   1  -5   63.14    1.04
   0   1  -5   51.15    0.93
   0   1  -5   58.31    1.16
   0   1  -5   57.21    1.17
   0   1  -5   59.79    0.87
   0  -1   5   53.87    1.15
   0  -1   5   62.51    0.99
   0  -1   5   59.08    0.97
   0   1  -4  437.42    2.29
   0   1  -4  342.55    1.95
   0   1  -4  402.60    2.44
   0   1  -4  383.50    2.07
   0   1  -4  393.69    2.49
   0   1  -4  408.64    2.43
   0  -1   4  356.09    2.38
   0  -1   4  422.80    2.15
   0  -1   4  427.56    2.17
   0  -1   4  409.79    2.12
   0   1  -3  369.92    1.94
   0   1  -3  358.85    1.98
   0   1  -3  326.54    1.74
   0   1  -3  361.93    2.13
   0  -1   3  297.82    1.90
   0  -1   3  360.97    1.82
   0  -1   3  351.60    1.80
   0   1  -2  375.70    1.80
   0   1  -2  329.97    1.60
   0   1  -2  368.45    1.83
   0  -1   2  284.13    1.58
   0  -1   2  347.57    1.63
   0  -1   1  756.79    2.23
   0  -1   0  671.27    2.11
   0   1   1  298.32    1.53
   0   1   1  304.90    1.62
   0  -1  -1  386.97    1.86
   0  -1  -1  310.72    1.82
   0  -1  -1  305.82    1.55
   0   1   2  303.03    1.74
   0   1   2  229.38    1.49
   0   1   2  226.14    1.57
   0  -1  -2  302.60    1.92
   0  -1  -2  331.54    1.93
   0  -1  -2  245.36    1.55
   0  -1  -2  236.45    1.51
   0   1   3  299.34    2.03
   0   1   3  228.72    1.64
   0   1   3  206.54    1.65
   0  -1  -3  322.85    1.79
   0  -1  -3  303.60    2.17
   0  -1  -3  325.25    2.21
   0  -1  -3  239.82    1.68
   0  -1  -3  227.94    1.64
   0  -1  -3  346.55    1.92
   0   1   4    1.85    0.34
   0   1   4    1.62    0.28
   0  -1  -4    4.17    0.48
   0  -1  -4    3.31    0.41
   0  -1  -4    2.70    0.40
   0  -1  -4    2.47    0.32
   0  -1  -4    2.01    0.29
   0  -1  -4    4.42    0.53
   0   1   5  148.88    1.88
   0   1   5  164.34    1.70
   0   1   5   96.75    1.37
   0  -1  -5  172.82    1.52
   0  -1  -5  144.81    1.86
   0  -1  -5  153.51    1.96
   0  -1  -5  120.14    1.45
   0  -1  -5  111.67    1.39
   0  -1  -5  167.70    1.77
   0   1   6   45.64    1.30
   0   1   6   52.12    1.15
   0   1   6   33.31    0.94
   0  -1  -6   55.29    1.03
   0  -1  -6   48.88    1.30
   0  -1  -6   51.94    1.38
   0  -1  -6   38.48    0.99
   0  -1  -6   36.73    0.94
   0  -1  -6   53.96    1.23
   0   1   7   33.34    1.28
   0   1   7   33.85    1.08
   0   1   7   21.54    0.85
   0  -1  -7   35.21    0.95
   0  -1  -7   33.01    1.23
   0  -1  -7   31.42    1.29
   0  -1  -7   24.71    0.92
   0  -1  -7   23.15    0.87
   0  -1  -7   32.74    1.13
   0   1   8  194.45    2.74
   0   1   8  194.84    2.31
   0   1   8  128.44    1.90
   0  -1  -8  200.96    2.03
   0  -1  -8  186.52    2.63
   0  -1  -8  193.69    2.81
   0  -1  -8  138.16    1.93
   0  -1  -8  138.51    1.92
   0  -1  -8  196.59    2.50
   0   1   9   67.68    1.97
   0   1   9   45.50    1.32
   0  -1  -9   66.15    1.44
   0  -1  -9   65.01    1.90
   0  -1  -9   61.20    2.00
   0  -1  -9   48.59    1.38
   0  -1  -9   45.12    1.33
   0  -1  -9   62.49    1.77
   0   1  10   41.67    1.85
   0   1  10   27.47    1.23
   0  -1 -10   34.38    1.77
   0  -1 -10   35.74    1.88
   0  -1 -10   24.23    1.30
   0  -1 -10   23.86    1.24
   0  -1 -10   35.06    1.68
   0   1  11   22.21    1.79
   0   1  11   15.03    1.11
   0  -1 -11   17.69    1.65
   0  -1 -11   18.49    1.73
   0  -1 -11   13.32    1.21
   0  -1 -11   13.13    1.14
   0  -1 -11   19.11    1.59
   0   1  12   44.75    2.35
   0   1  12   28.80    1.46
   0  -1 -12   49.91    2.16
   0  -1 -12   50.34    2.34
   0  -1 -12   49.84    2.03
   0   1  13   34.13    2.37
   0  -1 -13   35.86    2.10
   0  -1 -13   33.61    2.22
   0  -1 -13   37.34    2.02
   0   1  14    5.64    1.37
   0  -1 -14    6.18    1.21
   0  -1 -14    6.63    1.35
   0  -1 -14    6.91    1.25
   0   1  15    3.50    1.41
   0  -1 -15    2.87    1.19
   0  -1 -15    5.52    1.42
   0  -1 -15    2.77    1.14
   0   1  16    8.26    1.67
   0  -1 -16    5.45    1.41
   0  -1 -16    6.52    1.61
   1   1 -17   -0.41    1.45
   1   1 -17   -0.99    1.42
  -1  -1  17    2.43    1.56
   1   1 -16    2.57    1.38
   1   1 -16    3.35    1.40
  -1  -1  16    1.11    1.31
   1   1 -15    2.52    1.23
   1   1 -15    4.34    1.30
  -1  -1  15    4.24    1.26
   1   1 -14    4.80    0.93
   1   1 -14    5.25    1.15
   1   1 -14    5.29    1.16
  -1  -1  14    2.74    1.09
   1   1 -13   31.17    1.70
   1   1 -13   27.19    1.62
   1   1 -13   32.03    2.04
   1   1 -13   29.23    1.92
  -1  -1  13   21.62    2.02
   1   1 -12   58.39    1.86
   1   1 -12   53.15    1.77
   1   1 -12   55.08    2.19
   1   1 -12   55.91    2.15
  -1  -1  12   50.75    2.21
  -1  -1  12   27.15    1.17
   1   1 -11    1.15    0.68
   1   1 -11    0.00    0.54
   1   1 -11    0.16    0.73
   1   1 -11    0.61    0.75
  -1  -1  11    0.27    0.68
  -1  -1  11    0.55    0.46
  -1  -1  11   -0.06    0.33
   1   1 -10  113.34    2.11
   1   1 -10  100.86    1.87
   1   1 -10  103.52    2.30
   1   1 -10  109.59    2.35
   1   1 -10   88.18    1.85
  -1  -1  10   97.29    2.32
  -1  -1  10   97.71    1.54
  -1  -1  10  100.88    1.57
  -1  -1  10   46.91    1.28
   1   1  -9   92.55    1.82
   1   1  -9   82.38    1.58
   1   1  -9   86.62    2.00
   1   1  -9   85.04    1.99
   1   1  -9   75.89    1.63
  -1  -1   9   80.20    1.99
  -1  -1   9   82.47    1.33
  -1  -1   9   82.47    1.32
  -1  -1   9   38.07    1.10
   1   1  -8  140.42    2.03
   1   1  -8  125.31    1.70
   1   1  -8  132.13    2.17
   1   1  -8  130.54    2.20
   1   1  -8  125.14    1.84
  -1  -1   8  123.14    2.16
  -1  -1   8  131.24    1.46
  -1  -1   8  127.11    1.44
  -1  -1   8   56.33    1.21
   1   1  -7  162.52    2.03
   1   1  -7  145.13    1.63
   1   1  -7  151.29    2.11
   1   1  -7  152.85    2.19
  -1  -1   7  144.25    2.12
   1   1  -6  121.76    1.66
   1   1  -6  109.97    1.27
   1   1  -6  118.21    1.72
   1   1  -6  116.59    1.80
   1   1  -6  124.22    1.58
  -1  -1   6  109.81    1.73
  -1  -1   6  126.15    1.19
   1   1  -5   64.03    1.17
   1   1  -5   55.88    0.81
   1   1  -5   58.11    1.13
   1   1  -5   60.30    1.23
   1   1  -5   67.92    1.12
  -1  -1   5   52.62    1.16
  -1  -1   5   67.67    0.97
   1   1  -4  959.13    3.83
   1   1  -4  898.48    3.45
   1   1  -4  900.63    3.85
   1   1  -4 1015.92    3.70
  -1  -1   4  733.87    3.51
   1   1  -3   42.64    0.87
   1   1  -3   42.15    0.74
   1   1  -3   35.77    0.57
   1   1  -3   38.08    0.85
   1   1  -3   45.11    0.83
  -1  -1   3   29.98    0.79
  -1  -1   3   39.67    0.60
   1   1  -2 2059.70    9.29
   1   1  -2 1705.12    5.40
   1   1  -2 1877.93    7.53
   1   1  -2 2152.53    8.42
  -1  -1   2 1227.58    3.66
  -1  -1   2 1794.66    5.68
   1   1  -1  771.86    2.72
   1   1  -1  708.50    2.52
   1   1  -1  541.54    2.05
   1   1  -1  708.42    2.61
  -1  -1   1  594.70    2.56
  -1  -1   1  563.86    2.09
   1   1   0  305.64    1.75
   1   1   0  210.12    1.48
   1   1   0  276.63    1.65
  -1  -1   0  226.15    1.49
  -1  -1   0  214.73    1.45
   1   1   1 2016.77    7.02
   1   1   1 1983.10    7.37
   1   1   1 1819.11    5.26
  -1  -1  -1 1604.76    4.10
  -1  -1  -1 1461.29    4.07
  -1  -1  -1 1373.49    4.36
   1   1   2  298.64    2.07
   1   1   2  290.28    2.04
   1   1   2  262.71    1.72
  -1  -1  -2  236.56    1.86
  -1  -1  -2  259.34    1.72
  -1  -1  -2  207.79    1.72
  -1  -1  -2  203.25    1.71
   1   1   3  577.38    3.14
   1   1   3  561.82    3.02
   1   1   3  493.56    2.47
  -1  -1  -3  479.93    2.91
  -1  -1  -3  519.58    2.81
  -1  -1  -3  395.14    2.54
  -1  -1  -3  383.59    2.50
   1   1   4    1.87    0.38
   1   1   4    2.62    0.40
   1   1   4    1.76    0.33
  -1  -1  -4    2.73    0.40
  -1  -1  -4    2.83    0.41
  -1  -1  -4    1.94    0.37
  -1  -1  -4    1.92    0.34
  -1  -1  -4    2.65    0.34
   1   1   5   19.42    0.95
   1   1   5   18.19    0.89
   1   1   5   15.73    0.71
  -1  -1  -5   16.05    0.90
  -1  -1  -5   18.79    0.94
  -1  -1  -5   13.25    0.78
  -1  -1  -5   11.97    0.71
  -1  -1  -5   18.36    0.78
   1   1   6  210.68    2.54
   1   1   6  206.36    2.32
   1   1   6  167.30    1.82
  -1  -1  -6  190.06    2.41
  -1  -1  -6  206.64    2.50
  -1  -1  -6  147.30    1.97
  -1  -1  -6  140.49    1.91
  -1  -1  -6  212.60    2.07
   1   1   7  149.76    2.36
   1   1   7  146.97    2.14
   1   1   7  109.63    1.61
  -1  -1  -7  138.32    2.26
  -1  -1  -7  145.29    2.32
  -1  -1  -7  107.44    1.84
  -1  -1  -7  102.22    1.78
  -1  -1  -7  154.89    1.98
   1   1   8  238.40    3.14
   1   1   8  236.77    2.81
   1   1   8  172.62    2.10
  -1  -1  -8  227.27    3.03
  -1  -1  -8  239.74    3.14
  -1  -1  -8  176.62    2.43
  -1  -1  -8  166.29    2.35
  -1  -1  -8  245.68    2.67
   1   1   9  287.62    3.69
   1   1   9  291.76    3.31
   1   1   9  210.91    2.45
  -1  -1  -9  276.03    3.53
  -1  -1  -9  284.63    3.65
  -1  -1  -9  208.57    2.79
  -1  -1  -9  201.67    2.74
  -1  -1  -9  296.65    3.15
   1   1  10   93.23    2.55
   1   1  10  101.61    2.29
   1   1  10   71.19    1.68
  -1  -1 -10   94.99    2.42
  -1  -1 -10   95.98    2.52
  -1  -1 -10   73.22    1.93
  -1  -1 -10   69.08    1.85
  -1  -1 -10  100.38    2.18
   1   1  11   42.85    2.12
   1   1  11   40.33    1.85
  -1  -1 -11   43.03    1.97
  -1  -1 -11   40.14    2.04
  -1  -1 -11   29.07    1.53
  -1  -1 -11   27.98    1.48
   1   1  12    8.97    1.24
   1   1  12   10.70    1.09
  -1  -1 -12   10.24    1.19
  -1  -1 -12   11.33    1.30
  -1  -1 -12    8.64    0.97
  -1  -1 -12    8.24    0.90
  -1  -1 -12   14.05    1.48
   1   1  13    6.31    1.18
  -1  -1 -13    6.87    1.16
  -1  -1 -13    6.73    1.23
  -1  -1 -13    4.57    1.37
  -1  -1 -13    7.78    1.11
   1   1  14   -0.21    1.01
  -1  -1 -14   -0.88    0.97
  -1  -1 -14    1.14    1.12
   1   1  15    0.24    1.20
  -1  -1 -15    1.01    1.15
  -1  -1 -15    0.79    1.30
   1   1  16    3.99    1.50
  -1  -1 -16    1.87    1.30
  -1  -1 -16    1.07    1.45
   2   1 -17   -2.99    1.32
   2   1 -17   -1.62    1.37
  -2  -1  17   -0.18    1.49
   2   1 -16    1.41    1.28
   2   1 -16    1.31    1.32
  -2  -1  16    1.71    1.42
   2   1 -15    1.11    1.18
   2   1 -15    1.57    1.16
  -2  -1  15   -0.56    1.12
   2   1 -14   19.62    1.76
   2   1 -14   17.79    1.99
   2   1 -14   16.70    1.89
  -2  -1  14   11.87    1.44
  -2  -1  14    5.52    0.81
   2   1 -13    9.62    1.16
   2   1 -13   10.03    1.28
   2   1 -13    9.61    1.25
  -2  -1  13    8.02    1.25
  -2  -1  13    4.10    0.70
   2   1 -12   74.11    2.24
   2   1 -12   64.37    2.10
   2   1 -12   67.64    2.40
   2   1 -12   60.96    2.24
   2   1 -12   49.54    1.91
  -2  -1  12   61.94    2.39
  -2  -1  12   26.28    1.31
   2   1 -11   61.24    1.94
   2   1 -11   53.20    1.53
   2   1 -11   52.50    1.99
   2   1 -11   53.30    1.99
   2   1 -11   47.40    1.76
  -2  -1  11   54.71    2.08
  -2  -1  11   22.91    1.14
   2   1 -10   21.37    1.42
   2   1 -10   21.27    1.09
   2   1 -10   26.03    1.56
   2   1 -10   19.33    1.42
   2   1 -10   19.38    1.29
  -2  -1  10   23.40    1.49
  -2  -1  10    9.89    0.84
   2   1  -9   83.68    1.93
   2   1  -9   71.48    1.39
   2   1  -9   73.10    1.90
   2   1  -9   72.28    1.93
   2   1  -9   75.68    1.77
  -2  -1   9   77.52    1.94
  -2  -1   9   33.80    1.18
   2   1  -8  155.65    2.31
   2   1  -8  144.44    1.65
   2   1  -8  143.37    2.25
   2   1  -8  147.06    2.39
   2   1  -8  143.99    2.15
  -2  -1   8  133.57    2.26
   2   1  -7  101.56    1.81
   2   1  -7   98.30    1.75
   2   1  -7   93.03    1.84
   2   1  -7   96.80    1.72
  -2  -1   7   88.42    1.76
   2   1  -6  194.29    2.30
   2   1  -6  197.85    2.18
   2   1  -6  193.58    2.22
  -2  -1   6  150.52    2.07
   2   1  -5  368.32    2.91
   2   1  -5  390.97    2.68
   2   1  -5  360.40    2.90
   2   1  -5  382.24    2.89
  -2  -1   5  276.45    2.55
   2   1  -4    0.90    0.35
   2   1  -4    1.43    0.31
   2   1  -4    1.72    0.38
   2   1  -4    0.79    0.35
  -2  -1   4    0.53    0.31
   2   1  -3  644.48    3.36
   2   1  -3  749.66    2.80
   2   1  -3  492.18    1.95
   2   1  -3  705.59    3.33
   2   1  -3  677.61    3.42
  -2  -1   3  414.62    2.71
   2   1  -2    6.11    0.65
   2   1  -2    2.16    0.34
   2   1  -2    4.03    0.40
   2   1  -2    4.31    0.49
   2   1  -2    3.34    0.39
  -2  -1   2    1.74    0.39
  -2  -1   2    4.14    0.40
  -2  -1   2    3.97    0.40
   2   1  -1  600.97    3.02
   2   1  -1  512.43    2.58
   2   1  -1  526.49    2.38
   2   1  -1  571.71    2.60
   2   1  -1  383.60    2.14
   2   1  -1  589.79    2.37
   2   1  -1  560.47    2.86
  -2  -1   1  455.13    2.34
  -2  -1   1  421.43    2.24
  -2  -1   1  405.43    2.19
   2   1   0   69.50    1.15
   2   1   0   57.23    0.87
   2   1   0   62.80    1.04
   2   1   0   62.20    1.02
  -2  -1   0   50.75    0.83
  -2  -1   0   45.42    0.90
  -2  -1   0   44.70    0.89
   2   1   1  459.56    2.79
   2   1   1  398.88    1.86
   2   1   1  431.76    2.68
   2   1   1  428.08    2.41
  -2  -1  -1  350.51    2.27
  -2  -1  -1  412.31    2.04
  -2  -1  -1  303.63    2.26
   2   1   2    3.63    0.42
   2   1   2    3.69    0.43
   2   1   2    3.19    0.36
  -2  -1  -2    3.45    0.39
  -2  -1  -2    5.08    0.48
  -2  -1  -2    2.59    0.39
  -2  -1  -2    2.44    0.37
   2   1   3  856.69    4.31
   2   1   3  779.16    4.09
   2   1   3  780.79    3.31
  -2  -1  -3  660.14    3.75
  -2  -1  -3  801.42    3.70
  -2  -1  -3  539.24    3.41
  -2  -1  -3  537.40    3.41
   2   1   4  338.49    2.96
   2   1   4  314.76    2.81
   2   1   4  312.16    2.22
  -2  -1  -4  273.52    2.65
  -2  -1  -4  322.57    2.66
  -2  -1  -4  219.04    2.36
  -2  -1  -4  215.70    2.34
  -2  -1  -4  338.46    1.96
   2   1   5  110.31    1.91
   2   1   5   94.99    1.76
   2   1   5   90.13    1.36
  -2  -1  -5   84.69    1.69
  -2  -1  -5   93.77    1.70
  -2  -1  -5   68.51    1.50
  -2  -1  -5   68.20    1.50
  -2  -1  -5   98.27    1.31
   2   1   6  179.00    2.54
   2   1   6  161.56    2.32
   2   1   6  150.12    1.74
  -2  -1  -6  147.12    2.30
  -2  -1  -6  159.03    2.30
  -2  -1  -6  120.84    2.01
  -2  -1  -6  115.37    1.98
  -2  -1  -6  165.31    1.81
   2   1   7   38.37    1.53
   2   1   7   37.49    1.44
   2   1   7   32.04    1.03
  -2  -1  -7   34.34    1.42
  -2  -1  -7   36.60    1.45
  -2  -1  -7   29.70    1.28
  -2  -1  -7   25.83    1.22
  -2  -1  -7   37.06    1.16
   2   1   8  271.95    3.51
   2   1   8  266.18    3.27
   2   1   8  210.72    2.25
  -2  -1  -8  238.76    3.26
  -2  -1  -8  250.90    3.28
  -2  -1  -8  192.88    2.78
  -2  -1  -8  185.93    2.74
  -2  -1  -8  267.52    2.71
   2   1   9   71.93    2.23
   2   1   9   79.14    2.15
   2   1   9   53.18    1.38
  -2  -1  -9   68.49    2.08
  -2  -1  -9   73.09    2.15
  -2  -1  -9   56.75    1.81
  -2  -1  -9   51.57    1.70
  -2  -1  -9   78.19    1.80
   2   1  10   64.96    2.27
   2   1  10   70.69    2.17
  -2  -1 -10   64.71    2.17
  -2  -1 -10   65.40    2.24
  -2  -1 -10   49.63    1.83
  -2  -1 -10   48.30    1.76
  -2  -1 -10   69.74    1.86
   2   1  11   -0.05    0.79
   2   1  11    2.99    0.86
  -2  -1 -11    2.16    0.86
  -2  -1 -11    1.28    0.90
  -2  -1 -11    0.74    0.66
  -2  -1 -11    1.01    0.61
  -2  -1 -11    2.88    0.80
   2   1  12    1.70    0.93
   2   1  12    2.64    0.95
  -2  -1 -12    2.72    1.02
  -2  -1 -12    2.64    1.05
  -2  -1 -12    2.27    0.80
  -2  -1 -12    2.79    0.78
   2   1  13    3.29    1.08
   2   1  13    4.32    1.08
  -2  -1 -13    5.03    1.14
  -2  -1 -13    5.37    1.23
  -2  -1 -13    2.64    0.85
  -2  -1 -13    2.55    0.81
   2   1  14    8.58    1.40
  -2  -1 -14    5.87    1.30
  -2  -1 -14    7.09    1.46
  -2  -1 -14    4.59    1.09
   2   1  15    0.52    1.25
  -2  -1 -15   -0.48    1.24
  -2  -1 -15    0.23    1.37
   3   1 -17    2.60    1.48
   3   1 -17   -1.20    1.37
  -3  -1  17   -1.00    1.55
   3   1 -16    1.91    1.28
   3   1 -16    3.21    1.41
  -3  -1  16   -0.68    1.31
   3   1 -15   10.88    1.44
   3   1 -15    9.73    1.46
   3   1 -15    9.62    1.52
  -3  -1  15    8.93    1.57
  -3  -1  15    4.47    0.85
   3   1 -14    8.67    1.32
   3   1 -14    8.03    1.32
   3   1 -14    7.80    1.37
  -3  -1  14    6.59    1.29
  -3  -1  14    3.11    0.73
   3   1 -13   27.81    2.07
   3   1 -13   27.77    2.08
   3   1 -13   26.71    2.05
   3   1 -13   19.22    1.79
  -3  -1  13   29.29    2.22
  -3  -1  13   12.06    1.22
   3   1 -12   21.97    1.88
   3   1 -12   20.08    1.88
   3   1 -12   18.14    1.77
   3   1 -12   21.44    1.69
  -3  -1  12   26.84    1.92
  -3  -1  12   11.60    1.11
   3   1 -11   52.10    2.05
   3   1 -11   45.17    2.02
   3   1 -11   45.86    2.05
   3   1 -11   42.80    1.85
  -3  -1  11   52.57    2.06
  -3  -1  11   20.45    1.21
   3   1 -10   21.78    1.48
   3   1 -10   18.95    1.47
   3   1 -10   17.05    1.45
   3   1 -10   18.69    1.37
  -3  -1  10   22.38    1.47
  -3  -1  10    9.11    0.90
   3   1  -9   55.71    1.78
   3   1  -9   55.90    1.74
   3   1  -9   50.41    1.80
   3   1  -9   51.51    1.69
  -3  -1   9   48.01    1.69
   3   1  -8    0.26    0.51
   3   1  -8   -0.20    0.47
   3   1  -8    0.05    0.56
   3   1  -8    0.26    0.52
  -3  -1   8    0.62    0.48
   3   1  -7  110.59    2.04
   3   1  -7  114.08    1.92
   3   1  -7  106.31    2.04
   3   1  -7  102.81    1.95
  -3  -1   7   84.65    1.81
   3   1  -6   34.27    1.24
   3   1  -6   39.12    1.17
   3   1  -6   35.82    1.24
   3   1  -6   34.99    1.23
  -3  -1   6   24.57    1.08
   3   1  -5  230.38    2.58
   3   1  -5  254.30    2.31
   3   1  -5  238.22    2.57
   3   1  -5  230.08    2.56
  -3  -1   5  158.26    2.13
   3   1  -4  352.74    3.01
   3   1  -4  391.41    2.58
   3   1  -4  376.88    2.97
   3   1  -4  361.01    3.04
  -3  -1   4  229.86    2.41
   3   1  -3   40.31    1.10
   3   1  -3   45.84    0.92
   3   1  -3   26.35    0.67
   3   1  -3   45.86    1.09
   3   1  -3   42.49    1.15
  -3  -1   3   27.19    1.00
  -3  -1   3   34.88    0.75
  -3  -1   3   33.57    0.73
   3   1  -2  198.80    2.14
   3   1  -2  172.44    1.92
   3   1  -2  190.82    1.46
   3   1  -2  188.98    1.56
   3   1  -2  182.11    1.68
   3   1  -2  183.61    1.81
  -3  -1   2  132.10    1.43
  -3  -1   2  131.62    1.42
   3   1  -1  192.34    2.09
   3   1  -1  173.34    1.81
   3   1  -1  182.90    1.60
   3   1  -1  185.59    1.53
   3   1  -1  177.00    1.79
   3   1  -1  183.99    1.66
   3   1  -1  179.19    1.96
  -3  -1   1  142.93    1.42
  -3  -1   1  130.71    1.54
  -3  -1   1  125.75    1.51
   3   1   0  466.60    3.19
   3   1   0  431.93    2.60
   3   1   0  432.69    2.66
   3   1   0  445.24    2.38
   3   1   0  424.56    2.89
   3   1   0  442.82    2.32
   3   1   0  435.02    2.89
  -3  -1   0  353.80    2.41
  -3  -1   0  300.52    2.44
  -3  -1   0  293.30    2.42
   3   1   1  267.29    2.53
   3   1   1  252.88    1.85
   3   1   1  244.32    2.22
   3   1   1  249.92    1.96
   3   1   1  242.76    2.36
   3   1   1  256.37    1.69
   3   1   1  251.19    2.18
  -3  -1  -1  201.53    2.00
  -3  -1  -1  220.44    1.82
  -3  -1  -1  170.32    1.99
   3   1   2  133.12    1.92
   3   1   2  117.12    1.80
   3   1   2  124.87    1.57
  -3  -1  -2   99.88    1.58
  -3  -1  -2  117.87    1.49
  -3  -1  -2   81.36    1.52
   3   1   3   95.11    1.75
   3   1   3   91.01    1.70
   3   1   3   94.18    1.39
  -3  -1  -3   78.23    1.53
  -3  -1  -3   94.96    1.49
  -3  -1  -3   63.48    1.44
   3   1   4  651.32    4.47
   3   1   4  562.97    4.16
   3   1   4  590.06    3.25
  -3  -1  -4  487.80    3.83
  -3  -1  -4  602.74    3.86
  -3  -1  -4  384.81    3.45
  -3  -1  -4  611.66    2.80
   3   1   5  133.16    2.27
   3   1   5  120.17    2.15
   3   1   5  122.49    1.59
  -3  -1  -5  102.68    1.98
  -3  -1  -5  122.08    1.99
  -3  -1  -5   81.40    1.79
  -3  -1  -5  128.43    1.51
   3   1   6  394.93    3.93
   3   1   6  347.97    3.65
   3   1   6  342.13    2.61
  -3  -1  -6  297.06    3.41
  -3  -1  -6  349.74    3.46
  -3  -1  -6  251.79    3.10
  -3  -1  -6  239.91    3.04
  -3  -1  -6  354.46    2.60
   3   1   7   20.85    1.38
   3   1   7   22.62    1.37
   3   1   7   21.69    0.94
  -3  -1  -7   21.18    1.28
  -3  -1  -7   23.05    1.32
  -3  -1  -7   19.51    1.24
  -3  -1  -7   14.44    1.16
  -3  -1  -7   23.10    1.05
   3   1   8   93.21    2.34
   3   1   8   88.57    2.25
  -3  -1  -8   77.33    2.13
  -3  -1  -8   84.99    2.18
  -3  -1  -8   61.86    1.90
  -3  -1  -8   61.46    1.88
  -3  -1  -8   86.07    1.69
   3   1   9   20.40    1.57
   3   1   9   24.82    1.68
  -3  -1  -9   21.02    1.53
  -3  -1  -9   21.21    1.58
  -3  -1  -9   14.83    1.40
  -3  -1  -9   15.76    1.34
  -3  -1  -9   24.74    1.33
   3   1  10   35.69    1.92
   3   1  10   38.05    2.01
  -3  -1 -10   32.45    1.84
  -3  -1 -10   34.07    1.93
  -3  -1 -10   25.14    1.71
  -3  -1 -10   24.31    1.55
   3   1  11   17.02    1.75
   3   1  11   16.37    1.81
  -3  -1 -11   11.57    1.25
  -3  -1 -11   14.66    1.80
  -3  -1 -11   10.15    1.16
  -3  -1 -11    8.22    1.01
   3   1  12    0.94    0.89
   3   1  12    0.74    0.96
  -3  -1 -12   -0.25    0.92
  -3  -1 -12    0.19    1.05
  -3  -1 -12   -0.24    0.79
  -3  -1 -12   -0.81    0.69
   3   1  13    6.00    1.25
   3   1  13    3.38    1.14
  -3  -1 -13    3.59    1.17
  -3  -1 -13    4.75    1.35
  -3  -1 -13    3.54    1.00
  -3  -1 -13    2.19    0.87
   3   1  14    9.00    1.54
   3   1  14    6.42    1.39
  -3  -1 -14    4.97    1.45
  -3  -1 -14    4.88    1.49
  -3  -1 -14    4.50    1.13
  -3  -1 -14    4.39    1.06
   3   1  15    4.64    1.61
  -3  -1 -15    2.07    1.47
  -3  -1 -15    4.01    1.65
  -3  -1 -15    3.90    1.26
   4   1 -16    6.35    1.47
   4   1 -16    5.03    1.46
   4   1 -16    7.02    1.62
  -4  -1  16    3.65    1.60
  -4  -1  16    2.08    0.81
   4   1 -15    5.86    1.45
   4   1 -15    5.13    1.37
   4   1 -15    3.50    1.37
  -4  -1  15    4.81    1.42
  -4  -1  15    2.05    0.77
   4   1 -14   14.83    1.64
   4   1 -14   10.49    1.50
   4   1 -14   10.57    1.50
   4   1 -14   10.46    1.46
  -4  -1  14   21.59    2.37
  -4  -1  14    5.72    0.92
   4   1 -13   12.74    1.50
   4   1 -13   11.48    1.41
   4   1 -13   11.45    1.49
   4   1 -13    8.62    1.33
  -4  -1  13   13.23    1.44
  -4  -1  13    4.37    0.81
   4   1 -12    9.85    1.30
   4   1 -12    8.38    1.23
   4   1 -12    7.19    1.25
   4   1 -12   10.46    1.27
  -4  -1  12    9.64    1.19
  -4  -1  12    3.96    0.75
   4   1 -11    7.83    1.13
   4   1 -11    7.51    1.04
   4   1 -11    4.22    1.03
   4   1 -11    6.04    1.06
  -4  -1  11    5.72    0.94
  -4  -1  11    2.86    0.67
   4   1 -10   15.92    1.52
   4   1 -10   13.76    1.40
   4   1 -10   11.09    1.19
   4   1 -10   12.29    1.37
  -4  -1  10   13.34    1.44
   4   1  -9    4.55    0.80
   4   1  -9    4.57    0.75
   4   1  -9    4.85    0.86
   4   1  -9    3.79    0.82
  -4  -1   9    2.84    0.70
   4   1  -8   62.14    1.87
   4   1  -8   66.08    1.75
   4   1  -8   59.46    1.82
   4   1  -8   59.68    1.84
  -4  -1   8   51.86    1.71
   4   1  -7   23.83    1.28
   4   1  -7   27.66    1.20
   4   1  -7   25.69    1.28
   4   1  -7   21.51    1.22
  -4  -1   7   15.29    1.14
   4   1  -6   88.89    1.93
   4   1  -6  101.46    1.78
   4   1  -6   94.23    1.94
   4   1  -6   85.59    1.93
  -4  -1   6   61.21    1.63
   4   1  -5  112.53    2.05
   4   1  -5  124.33    1.79
   4   1  -5  118.38    2.01
   4   1  -5  109.24    2.06
  -4  -1   5   77.96    1.72
   4   1  -4  166.50    2.34
   4   1  -4  140.22    2.18
   4   1  -4  156.62    1.88
   4   1  -4  151.49    2.14
   4   1  -4  139.18    2.20
  -4  -1   4   96.24    1.81
  -4  -1   4  116.26    1.35
  -4  -1   4  114.94    1.34
   4   1  -3  169.42    2.31
   4   1  -3  142.78    2.10
   4   1  -3  157.08    1.54
   4   1  -3  154.09    1.77
   4   1  -3  150.93    2.01
   4   1  -3  141.77    2.14
  -4  -1   3   93.26    1.79
  -4  -1   3  113.43    1.46
  -4  -1   3  108.83    1.43
   4   1  -2  177.37    2.33
   4   1  -2  152.92    2.07
   4   1  -2  162.19    1.69
   4   1  -2  161.38    1.78
   4   1  -2  153.01    1.83
   4   1  -2  157.83    1.93
   4   1  -2  151.10    2.14
  -4  -1   2  116.52    1.59
  -4  -1   2  115.15    1.59
   4   1  -1    1.45    0.41
   4   1  -1   -0.03    0.39
  -4  -1   1    0.38    0.32
   4   1   0  194.96    2.45
   4   1   0  177.79    1.98
   4   1   0  177.62    2.04
   4   1   0  180.22    1.88
   4   1   0  170.71    2.17
   4   1   0  180.52    1.83
   4   1   0  171.52    2.13
  -4  -1   0  138.99    1.80
  -4  -1   0  121.92    1.84
  -4  -1   0  117.97    1.82
   4   1   1  396.55    3.46
   4   1   1  373.52    2.63
   4   1   1  361.60    3.04
   4   1   1  365.77    2.73
   4   1   1  346.91    3.17
   4   1   1  373.22    2.47
   4   1   1  368.03    2.97
  -4  -1  -1  295.97    2.74
  -4  -1  -1  316.15    2.52
  -4  -1  -1  246.92    2.70
   4   1   2  277.88    3.02
   4   1   2  273.71    2.10
   4   1   2  248.78    2.71
   4   1   2  242.75    2.82
   4   1   2  256.47    2.03
   4   1   2  261.91    2.50
  -4  -1  -2  208.22    2.47
  -4  -1  -2  237.73    2.33
  -4  -1  -2  172.34    2.39
  -4  -1  -2  197.63    1.78
   4   1   3  305.27    3.28
   4   1   3  268.01    3.10
   4   1   3  294.54    2.61
  -4  -1  -3  230.11    2.75
  -4  -1  -3  274.02    2.67
  -4  -1  -3  184.00    2.58
  -4  -1  -3  253.60    2.00
   4   1   4  353.80    3.67
   4   1   4  308.48    3.47
   4   1   4  326.24    2.72
  -4  -1  -4  265.20    3.12
  -4  -1  -4  316.92    3.07
  -4  -1  -4  210.16    2.87
  -4  -1  -4  318.71    2.31
   4   1   5  176.40    2.80
   4   1   5  154.45    2.65
   4   1   5  155.15    1.93
  -4  -1  -5  132.74    2.40
  -4  -1  -5  164.09    2.43
  -4  -1  -5  102.65    2.18
  -4  -1  -5  162.73    1.79
   4   1   6   12.38    1.28
   4   1   6   12.64    1.26
   4   1   6   11.65    0.82
  -4  -1  -6   10.31    1.08
  -4  -1  -6   12.83    1.10
  -4  -1  -6    7.57    0.83
  -4  -1  -6   11.73    0.90
   4   1   7    6.22    0.88
   4   1   7    5.59    0.85
  -4  -1  -7    4.74    0.77
  -4  -1  -7    4.49    0.79
  -4  -1  -7    3.58    0.73
  -4  -1  -7    3.56    0.71
   4   1   8   12.48    1.48
   4   1   8   10.05    1.07
  -4  -1  -8    7.51    0.93
  -4  -1  -8   11.53    1.39
  -4  -1  -8    5.56    0.91
  -4  -1  -8    6.78    0.88
   4   1   9    8.87    1.07
   4   1   9    8.25    1.10
  -4  -1  -9    7.53    1.03
  -4  -1  -9    7.36    1.07
  -4  -1  -9    3.98    0.90
  -4  -1  -9    5.24    0.92
   4   1  10    6.22    1.00
   4   1  10    8.03    1.17
  -4  -1 -10    8.84    1.20
  -4  -1 -10    7.31    1.15
  -4  -1 -10    4.54    1.03
  -4  -1 -10    5.01    0.94
   4   1  11   54.69    2.62
  -4  -1 -11   47.72    2.35
  -4  -1 -11   44.55    2.34
  -4  -1 -11   37.64    2.26
  -4  -1 -11   36.62    2.02
   4   1  12   24.54    2.23
   4   1  12   23.97    2.44
  -4  -1 -12   20.11    2.15
  -4  -1 -12   21.16    2.24
  -4  -1 -12   16.43    2.04
  -4  -1 -12   17.13    1.81
   4   1  13   29.66    2.58
   4   1  13   32.73    2.74
  -4  -1 -13   23.39    2.49
  -4  -1 -13   23.04    2.51
  -4  -1 -13   21.31    2.28
  -4  -1 -13   20.44    1.99
   4   1  14   33.31    2.96
   4   1  14   29.45    2.93
  -4  -1 -14   21.36    2.64
  -4  -1 -14   21.45    2.64
  -4  -1 -14   14.14    1.70
  -4  -1 -14   17.39    2.11
   5   1 -16    4.77    1.50
   5   1 -16    3.38    1.45
   5   1 -16    5.09    1.68
  -5  -1  16    4.07    1.66
  -5  -1  16    1.69    0.79
   5   1 -15    4.99    1.51
   5   1 -15    2.26    1.22
   5   1 -15    3.53    1.37
   5   1 -15    1.09    1.28
  -5  -1  15    5.55    1.51
  -5  -1  15    1.22    0.72
   5   1 -14    3.15    1.39
   5   1 -14    1.19    1.13
   5   1 -14    0.66    1.16
   5   1 -14    3.18    1.29
  -5  -1  14    1.04    1.19
  -5  -1  14    2.40    0.73
   5   1 -13    4.35    1.26
   5   1 -13    3.56    1.10
   5   1 -13    2.51    1.10
   5   1 -13    2.08    1.15
  -5  -1  13    4.96    1.21
  -5  -1  13    1.59    0.66
   5   1 -12    5.96    1.23
   5   1 -12    5.14    1.08
   5   1 -12    3.55    1.09
   5   1 -12    3.47    1.13
  -5  -1  12    3.78    1.04
  -5  -1  12    1.92    0.70
   5   1 -11    8.54    1.22
   5   1 -11    7.29    1.05
   5   1 -11    5.76    1.05
   5   1 -11    6.66    1.13
  -5  -1  11    7.02    1.10
  -5  -1  11    2.39    0.76
   5   1 -10    4.26    0.94
   5   1 -10    5.92    0.91
   5   1 -10    3.33    0.87
   5   1 -10    3.99    0.96
  -5  -1  10    2.72    0.82
   5   1  -9   13.28    1.46
   5   1  -9   16.96    1.43
   5   1  -9   15.00    1.43
   5   1  -9   10.48    1.13
  -5  -1   9    8.17    1.00
   5   1  -8   13.83    1.39
   5   1  -8   16.41    1.27
   5   1  -8   12.56    1.30
   5   1  -8   10.57    1.10
  -5  -1   8    8.53    0.92
   5   1  -7   19.00    1.39
   5   1  -7   21.95    1.23
   5   1  -7   19.52    1.37
   5   1  -7   13.54    1.32
  -5  -1   7   13.40    1.23
   5   1  -6   63.13    1.92
   5   1  -6   73.58    1.71
   5   1  -6   70.62    1.91
   5   1  -6   56.97    1.86
  -5  -1   6   47.55    1.67
   5   1  -5  209.80    3.02
   5   1  -5  233.82    2.63
   5   1  -5  228.76    3.00
   5   1  -5  195.70    2.93
  -5  -1   5  147.33    2.47
   5   1  -4  175.77    2.66
   5   1  -4  145.74    2.45
   5   1  -4  162.69    2.15
   5   1  -4  156.19    2.41
   5   1  -4  143.57    2.49
  -5  -1   4  100.01    2.06
  -5  -1   4  115.23    1.61
  -5  -1   4  112.59    1.58
   5   1  -3  225.03    2.92
   5   1  -3  190.04    2.66
   5   1  -3  203.20    2.07
   5   1  -3  204.76    2.30
   5   1  -3  198.38    2.24
   5   1  -3  201.65    2.56
   5   1  -3  185.24    2.69
  -5  -1   3  125.22    2.25
  -5  -1   3  142.98    1.90
  -5  -1   3  141.62    1.89
   5   1  -2  155.96    2.48
   5   1  -2  133.81    2.16
   5   1  -2  138.49    1.85
   5   1  -2  143.57    1.95
   5   1  -2  135.05    2.00
   5   1  -2  140.96    2.07
   5   1  -2  129.64    2.23
  -5  -1   2   98.29    1.69
  -5  -1   2   96.21    1.67
   5   1  -1  101.13    2.08
   5   1  -1   93.43    1.77
   5   1  -1   94.55    1.68
   5   1  -1   92.67    1.62
   5   1  -1   89.36    1.79
   5   1  -1   97.46    1.69
   5   1  -1   90.99    1.87
  -5  -1   1   71.95    1.47
  -5  -1   1   63.29    1.50
  -5  -1   1   62.95    1.50
   5   1   0   64.23    1.77
   5   1   0   63.53    1.45
   5   1   0   58.07    1.49
   5   1   0   58.45    1.38
   5   1   0   55.05    1.56
   5   1   0   62.09    1.37
   5   1   0   60.84    1.55
  -5  -1   0   47.01    1.29
  -5  -1   0   40.06    1.32
  -5  -1   0   39.34    1.34
   5   1   1   41.72    1.55
   5   1   1   43.83    1.20
   5   1   1   39.01    1.37
   5   1   1   41.92    1.28
   5   1   1   36.48    1.42
   5   1   1   43.44    1.16
   5   1   1   42.93    1.33
  -5  -1  -1   31.77    1.18
  -5  -1  -1   34.41    1.10
  -5  -1  -1   29.83    1.25
  -5  -1  -1   24.91    1.22
   5   1   2   87.21    2.05
   5   1   2   87.59    1.48
   5   1   2   77.58    1.85
   5   1   2   71.77    1.87
   5   1   2   80.49    1.44
   5   1   2   79.83    1.66
  -5  -1  -2   65.23    1.64
  -5  -1  -2   72.90    1.54
  -5  -1  -2   50.57    1.61
  -5  -1  -2   61.49    1.24
   5   1   3   45.85    1.67
   5   1   3   41.49    1.56
   5   1   3   40.42    1.59
   5   1   3   43.90    1.31
  -5  -1  -3   35.01    1.37
  -5  -1  -3   40.51    1.31
  -5  -1  -3   28.06    1.36
  -5  -1  -3   35.99    1.01
   5   1   4   46.73    1.76
   5   1   4   42.36    1.70
   5   1   4   40.98    1.28
  -5  -1  -4   35.54    1.47
  -5  -1  -4   42.62    1.43
  -5  -1  -4   26.24    1.39
  -5  -1  -4   37.79    1.05
   5   1   5  393.48    4.39
   5   1   5  315.91    4.01
   5   1   5  320.70    2.98
  -5  -1  -5  267.90    3.59
  -5  -1  -5  336.03    3.64
  -5  -1  -5  221.36    3.38
   5   1   6  156.41    3.04
   5   1   6  127.73    2.85
  -5  -1  -6  115.29    2.61
  -5  -1  -6  135.30    2.58
  -5  -1  -6   91.60    2.47
  -5  -1  -6   88.65    2.40
   5   1   7    0.69    0.70
   5   1   7   -0.58    0.71
  -5  -1  -7    0.90    0.67
  -5  -1  -7    1.48    0.73
  -5  -1  -7   -0.41    0.70
  -5  -1  -7    0.60    0.65
   5   1   8    9.09    1.12
   5   1   8    8.35    1.14
  -5  -1  -8    6.94    0.99
  -5  -1  -8    9.20    1.09
  -5  -1  -8    5.40    1.01
  -5  -1  -8    6.48    0.97
   5   1   9   14.58    1.77
   5   1   9   10.36    1.27
  -5  -1  -9    9.79    1.21
  -5  -1  -9   10.33    1.23
  -5  -1  -9    8.64    1.19
  -5  -1  -9    8.08    1.11
   5   1  10   11.50    1.38
   5   1  10    9.06    1.34
  -5  -1 -10    8.44    1.25
  -5  -1 -10    7.64    1.28
  -5  -1 -10    8.20    1.27
  -5  -1 -10    6.68    1.09
   5   1  11   30.45    2.43
   5   1  11   25.02    2.49
  -5  -1 -11   23.20    2.19
  -5  -1 -11   17.65    2.16
  -5  -1 -11   19.86    2.22
  -5  -1 -11   16.26    1.84
   5   1  12   30.61    2.67
   5   1  12   31.91    2.96
  -5  -1 -12   24.21    2.40
  -5  -1 -12   22.93    2.45
  -5  -1 -12   19.63    2.35
  -5  -1 -12   18.05    2.05
   5   1  13   22.96    2.80
   5   1  13   25.40    2.94
  -5  -1 -13   23.12    2.60
  -5  -1 -13   14.50    1.90
  -5  -1 -13   13.28    1.77
   6   1 -15   -0.03    1.30
   6   1 -15   -0.43    1.20
   6   1 -15   -1.69    1.31
   6   1 -15   -0.72    1.32
  -6  -1  15   -1.28    1.30
  -6  -1  15    0.25    0.69
   6   1 -14    0.46    1.40
   6   1 -14    1.83    1.15
   6   1 -14   -0.46    1.14
   6   1 -14    0.50    1.28
  -6  -1  14   -1.23    1.18
  -6  -1  14    0.10    0.63
   6   1 -13   -0.72    1.20
   6   1 -13    2.21    1.04
   6   1 -13    0.40    1.11
   6   1 -13    1.03    1.16
  -6  -1  13   -0.50    1.06
  -6  -1  13    0.00    0.60
   6   1 -12    3.43    1.23
   6   1 -12    3.07    0.99
   6   1 -12    3.11    1.08
   6   1 -12    0.79    1.03
  -6  -1  12    0.39    1.01
  -6  -1  12    0.69    0.69
   6   1 -11    4.64    1.18
   6   1 -11    5.58    1.03
   6   1 -11    4.82    1.14
   6   1 -11    3.66    1.12
  -6  -1  11    2.16    1.01
  -6  -1  11    1.19    0.69
   6   1 -10   23.04    1.93
   6   1 -10   30.32    1.86
   6   1 -10   23.89    1.88
   6   1 -10   17.53    1.78
  -6  -1  10   20.39    1.90
   6   1  -9   37.53    2.12
   6   1  -9   41.55    1.93
   6   1  -9   34.94    1.92
   6   1  -9   26.16    1.85
  -6  -1   9   27.53    1.88
   6   1  -8   56.17    2.27
   6   1  -8   64.00    2.05
   6   1  -8   57.78    2.15
   6   1  -8   42.54    2.09
  -6  -1   8   47.85    2.01
   6   1  -7   47.85    2.13
   6   1  -7   56.32    1.87
   6   1  -7   47.24    1.99
   6   1  -7   39.25    1.86
  -6  -1   7   40.45    1.78
   6   1  -6    1.13    0.72
   6   1  -6   -0.01    0.60
   6   1  -6    0.36    0.71
   6   1  -6    1.40    0.75
  -6  -1   6    1.33    0.63
   6   1  -5    6.33    0.91
   6   1  -5    6.98    0.79
   6   1  -5    7.33    0.92
   6   1  -5    6.10    0.91
  -6  -1   5    3.79    0.73
   6   1  -4  137.54    2.68
   6   1  -4  115.45    2.48
   6   1  -4  120.72    1.84
   6   1  -4  128.13    2.17
   6   1  -4  118.91    2.36
   6   1  -4  109.59    2.43
  -6  -1   4   78.90    2.08
  -6  -1   4   86.93    1.67
  -6  -1   4   85.17    1.63
   6   1  -3   88.21    2.26
   6   1  -3   80.90    2.04
   6   1  -3   78.76    1.64
   6   1  -3   83.16    1.83
   6   1  -3   77.31    1.75
   6   1  -3   81.06    1.95
   6   1  -3   74.84    2.03
  -6  -1   3   47.52    1.75
  -6  -1   3   59.19    1.51
  -6  -1   3   55.12    1.48
   6   1  -2  124.62    2.55
   6   1  -2  111.71    2.24
   6   1  -2  108.00    1.95
   6   1  -2  113.31    2.00
   6   1  -2  105.91    2.08
   6   1  -2  112.43    2.11
   6   1  -2  105.70    2.26
  -6  -1   2   79.65    1.78
  -6  -1   2   75.57    1.76
   6   1  -1  101.75    2.37
   6   1  -1   97.12    2.03
   6   1  -1   87.60    1.90
   6   1  -1   91.52    1.88
   6   1  -1   83.44    1.99
   6   1  -1   96.47    1.92
   6   1  -1   92.19    2.11
  -6  -1   1   70.88    1.64
  -6  -1   1   64.82    1.74
  -6  -1   1   58.99    1.66
   6   1   0  118.28    2.50
   6   1   0  102.92    1.95
   6   1   0   96.81    2.06
   6   1   0  102.55    1.98
   6   1   0   97.60    2.19
   6   1   0  103.86    1.90
   6   1   0   97.28    2.11
  -6  -1   0   80.79    1.81
  -6  -1   0   83.75    1.72
  -6  -1   0   68.90    1.85
  -6  -1   0   65.74    1.82
   6   1   1   71.13    2.10
   6   1   1   67.75    1.63
   6   1   1   62.13    1.82
   6   1   1   64.81    1.73
   6   1   1   58.15    1.87
   6   1   1   64.37    1.56
   6   1   1   60.55    1.72
  -6  -1  -1   49.49    1.57
  -6  -1  -1   53.03    1.48
  -6  -1  -1   43.05    1.63
  -6  -1  -1   42.10    1.60
   6   1   2   96.60    2.38
   6   1   2   87.82    1.71
   6   1   2   83.03    2.13
   6   1   2   78.37    2.17
   6   1   2   81.43    1.70
   6   1   2   77.72    1.86
  -6  -1  -2   70.01    1.88
  -6  -1  -2   74.19    1.74
  -6  -1  -2   56.66    1.88
  -6  -1  -2   54.11    1.82
  -6  -1  -2   62.74    1.44
   6   1   3   44.38    1.93
   6   1   3   36.51    1.70
   6   1   3   32.29    1.70
   6   1   3   34.64    1.41
  -6  -1  -3   30.61    1.49
  -6  -1  -3   35.59    1.40
  -6  -1  -3   24.80    1.54
  -6  -1  -3   23.30    1.47
   6   1   4    1.73    0.77
   6   1   4    1.07    0.71
   6   1   4   -0.03    0.61
  -6  -1  -4    1.73    0.68
  -6  -1  -4    1.73    0.62
  -6  -1  -4    0.48    0.75
  -6  -1  -4    1.31    0.66
   6   1   5   14.49    1.61
   6   1   5    8.72    1.10
  -6  -1  -5    7.80    1.00
  -6  -1  -5   12.76    1.30
  -6  -1  -5    5.32    0.97
  -6  -1  -5    6.28    0.95
   6   1   6  109.80    2.87
   6   1   6   88.07    2.68
  -6  -1  -6   78.28    2.43
  -6  -1  -6   97.06    2.42
  -6  -1  -6   59.34    2.35
  -6  -1  -6   63.61    2.32
   6   1   7   99.00    2.89
   6   1   7   83.06    2.77
  -6  -1  -7   68.87    2.41
  -6  -1  -7   82.73    2.43
  -6  -1  -7   55.08    2.36
  -6  -1  -7   55.69    2.33
   6   1   8   55.28    2.52
   6   1   8   41.30    2.40
  -6  -1  -8   38.12    2.12
  -6  -1  -8   42.19    2.12
  -6  -1  -8   33.06    2.12
  -6  -1  -8   30.93    2.04
   6   1   9   56.11    2.68
   6   1   9   46.63    2.67
  -6  -1  -9   40.03    2.33
  -6  -1  -9   40.99    2.30
  -6  -1  -9   31.97    2.27
  -6  -1  -9   27.03    2.08
   6   1  10   49.80    2.80
   6   1  10   49.35    2.99
  -6  -1 -10   45.12    2.61
  -6  -1 -10   37.85    2.44
  -6  -1 -10   35.77    2.53
  -6  -1 -10   32.34    2.24
   6   1  11   13.42    1.76
   6   1  11   13.26    1.83
  -6  -1 -11   13.15    1.66
  -6  -1 -11    9.18    1.61
  -6  -1 -11   12.06    1.64
   6   1  12    8.27    1.66
   6   1  12    9.09    1.77
  -6  -1 -12    6.06    1.56
  -6  -1 -12    6.22    1.64
  -6  -1 -12    6.46    1.51
   7   1 -14    0.19    1.54
   7   1 -14    2.79    1.27
   7   1 -14   -0.20    1.27
   7   1 -14   -0.77    1.35
  -7  -1  14    0.52    0.70
   7   1 -13    0.50    1.32
   7   1 -13    1.51    1.13
   7   1 -13    0.36    1.15
   7   1 -13    1.31    1.30
  -7  -1  13   -0.43    1.18
  -7  -1  13   -0.04    0.65
   7   1 -12    0.68    1.25
   7   1 -12    1.96    1.02
   7   1 -12    1.46    1.11
   7   1 -12    0.45    1.19
  -7  -1  12    0.84    1.11
  -7  -1  12    0.63    0.70
   7   1 -11    7.88    1.46
   7   1 -11    6.79    1.18
   7   1 -11    6.62    1.29
   7   1 -11    2.76    1.24
  -7  -1  11    5.68    1.23
  -7  -1  11    1.90    0.79
   7   1 -10   13.79    1.59
   7   1 -10   18.97    1.82
   7   1 -10   17.71    1.95
   7   1 -10   10.60    1.44
  -7  -1  10   18.50    1.96
   7   1  -9   19.24    2.09
   7   1  -9   21.25    1.77
   7   1  -9   18.06    1.91
   7   1  -9   13.10    1.52
  -7  -1   9   19.15    1.88
   7   1  -8   41.45    2.33
   7   1  -8   46.64    2.03
   7   1  -8   42.19    2.27
   7   1  -8   34.57    2.09
  -7  -1   8   41.14    2.08
   7   1  -7   48.57    2.29
   7   1  -7   56.28    2.06
   7   1  -7   49.28    2.22
   7   1  -7   39.85    2.07
  -7  -1   7   43.11    2.02
   7   1  -6   39.22    2.07
   7   1  -6   43.16    1.86
   7   1  -6   38.61    2.01
   7   1  -6   33.61    1.89
  -7  -1   6   29.52    1.75
   7   1  -5    7.72    1.04
   7   1  -5    5.24    0.91
   7   1  -5    6.06    1.03
   7   1  -5    5.57    0.95
  -7  -1   5    3.29    0.82
   7   1  -4   -1.07    0.71
   7   1  -4    0.30    0.70
   7   1  -4   -1.13    0.65
   7   1  -4    0.41    0.70
   7   1  -4    0.87    0.74
  -7  -1   4    0.11    0.67
  -7  -1   4   -0.01    0.50
   7   1  -3   33.70    1.88
   7   1  -3   31.25    1.71
   7   1  -3   30.11    1.69
   7   1  -3   32.05    1.51
   7   1  -3   26.36    1.49
   7   1  -3   32.07    1.60
   7   1  -3   28.11    1.65
  -7  -1   3   20.87    1.58
  -7  -1   3   20.43    1.31
  -7  -1   3   17.12    1.19
   7   1  -2   26.97    1.81
   7   1  -2   27.85    1.50
   7   1  -2   21.54    1.40
   7   1  -2   26.30    1.45
   7   1  -2   23.36    1.48
   7   1  -2   28.39    1.50
   7   1  -2   24.34    1.53
  -7  -1   2   21.08    1.18
  -7  -1   2   16.50    1.29
  -7  -1   2   16.47    1.23
   7   1  -1   27.00    1.81
   7   1  -1   27.72    1.53
   7   1  -1   22.12    1.45
   7   1  -1   24.46    1.45
   7   1  -1   25.45    1.56
   7   1  -1   28.59    1.46
   7   1  -1   23.00    1.53
  -7  -1   1   19.48    1.24
  -7  -1   1   18.61    1.36
  -7  -1   1   18.77    1.28
   7   1   0  104.32    2.66
   7   1   0   98.66    2.25
   7   1   0   87.25    2.18
   7   1   0   89.21    2.12
   7   1   0   86.09    2.31
   7   1   0   92.39    2.06
   7   1   0   80.28    2.19
  -7  -1   0   71.36    1.94
  -7  -1   0   75.82    1.87
  -7  -1   0   64.32    2.08
  -7  -1   0   59.03    1.90
   7   1   1   78.20    2.44
   7   1   1   64.97    1.87
   7   1   1   64.32    2.06
   7   1   1   64.22    1.96
   7   1   1   60.33    2.13
   7   1   1   63.19    2.01
   7   1   1   57.62    1.91
  -7  -1  -1   53.03    1.83
  -7  -1  -1   54.56    1.70
  -7  -1  -1   44.41    1.94
  -7  -1  -1   43.16    1.78
  -7  -1  -1   47.32    1.94
   7   1   2   45.07    2.10
   7   1   2   37.78    1.87
   7   1   2   35.63    1.92
   7   1   2   32.06    1.60
  -7  -1  -2   31.82    1.63
  -7  -1  -2   31.93    1.49
  -7  -1  -2   22.42    1.71
  -7  -1  -2   24.73    1.60
   7   1   3   84.14    2.56
   7   1   3   63.45    2.37
   7   1   3   59.25    1.90
  -7  -1  -3   57.82    2.09
  -7  -1  -3   68.32    1.97
  -7  -1  -3   43.22    2.10
  -7  -1  -3   44.18    1.96
   7   1   4   25.69    1.92
   7   1   4   21.49    1.88
  -7  -1  -4   19.04    1.59
  -7  -1  -4   21.52    1.50
  -7  -1  -4   14.51    1.71
  -7  -1  -4   14.96    1.55
   7   1   5   38.84    2.21
   7   1   5   28.57    2.08
  -7  -1  -5   27.20    1.82
  -7  -1  -5   31.36    1.71
  -7  -1  -5   20.80    1.85
  -7  -1  -5   18.56    1.73
   7   1   6   36.90    2.33
   7   1   6   33.43    2.28
  -7  -1  -6   30.56    2.01
  -7  -1  -6   36.02    1.90
  -7  -1  -6   21.45    1.96
  -7  -1  -6   24.11    1.91
   7   1   7   39.71    2.48
   7   1   7   34.09    2.47
  -7  -1  -7   30.68    2.11
  -7  -1  -7   34.46    2.03
  -7  -1  -7   26.84    2.21
  -7  -1  -7   21.27    2.00
   7   1   8   33.42    2.59
   7   1   8   33.22    2.70
  -7  -1  -8   26.46    2.23
  -7  -1  -8   25.81    2.08
  -7  -1  -8   24.01    2.33
  -7  -1  -8   19.65    2.05
   7   1   9   16.03    1.75
   7   1   9   15.49    1.88
  -7  -1  -9   11.68    1.55
  -7  -1  -9   14.05    1.62
  -7  -1  -9   11.52    1.65
   7   1  10   44.33    2.95
   7   1  10   40.97    3.25
  -7  -1 -10   34.05    2.65
  -7  -1 -10   28.59    2.49
  -7  -1 -10   30.48    2.72
   8   1 -12    7.79    1.83
   8   1 -12    7.48    1.58
   8   1 -12    7.33    1.64
  -8  -1  12    6.64    1.46
  -8  -1  12    2.11    0.90
   8   1 -11    3.98    1.51
   8   1 -11    2.88    1.31
   8   1 -11    1.81    1.26
  -8  -1  11    3.34    1.18
  -8  -1  11    0.73    0.72
   8   1 -10    1.55    1.07
   8   1 -10    3.36    1.30
   8   1 -10    2.09    1.26
  -8  -1  10    4.08    1.19
  -8  -1  10    2.32    0.88
   8   1  -9    8.41    1.45
   8   1  -9   10.17    1.51
   8   1  -9    6.85    1.40
  -8  -1   9   10.62    1.36
   8   1  -8    5.41    1.32
   8   1  -8    6.00    1.29
   8   1  -8    3.46    1.11
  -8  -1   8    4.35    1.05
   8   1  -7   10.97    1.49
   8   1  -7   14.82    1.82
   8   1  -7    9.17    1.31
  -8  -1   7    9.49    1.21
   8   1  -6    6.75    1.00
   8   1  -6    9.71    1.24
   8   1  -6    6.95    1.19
  -8  -1   6    5.52    1.02
   8   1  -5    7.64    1.19
   8   1  -5   10.33    1.23
   8   1  -5    7.26    1.16
  -8  -1   5    4.56    0.95
   8   1  -4   20.69    1.93
   8   1  -4   19.83    1.82
   8   1  -4   20.79    1.70
   8   1  -4   18.07    1.69
  -8  -1   4    8.89    1.12
   8   1  -3   28.50    2.01
   8   1  -3   26.47    1.87
   8   1  -3   21.82    2.52
   8   1  -3   24.06    1.70
   8   1  -3   19.64    1.67
  -8  -1   3   15.44    1.69
   8   1  -2   34.45    2.07
   8   1  -2   32.53    1.95
   8   1  -2   26.85    1.71
   8   1  -2   26.43    1.65
   8   1  -2   23.60    1.75
  -8  -1   2   20.23    1.53
  -8  -1   2   17.70    1.37
   8   1  -1   19.86    1.88
   8   1  -1   15.43    1.60
   8   1  -1   14.65    1.48
   8   1  -1   19.98    1.66
   8   1  -1   15.73    1.50
   8   1  -1   12.29    1.29
  -8  -1   1   12.59    1.28
  -8  -1   1   13.52    1.52
  -8  -1   1   13.30    1.37
   8   1   0   23.54    2.02
   8   1   0   16.86    1.63
   8   1   0   18.07    1.62
   8   1   0   17.60    1.69
   8   1   0   12.77    1.53
  -8  -1   0   15.89    1.41
  -8  -1   0   11.54    1.18
  -8  -1   0   12.00    1.38
   8   1   1   58.04    2.50
   8   1   1   44.31    2.06
   8   1   1   49.47    2.30
   8   1   1   38.74    1.89
  -8  -1  -1   40.27    1.88
  -8  -1  -1   31.23    2.02
  -8  -1  -1   31.77    1.82
   8   1   2   75.46    2.73
   8   1   2   59.89    2.52
   8   1   2   52.95    2.03
  -8  -1  -2   56.28    2.20
  -8  -1  -2   42.76    2.30
  -8  -1  -2   41.63    2.05
   8   1   3   47.15    2.48
   8   1   3   36.43    2.35
  -8  -1  -3   34.30    1.98
  -8  -1  -3   26.85    2.15
  -8  -1  -3   25.19    1.85
   8   1   4   17.95    2.14
   8   1   4   15.34    1.59
  -8  -1  -4   15.38    1.77
  -8  -1  -4   13.14    1.55
  -8  -1  -4    9.71    1.23
   8   1   5   14.48    1.60
   8   1   5   16.04    1.73
  -8  -1  -5   13.93    1.51
  -8  -1  -5   11.49    1.48
  -8  -1  -5    9.31    1.32
   8   1   6   43.84    2.73
   8   1   6   37.57    2.83
  -8  -1  -6   32.28    2.31
  -8  -1  -6   27.15    2.47
  -8  -1  -6   20.00    2.11
   8   1   7   52.40    2.95
   8   1   7   42.14    3.09
  -8  -1  -7   34.42    2.50
  -8  -1  -7   34.23    2.70
   8   1   8   33.93    2.80
   8   1   8   29.64    3.00
  -8  -1  -8   20.42    2.34
  -8  -1  -8   21.12    2.11
   9   1 -10    0.78    1.51
   9   1 -10   -0.68    1.19
   9   1 -10    1.23    1.33
  -9  -1  10    1.74    1.20
  -9  -1  10    0.68    0.86
   9   1  -9    0.30    1.27
   9   1  -9    0.13    1.17
   9   1  -9   -0.69    1.12
  -9  -1   9    0.03    1.10
   9   1  -8    1.18    1.30
   9   1  -8    2.65    1.20
   9   1  -8    1.44    1.24
  -9  -1   8    1.10    1.08
   9   1  -7    4.36    1.38
   9   1  -7    6.32    1.30
   9   1  -7    2.05    1.24
  -9  -1   7    2.64    1.14
   9   1  -6    7.60    1.47
   9   1  -6    9.47    1.42
   9   1  -6    5.56    1.30
  -9  -1   6    6.04    1.19
   9   1  -5    4.87    1.26
   9   1  -5    5.07    1.16
   9   1  -5    2.84    1.17
  -9  -1   5    4.09    1.04
   9   1  -4    2.47    1.19
   9   1  -4    5.18    1.21
   9   1  -4    4.69    1.14
   9   1  -4    2.01    1.14
  -9  -1   4    2.11    0.98
   9   1  -3   20.71    2.22
   9   1  -3   19.93    2.05
   9   1  -3   20.17    1.84
   9   1  -3   12.98    1.54
  -9  -1   3   11.92    1.40
   9   1  -2   50.96    2.61
   9   1  -2   40.39    2.35
   9   1  -2   28.35    2.08
  -9  -1   2   31.39    2.14
   9   1  -1   35.62    2.37
   9   1  -1   28.33    2.11
   9   1  -1   30.58    2.13
   9   1  -1   23.63    1.93
  -9  -1   1   21.98    1.96
  -9  -1   1   20.58    1.96
   9   1   0   30.71    2.39
   9   1   0   26.39    2.14
   9   1   0   20.78    1.79
  -9  -1   0   18.83    1.97
  -9  -1   0   17.82    1.73
   9   1   1   15.50    1.66
   9   1   1   20.04    2.15
   9   1   1   12.09    1.39
  -9  -1  -1   17.47    1.74
  -9  -1  -1   11.14    1.39
  -9  -1  -1    9.28    1.19
   9   1   2   19.41    2.34
   9   1   2   19.92    2.32
  -9  -1  -2   15.45    1.81
  -9  -1  -2   12.54    1.51
  -9  -1  -2   10.10    1.31
   9   1   3   32.32    2.63
   9   1   3   27.61    2.64
  -9  -1  -3   23.96    2.10
  -9  -1  -3   22.13    2.31
  -9  -1  -3   14.68    1.57
   9   1   4   31.45    2.65
   9   1   4   23.00    2.61
  -9  -1  -4   18.02    2.12
  -9  -1  -4   16.68    1.85
  -9  -1  -4   11.69    1.54
   9   1   5   11.40    1.64
   9   1   5    9.55    1.66
  -9  -1  -5    7.17    1.35
  -9  -1  -5    6.88    1.52
   9   1   6    7.77    1.57
   9   1   6    3.79    1.51
  -9  -1  -6    3.87    1.30
  -9  -1  -6    2.61    1.41
  10   1  -6    8.06    1.71
  10   1  -6    9.58    1.58
  10   1  -6    5.51    1.52
 -10  -1   6    6.37    1.39
  10   1  -5   14.52    1.87
  10   1  -5   10.69    1.68
 -10  -1   5   11.04    1.45
  10   1  -4   11.15    1.70
  10   1  -4    7.07    1.51
 -10  -1   4    6.30    1.32
  10   1  -3    7.90    1.55
  10   1  -3    8.19    1.50
  10   1  -3    7.63    1.51
 -10  -1   3    5.87    1.32
  10   1  -2   10.20    1.64
  10   1  -2    7.98    1.45
 -10  -1   2    6.91    1.36
  10   1  -1    8.08    1.63
  10   1  -1    7.31    1.35
 -10  -1   1    7.14    1.46
  10   1   0    5.14    1.52
  10   1   0    5.95    1.37
 -10  -1   0    6.47    1.27
  10   1   1   16.18    1.89
  10   1   1   12.42    1.74
 -10  -1  -1    9.57    1.55
 -10  -1  -1    9.39    1.50
 -10   2  -2    6.10    1.24
 -10   2  -2    2.47    0.91
 -10   2  -2    5.62    1.15
  10  -2   2    3.26    1.32
  10  -2   2    3.47    1.44
  10  -2   2    5.32    1.28
  10  -2   2    3.82    1.07
  10  -2   2    5.11    1.42
 -10   2  -1    5.75    1.20
 -10   2  -1    5.72    1.19
  10  -2   1    3.78    1.41
  10  -2   1    6.60    1.52
  10  -2   1    6.89    1.33
  10  -2   1    7.04    1.51
 -10   2   0    9.25    1.34
 -10   2   0    8.71    1.35
  10  -2   0   11.46    1.64
  10  -2   0    8.64    1.55
  10  -2   0   11.87    1.71
  10  -2   0   10.53    1.59
 -10   2   1    8.57    1.35
 -10   2   1    8.48    1.35
  10  -2  -1   11.94    1.67
  10  -2  -1    9.23    1.51
  10  -2  -1   13.28    1.72
  10  -2  -1   12.14    1.72
 -10   2   2   10.37    1.49
 -10   2   2    4.86    0.96
  10  -2  -2   12.98    1.72
  10  -2  -2   14.22    1.78
  10  -2  -2   11.93    1.76
  10  -2  -2    9.26    1.45
 -10   2   3    7.78    1.41
 -10   2   3    4.92    1.03
  10  -2  -3   13.71    1.87
  10  -2  -3   12.63    1.73
  10  -2  -3   11.10    1.73
  10  -2  -3   10.40    1.56
 -10   2   4    7.04    1.39
 -10   2   4    3.62    1.00
  10  -2  -4    5.97    1.65
  10  -2  -4    6.33    1.54
  10  -2  -4    8.15    1.62
  10  -2  -4    4.06    1.38
  -9   2  -7   -0.66    1.12
  -9   2  -7   -0.23    1.03
   9  -2   7    0.95    1.24
   9  -2   7    0.58    1.26
  -9   2  -6   -1.78    0.99
  -9   2  -6   -0.26    0.95
   9  -2   6   -0.09    1.18
   9  -2   6   -0.56    1.11
  -9   2  -5    2.78    1.24
  -9   2  -5    1.62    1.00
  -9   2  -5   -0.49    0.79
   9  -2   5    1.38    1.15
   9  -2   5    2.92    1.18
   9  -2   5    2.20    1.07
  -9   2  -4   10.48    1.36
  -9   2  -4    5.73    1.13
  -9   2  -4    8.56    1.22
   9  -2   4   10.44    1.52
   9  -2   4    7.78    1.49
   9  -2   4   10.44    1.51
   9  -2   4    9.21    1.28
  -9   2  -3   17.70    1.87
  -9   2  -3    9.77    1.22
  -9   2  -3   17.76    1.69
   9  -2   3   17.87    1.81
   9  -2   3   16.81    1.75
   9  -2   3   22.26    2.21
   9  -2   3   18.43    1.93
  -9   2  -2   30.48    2.01
  -9   2  -2   23.44    1.84
  -9   2  -2   24.73    1.83
   9  -2   2   33.68    2.61
   9  -2   2   31.86    2.48
   9  -2   2   35.47    2.36
   9  -2   2   31.52    2.12
   9  -2   2   37.40    2.35
  -9   2  -1   33.00    1.94
  -9   2  -1   24.64    1.80
  -9   2  -1   28.83    1.94
   9  -2   1   47.65    2.46
   9  -2   1   35.33    2.51
   9  -2   1   42.09    2.59
   9  -2   1   39.72    2.34
   9  -2   1   36.45    2.16
   9  -2   1   40.97    2.44
  -9   2   0   33.94    2.00
  -9   2   0   25.58    1.90
  -9   2   0   33.81    2.05
  -9   2   0   14.96    1.35
   9  -2   0   48.62    2.50
   9  -2   0   45.36    2.51
   9  -2   0   48.55    2.56
   9  -2   0   39.91    2.31
   9  -2   0   36.30    2.12
   9  -2   0   42.79    2.42
   9  -2   0   31.98    1.94
  -9   2   1   23.40    1.90
  -9   2   1   10.04    1.14
   9  -2  -1   35.57    2.35
   9  -2  -1   35.99    2.34
   9  -2  -1   38.42    2.42
   9  -2  -1   31.76    2.35
   9  -2  -1   21.94    1.85
  -9   2   2    6.68    1.18
  -9   2   2    4.79    0.89
   9  -2  -2   11.27    1.41
   9  -2  -2   11.62    1.35
   9  -2  -2   11.65    1.50
   9  -2  -2    9.16    1.45
   9  -2  -2    7.32    1.26
  -9   2   3    4.62    1.19
  -9   2   3    1.93    0.76
   9  -2  -3    6.25    1.34
   9  -2  -3    5.53    1.11
   9  -2  -3    7.06    1.40
   9  -2  -3    2.66    1.28
   9  -2  -3    4.19    1.14
  -9   2   4    3.13    0.85
   9  -2  -4    4.50    1.41
   9  -2  -4    6.24    1.38
   9  -2  -4    4.55    1.34
   9  -2  -4    3.40    1.17
  -9   2   5    1.23    0.78
   9  -2  -5    1.15    1.20
   9  -2  -5    2.53    1.27
   9  -2  -5    0.38    1.22
   9  -2  -5    0.80    1.12
  -9   2   6    0.94    0.77
   9  -2  -6    1.12    1.28
   9  -2  -6    6.04    1.42
   9  -2  -6    3.19    1.36
   9  -2  -6    0.99    1.22
  -9   2   7    0.15    0.78
   9  -2  -7    0.13    1.26
   9  -2  -7    2.48    1.27
   9  -2  -7    1.91    1.36
  -9   2   8    0.30    0.83
   9  -2  -8    0.30    1.49
   9  -2  -8    2.10    1.43
   9  -2  -8    0.96    1.38
  -8   2 -10    0.44    1.13
  -8   2 -10    0.62    1.17
   8  -2  10    0.85    1.18
   8  -2  10   -0.70    1.34
   8  -2  10   -1.66    1.26
  -8   2  -9    0.88    1.04
  -8   2  -9    0.75    1.02
   8  -2   9   -0.69    1.02
   8  -2   9    0.84    1.37
   8  -2   9    0.00    1.18
  -8   2  -8    3.51    1.20
  -8   2  -8    3.14    1.11
   8  -2   8    2.11    1.05
   8  -2   8    2.96    1.28
   8  -2   8    0.80    1.13
   8  -2   8    1.10    1.66
  -8   2  -7    1.23    1.13
  -8   2  -7    1.99    0.99
  -8   2  -7    0.16    0.90
  -8   2  -7    0.41    0.94
   8  -2   7    0.99    0.93
   8  -2   7    0.48    1.09
   8  -2   7    1.89    1.06
   8  -2   7    1.14    0.96
  -8   2  -6    5.17    1.28
  -8   2  -6    7.20    1.18
  -8   2  -6    2.93    1.05
  -8   2  -6    6.36    1.03
   8  -2   6    7.92    1.12
   8  -2   6    6.96    1.30
   8  -2   6    6.15    1.26
   8  -2   6    5.81    1.16
  -8   2  -5   22.77    1.86
  -8   2  -5   14.62    1.71
  -8   2  -5   26.58    1.70
   8  -2   5   35.28    2.05
   8  -2   5   24.93    2.28
   8  -2   5   23.09    2.26
   8  -2   5   26.84    2.27
   8  -2   5   26.62    2.09
  -8   2  -4   57.31    2.37
  -8   2  -4   45.26    2.17
  -8   2  -4   56.25    2.15
   8  -2   4   81.44    2.55
   8  -2   4   68.59    2.87
   8  -2   4   63.62    2.74
   8  -2   4   63.52    2.79
   8  -2   4   63.36    2.61
  -8   2  -3   80.03    2.47
  -8   2  -3   92.71    2.72
  -8   2  -3   87.25    2.52
   8  -2   3  132.32    3.02
   8  -2   3  117.84    3.29
   8  -2   3  110.18    3.13
   8  -2   3  103.50    3.12
   8  -2   3   94.27    2.88
   8  -2   3  109.02    2.97
  -8   2  -2   57.39    2.07
  -8   2  -2   59.36    2.21
   8  -2   2   83.17    2.52
   8  -2   2   76.29    2.74
   8  -2   2   76.22    2.72
   8  -2   2   71.78    2.64
   8  -2   2   68.01    2.44
   8  -2   2   74.41    2.58
  -8   2  -1   43.92    1.89
  -8   2  -1   38.75    1.97
  -8   2  -1   21.64    1.32
   8  -2   1   61.98    2.29
   8  -2   1   65.38    2.55
   8  -2   1   61.96    2.52
   8  -2   1   56.74    2.34
   8  -2   1   47.95    2.11
   8  -2   1   59.22    2.38
   8  -2   1   44.98    1.87
  -8   2   0   21.60    1.60
  -8   2   0   14.84    1.20
   8  -2   0   37.73    2.02
   8  -2   0   39.35    2.15
   8  -2   0   36.30    2.15
   8  -2   0   32.45    1.93
   8  -2   0   30.58    1.75
   8  -2   0   31.24    2.01
   8  -2   0   26.02    1.67
  -8   2   1    7.80    1.07
  -8   2   1    5.11    0.82
   8  -2  -1   10.25    1.22
   8  -2  -1   12.53    1.27
   8  -2  -1   12.48    1.36
   8  -2  -1   10.90    1.14
   8  -2  -1    8.84    0.98
   8  -2  -1    9.99    1.31
   8  -2  -1    8.59    1.11
  -8   2   2    4.99    1.08
  -8   2   2    2.79    0.71
   8  -2  -2    4.88    1.11
   8  -2  -2    6.92    1.09
   8  -2  -2    5.97    1.17
   8  -2  -2    5.48    1.44
   8  -2  -2    5.27    1.15
   8  -2  -2    6.54    1.08
  -8   2   3    2.30    0.71
   8  -2  -3    2.70    1.01
   8  -2  -3    5.86    1.05
   8  -2  -3    3.93    1.15
   8  -2  -3    2.66    1.07
   8  -2  -3    4.28    1.07
  -8   2   4    1.55    0.69
   8  -2  -4    3.02    1.07
   8  -2  -4    3.77    0.99
   8  -2  -4    4.36    1.14
   8  -2  -4    4.09    1.18
   8  -2  -4    2.36    1.04
  -8   2   5    3.57    0.83
   8  -2  -5    6.45    1.29
   8  -2  -5   11.19    1.27
   8  -2  -5   12.15    1.43
   8  -2  -5   10.58    1.46
   8  -2  -5    5.66    1.19
  -8   2   6    1.59    0.76
   8  -2  -6    4.51    1.14
   8  -2  -6    7.66    1.30
   8  -2  -6    8.60    1.37
   8  -2  -6    2.99    1.15
  -8   2   7    2.91    0.84
   8  -2  -7    7.30    1.41
   8  -2  -7    9.45    1.43
   8  -2  -7    7.95    1.44
   8  -2  -7    5.02    1.27
  -8   2   8    1.58    0.78
   8  -2  -8    6.54    1.48
   8  -2  -8    6.83    1.38
   8  -2  -8    6.30    1.41
  -8   2   9    1.09    0.75
   8  -2  -9    2.28    1.35
   8  -2  -9    1.67    1.26
   8  -2  -9    2.44    1.24
  -8   2  10    1.49    0.87
   8  -2 -10    4.21    1.71
   8  -2 -10    6.73    1.57
   8  -2 -10    6.72    1.46
  -8   2  11    1.23    0.89
   8  -2 -11    0.26    1.56
   8  -2 -11    0.87    1.44
   8  -2 -11    3.84    1.50
  -7   2 -12    2.26    1.24
  -7   2 -12    3.08    1.39
   7  -2  12    5.59    1.42
   7  -2  12    1.03    1.44
  -7   2 -11    2.58    1.11
  -7   2 -11    2.15    1.22
   7  -2  11    4.03    1.25
   7  -2  11    2.17    1.34
  -7   2 -10    0.15    0.90
  -7   2 -10    0.36    0.98
  -7   2 -10   -0.82    0.88
   7  -2  10    1.37    1.09
   7  -2  10   -0.79    1.12
   7  -2  10   -0.50    1.07
   7  -2  10    0.45    1.04
  -7   2  -9    0.75    0.92
  -7   2  -9    2.11    0.98
  -7   2  -9   -0.97    0.79
  -7   2  -9    0.51    0.88
   7  -2   9    0.92    0.97
   7  -2   9    0.66    1.08
   7  -2   9    0.87    1.07
   7  -2   9    0.96    0.99
  -7   2  -8   11.45    1.45
  -7   2  -8   14.38    1.72
  -7   2  -8    7.78    1.14
  -7   2  -8   14.53    1.55
   7  -2   8   19.49    1.94
   7  -2   8   13.05    1.49
   7  -2   8   14.03    1.51
   7  -2   8   13.29    1.48
  -7   2  -7   29.04    2.05
  -7   2  -7   35.10    2.03
  -7   2  -7   29.96    1.74
   7  -2   7   38.91    2.12
   7  -2   7   34.07    2.28
   7  -2   7   35.16    2.30
   7  -2   7   32.76    2.18
  -7   2  -6   60.97    2.35
  -7   2  -6   60.38    2.09
   7  -2   6   77.85    2.49
   7  -2   6   65.91    2.67
   7  -2   6   65.76    2.62
   7  -2   6   64.99    2.55
  -7   2  -5   92.35    2.62
  -7   2  -5   95.62    2.47
   7  -2   5  124.12    2.79
   7  -2   5  105.08    3.05
   7  -2   5  107.80    3.00
   7  -2   5  104.51    2.95
   7  -2   5  101.08    2.89
  -7   2  -4   96.75    2.16
  -7   2  -4  104.68    2.70
  -7   2  -4  102.39    2.50
   7  -2   4  148.67    2.88
   7  -2   4  124.28    3.13
   7  -2   4  124.98    3.06
   7  -2   4  119.31    2.99
   7  -2   4  117.54    2.97
  -7   2  -3  100.30    2.26
  -7   2  -3  115.46    2.74
  -7   2  -3  105.56    2.51
   7  -2   3  160.73    2.87
   7  -2   3  143.97    3.18
   7  -2   3  142.92    3.14
   7  -2   3  125.12    2.96
   7  -2   3  121.33    2.89
   7  -2   3  134.32    2.94
  -7   2  -2   70.37    1.99
  -7   2  -2   72.12    2.12
  -7   2  -2   38.23    1.39
   7  -2   2  116.10    2.49
   7  -2   2  105.09    2.46
   7  -2   2  106.46    2.75
   7  -2   2  101.94    2.70
   7  -2   2   93.98    2.54
   7  -2   2   89.71    2.49
   7  -2   2  100.48    2.60
   7  -2   2   81.28    1.98
  -7   2  -1   20.95    1.33
  -7   2  -1   18.17    1.47
  -7   2  -1   12.60    1.02
   7  -2   1   33.02    1.67
   7  -2   1   33.84    1.69
   7  -2   1   35.47    1.89
   7  -2   1   31.57    1.89
   7  -2   1   28.06    1.69
   7  -2   1   28.65    1.63
   7  -2   1   30.08    1.78
   7  -2   1   24.86    1.42
  -7   2   0    7.48    0.92
  -7   2   0    5.13    0.72
   7  -2   0   14.19    1.33
   7  -2   0   12.45    1.41
   7  -2   0   14.96    1.55
   7  -2   0   12.87    1.59
   7  -2   0   11.35    1.35
   7  -2   0   11.55    1.27
   7  -2   0   10.54    1.17
   7  -2   0    9.59    1.01
  -7   2   1    5.48    0.75
  -7   2   1    3.73    0.88
  -7   2   1    3.09    0.65
   7  -2  -1    7.79    0.87
   7  -2  -1    5.10    0.97
   7  -2  -1    7.76    1.03
   7  -2  -1    6.45    1.04
   7  -2  -1    5.94    0.83
   7  -2  -1    6.37    0.84
   7  -2  -1    7.21    1.04
   7  -2  -1    5.55    0.90
  -7   2   2    0.12    0.46
   7  -2  -2   -1.59    0.71
   7  -2  -2   -0.84    0.63
   7  -2  -2    0.05    0.73
   7  -2  -2   -1.17    0.78
   7  -2  -2    0.10    0.56
   7  -2  -2   -0.51    0.47
   7  -2  -2    0.07    0.77
   7  -2  -2   -0.08    0.73
  -7   2   3    0.39    0.51
   7  -2  -3   -0.57    0.68
   7  -2  -3   -1.08    0.75
   7  -2  -3   -2.02    0.80
   7  -2  -3    0.39    0.86
   7  -2  -3    0.47    0.50
   7  -2  -3   -0.28    0.78
   7  -2  -3   -0.34    0.76
  -7   2   4   17.92    1.32
   7  -2  -4   44.12    2.08
   7  -2  -4   48.00    2.05
   7  -2  -4   49.07    2.21
   7  -2  -4   44.84    2.09
   7  -2  -4   34.12    1.86
  -7   2   5    9.59    1.07
   7  -2  -5   30.27    2.06
   7  -2  -5   27.90    1.84
   7  -2  -5   30.10    2.01
   7  -2  -5   29.50    1.99
   7  -2  -5   18.28    1.69
  -7   2   6   11.31    1.26
   7  -2  -6   29.59    2.12
   7  -2  -6   32.25    1.93
   7  -2  -6   28.89    2.09
   7  -2  -6   31.67    2.07
   7  -2  -6   20.42    1.80
  -7   2   7    6.87    0.97
   7  -2  -7   26.26    2.13
   7  -2  -7   25.31    1.95
   7  -2  -7   25.24    2.11
   7  -2  -7   21.11    1.89
   7  -2  -7   18.21    1.79
  -7   2   8    4.59    0.84
   7  -2  -8   10.19    1.39
   7  -2  -8   12.75    1.46
   7  -2  -8   19.18    1.91
  -7   2   9    2.14    0.75
   7  -2  -9    4.44    1.26
   7  -2  -9    5.90    1.30
   7  -2  -9    4.54    1.23
  -7   2  10    1.17    0.72
   7  -2 -10    1.55    1.29
   7  -2 -10    0.96    1.24
   7  -2 -10    0.66    1.13
  -7   2  11    0.94    0.79
   7  -2 -11    0.38    1.40
   7  -2 -11    2.83    1.31
   7  -2 -11    1.47    1.21
  -7   2  12    0.49    0.85
   7  -2 -12   -1.40    1.53
   7  -2 -12    0.09    1.37
   7  -2 -12    1.03    1.31
  -6   2 -13   -0.95    1.05
  -6   2 -13   -1.48    1.19
   6  -2  13    0.94    1.27
   6  -2  13   -0.20    1.31
  -6   2 -12    0.20    0.98
  -6   2 -12    1.09    1.12
  -6   2 -12   -0.37    0.85
   6  -2  12    0.41    1.14
   6  -2  12    0.43    1.18
   6  -2  12   -0.18    1.02
  -6   2 -11    0.55    0.93
  -6   2 -11    0.38    0.94
  -6   2 -11   -0.43    0.83
  -6   2 -11   -0.37    0.99
   6  -2  11    1.11    1.05
   6  -2  11   -0.32    1.07
   6  -2  11   -0.12    1.00
   6  -2  11    0.68    0.92
  -6   2 -10    5.41    1.04
  -6   2 -10    6.43    1.17
  -6   2 -10    4.65    1.11
  -6   2 -10    8.40    1.19
   6  -2  10    8.31    1.22
   6  -2  10    8.24    1.41
   6  -2  10    7.61    1.31
   6  -2  10    7.33    1.19
  -6   2  -9   37.49    2.10
  -6   2  -9   42.50    2.17
  -6   2  -9   45.47    2.03
   6  -2   9   50.43    2.32
   6  -2   9   41.92    2.39
   6  -2   9   43.80    2.47
   6  -2   9   41.26    2.32
  -6   2  -8  139.62    3.26
  -6   2  -8  159.22    3.35
  -6   2  -8  161.26    3.07
   6  -2   8  199.29    3.58
   6  -2   8  169.01    3.65
   6  -2   8  160.85    3.55
   6  -2   8  163.09    3.56
  -6   2  -7  122.61    2.97
  -6   2  -7  137.30    3.04
  -6   2  -7  136.50    2.79
   6  -2   7  167.55    3.19
   6  -2   7  149.82    3.34
   6  -2   7  137.84    3.19
   6  -2   7  140.13    3.24
  -6   2  -6  197.37    3.43
  -6   2  -6  200.34    3.18
   6  -2   6  257.10    3.63
   6  -2   6  231.59    3.85
   6  -2   6  209.60    3.66
   6  -2   6  213.01    3.70
  -6   2  -5  145.77    2.26
  -6   2  -5  154.00    2.95
  -6   2  -5  166.52    2.86
   6  -2   5  210.47    3.19
   6  -2   5  191.02    3.43
   6  -2   5  181.48    3.32
   6  -2   5  173.76    3.25
   6  -2   5  177.57    3.30
  -6   2  -4   49.42    1.46
  -6   2  -4   53.14    1.90
  -6   2  -4   51.97    1.72
   6  -2   4   76.71    2.02
   6  -2   4   66.85    2.20
   6  -2   4   67.21    2.18
   6  -2   4   59.92    2.10
   6  -2   4   61.08    2.11
  -6   2  -3   25.14    1.21
  -6   2  -3   26.92    1.35
  -6   2  -3   15.65    0.84
   6  -2   3   39.43    1.54
   6  -2   3   38.48    1.79
   6  -2   3   37.59    1.76
   6  -2   3   32.81    1.64
   6  -2   3   33.92    1.64
   6  -2   3   36.04    1.66
   6  -2   3   29.10    1.17
  -6   2  -2    5.04    0.68
  -6   2  -2    5.07    0.76
  -6   2  -2    3.15    0.50
   6  -2   2    9.15    1.09
   6  -2   2    5.58    0.79
   6  -2   2    7.19    0.91
   6  -2   2    6.45    0.91
   6  -2   2    5.89    0.83
   6  -2   2    7.19    0.85
   6  -2   2    5.20    0.88
   6  -2   2    6.20    0.71
  -6   2  -1    3.79    0.64
  -6   2  -1    1.86    0.47
   6  -2   1    5.19    0.66
   6  -2   1    4.06    0.77
   6  -2   1    4.55    0.79
   6  -2   1    4.08    0.84
   6  -2   1    4.53    0.72
   6  -2   1    4.81    0.74
   6  -2   1    4.38    0.83
   6  -2   1    4.40    0.71
  -6   2   0    8.50    0.99
  -6   2   0    5.46    0.66
   6  -2   0   11.13    1.21
   6  -2   0   13.73    1.33
   6  -2   0   12.31    1.33
   6  -2   0   12.53    1.13
   6  -2   0   13.75    1.13
   6  -2   0   11.45    1.24
   6  -2   0    9.04    1.08
  -6   2   1    8.53    0.86
   6  -2  -1   22.12    1.39
   6  -2  -1   20.78    1.49
   6  -2  -1   23.11    1.53
   6  -2  -1   20.20    1.22
   6  -2  -1   20.06    1.19
   6  -2  -1   21.39    1.46
   6  -2  -1   16.89    1.28
  -6   2   2   25.20    1.22
   6  -2  -2   64.67    1.96
   6  -2  -2   69.72    2.01
   6  -2  -2   70.64    2.10
   6  -2  -2   56.69    1.60
   6  -2  -2   55.34    1.57
   6  -2  -2   66.62    2.02
   6  -2  -2   51.05    1.77
  -6   2   3    5.30    0.72
   6  -2  -3   11.86    1.29
   6  -2  -3   11.91    1.34
   6  -2  -3   12.80    1.37
   6  -2  -3   10.41    0.99
   6  -2  -3    9.84    0.94
   6  -2  -3   13.36    1.37
   6  -2  -3    8.76    1.00
  -6   2   4    6.75    0.80
   6  -2  -4   18.02    1.55
   6  -2  -4   15.85    1.46
   6  -2  -4   15.03    1.51
   6  -2  -4   13.28    0.95
   6  -2  -4   16.88    1.52
   6  -2  -4   12.30    1.35
  -6   2   5   57.34    1.89
   6  -2  -5  142.14    3.02
   6  -2  -5  163.06    2.84
   6  -2  -5  155.29    3.07
   6  -2  -5  145.80    3.04
   6  -2  -5  107.49    2.65
  -6   2   6   45.64    1.62
  -6   2   6   23.10    1.40
   6  -2  -6   55.92    2.23
   6  -2  -6   68.03    2.13
   6  -2  -6   59.12    2.22
   6  -2  -6   54.61    2.15
   6  -2  -6   41.97    1.96
  -6   2   7   18.31    1.42
  -6   2   7    7.85    0.95
   6  -2  -7   20.46    1.80
   6  -2  -7   25.13    1.65
   6  -2  -7   23.24    1.81
   6  -2  -7   21.35    1.70
  -6   2   8    5.14    0.84
   6  -2  -8    9.93    1.27
   6  -2  -8   14.97    1.62
   6  -2  -8   11.68    1.43
   6  -2  -8   12.00    1.37
  -6   2   9    4.60    0.86
   6  -2  -9    9.18    1.40
   6  -2  -9   11.95    1.70
   6  -2  -9    9.58    1.37
   6  -2  -9    9.12    1.32
  -6   2  10    0.65    0.65
   6  -2 -10   -1.49    1.02
   6  -2 -10    1.02    1.03
   6  -2 -10   -1.40    0.87
  -6   2  11    0.55    0.69
   6  -2 -11    1.19    1.34
   6  -2 -11    2.60    1.21
   6  -2 -11    1.25    1.13
  -6   2  12    0.51    0.80
   6  -2 -12   -0.39    1.38
   6  -2 -12    3.00    1.26
   6  -2 -12    1.39    1.23
  -6   2  13   -0.47    0.77
   6  -2 -13    0.97    1.56
   6  -2 -13    1.87    1.29
   6  -2 -13    1.48    1.30
  -5   2 -14   -0.18    1.08
  -5   2 -14   -1.46    1.21
   5  -2  14   -1.09    1.21
   5  -2  14   -1.54    1.21
   5  -2  14   -0.41    1.34
  -5   2 -13    1.90    1.08
  -5   2 -13    3.15    1.17
  -5   2 -13    0.67    0.89
  -5   2 -13    1.71    1.21
   5  -2  13    2.39    1.20
   5  -2  13    3.25    1.28
   5  -2  13    2.33    1.07
  -5   2 -12    4.31    1.04
  -5   2 -12    5.93    1.17
  -5   2 -12    2.46    0.91
  -5   2 -12    5.58    1.22
   5  -2  12    6.18    1.29
   5  -2  12    7.88    1.35
   5  -2  12    5.92    1.18
  -5   2 -11   25.18    1.87
  -5   2 -11   29.49    2.04
  -5   2 -11   20.80    1.76
  -5   2 -11   34.22    2.04
   5  -2  11   33.13    2.21
   5  -2  11   31.00    2.18
   5  -2  11   35.65    2.34
   5  -2  11   29.90    2.09
  -5   2 -10   65.45    2.38
  -5   2 -10   77.10    2.59
  -5   2 -10   71.36    2.38
   5  -2  10   88.38    2.74
   5  -2  10   79.26    2.75
   5  -2  10   80.31    2.76
   5  -2  10   80.42    2.69
  -5   2  -9   95.95    2.67
  -5   2  -9  111.58    2.85
  -5   2  -9  112.77    2.67
   5  -2   9  130.93    2.98
   5  -2   9  120.88    3.08
   5  -2   9  110.40    2.93
   5  -2   9  112.40    2.95
  -5   2  -8  226.52    3.71
  -5   2  -8  259.45    3.91
  -5   2  -8  271.04    3.66
   5  -2   8  318.64    4.07
   5  -2   8  279.74    4.21
   5  -2   8  263.72    4.06
   5  -2   8  269.98    4.10
  -5   2  -7  263.17    3.75
  -5   2  -7  279.74    3.56
   5  -2   7  317.18    3.84
   5  -2   7  295.01    4.10
   5  -2   7  270.48    3.97
   5  -2   7  268.04    3.93
  -5   2  -6   47.84    1.26
  -5   2  -6   51.33    1.81
  -5   2  -6   54.35    1.71
   5  -2   6   60.66    1.87
   5  -2   6   57.67    2.06
   5  -2   6   53.20    2.02
   5  -2   6   54.53    1.97
  -5   2  -5   39.20    1.18
  -5   2  -5   41.56    1.57
  -5   2  -5   43.99    1.49
   5  -2   5   55.10    1.68
   5  -2   5   51.51    1.85
   5  -2   5   47.14    1.79
   5  -2   5   47.67    1.81
   5  -2   5   47.44    1.74
  -5   2  -4    9.26    0.79
  -5   2  -4    8.84    0.89
  -5   2  -4    8.67    0.91
  -5   2  -4    5.29    0.50
   5  -2   4   12.98    1.08
   5  -2   4   11.46    1.26
   5  -2   4   11.59    1.22
   5  -2   4   11.49    1.18
   5  -2   4   13.16    1.17
  -5   2  -3    0.10    0.36
  -5   2  -3   -0.29    0.39
  -5   2  -3    0.08    0.27
   5  -2   3   -0.07    0.44
   5  -2   3    0.44    0.57
   5  -2   3   -0.50    0.57
   5  -2   3    0.46    0.50
   5  -2   3    0.60    0.48
   5  -2   3   -0.08    0.57
   5  -2   3   -0.14    0.37
  -5   2  -2    1.52    0.43
  -5   2  -2    2.56    0.57
  -5   2  -2    1.05    0.35
   5  -2   2    2.93    0.50
   5  -2   2    1.86    0.54
   5  -2   2    2.80    0.64
   5  -2   2    2.00    0.65
   5  -2   2    2.84    0.58
   5  -2   2    2.64    0.57
   5  -2   2    2.58    0.65
   5  -2   2    1.74    0.47
  -5   2  -1   29.72    1.14
  -5   2  -1   17.96    0.86
   5  -2   1   45.53    1.43
   5  -2   1   47.11    1.60
   5  -2   1   43.45    1.59
   5  -2   1   42.38    1.40
   5  -2   1   42.33    1.41
   5  -2   1   43.52    1.51
   5  -2   1   35.76    1.20
  -5   2   0   36.55    1.29
  -5   2   0   21.18    0.95
   5  -2   0   57.88    1.59
   5  -2   0   60.64    1.72
   5  -2   0   56.50    1.73
   5  -2   0   53.33    1.46
   5  -2   0   53.27    1.47
   5  -2   0   57.14    1.66
   5  -2   0   46.30    1.39
  -5   2   1   66.41    1.56
   5  -2  -1  173.90    2.60
   5  -2  -1  178.55    2.61
   5  -2  -1  174.51    2.69
   5  -2  -1  151.33    2.19
   5  -2  -1  149.68    2.17
   5  -2  -1  169.16    2.64
   5  -2  -1  135.64    2.23
  -5   2   2  114.31    2.08
   5  -2  -2  285.50    3.38
   5  -2  -2  294.94    3.26
   5  -2  -2  291.29    3.41
   5  -2  -2  247.34    2.61
   5  -2  -2  240.14    2.57
   5  -2  -2  280.91    3.38
   5  -2  -2  224.43    2.93
  -5   2   3  107.89    2.13
   5  -2  -3  273.51    3.45
   5  -2  -3  285.33    3.21
   5  -2  -3  278.81    3.40
   5  -2  -3  231.08    2.40
   5  -2  -3  222.28    2.36
   5  -2  -3  270.71    3.43
   5  -2  -3  212.60    3.00
  -5   2   4   23.29    1.17
   5  -2  -4   56.23    1.87
   5  -2  -4   61.99    1.74
   5  -2  -4   58.70    1.87
   5  -2  -4   48.98    1.19
   5  -2  -4   47.49    1.18
   5  -2  -4   57.80    1.88
   5  -2  -4   45.54    1.68
  -5   2   5   13.47    1.03
   5  -2  -5   29.72    1.57
   5  -2  -5   33.46    1.47
   5  -2  -5   31.55    1.59
   5  -2  -5   29.29    1.55
   5  -2  -5   24.16    1.45
  -5   2   6   47.71    1.45
  -5   2   6   23.84    1.28
   5  -2  -6   49.98    1.96
   5  -2  -6   61.94    1.82
   5  -2  -6   57.84    1.99
   5  -2  -6   52.35    1.88
  -5   2   7   14.34    1.24
  -5   2   7    7.90    0.98
   5  -2  -7   13.79    1.57
   5  -2  -7   22.79    1.50
   5  -2  -7   18.28    1.53
   5  -2  -7   14.75    1.47
  -5   2   8    2.50    0.74
  -5   2   8    2.00    0.62
   5  -2  -8    2.20    0.96
   5  -2  -8    4.18    0.82
   5  -2  -8    3.41    0.91
   5  -2  -8    2.67    0.87
  -5   2   9    7.77    0.97
  -5   2   9    3.30    0.74
   5  -2  -9    6.03    1.17
   5  -2  -9    9.76    1.07
   5  -2  -9    7.89    1.14
   5  -2  -9    6.96    1.14
  -5   2  10   14.18    1.74
  -5   2  10    6.13    0.96
   5  -2 -10   12.10    1.52
   5  -2 -10   18.65    1.71
   5  -2 -10   17.68    1.87
   5  -2 -10   15.35    1.84
  -5   2  11    0.41    0.87
  -5   2  11    0.15    0.63
   5  -2 -11    0.52    1.05
   5  -2 -11    2.10    1.04
   5  -2 -11    1.03    0.97
  -5   2  12    1.46    1.06
  -5   2  12    0.60    0.79
   5  -2 -12    4.01    1.32
   5  -2 -12    4.50    1.24
   5  -2 -12    3.50    1.18
  -5   2  13    3.10    1.48
  -5   2  13    0.54    0.79
   5  -2 -13    2.70    1.37
   5  -2 -13    2.30    1.18
   5  -2 -13    1.97    1.23
  -5   2  14    0.03    0.87
   5  -2 -14    3.16    1.56
   5  -2 -14    2.44    1.34
   5  -2 -14    4.28    1.50
  -4   2 -15   -0.21    1.12
  -4   2 -15    0.05    1.31
  -4   2 -15    1.01    0.92
  -4   2 -15    1.13    1.28
   4  -2  15    1.43    1.30
   4  -2  15    1.06    1.26
   4  -2  15    0.34    1.06
  -4   2 -14    1.92    1.07
  -4   2 -14    1.56    1.20
  -4   2 -14    0.91    0.89
  -4   2 -14    4.47    1.34
   4  -2  14    1.16    1.14
   4  -2  14    2.50    1.23
   4  -2  14    1.26    1.01
  -4   2 -13   30.37    2.12
  -4   2 -13   28.34    2.15
  -4   2 -13   23.36    1.84
  -4   2 -13   31.67    2.23
   4  -2  13   32.47    2.42
   4  -2  13   39.32    2.45
   4  -2  13   37.41    2.29
  -4   2 -12   52.56    2.29
  -4   2 -12   59.05    2.49
  -4   2 -12   41.54    2.09
  -4   2 -12   58.17    2.42
   4  -2  12   57.48    2.56
   4  -2  12   61.16    2.68
   4  -2  12   62.55    2.53
  -4   2 -11  116.27    2.93
  -4   2 -11  130.34    3.17
  -4   2 -11  133.50    3.01
   4  -2  11  135.69    3.20
   4  -2  11  139.94    3.25
   4  -2  11  136.88    3.20
  -4   2 -10  150.45    3.09
  -4   2 -10  174.40    3.38
  -4   2 -10  182.52    3.24
   4  -2  10  188.41    3.42
   4  -2  10  188.92    3.55
   4  -2  10  182.56    3.45
   4  -2  10  181.86    3.43
  -4   2  -9   91.77    2.42
  -4   2  -9  103.99    2.58
  -4   2  -9  109.24    2.50
   4  -2   9  115.93    2.62
   4  -2   9  108.11    2.72
   4  -2   9  108.20    2.66
   4  -2   9  104.99    2.62
  -4   2  -8   80.94    2.20
  -4   2  -8   90.02    2.27
  -4   2  -8   94.42    2.19
   4  -2   8  101.40    2.31
   4  -2   8   96.80    2.46
   4  -2   8   89.57    2.35
   4  -2   8   91.22    2.35
  -4   2  -7   68.49    1.36
  -4   2  -7   67.80    1.92
  -4   2  -7   69.90    1.82
   4  -2   7   75.69    1.93
   4  -2   7   73.22    2.09
   4  -2   7   69.57    2.05
   4  -2   7   67.11    1.98
  -4   2  -6   37.61    1.05
  -4   2  -6   36.19    1.42
  -4   2  -6   39.12    1.38
   4  -2   6   42.28    1.46
   4  -2   6   43.63    1.65
   4  -2   6   39.84    1.56
   4  -2   6   39.64    1.55
  -4   2  -5    1.10    0.37
  -4   2  -5    1.60    0.50
  -4   2  -5    1.89    0.50
   4  -2   5    2.23    0.51
   4  -2   5    1.88    0.59
   4  -2   5    1.79    0.63
   4  -2   5    2.15    0.56
   4  -2   5    1.95    0.53
  -4   2  -4    0.21    0.31
  -4   2  -4    1.20    0.47
  -4   2  -4    0.47    0.39
  -4   2  -4    0.51    0.20
   4  -2   4    0.24    0.39
   4  -2   4    0.57    0.52
   4  -2   4    0.61    0.53
   4  -2   4    0.72    0.47
   4  -2   4    0.48    0.44
  -4   2  -3   24.31    0.91
  -4   2  -3   27.26    1.08
  -4   2  -3   15.86    0.61
   4  -2   3   37.10    1.10
   4  -2   3   33.74    1.33
   4  -2   3   34.98    1.36
   4  -2   3   32.53    1.26
   4  -2   3   30.71    1.22
   4  -2   3   34.20    1.28
  -4   2  -2    9.78    0.71
  -4   2  -2   10.42    0.83
  -4   2  -2    6.58    0.51
   4  -2   2   12.74    1.01
   4  -2   2    9.97    1.04
   4  -2   2   14.33    0.97
   4  -2   2   12.90    0.93
   4  -2   2   14.14    1.00
  -4   2  -1   32.43    1.07
  -4   2  -1   19.27    0.76
   4  -2   1   48.74    1.31
   4  -2   1   46.04    1.44
   4  -2   1   43.72    1.45
   4  -2   1   44.65    1.31
   4  -2   1   42.92    1.28
   4  -2   1   44.71    1.39
   4  -2   1   41.08    1.10
  -4   2   0  455.70    3.61
  -4   2   0  292.28    2.69
   4  -2   0  744.22    4.59
   4  -2   0  760.64    4.68
   4  -2   0  735.11    4.71
   4  -2   0  682.02    4.14
   4  -2   0  671.92    4.10
   4  -2   0  717.78    4.64
   4  -2   0  600.69    3.84
  -4   2   1  197.36    2.34
   4  -2  -1  505.53    3.91
   4  -2  -1  518.63    3.86
   4  -2  -1  505.96    3.96
   4  -2  -1  463.44    3.29
   4  -2  -1  457.53    3.26
   4  -2  -1  488.85    3.89
   4  -2  -1  413.58    3.39
  -4   2   2  177.54    2.34
   4  -2  -2  440.94    3.78
   4  -2  -2  450.71    3.60
   4  -2  -2  449.13    3.79
   4  -2  -2  402.81    2.93
   4  -2  -2  397.70    2.91
   4  -2  -2  429.63    3.74
   4  -2  -2  356.89    3.31
  -4   2   3   92.73    1.81
   4  -2  -3  219.78    2.83
   4  -2  -3  228.56    2.64
   4  -2  -3  226.83    2.82
   4  -2  -3  200.62    2.00
   4  -2  -3  199.23    2.00
   4  -2  -3  218.06    2.82
   4  -2  -3  175.15    2.48
  -4   2   4   53.22    1.48
   4  -2  -4  128.28    2.31
   4  -2  -4  134.06    2.12
   4  -2  -4  132.88    2.31
   4  -2  -4  111.80    1.44
   4  -2  -4  111.96    1.45
   4  -2  -4  128.41    2.29
  -4   2   5    4.53    0.59
   4  -2  -5    9.53    0.94
   4  -2  -5    9.90    1.00
   4  -2  -5   11.32    1.08
   4  -2  -5    9.12    0.89
  -4   2   6   19.97    1.05
  -4   2   6    9.26    0.86
   4  -2  -6   13.19    1.38
   4  -2  -6   20.86    1.24
   4  -2  -6   21.23    1.36
   4  -2  -6   17.82    1.35
  -4   2   7    5.48    0.67
  -4   2   7    3.26    0.61
   4  -2  -7    5.79    0.89
   4  -2  -7    6.51    0.79
   4  -2  -7    6.69    0.87
   4  -2  -7    6.28    0.89
  -4   2   8    1.49    0.62
  -4   2   8    0.41    0.48
   4  -2  -8    0.04    0.77
   4  -2  -8    1.73    0.67
   4  -2  -8    1.85    0.76
   4  -2  -8    1.31    0.76
  -4   2   9    2.51    0.76
  -4   2   9    0.46    0.52
   4  -2  -9    2.19    0.92
   4  -2  -9    2.62    0.78
   4  -2  -9    2.87    0.86
   4  -2  -9    2.51    0.86
  -4   2  10   21.65    1.76
  -4   2  10    9.89    1.21
   4  -2 -10   23.62    1.88
   4  -2 -10   22.66    1.67
   4  -2 -10   22.96    1.81
   4  -2 -10   23.10    1.75
  -4   2  11   22.26    2.01
  -4   2  11    7.89    1.03
   4  -2 -11   28.94    2.10
   4  -2 -11   25.85    1.80
   4  -2 -11   24.47    2.02
   4  -2 -11   25.41    1.92
  -4   2  12    8.95    1.22
  -4   2  12    5.03    0.96
   4  -2 -12   10.63    1.41
   4  -2 -12    8.19    1.14
   4  -2 -12    7.88    1.29
   4  -2 -12   10.72    1.42
  -4   2  13    2.03    1.19
  -4   2  13    1.83    0.81
   4  -2 -13    2.22    1.23
   4  -2 -13    1.66    1.13
   4  -2 -13    3.67    1.27
  -4   2  14    0.09    1.18
  -4   2  14    0.05    0.80
   4  -2 -14    0.72    1.25
   4  -2 -14   -1.02    1.16
   4  -2 -14    2.05    1.29
  -4   2  15    2.72    1.42
  -4   2  15    1.33    1.01
   4  -2 -15    2.38    1.51
   4  -2 -15    2.54    1.53
  -3   2 -16   -1.29    1.09
  -3   2 -16    0.52    1.38
  -3   2 -16    2.29    1.35
   3  -2  16    0.54    1.38
   3  -2  16    2.12    1.40
  -3   2 -15   19.65    2.13
  -3   2 -15   14.12    1.70
  -3   2 -15   14.79    1.71
  -3   2 -15   21.98    2.28
   3  -2  15   24.18    2.62
   3  -2  15   26.24    2.33
   3  -2  15   22.56    2.06
  -3   2 -14   35.09    2.21
  -3   2 -14   30.96    2.31
  -3   2 -14   26.73    1.86
  -3   2 -14   34.29    2.33
   3  -2  14   36.23    2.55
   3  -2  14   42.90    2.47
   3  -2  14   37.10    2.22
  -3   2 -13   79.84    2.66
  -3   2 -13   82.74    2.89
  -3   2 -13   64.77    2.30
  -3   2 -13   88.08    2.84
   3  -2  13   97.44    3.06
   3  -2  13   97.58    2.96
   3  -2  13   95.08    2.82
  -3   2 -12  136.31    3.09
  -3   2 -12  142.05    3.30
  -3   2 -12  146.92    3.23
   3  -2  12  162.51    3.48
   3  -2  12  161.09    3.39
   3  -2  12  160.22    3.32
  -3   2 -11   61.85    2.15
  -3   2 -11   67.42    2.36
  -3   2 -11   71.17    2.40
   3  -2  11   72.99    2.42
   3  -2  11   71.18    2.36
   3  -2  11   73.20    2.35
  -3   2 -10   79.99    2.19
  -3   2 -10   90.27    2.40
  -3   2 -10   95.33    2.41
   3  -2  10   91.71    2.43
   3  -2  10   94.51    2.44
   3  -2  10   89.78    2.37
   3  -2  10   91.91    2.40
  -3   2  -9   13.08    1.18
  -3   2  -9   14.95    1.27
  -3   2  -9   14.75    1.33
   3  -2   9   15.95    1.35
   3  -2   9   16.78    1.43
   3  -2   9   16.00    1.39
   3  -2   9   15.43    1.33
  -3   2  -8    1.09    0.60
  -3   2  -8    0.99    0.54
  -3   2  -8    1.55    0.61
   3  -2   8    1.53    0.57
   3  -2   8    1.29    0.62
   3  -2   8    1.12    0.59
   3  -2   8    0.84    0.55
  -3   2  -7    2.40    0.44
  -3   2  -7    1.90    0.52
  -3   2  -7    2.96    0.58
   3  -2   7    2.57    0.55
   3  -2   7    2.39    0.60
   3  -2   7    1.93    0.56
   3  -2   7    2.10    0.56
  -3   2  -6    2.24    0.39
  -3   2  -6    2.76    0.51
  -3   2  -6    2.59    0.52
   3  -2   6    2.47    0.49
   3  -2   6    2.49    0.58
   3  -2   6    2.36    0.54
   3  -2   6    2.00    0.51
  -3   2  -5    3.56    0.41
  -3   2  -5    2.95    0.50
  -3   2  -5    3.41    0.51
   3  -2   5    3.36    0.49
   3  -2   5    3.04    0.56
   3  -2   5    2.95    0.58
   3  -2   5    3.05    0.54
   3  -2   5    3.42    0.55
  -3   2  -4  134.17    1.67
  -3   2  -4  129.65    2.01
  -3   2  -4  137.47    1.97
   3  -2   4  162.97    1.91
   3  -2   4  164.57    2.28
   3  -2   4  152.01    2.18
   3  -2   4  150.10    2.16
  -3   2  -3  562.64    3.36
  -3   2  -3  569.63    3.79
  -3   2  -3  401.47    2.14
   3  -2   3  762.04    3.59
   3  -2   3  746.52    4.46
   3  -2   3  720.15    4.39
   3  -2   3  700.46    4.29
   3  -2   3  678.53    4.22
  -3   2  -2  854.81    4.21
  -3   2  -2  858.54    4.55
  -3   2  -2  599.07    2.92
   3  -2   2 1213.26    5.48
   3  -2   2 1188.47    5.43
   3  -2   2 1128.70    5.18
   3  -2   2 1097.88    5.11
   3  -2   2 1135.82    5.23
  -3   2  -1  377.84    2.88
  -3   2  -1  271.28    2.16
   3  -2   1  560.95    3.51
   3  -2   1  581.00    3.73
   3  -2   1  565.21    3.72
   3  -2   1  531.71    3.42
   3  -2   1  527.04    3.41
   3  -2   1  551.19    3.65
  -3   2   0  155.64    1.94
  -3   2   0  112.91    1.52
   3  -2   0  246.68    2.44
   3  -2   0  249.29    2.47
   3  -2   0  248.41    2.51
   3  -2   0  233.31    2.21
   3  -2   0  231.09    2.21
   3  -2   0  239.06    2.46
  -3   2   1  335.59    2.89
  -3   2   1  242.52    2.34
   3  -2  -1  558.32    3.71
   3  -2  -1  572.45    3.66
   3  -2  -1  561.33    3.73
   3  -2  -1  523.99    3.11
   3  -2  -1  509.95    3.07
   3  -2  -1  541.50    3.68
  -3   2   2  136.95    1.89
   3  -2  -2  302.52    2.86
   3  -2  -2  312.96    2.78
   3  -2  -2  309.65    2.89
   3  -2  -2  287.76    2.23
   3  -2  -2  282.97    2.22
   3  -2  -2  306.43    2.88
  -3   2   3   99.37    1.71
   3  -2  -3  225.86    2.59
   3  -2  -3  226.36    2.44
   3  -2  -3  219.97    2.54
   3  -2  -3  200.88    1.81
   3  -2  -3  202.11    1.82
   3  -2  -3  219.98    2.54
  -3   2   4    2.65    0.44
   3  -2  -4    5.68    0.69
   3  -2  -4    6.65    0.81
   3  -2  -4    5.34    0.64
   3  -2  -4    5.58    0.55
   3  -2  -4    5.28    0.55
   3  -2  -4    5.17    0.63
  -3   2   5    6.15    0.71
  -3   2   5    3.73    0.53
   3  -2  -5    6.20    0.80
   3  -2  -5    8.40    0.87
   3  -2  -5    9.93    0.97
   3  -2  -5    7.61    0.57
   3  -2  -5    7.69    0.93
  -3   2   6    5.75    0.58
  -3   2   6    3.81    0.56
   3  -2  -6    5.65    0.75
   3  -2  -6    5.43    0.66
   3  -2  -6    6.23    0.76
   3  -2  -6    7.09    0.79
  -3   2   7   37.44    1.36
  -3   2   7   18.45    1.09
   3  -2  -7   37.36    1.61
   3  -2  -7   42.97    1.48
   3  -2  -7   43.04    1.62
   3  -2  -7   42.62    1.58
  -3   2   8   45.27    1.59
  -3   2   8   21.67    1.20
   3  -2  -8   42.12    1.71
   3  -2  -8   46.11    1.64
   3  -2  -8   47.47    1.82
   3  -2  -8   41.76    1.68
  -3   2   9   40.31    1.73
  -3   2   9   20.33    1.25
   3  -2  -9   45.10    1.88
   3  -2  -9   41.90    1.75
   3  -2  -9   38.19    1.84
   3  -2  -9   39.16    1.80
  -3   2  10   24.98    1.75
  -3   2  10   11.32    1.15
   3  -2 -10   24.81    1.74
   3  -2 -10   22.36    1.67
   3  -2 -10   20.29    1.72
   3  -2 -10   21.78    1.66
  -3   2  11   32.04    2.09
  -3   2  11   16.35    1.34
   3  -2 -11   31.16    2.00
   3  -2 -11   28.94    1.86
   3  -2 -11   29.29    2.04
   3  -2 -11   26.79    1.88
  -3   2  12   11.54    1.33
  -3   2  12    6.01    0.94
   3  -2 -12   17.03    1.91
   3  -2 -12    7.74    1.14
   3  -2 -12    6.30    1.23
   3  -2 -12   10.38    1.40
  -3   2  13    9.63    1.39
  -3   2  13    5.62    1.00
   3  -2 -13    9.09    1.34
   3  -2 -13    7.00    1.18
   3  -2 -13    7.04    1.36
   3  -2 -13    7.17    1.40
  -3   2  14    0.34    1.18
  -3   2  14   -0.16    0.81
   3  -2 -14   -0.34    1.07
   3  -2 -14   -0.95    1.19
  -3   2  15   -0.91    1.30
  -3   2  15   -0.91    0.87
   3  -2 -15   -2.17    1.19
   3  -2 -15   -1.03    1.22
  -2   2 -17   10.33    1.59
  -2   2 -17   10.44    1.80
  -2   2 -17   13.86    1.86
   2  -2  17   10.44    1.92
  -2   2 -16   13.19    1.53
  -2   2 -16   11.60    1.74
  -2   2 -16   21.28    2.40
   2  -2  16   14.31    1.84
  -2   2 -15   33.77    2.24
  -2   2 -15   35.25    2.55
  -2   2 -15   37.98    2.53
   2  -2  15   42.78    2.84
   2  -2  15   45.30    3.23
  -2   2 -14   45.89    2.23
  -2   2 -14   43.41    2.45
  -2   2 -14   31.02    1.78
  -2   2 -14   45.16    2.45
   2  -2  14   51.13    2.65
   2  -2  14   49.56    2.33
   2  -2  14   48.66    2.21
  -2   2 -13   32.25    1.88
  -2   2 -13   35.99    2.17
  -2   2 -13   26.76    1.61
  -2   2 -13   33.96    2.17
   2  -2  13   45.41    2.31
   2  -2  13   41.86    2.11
   2  -2  13   39.37    1.97
  -2   2 -12   49.34    1.95
  -2   2 -12   54.47    2.23
  -2   2 -12   54.07    2.28
   2  -2  12   59.37    2.31
   2  -2  12   55.54    2.11
   2  -2  12   55.68    2.07
  -2   2 -11   30.36    1.55
  -2   2 -11   33.01    1.79
  -2   2 -11   32.62    1.83
   2  -2  11   35.77    1.86
   2  -2  11   32.83    1.70
   2  -2  11   34.61    1.68
  -2   2 -10    1.70    0.52
  -2   2 -10    1.19    0.56
  -2   2 -10    2.13    0.68
  -2   2 -10    2.21    0.80
   2  -2  10    2.04    0.72
   2  -2  10    1.09    0.61
   2  -2  10    1.50    0.62
  -2   2  -9    5.14    0.55
  -2   2  -9    3.26    0.60
  -2   2  -9    4.51    0.72
  -2   2  -9    5.02    0.78
   2  -2   9    3.44    0.69
   2  -2   9    4.11    0.72
   2  -2   9    4.46    0.68
   2  -2   9    4.07    0.65
  -2   2  -8   26.50    0.96
  -2   2  -8   22.17    1.15
  -2   2  -8   24.53    1.23
  -2   2  -8   25.19    1.25
   2  -2   8   22.55    1.25
   2  -2   8   25.20    1.26
   2  -2   8   26.14    1.23
   2  -2   8   24.91    1.22
  -2   2  -7   83.54    1.38
  -2   2  -7   78.47    1.74
  -2   2  -7   78.74    1.72
   2  -2   7   70.64    1.64
   2  -2   7   80.73    1.73
   2  -2   7   79.40    1.71
   2  -2   7   78.86    1.71
  -2   2  -6  298.79    2.38
  -2   2  -6  278.60    2.91
  -2   2  -6  288.70    2.89
   2  -2   6  260.90    2.67
   2  -2   6  303.44    2.96
   2  -2   6  293.11    2.93
   2  -2   6  286.48    2.89
  -2   2  -5  312.47    2.37
  -2   2  -5  285.04    2.77
  -2   2  -5  303.79    2.80
   2  -2   5  289.35    2.55
   2  -2   5  335.95    2.95
   2  -2   5  313.53    2.89
   2  -2   5  309.72    2.87
  -2   2  -4  464.36    2.81
  -2   2  -4  425.27    3.17
  -2   2  -4  462.87    3.25
   2  -2   4  474.90    2.89
   2  -2   4  528.09    3.48
   2  -2   4  499.30    3.45
   2  -2   4  496.28    3.42
   2  -2   4  483.50    3.37
  -2   2  -3  875.96    3.83
  -2   2  -3  874.74    4.25
  -2   2  -3  770.44    2.55
   2  -2   3 1013.51    3.65
   2  -2   3 1087.30    4.73
   2  -2   3 1032.90    4.64
   2  -2   3  994.03    4.57
   2  -2   3  985.16    4.55
  -2   2  -2 1003.49    4.11
  -2   2  -2 1006.76    4.40
  -2   2  -2  876.34    3.07
   2  -2   2 1349.38    5.08
   2  -2   2 1311.23    5.01
   2  -2   2 1248.41    4.86
   2  -2   2 1238.51    4.85
   2  -2   2 1244.83    4.91
  -2   2  -1  743.37    3.61
  -2   2  -1  694.98    3.60
  -2   2  -1  613.89    2.86
   2  -2   1 1032.30    4.36
   2  -2   1 1025.94    4.34
   2  -2   1  968.61    4.10
   2  -2   1  948.73    4.06
   2  -2   1  979.44    4.26
  -2   2   0   91.04    1.24
   2  -2   0  159.43    1.77
   2  -2   0  161.50    1.80
   2  -2   0  152.15    1.62
   2  -2   0  146.01    1.59
   2  -2   0  153.49    1.75
  -2   2   1   11.32    0.66
  -2   2   1   10.12    0.56
   2  -2  -1   18.47    0.80
   2  -2  -1   19.60    0.82
   2  -2  -1   19.46    0.83
   2  -2  -1   17.17    0.70
   2  -2  -1   17.64    0.69
   2  -2  -1   18.80    0.79
  -2   2   2    1.37    0.37
  -2   2   2    0.84    0.28
   2  -2  -2    2.10    0.41
   2  -2  -2    1.85    0.40
   2  -2  -2    1.61    0.40
   2  -2  -2    1.67    0.32
   2  -2  -2    1.62    0.31
   2  -2  -2    2.11    0.41
  -2   2   3    8.23    0.61
   2  -2  -3   16.23    0.92
   2  -2  -3   17.32    0.86
   2  -2  -3   17.61    0.89
   2  -2  -3   17.33    0.69
   2  -2  -3   15.15    0.67
   2  -2  -3   17.78    0.87
  -2   2   4  226.28    2.47
   2  -2  -4  462.24    3.41
   2  -2  -4  457.38    3.36
   2  -2  -4  473.29    3.59
   2  -2  -4  405.55    2.42
   2  -2  -4  397.48    2.40
   2  -2  -4  457.77    3.39
  -2   2   5    0.34    0.36
  -2   2   5    0.25    0.30
   2  -2  -5    0.68    0.48
   2  -2  -5    0.11    0.39
   2  -2  -5    0.91    0.48
   2  -2  -5    0.48    0.31
   2  -2  -5    0.38    0.30
   2  -2  -5    1.15    0.48
  -2   2   6   26.42    1.08
  -2   2   6   13.95    0.86
   2  -2  -6   27.56    1.24
   2  -2  -6   25.95    1.18
   2  -2  -6   25.24    1.23
   2  -2  -6   21.71    0.80
   2  -2  -6   20.43    0.77
   2  -2  -6   25.49    1.15
  -2   2   7   87.59    1.80
  -2   2   7   50.38    1.47
   2  -2  -7   94.87    1.95
   2  -2  -7   92.83    1.96
   2  -2  -7   95.29    2.13
   2  -2  -7   90.62    1.95
  -2   2   8   52.70    1.70
  -2   2   8   30.51    1.29
   2  -2  -8   56.44    1.73
   2  -2  -8   53.72    1.73
   2  -2  -8   52.37    1.84
   2  -2  -8   52.52    1.73
  -2   2   9   20.67    1.53
  -2   2   9   12.14    1.06
   2  -2  -9   22.86    1.47
   2  -2  -9   21.32    1.46
   2  -2  -9   20.29    1.54
   2  -2  -9   19.94    1.45
  -2   2  10   60.14    2.19
  -2   2  10   34.18    1.52
   2  -2 -10   59.83    2.04
   2  -2 -10   54.79    2.04
   2  -2 -10   54.06    2.18
   2  -2 -10   49.35    2.01
  -2   2  11   50.69    2.27
  -2   2  11   28.76    1.52
   2  -2 -11   45.91    2.02
   2  -2 -11   38.95    2.01
   2  -2 -11   38.66    2.11
   2  -2 -11   38.12    2.05
  -2   2  12   13.01    1.39
  -2   2  12    7.44    0.99
   2  -2 -12   10.49    1.50
   2  -2 -12   11.72    1.28
   2  -2 -12    9.24    1.30
   2  -2 -12   12.50    1.39
  -2   2  13    4.52    1.16
  -2   2  13    2.30    0.81
   2  -2 -13    2.31    1.06
   2  -2 -13    2.59    1.12
   2  -2 -13    2.32    1.15
  -2   2  14    5.31    1.32
  -2   2  14    1.41    0.90
   2  -2 -14    3.79    1.20
   2  -2 -14    3.05    1.30
   2  -2 -14    5.16    1.32
  -2   2  15    1.74    1.28
  -2   2  15   -0.34    1.12
   2  -2 -15    0.66    1.14
   2  -2 -15    1.45    1.34
   2  -2 -15    0.75    1.21
  -1   2 -17    7.61    1.73
  -1   2 -17   10.24    1.78
   1  -2  17   11.16    1.95
  -1   2 -16   25.33    2.20
  -1   2 -16   27.43    2.61
  -1   2 -16   24.33    2.52
   1  -2  16   32.21    2.83
  -1   2 -15   32.72    2.10
  -1   2 -15   33.39    2.49
  -1   2 -15   33.11    2.36
   1  -2  15   42.09    2.69
  -1   2 -14   28.08    1.84
  -1   2 -14   27.75    2.16
  -1   2 -14   26.55    2.10
   1  -2  14   30.41    2.28
  -1   2 -13    6.77    0.96
  -1   2 -13    6.49    1.11
  -1   2 -13    6.53    1.18
   1  -2  13    5.89    1.08
   1  -2  13    6.49    0.95
   1  -2  13    7.08    0.91
  -1   2 -12    4.87    0.81
  -1   2 -12    6.71    1.05
  -1   2 -12    7.08    1.13
   1  -2  12    6.46    1.00
   1  -2  12    7.32    0.88
   1  -2  12    6.07    0.82
  -1   2 -11    3.54    0.64
  -1   2 -11    2.58    0.63
  -1   2 -11    4.08    0.85
  -1   2 -11    4.63    0.94
   1  -2  11    4.85    0.91
   1  -2  11    3.26    0.67
   1  -2  11    3.83    0.69
  -1   2 -10    1.22    0.49
  -1   2 -10    0.68    0.48
  -1   2 -10    1.61    0.66
  -1   2 -10    2.05    0.74
   1  -2  10    0.64    0.66
   1  -2  10    1.35    0.55
   1  -2  10    1.02    0.52
  -1   2  -9   10.49    0.88
  -1   2  -9    8.84    0.89
  -1   2  -9    9.06    1.04
  -1   2  -9   11.48    1.17
   1  -2   9   10.08    1.16
   1  -2   9    8.31    0.95
   1  -2   9   10.02    0.98
  -1   2  -8   28.67    1.03
  -1   2  -8   22.82    1.05
  -1   2  -8   26.99    1.21
  -1   2  -8   28.48    1.32
   1  -2   8   22.94    1.22
   1  -2   8   27.68    1.16
   1  -2   8   29.34    1.17
   1  -2   8   29.08    1.15
  -1   2  -7   37.12    1.06
  -1   2  -7   27.36    1.05
  -1   2  -7   36.91    1.23
  -1   2  -7   37.03    1.31
   1  -2   7   31.62    1.19
   1  -2   7   36.57    1.18
   1  -2   7   37.22    1.18
   1  -2   7   36.22    1.17
  -1   2  -6 1199.26    4.70
  -1   2  -6 1088.93    5.24
  -1   2  -6 1134.13    5.40
   1  -2   6  973.69    4.84
   1  -2   6 1187.45    5.07
   1  -2   6 1128.15    5.06
   1  -2   6 1104.38    5.01
  -1   2  -5 1569.65    5.16
  -1   2  -5 1431.84    5.56
  -1   2  -5 1517.18    5.83
   1  -2   5 1270.01    5.00
   1  -2   5 1617.18    5.53
   1  -2   5 1534.36    5.60
   1  -2   5 1484.48    5.50
  -1   2  -4 1658.21    5.11
  -1   2  -4 1482.11    5.22
  -1   2  -4 1614.74    5.61
   1  -2   4 1341.71    4.57
   1  -2   4 1755.64    5.41
   1  -2   4 1623.64    5.47
   1  -2   4 1623.17    5.47
  -1   2  -3 1205.20    4.24
  -1   2  -3 1019.83    4.02
  -1   2  -3 1163.17    4.46
  -1   2  -3 1166.63    3.40
   1  -2   3  974.38    3.37
   1  -2   3 1329.71    4.48
   1  -2   3 1266.20    4.47
   1  -2   3 1221.21    4.52
   1  -2   3 1213.77    4.51
  -1   2  -2 1765.59    6.47
  -1   2  -2 1706.93    5.62
  -1   2  -2 1760.25    5.21
   1  -2   2 2083.69    5.41
   1  -2   2 2035.21    5.29
   1  -2   2 1917.47    5.40
   1  -2   2 1892.60    7.41
  -1   2  -1    7.14    0.49
  -1   2  -1    5.77    0.51
  -1   2  -1    7.46    0.47
   1  -2   1    8.07    0.61
   1  -2   1    7.44    0.60
   1  -2   1    7.73    0.60
   1  -2   1    7.60    0.59
   1  -2   1    7.01    0.60
  -1   2   0  715.17    3.24
  -1   2   0  704.42    3.10
   1  -2   0  969.91    3.78
   1  -2   0  978.89    3.61
   1  -2   0  884.26    3.48
   1  -2   0  862.08    3.43
   1  -2   0  947.66    3.56
  -1   2   1   84.38    1.20
  -1   2   1   81.68    1.19
   1  -2  -1  118.68    1.46
   1  -2  -1  126.59    1.45
   1  -2  -1  107.32    1.28
   1  -2  -1  106.39    1.27
   1  -2  -1  124.52    1.38
  -1   2   2    5.00    0.50
  -1   2   2    5.43    0.50
   1  -2  -2    8.33    0.63
   1  -2  -2    7.94    0.63
   1  -2  -2    8.04    0.62
   1  -2  -2    7.64    0.55
   1  -2  -2    6.51    0.53
   1  -2  -2    7.20    0.56
  -1   2   3   -0.03    0.26
  -1   2   3    0.24    0.26
   1  -2  -3   -0.49    0.32
   1  -2  -3    0.23    0.34
   1  -2  -3   -0.07    0.33
   1  -2  -3    0.29    0.26
   1  -2  -3    0.11    0.26
   1  -2  -3    0.82    0.33
  -1   2   4  233.61    2.04
  -1   2   4  154.81    1.78
  -1   2   4  142.63    1.88
   1  -2  -4  250.85    2.27
   1  -2  -4  242.86    2.45
   1  -2  -4  252.26    2.51
   1  -2  -4  204.87    1.85
   1  -2  -4  196.57    1.81
   1  -2  -4  245.67    2.24
  -1   2   5  563.09    3.48
  -1   2   5  366.52    2.80
  -1   2   5  354.74    3.07
   1  -2  -5  617.10    3.62
   1  -2  -5  598.15    4.00
   1  -2  -5  627.39    4.18
   1  -2  -5  498.63    2.96
   1  -2  -5  491.13    2.93
   1  -2  -5  624.07    3.75
  -1   2   6  322.46    2.95
  -1   2   6  208.44    2.51
   1  -2  -6  342.89    2.87
   1  -2  -6  331.87    3.21
   1  -2  -6  350.27    3.40
   1  -2  -6  277.41    2.35
   1  -2  -6  268.08    2.31
   1  -2  -6  347.01    3.05
  -1   2   7  304.07    3.13
  -1   2   7  195.80    2.56
   1  -2  -7  316.01    2.90
   1  -2  -7  299.24    3.27
   1  -2  -7  311.74    3.46
   1  -2  -7  246.22    2.35
   1  -2  -7  242.11    2.33
   1  -2  -7  318.90    3.14
  -1   2   8  213.42    2.89
  -1   2   8  136.25    2.30
   1  -2  -8  208.81    2.53
   1  -2  -8  199.20    2.90
   1  -2  -8  208.98    3.10
   1  -2  -8  163.47    2.07
   1  -2  -8  159.24    2.04
   1  -2  -8  210.10    2.79
  -1   2   9   60.84    1.94
  -1   2   9   40.06    1.46
   1  -2  -9   59.80    1.67
   1  -2  -9   48.87    1.86
   1  -2  -9   54.60    2.02
   1  -2  -9   44.31    1.32
   1  -2  -9   43.65    1.30
   1  -2  -9   56.87    1.80
  -1   2  10   30.18    1.78
  -1   2  10   18.94    1.25
   1  -2 -10   27.85    1.47
   1  -2 -10   25.83    1.71
   1  -2 -10   24.00    1.76
   1  -2 -10   19.17    1.10
   1  -2 -10   26.09    1.61
  -1   2  11    6.55    1.06
  -1   2  11    4.02    0.77
   1  -2 -11    8.68    1.16
   1  -2 -11    6.82    1.15
   1  -2 -11    6.34    1.06
  -1   2  12    5.82    1.13
  -1   2  12    5.23    0.91
   1  -2 -12    7.41    1.20
   1  -2 -12    7.40    1.27
   1  -2 -12    6.23    1.14
  -1   2  13    4.89    1.17
  -1   2  13    0.89    0.77
   1  -2 -13    2.61    1.08
   1  -2 -13    2.76    1.16
   1  -2 -13    2.81    1.03
  -1   2  14    5.09    1.34
   1  -2 -14    3.96    1.21
   1  -2 -14    3.98    1.27
   1  -2 -14    4.52    1.19
  -1   2  15    6.61    1.52
   1  -2 -15    4.93    1.36
   1  -2 -15    6.84    1.49
   1  -2 -15    5.56    1.35
   0   2 -17    5.25    1.59
   0   2 -17    8.14    1.73
   0  -2  17    7.13    1.77
   0   2 -16    7.17    1.50
   0   2 -16    5.23    1.48
   0  -2  16    4.95    1.41
   0   2 -15   -0.21    1.06
   0   2 -15    1.69    1.19
   0  -2  15   -0.27    1.08
   0   2 -14   -0.63    0.73
   0   2 -14   -1.11    0.90
   0   2 -14   -0.54    0.94
   0  -2  14   -1.17    0.88
   0   2 -13   12.83    1.39
   0   2 -13   11.45    1.25
   0   2 -13   15.45    1.70
   0  -2  13   12.91    1.31
   0   2 -12   13.46    1.27
   0   2 -12   10.82    1.21
   0   2 -12    9.77    1.13
   0   2 -12   10.42    1.20
   0  -2  12    8.31    1.04
   0  -2  12   10.57    1.17
   0  -2  12   12.05    1.14
   0   2 -11   74.38    1.80
   0   2 -11   62.50    1.67
   0   2 -11   68.65    2.11
   0   2 -11   67.26    2.14
   0  -2  11   65.46    2.14
   0  -2  11   68.84    1.68
   0  -2  11   69.09    1.68
   0   2 -10   72.29    1.68
   0   2 -10   61.95    1.55
   0   2 -10   66.79    1.93
   0   2 -10   68.77    2.00
   0   2 -10   61.63    1.36
   0  -2  10   59.69    1.96
   0  -2  10   68.60    1.59
   0  -2  10   67.80    1.60
   0  -2  10   31.52    0.93
   0   2  -9  234.01    2.61
   0   2  -9  191.18    2.31
   0   2  -9  209.67    2.84
   0   2  -9  210.48    2.07
   0  -2   9  196.80    2.86
   0  -2   9  227.22    2.48
   0  -2   9  221.36    2.45
   0  -2   9   90.66    1.35
   0   2  -8  445.41    3.36
   0   2  -8  346.85    2.83
   0   2  -8  391.43    3.53
   0   2  -8  391.41    3.64
   0   2  -8  409.68    2.63
   0  -2   8  363.53    3.53
   0  -2   8  423.88    3.14
   0  -2   8  422.81    3.14
   0   2  -7  666.07    3.88
   0   2  -7  530.96    3.21
   0   2  -7  599.42    3.99
   0   2  -7  606.35    4.20
   0   2  -7  645.54    3.08
   0  -2   7  545.47    3.96
   0  -2   7  645.85    3.53
   0  -2   7  636.41    3.61
   0  -2   7  634.61    3.61
   0   2  -6  310.01    2.56
   0   2  -6  242.46    2.04
   0   2  -6  287.57    2.56
   0   2  -6  289.04    2.76
   0   2  -6  307.26    2.04
   0  -2   6  258.53    2.55
   0  -2   6  307.54    2.27
   0  -2   6  303.77    2.40
   0  -2   6  295.48    2.37
   0   2  -5  424.53    2.82
   0   2  -5  397.26    2.70
   0   2  -5  403.28    2.98
   0   2  -5  416.98    2.24
   0  -2   5  348.28    2.67
   0  -2   5  433.15    2.44
   0  -2   5  400.68    2.60
   0  -2   5  398.54    2.59
   0   2  -4   41.66    0.97
   0   2  -4   38.69    0.85
   0   2  -4   41.84    1.00
   0   2  -4   41.53    0.77
   0  -2   4   33.09    0.87
   0  -2   4   44.56    0.84
   0  -2   4   39.48    0.90
   0  -2   4   39.01    0.90
   0   2  -3  245.58    1.97
   0   2  -3  215.87    1.59
   0   2  -3  237.47    1.93
   0   2  -3  243.30    1.67
   0  -2   3  177.98    1.56
   0  -2   3  261.75    1.67
   0  -2   3  230.22    1.85
   0  -2   3  225.86    1.83
   0   2  -2   21.93    0.72
   0   2  -2   20.78    0.64
   0   2  -2   21.49    0.66
   0  -2   2   14.20    0.57
   0  -2   2   23.20    0.66
   0  -2   2   21.38    0.62
   0  -2   2   21.30    0.73
   0  -2   2   20.86    0.72
   0   2  -1 5409.21   16.61
   0   2  -1 4644.50   18.38
   0   2  -1 4395.14   14.66
   0   2  -1 4686.57   16.97
   0  -2   1 2869.27    6.82
   0  -2   1 5121.79   15.27
   0  -2   1 4455.91   16.03
   0  -2   1 4351.19   16.70
   0   2   1   44.08    0.75
   0   2   1   35.92    0.74
   0   2   1   38.64    0.88
   0  -2  -1   43.80    0.94
   0  -2  -1   47.00    0.84
   0  -2  -1   38.99    0.88
   0  -2  -1   38.67    0.87
   0  -2  -1   45.94    0.74
   0   2   2  113.62    1.25
   0   2   2   83.50    1.07
   0   2   2   83.76    1.27
   0  -2  -2  104.72    1.44
   0  -2  -2  113.80    1.36
   0  -2  -2   86.98    1.25
   0  -2  -2   84.99    1.23
   0  -2  -2  110.42    1.10
   0   2   3  335.87    2.33
   0   2   3  242.16    1.82
   0   2   3  249.39    2.23
   0  -2  -3  311.91    2.58
   0  -2  -3  335.44    2.50
   0  -2  -3  258.12    2.15
   0  -2  -3  251.57    2.12
   0  -2  -3  340.80    2.05
   0   2   4  302.61    2.49
   0   2   4  207.18    1.75
   0   2   4  215.65    2.20
   0  -2  -4  274.75    2.62
   0  -2  -4  299.52    2.63
   0  -2  -4  228.51    2.15
   0  -2  -4  224.43    2.12
   0  -2  -4  307.88    2.18
   0   2   5  466.32    3.36
   0   2   5  315.37    2.24
   0   2   5  332.40    2.87
   0  -2  -5  468.10    2.76
   0  -2  -5  432.36    3.49
   0  -2  -5  462.54    3.52
   0  -2  -5  357.86    2.80
   0  -2  -5  344.74    2.74
   0  -2  -5  485.01    2.98
   0   2   6  265.27    2.81
   0   2   6  176.12    1.78
   0   2   6  186.74    2.30
   0  -2  -6  273.76    2.25
   0  -2  -6  247.36    2.87
   0  -2  -6  262.46    2.92
   0  -2  -6  204.03    2.27
   0  -2  -6  197.89    2.23
   0  -2  -6  278.82    2.51
   0   2   7  137.82    2.28
   0   2   7   92.96    1.40
   0   2   7  100.86    1.84
   0  -2  -7  137.89    1.77
   0  -2  -7  124.93    2.29
   0  -2  -7  135.96    2.36
   0  -2  -7  105.50    1.79
   0  -2  -7  102.41    1.77
   0  -2  -7  144.07    2.03
   0   2   8   36.78    1.57
   0   2   8   24.62    0.90
   0   2   8   28.45    1.19
   0  -2  -8   37.62    1.20
   0  -2  -8   35.82    1.61
   0  -2  -8   35.53    1.62
   0  -2  -8   29.99    1.23
   0  -2  -8   28.60    1.19
   0  -2  -8   37.47    1.35
   0   2   9  120.55    2.53
   0   2   9   86.42    1.94
   0  -2  -9  112.39    2.51
   0  -2  -9  114.00    2.60
   0  -2  -9   86.94    1.90
   0  -2  -9   85.91    1.85
   0  -2  -9  113.33    2.18
   0   2  10   22.40    1.72
   0   2  10   17.40    1.20
   0  -2 -10   21.32    1.64
   0  -2 -10   21.87    1.77
   0  -2 -10   15.58    1.27
   0  -2 -10   15.01    1.19
   0  -2 -10   22.97    1.49
   0   2  11    1.26    0.85
   0   2  11    1.59    0.70
   0  -2 -11    2.47    0.88
   0  -2 -11    2.34    0.96
   0  -2 -11    1.38    0.68
   0  -2 -11    1.32    0.62
   0  -2 -11    3.14    0.85
   0   2  12    4.04    1.08
   0   2  12    3.46    0.85
   0  -2 -12    5.13    1.11
   0  -2 -12    5.41    1.17
   0  -2 -12    5.35    1.02
   0   2  13    0.98    1.02
   0  -2 -13    1.23    1.04
   0  -2 -13    2.10    1.14
   0  -2 -13    1.23    0.96
   0   2  14    4.40    1.31
   0  -2 -14    5.78    1.35
   0  -2 -14    5.32    1.35
   0   2  15    3.60    1.39
   0  -2 -15    3.10    1.39
   0  -2 -15    1.98    1.42
   1   2 -17    2.89    1.52
   1   2 -17    5.61    1.62
  -1  -2  17    5.23    1.65
   1   2 -16    1.33    1.25
   1   2 -16    1.90    1.35
  -1  -2  16    2.48    1.33
   1   2 -15    1.26    1.10
   1   2 -15    1.86    1.16
  -1  -2  15    1.00    1.07
   1   2 -14    4.52    0.97
   1   2 -14    2.78    1.04
   1   2 -14    3.31    1.11
  -1  -2  14    3.43    1.09
   1   2 -13   -0.02    0.75
   1   2 -13    1.19    0.88
   1   2 -13   -0.14    0.87
  -1  -2  13   -1.34    0.83
   1   2 -12   23.36    1.55
   1   2 -12   19.57    1.26
   1   2 -12   22.63    1.73
   1   2 -12   17.24    1.64
   1   2 -12   18.21    1.29
  -1  -2  12   19.11    1.72
  -1  -2  12    9.48    0.84
   1   2 -11  100.53    2.19
   1   2 -11   92.81    1.82
   1   2 -11   95.73    2.37
   1   2 -11   94.14    2.41
   1   2 -11   86.23    1.87
  -1  -2  11   81.28    2.32
  -1  -2  11   90.46    2.29
  -1  -2  11   90.64    1.66
  -1  -2  11   38.98    1.24
   1   2 -10  312.18    3.37
   1   2 -10  286.36    2.73
   1   2 -10  302.50    3.56
   1   2 -10  292.09    3.65
   1   2 -10  290.87    2.94
  -1  -2  10  270.51    3.57
  -1  -2  10  299.53    2.62
  -1  -2  10  298.10    2.63
   1   2  -9  467.37    3.88
   1   2  -9  408.66    2.93
   1   2  -9  452.11    3.98
   1   2  -9  437.02    4.14
   1   2  -9  439.29    3.36
  -1  -2   9  437.80    4.15
  -1  -2   9  461.49    3.04
  -1  -2   9  455.21    3.02
   1   2  -8  462.60    3.67
   1   2  -8  389.48    2.60
   1   2  -8  429.13    3.58
   1   2  -8  419.91    3.82
   1   2  -8  442.90    3.20
  -1  -2   8  401.06    3.72
  -1  -2   8  453.99    2.86
  -1  -2   8  444.96    2.83
   1   2  -7  653.77    4.13
   1   2  -7  523.17    2.67
   1   2  -7  595.38    3.83
   1   2  -7  577.17    4.15
   1   2  -7  631.70    3.61
  -1  -2   7  536.14    3.99
  -1  -2   7  644.71    3.23
  -1  -2   7  630.55    3.19
   1   2  -6  221.14    2.34
   1   2  -6  189.79    2.02
   1   2  -6  184.76    2.27
   1   2  -6  208.81    2.03
  -1  -2   6  174.77    2.18
  -1  -2   6  207.65    1.81
  -1  -2   6  201.91    1.78
   1   2  -5    1.28    0.38
   1   2  -5    0.98    0.38
  -1  -2   5    1.29    0.35
   1   2  -4    2.53    0.38
   1   2  -4    2.95    0.33
   1   2  -4    2.04    0.31
   1   2  -4    2.97    0.41
   1   2  -4    2.55    0.37
  -1  -2   4    1.91    0.36
  -1  -2   4    2.76    0.34
  -1  -2   4    2.56    0.33
   1   2  -3  315.32    2.35
   1   2  -3  259.11    1.90
   1   2  -3  286.89    2.07
   1   2  -3  314.92    2.22
  -1  -2   3  194.31    1.83
  -1  -2   3  284.89    1.96
  -1  -2   3  276.42    1.93
   1   2  -2 1776.07    4.98
   1   2  -2 1726.02    6.28
   1   2  -2 1348.79    5.00
   1   2  -2 1613.37    6.65
   1   2  -2 1673.04    5.49
  -1  -2   2  994.85    3.76
  -1  -2   2 1475.82    4.43
  -1  -2   2 1452.12    4.39
   1   2   0 2339.90    6.01
   1   2   0 2158.52    8.03
   1   2   0 2075.01    7.73
  -1  -2   0 2188.24    5.20
  -1  -2   0 1804.75    5.27
  -1  -2   0 1774.68    5.23
   1   2   1 1434.57    4.62
   1   2   1 1309.02    3.79
   1   2   1 1236.13    4.49
  -1  -2  -1 1304.79    4.50
  -1  -2  -1 1413.44    3.59
  -1  -2  -1 1068.60    4.28
  -1  -2  -1 1040.25    4.22
   1   2   2 1616.98    5.27
   1   2   2 1427.96    3.82
   1   2   2 1353.97    4.88
  -1  -2  -2 1418.52    5.16
  -1  -2  -2 1538.04    4.48
  -1  -2  -2 1169.49    4.71
  -1  -2  -2 1135.77    4.64
   1   2   3 1379.29    5.27
   1   2   3 1151.75    4.71
  -1  -2  -3 1187.70    5.14
  -1  -2  -3 1299.67    4.73
  -1  -2  -3 1006.66    4.61
  -1  -2  -3  968.99    4.52
   1   2   4  955.84    4.75
   1   2   4  785.44    4.09
  -1  -2  -4  813.03    4.60
  -1  -2  -4  870.79    4.34
  -1  -2  -4  687.27    4.03
  -1  -2  -4  660.69    3.95
  -1  -2  -4  967.47    3.19
   1   2   5    7.00    0.84
   1   2   5    7.17    0.78
  -1  -2  -5    6.15    0.66
  -1  -2  -5    7.14    0.84
  -1  -2  -5    7.09    0.79
  -1  -2  -5    6.87    0.75
  -1  -2  -5    8.34    0.62
   1   2   6   91.31    1.86
   1   2   6   68.94    1.49
  -1  -2  -6   81.22    1.84
  -1  -2  -6   82.65    1.76
  -1  -2  -6   61.14    1.50
  -1  -2  -6   59.79    1.46
  -1  -2  -6   87.49    1.37
   1   2   7   16.35    1.19
   1   2   7   13.15    0.94
  -1  -2  -7   17.54    1.26
  -1  -2  -7   17.44    1.21
  -1  -2  -7   11.55    1.01
  -1  -2  -7   11.52    0.96
  -1  -2  -7   15.47    0.91
   1   2   8    2.01    0.65
   1   2   8    1.47    0.54
  -1  -2  -8    2.02    0.70
  -1  -2  -8    1.44    0.67
  -1  -2  -8    1.05    0.56
  -1  -2  -8    0.39    0.50
  -1  -2  -8    1.62    0.55
   1   2   9   -0.03    0.66
   1   2   9   -0.40    0.55
  -1  -2  -9   -0.17    0.71
  -1  -2  -9    0.08    0.73
  -1  -2  -9   -1.00    0.54
  -1  -2  -9   -0.36    0.51
  -1  -2  -9    0.05    0.60
   1   2  10   15.49    1.63
   1   2  10   13.38    1.29
  -1  -2 -10   18.24    1.64
  -1  -2 -10   18.10    1.65
  -1  -2 -10   12.31    1.33
  -1  -2 -10   12.24    1.23
  -1  -2 -10   18.00    1.32
   1   2  11   12.42    1.30
   1   2  11    9.61    1.02
  -1  -2 -11   15.97    1.70
  -1  -2 -11   18.73    1.83
  -1  -2 -11   13.15    1.44
  -1  -2 -11    9.18    0.96
  -1  -2 -11   14.68    1.48
   1   2  12   27.31    2.17
  -1  -2 -12   28.95    2.07
  -1  -2 -12   29.37    2.11
  -1  -2 -12   21.78    1.69
  -1  -2 -12   20.95    1.54
   1   2  13   22.78    2.30
  -1  -2 -13   21.86    2.16
  -1  -2 -13   21.67    2.21
   1   2  14   15.08    1.69
  -1  -2 -14   15.56    1.73
  -1  -2 -14   20.35    2.37
   1   2  15    5.01    1.53
  -1  -2 -15    5.43    1.52
  -1  -2 -15    3.73    1.61
   2   2 -17   -1.44    1.37
   2   2 -17   -1.42    1.34
  -2  -2  17    0.37    1.43
   2   2 -16    0.62    1.28
   2   2 -16    2.30    1.32
  -2  -2  16   -0.39    1.25
   2   2 -15    2.72    1.10
   2   2 -15    3.11    1.18
   2   2 -15    2.50    1.16
  -2  -2  15    1.65    1.20
   2   2 -14   28.89    1.99
   2   2 -14   25.03    2.13
   2   2 -14   23.22    2.02
  -2  -2  14   19.90    2.22
   2   2 -13   89.23    2.53
   2   2 -13   82.68    2.64
   2   2 -13   75.88    2.62
   2   2 -13   66.54    2.14
  -2  -2  13   72.91    2.66
  -2  -2  13   31.74    1.42
   2   2 -12  104.13    2.54
   2   2 -12   98.54    2.59
   2   2 -12   91.43    2.62
   2   2 -12   82.36    2.16
  -2  -2  12   86.94    2.65
  -2  -2  12   35.39    1.40
   2   2 -11   34.17    1.68
   2   2 -11   32.10    1.74
   2   2 -11   31.89    1.74
   2   2 -11   32.99    1.53
  -2  -2  11   29.70    1.74
   2   2 -10  136.22    2.52
   2   2 -10  129.17    2.47
   2   2 -10  127.44    2.62
   2   2 -10  123.87    2.25
  -2  -2  10  124.06    2.56
   2   2  -9  101.86    2.12
   2   2  -9   93.16    1.98
   2   2  -9   91.84    2.14
   2   2  -9   96.48    1.91
  -2  -2   9   93.87    2.13
   2   2  -8    8.50    0.97
   2   2  -8    9.28    0.94
   2   2  -8    9.56    1.05
   2   2  -8   10.84    0.94
  -2  -2   8   11.57    1.03
   2   2  -7    5.83    0.66
   2   2  -7    5.37    0.58
   2   2  -7    5.58    0.68
   2   2  -7    6.47    0.80
  -2  -2   7    4.99    0.60
   2   2  -6  126.77    1.97
   2   2  -6  126.26    1.65
   2   2  -6  118.18    1.91
   2   2  -6  127.16    1.85
  -2  -2   6   92.59    1.73
  -2  -2   6  130.43    1.36
   2   2  -5    0.87    0.40
   2   2  -5    1.10    0.33
   2   2  -5    0.65    0.26
   2   2  -5    0.95    0.41
   2   2  -5    1.40    0.40
  -2  -2   5    0.49    0.35
  -2  -2   5    1.00    0.30
  -2  -2   5    1.09    0.29
   2   2  -4    2.58    0.42
   2   2  -4    2.53    0.32
   2   2  -4    1.78    0.31
   2   2  -4    2.30    0.41
   2   2  -4    2.33    0.42
  -2  -2   4    1.88    0.41
  -2  -2   4    2.23    0.32
  -2  -2   4    2.30    0.32
   2   2  -3   54.98    1.17
   2   2  -3   53.88    1.04
   2   2  -3   56.24    1.18
  -2  -2   3   31.47    0.99
  -2  -2   3   49.40    0.95
  -2  -2   3   49.19    0.95
   2   2  -2  388.72    2.80
   2   2  -2  354.22    2.56
   2   2  -2  354.66    2.11
   2   2  -2  349.65    2.63
  -2  -2   2  294.74    2.18
  -2  -2   2  289.47    2.17
   2   2  -1  751.01    3.79
   2   2  -1  684.37    3.31
   2   2  -1  718.55    2.49
   2   2  -1  688.64    3.63
  -2  -2   1  650.40    2.70
  -2  -2   1  562.99    3.14
  -2  -2   1  541.63    3.08
   2   2   0 1226.57    4.88
   2   2   0 1116.20    3.95
   2   2   0 1109.41    4.58
  -2  -2   0 1019.82    3.86
  -2  -2   0  890.68    4.13
  -2  -2   0  868.66    4.08
   2   2   1 1013.46    4.59
   2   2   1  908.70    3.33
   2   2   1  922.43    4.22
  -2  -2  -1  823.18    3.86
  -2  -2  -1  838.93    2.87
  -2  -2  -1  725.93    3.94
  -2  -2  -1  704.49    3.87
   2   2   2  470.19    3.31
   2   2   2  422.82    2.95
  -2  -2  -2  377.34    2.89
  -2  -2  -2  400.08    2.39
  -2  -2  -2  328.30    2.81
  -2  -2  -2  319.55    2.77
   2   2   3  207.42    2.38
   2   2   3  186.32    2.08
  -2  -2  -3  171.10    2.16
  -2  -2  -3  185.37    1.91
  -2  -2  -3  146.60    2.04
  -2  -2  -3  140.30    1.98
   2   2   4  350.99    3.23
   2   2   4  305.65    2.68
  -2  -2  -4  285.40    2.94
  -2  -2  -4  310.73    2.70
  -2  -2  -4  232.09    2.64
  -2  -2  -4  219.60    2.55
   2   2   5   50.33    1.48
   2   2   5   44.05    1.44
   2   2   5   43.64    1.22
  -2  -2  -5   42.48    1.42
  -2  -2  -5   47.29    1.34
  -2  -2  -5   34.35    1.26
  -2  -2  -5   32.87    1.21
   2   2   6    7.05    0.75
   2   2   6    6.30    0.76
   2   2   6    6.36    0.65
  -2  -2  -6    5.86    0.76
  -2  -2  -6    5.89    0.70
  -2  -2  -6    4.76    0.66
  -2  -2  -6    5.20    0.63
   2   2   7    1.22    0.60
   2   2   7    0.08    0.63
   2   2   7    2.21    0.54
  -2  -2  -7    1.70    0.60
  -2  -2  -7    0.99    0.61
  -2  -2  -7    0.03    0.52
  -2  -2  -7    0.34    0.51
  -2  -2  -7    1.64    0.45
   2   2   8    9.13    0.96
   2   2   8    8.21    1.01
  -2  -2  -8    8.79    0.97
  -2  -2  -8    9.26    0.99
  -2  -2  -8    6.72    0.84
  -2  -2  -8    7.20    0.82
  -2  -2  -8   11.53    0.92
   2   2   9   55.67    2.07
   2   2   9   39.52    1.50
  -2  -2  -9   52.93    2.05
  -2  -2  -9   55.74    2.07
  -2  -2  -9   39.37    1.72
  -2  -2  -9   37.97    1.65
   2   2  10   29.54    1.88
  -2  -2 -10   28.15    1.87
  -2  -2 -10   30.81    1.91
  -2  -2 -10   25.21    1.63
  -2  -2 -10   21.42    1.49
   2   2  11   28.72    2.04
  -2  -2 -11   27.79    2.01
  -2  -2 -11   30.22    2.07
  -2  -2 -11   21.66    1.72
  -2  -2 -11   21.25    1.59
   2   2  12   27.91    2.24
  -2  -2 -12   27.85    2.17
  -2  -2 -12   28.86    2.27
  -2  -2 -12   24.31    1.90
  -2  -2 -12   21.92    1.71
   2   2  13   25.37    2.44
  -2  -2 -13   13.41    1.65
  -2  -2 -13   19.18    2.28
  -2  -2 -13   20.18    1.90
  -2  -2 -13   14.25    1.72
   2   2  14    8.85    1.54
  -2  -2 -14    5.97    1.49
  -2  -2 -14    5.76    1.59
   2   2  15   10.21    1.78
  -2  -2 -15    7.53    1.65
  -2  -2 -15    9.27    1.78
   3   2 -17   -1.00    1.30
   3   2 -17   -1.60    1.35
  -3  -2  17   -0.59    1.50
   3   2 -16    0.68    1.20
   3   2 -16    1.23    1.32
   3   2 -16    1.84    1.35
  -3  -2  16    1.81    1.44
   3   2 -15   10.92    1.44
   3   2 -15   12.17    1.56
   3   2 -15    9.47    1.51
   3   2 -15    8.99    1.38
  -3  -2  15   10.03    1.53
  -3  -2  15    3.39    0.80
   3   2 -14   32.76    2.23
   3   2 -14   31.72    2.23
   3   2 -14   28.42    2.20
   3   2 -14   23.55    1.86
  -3  -2  14   28.75    2.41
  -3  -2  14   10.66    1.22
   3   2 -13   65.86    2.50
   3   2 -13   57.60    2.45
   3   2 -13   55.43    2.45
   3   2 -13   52.98    2.21
  -3  -2  13   61.01    2.57
  -3  -2  13   23.52    1.40
   3   2 -12   55.92    2.26
   3   2 -12   48.60    2.15
   3   2 -12   45.83    2.16
   3   2 -12   42.50    1.93
  -3  -2  12   52.45    2.22
  -3  -2  12   21.19    1.28
   3   2 -11   72.38    2.25
   3   2 -11   60.66    2.06
   3   2 -11   58.97    2.13
   3   2 -11   58.77    1.99
  -3  -2  11   66.49    2.21
   3   2 -10   24.38    1.50
   3   2 -10   21.56    1.44
   3   2 -10   22.54    1.49
   3   2 -10   22.82    1.37
  -3  -2  10   21.71    1.49
   3   2  -9   27.62    1.42
   3   2  -9   28.70    1.35
   3   2  -9   24.33    1.29
  -3  -2   9   25.18    1.40
   3   2  -8    0.28    0.54
   3   2  -8    0.81    0.47
   3   2  -8   -0.01    0.53
   3   2  -8    0.39    0.53
  -3  -2   8    0.76    0.49
   3   2  -7   62.01    1.66
   3   2  -7   64.58    1.41
   3   2  -7   58.21    1.56
  -3  -2   7   47.99    1.50
   3   2  -6    8.00    0.89
   3   2  -6    8.72    0.74
   3   2  -6    5.79    0.64
   3   2  -6    7.81    0.86
  -3  -2   6    4.71    0.62
   3   2  -5  178.83    2.37
   3   2  -5  201.54    1.84
   3   2  -5  184.47    2.25
   3   2  -5  184.24    2.38
  -3  -2   5  117.45    1.98
  -3  -2   5  169.14    1.61
  -3  -2   5  165.07    1.58
   3   2  -4  370.10    3.26
   3   2  -4  323.75    3.00
   3   2  -4  365.77    2.11
   3   2  -4  347.42    2.81
   3   2  -4  345.52    3.10
  -3  -2   4  205.70    2.46
  -3  -2   4  301.92    2.22
  -3  -2   4  292.19    2.19
   3   2  -3  679.24    4.24
   3   2  -3  586.60    3.80
   3   2  -3  632.81    3.45
   3   2  -3  613.09    3.99
  -3  -2   3  376.89    3.19
  -3  -2   3  515.75    3.03
  -3  -2   3  504.15    3.00
   3   2  -2  434.06    3.38
   3   2  -2  369.53    2.90
   3   2  -2  416.12    2.55
   3   2  -2  396.15    3.17
  -3  -2   2  323.26    2.55
  -3  -2   2  310.52    2.50
   3   2  -1  816.44    4.55
   3   2  -1  673.97    3.66
   3   2  -1  786.38    3.07
   3   2  -1  739.95    4.22
  -3  -2   1  597.95    2.98
  -3  -2   1  578.38    3.56
  -3  -2   1  566.49    3.52
   3   2   0 1195.31    5.54
   3   2   0  985.90    4.15
   3   2   0 1098.23    5.07
  -3  -2   0  866.70    3.99
  -3  -2   0  838.94    4.48
  -3  -2   0  810.74    4.40
   3   2   1  629.17    4.15
   3   2   1  525.48    2.84
   3   2   1  573.27    3.68
  -3  -2  -1  467.75    3.22
  -3  -2  -1  576.54    2.73
  -3  -2  -1  425.34    3.37
  -3  -2  -1  415.61    3.33
   3   2   2  136.25    2.10
   3   2   2  124.42    2.02
   3   2   2  126.13    1.83
  -3  -2  -2  106.22    1.74
  -3  -2  -2  123.70    1.51
  -3  -2  -2   93.48    1.75
  -3  -2  -2   88.31    1.69
   3   2   3    0.74    0.44
   3   2   3   -0.21    0.44
   3   2   3    0.20    0.40
  -3  -2  -3    0.21    0.41
  -3  -2  -3    0.48    0.36
  -3  -2  -3    0.12    0.40
  -3  -2  -3    0.35    0.37
   3   2   4    5.81    0.67
   3   2   4    3.89    0.63
   3   2   4    4.18    0.55
  -3  -2  -4    5.07    0.62
  -3  -2  -4    4.19    0.54
  -3  -2  -4    3.37    0.57
  -3  -2  -4    2.62    0.51
   3   2   5    0.25    0.50
   3   2   5   -0.03    0.55
   3   2   5   -0.02    0.43
  -3  -2  -5   -0.46    0.46
  -3  -2  -5    0.16    0.49
  -3  -2  -5    0.06    0.47
  -3  -2  -5   -0.06    0.41
   3   2   6    6.84    0.83
   3   2   6    6.65    0.86
   3   2   6    8.10    0.88
  -3  -2  -6    6.27    0.79
  -3  -2  -6    6.47    0.75
  -3  -2  -6    5.62    0.75
  -3  -2  -6    4.78    0.70
   3   2   7   33.93    1.70
   3   2   7   31.60    1.68
   3   2   7   29.27    1.24
  -3  -2  -7   30.53    1.58
  -3  -2  -7   30.21    1.49
  -3  -2  -7   23.68    1.44
  -3  -2  -7   22.07    1.34
   3   2   8   74.71    2.30
   3   2   8   71.63    2.30
   3   2   8   61.09    1.64
  -3  -2  -8   63.87    2.16
  -3  -2  -8   69.50    2.12
  -3  -2  -8   51.66    1.92
  -3  -2  -8   49.66    1.85
   3   2   9   75.52    2.45
   3   2   9   74.70    2.47
  -3  -2  -9   66.66    2.34
  -3  -2  -9   66.33    2.28
  -3  -2  -9   50.28    2.04
  -3  -2  -9   53.28    2.00
   3   2  10  111.19    2.96
   3   2  10  114.30    2.98
  -3  -2 -10   97.60    2.85
  -3  -2 -10   98.92    2.82
  -3  -2 -10   77.11    2.50
  -3  -2 -10   74.49    2.40
   3   2  11   59.34    2.56
  -3  -2 -11   54.74    2.52
  -3  -2 -11   56.59    2.54
  -3  -2 -11   44.24    2.21
  -3  -2 -11   41.91    2.09
   3   2  12   26.78    2.31
  -3  -2 -12   18.66    2.16
  -3  -2 -12   21.53    2.23
  -3  -2 -12   20.40    2.01
  -3  -2 -12   17.79    1.79
   3   2  13   12.80    1.62
  -3  -2 -13   11.48    1.61
  -3  -2 -13   10.93    1.65
  -3  -2 -13   11.62    1.43
  -3  -2 -13    7.23    1.20
   3   2  14   -0.37    1.28
  -3  -2 -14   -1.21    1.32
  -3  -2 -14    0.03    1.44
  -3  -2 -14   -0.96    1.06
   4   2 -16    3.53    1.39
   4   2 -16    2.06    1.35
   4   2 -16    1.73    1.40
   4   2 -16   -0.17    1.21
  -4  -2  16    2.05    1.45
  -4  -2  16    1.23    0.72
   4   2 -15   12.05    1.62
   4   2 -15    7.73    1.41
   4   2 -15   10.50    1.62
   4   2 -15    7.56    1.42
  -4  -2  15    8.79    1.55
  -4  -2  15    3.28    0.80
   4   2 -14   22.35    2.22
   4   2 -14   19.98    2.09
   4   2 -14   15.50    1.69
   4   2 -14   16.10    1.87
  -4  -2  14   22.30    2.32
  -4  -2  14    5.95    0.93
   4   2 -13   36.96    2.27
   4   2 -13   25.44    1.98
   4   2 -13   26.15    2.06
   4   2 -13   26.38    1.94
  -4  -2  13   32.35    2.23
  -4  -2  13   12.07    1.26
   4   2 -12   20.04    1.85
   4   2 -12   16.14    1.74
   4   2 -12   17.79    1.75
   4   2 -12   15.94    1.65
  -4  -2  12   19.74    1.86
   4   2 -11   -0.03    0.73
   4   2 -11   -0.39    0.71
   4   2 -11   -0.23    0.77
   4   2 -11   -1.43    0.75
  -4  -2  11   -0.87    0.69
   4   2 -10   -0.44    0.65
   4   2 -10   -0.80    0.60
   4   2 -10   -0.24    0.70
   4   2 -10   -1.70    0.65
  -4  -2  10   -0.81    0.58
   4   2  -9   -0.21    0.60
   4   2  -9    0.11    0.54
   4   2  -9   -0.58    0.59
   4   2  -9   -1.02    0.61
  -4  -2   9   -0.79    0.55
   4   2  -8    5.76    0.83
   4   2  -8    8.02    0.95
   4   2  -8    6.90    0.86
   4   2  -8    6.00    0.83
  -4  -2   8    3.48    0.73
   4   2  -7   31.38    1.40
   4   2  -7   35.50    1.19
   4   2  -7   32.21    1.38
   4   2  -7   29.31    1.37
  -4  -2   7   21.53    1.33
   4   2  -6   82.53    1.92
   4   2  -6   94.02    1.54
   4   2  -6   88.11    1.88
   4   2  -6   84.14    1.94
  -4  -2   6   53.29    1.66
   4   2  -5  278.15    3.18
   4   2  -5  312.53    2.42
   4   2  -5  302.98    3.07
   4   2  -5  281.35    3.22
  -4  -2   5  181.35    2.64
  -4  -2   5  255.18    2.17
  -4  -2   5  250.70    2.15
   4   2  -4  613.05    4.55
   4   2  -4  524.57    4.13
   4   2  -4  585.69    3.00
   4   2  -4  556.21    3.84
   4   2  -4  533.11    4.24
  -4  -2   4  340.73    3.44
  -4  -2   4  461.14    3.05
  -4  -2   4  456.51    3.03
   4   2  -3  661.84    4.65
   4   2  -3  541.97    4.02
   4   2  -3  618.34    3.77
   4   2  -3  578.59    4.32
  -4  -2   3  358.39    3.48
  -4  -2   3  470.35    3.26
  -4  -2   3  469.33    3.25
   4   2  -2  890.43    5.31
   4   2  -2  724.23    4.43
   4   2  -2  810.79    3.98
   4   2  -2  777.26    4.88
  -4  -2   2  598.87    3.11
  -4  -2   2  621.64    3.93
  -4  -2   2  593.75    3.83
   4   2  -1   29.22    1.30
   4   2  -1   25.88    1.01
   4   2  -1   27.94    0.84
   4   2  -1   26.83    1.15
  -4  -2   1   21.90    0.80
  -4  -2   1   19.45    0.96
  -4  -2   1   18.70    0.93
   4   2   0   21.82    1.17
   4   2   0   19.15    0.87
   4   2   0   18.75    1.01
  -4  -2   0   14.99    0.79
  -4  -2   0   14.72    0.92
  -4  -2   0   14.77    0.91
   4   2   1   18.22    1.14
   4   2   1   16.74    0.78
   4   2   1   15.40    1.07
   4   2   1   16.15    0.96
  -4  -2  -1   13.19    0.84
  -4  -2  -1   16.41    0.71
  -4  -2  -1   13.09    0.96
  -4  -2  -1   11.73    0.89
   4   2   2    3.53    0.61
   4   2   2    2.58    0.60
   4   2   2    2.95    0.54
  -4  -2  -2    2.16    0.46
  -4  -2  -2    3.02    0.43
  -4  -2  -2    1.80    0.53
  -4  -2  -2    1.68    0.46
   4   2   3   -0.13    0.50
   4   2   3    0.53    0.56
   4   2   3    0.51    0.47
  -4  -2  -3    0.94    0.45
  -4  -2  -3    0.74    0.41
  -4  -2  -3    0.65    0.50
  -4  -2  -3    0.28    0.43
   4   2   4   47.98    1.69
   4   2   4   42.50    1.66
   4   2   4   41.63    1.30
  -4  -2  -4   34.14    1.42
  -4  -2  -4   41.06    1.31
  -4  -2  -4   33.05    1.46
  -4  -2  -4   29.65    1.34
   4   2   5   52.56    1.84
   4   2   5   43.85    1.76
   4   2   5   47.31    1.42
  -4  -2  -5   40.47    1.61
  -4  -2  -5   45.28    1.49
  -4  -2  -5   32.69    1.52
  -4  -2  -5   32.84    1.47
   4   2   6   84.94    2.30
   4   2   6   75.73    2.22
   4   2   6   70.59    1.68
  -4  -2  -6   66.79    2.07
  -4  -2  -6   66.61    1.90
  -4  -2  -6   56.35    1.94
  -4  -2  -6   53.20    1.84
   4   2   7  114.96    2.75
   4   2   7  105.43    2.67
   4   2   7   93.46    1.92
  -4  -2  -7   92.52    2.48
  -4  -2  -7   95.22    2.32
  -4  -2  -7   76.71    2.30
  -4  -2  -7   73.32    2.21
   4   2   8  164.63    3.34
   4   2   8  154.34    3.28
  -4  -2  -8  138.47    3.08
  -4  -2  -8  143.68    2.91
  -4  -2  -8  112.63    2.80
  -4  -2  -8  112.66    2.74
   4   2   9  126.78    3.19
   4   2   9  113.77    3.06
  -4  -2  -9  103.37    2.91
  -4  -2  -9  106.47    2.79
  -4  -2  -9   82.69    2.63
  -4  -2  -9   84.05    2.56
   4   2  10   47.26    2.43
   4   2  10   43.12    2.49
  -4  -2 -10   36.14    2.26
  -4  -2 -10   39.26    2.25
  -4  -2 -10   29.39    2.11
  -4  -2 -10   29.62    1.96
   4   2  11   31.34    2.34
   4   2  11   28.48    2.52
  -4  -2 -11   24.86    2.18
  -4  -2 -11   27.21    2.21
  -4  -2 -11   20.20    2.12
  -4  -2 -11   18.45    1.88
   4   2  12    3.17    1.24
  -4  -2 -12    1.24    1.21
  -4  -2 -12    0.89    1.29
  -4  -2 -12    0.79    1.09
  -4  -2 -12    0.57    0.96
   4   2  13    3.49    1.43
  -4  -2 -13    0.30    1.29
  -4  -2 -13    1.76    1.37
  -4  -2 -13    0.66    1.19
  -4  -2 -13   -0.48    0.97
   5   2 -16   10.48    1.76
   5   2 -16    5.35    1.37
   5   2 -16    6.64    1.65
   5   2 -16    5.21    1.52
  -5  -2  16    6.49    1.71
  -5  -2  16    2.31    0.82
   5   2 -15    1.42    1.32
   5   2 -15    1.28    1.09
   5   2 -15    1.91    1.25
   5   2 -15    1.70    1.30
  -5  -2  15    2.93    1.38
  -5  -2  15    0.76    0.66
   5   2 -14    3.49    1.34
   5   2 -14    1.28    1.00
   5   2 -14    1.25    1.13
   5   2 -14    0.37    1.17
  -5  -2  14    3.14    1.24
  -5  -2  14    0.69    0.67
   5   2 -13   -0.04    1.10
   5   2 -13   -0.46    0.81
   5   2 -13    0.44    0.98
   5   2 -13   -0.78    1.03
  -5  -2  13   -0.19    0.96
  -5  -2  13   -0.41    0.57
   5   2 -12    2.41    1.03
   5   2 -12    3.86    0.92
   5   2 -12    1.48    0.96
   5   2 -12    1.94    1.06
  -5  -2  12    1.51    0.97
   5   2 -11    1.23    0.86
   5   2 -11    3.35    0.81
   5   2 -11    2.53    0.91
   5   2 -11    2.21    0.93
  -5  -2  11    1.55    0.88
   5   2 -10   -1.13    0.70
   5   2 -10    0.93    0.66
   5   2 -10   -0.47    0.70
   5   2 -10    0.36    0.80
  -5  -2  10   -1.15    0.69
   5   2  -9   13.64    1.47
   5   2  -9   18.06    1.34
   5   2  -9   12.49    1.43
   5   2  -9   11.81    1.40
  -5  -2   9    8.09    1.05
   5   2  -8   70.43    2.14
   5   2  -8   79.12    1.85
   5   2  -8   70.66    2.13
   5   2  -8   66.61    2.11
  -5  -2   8   51.12    1.93
   5   2  -7   60.55    1.94
   5   2  -7   68.16    1.65
   5   2  -7   60.99    1.88
   5   2  -7   53.56    1.91
  -5  -2   7   42.77    1.78
   5   2  -6  171.73    2.89
   5   2  -6  191.62    2.32
   5   2  -6  183.88    2.81
   5   2  -6  158.16    2.83
  -5  -2   6  120.05    2.49
  -5  -2   6  154.83    2.20
   5   2  -5  327.55    3.74
   5   2  -5  357.52    2.88
   5   2  -5  350.14    3.57
   5   2  -5  310.17    3.71
  -5  -2   5  218.64    3.13
  -5  -2   5  285.75    2.59
  -5  -2   5  281.50    2.56
   5   2  -4  306.35    3.59
   5   2  -4  249.68    3.18
   5   2  -4  276.77    2.42
   5   2  -4  271.34    2.99
   5   2  -4  249.23    3.26
  -5  -2   4  166.90    2.75
  -5  -2   4  213.36    2.38
  -5  -2   4  211.06    2.36
   5   2  -3  143.00    2.54
   5   2  -3  116.07    2.15
   5   2  -3  123.12    1.67
   5   2  -3  125.82    1.99
   5   2  -3  121.26    2.30
  -5  -2   3   74.33    2.01
  -5  -2   3   99.44    1.77
  -5  -2   3   95.75    1.75
   5   2  -2   51.75    1.72
   5   2  -2   43.73    1.39
   5   2  -2   39.96    1.09
   5   2  -2   46.66    1.23
   5   2  -2   42.06    1.49
  -5  -2   2   33.02    0.99
  -5  -2   2   36.25    1.26
  -5  -2   2   34.48    1.23
   5   2  -1   11.52    1.20
   5   2  -1   10.63    0.89
   5   2  -1    8.61    0.78
   5   2  -1    9.84    1.03
  -5  -2   1    8.96    0.74
  -5  -2   1    8.27    0.66
  -5  -2   1    8.41    0.91
  -5  -2   1    8.29    0.89
   5   2   0   11.78    1.20
   5   2   0   12.45    0.88
   5   2   0   11.07    1.10
   5   2   0   11.51    0.74
   5   2   0   11.74    1.05
  -5  -2   0    9.45    0.80
  -5  -2   0   11.41    0.71
  -5  -2   0    9.13    0.96
  -5  -2   0    8.02    0.92
   5   2   1    1.26    0.57
   5   2   1    0.62    0.39
   5   2   1    0.42    0.54
   5   2   1    1.32    0.57
  -5  -2  -1    1.06    0.45
  -5  -2  -1    0.80    0.38
  -5  -2  -1    0.27    0.48
  -5  -2  -1    0.02    0.43
   5   2   2    8.98    0.73
   5   2   2    8.15    0.90
   5   2   2    9.42    0.99
  -5  -2  -2    6.28    0.70
  -5  -2  -2    8.60    0.79
  -5  -2  -2    5.67    0.74
  -5  -2  -2    6.75    0.81
   5   2   3   69.59    2.08
   5   2   3   59.77    1.96
   5   2   3   58.45    1.64
  -5  -2  -3   51.15    1.66
  -5  -2  -3   60.87    1.51
  -5  -2  -3   43.34    1.70
  -5  -2  -3   41.96    1.62
   5   2   4   86.43    2.37
   5   2   4   73.72    2.26
   5   2   4   78.63    1.86
  -5  -2  -4   67.35    1.98
  -5  -2  -4   79.39    1.82
  -5  -2  -4   53.33    1.97
  -5  -2  -4   53.40    1.88
   5   2   5  340.09    4.33
   5   2   5  282.63    4.03
   5   2   5  280.43    3.18
  -5  -2  -5  255.10    3.69
  -5  -2  -5  283.59    3.38
  -5  -2  -5  205.14    3.48
  -5  -2  -5  201.02    3.40
   5   2   6  235.77    3.82
   5   2   6  202.29    3.61
   5   2   6  187.03    2.75
  -5  -2  -6  173.78    3.27
  -5  -2  -6  192.45    3.06
  -5  -2  -6  148.73    3.13
  -5  -2  -6  140.46    3.00
   5   2   7   87.51    2.67
   5   2   7   79.55    2.64
  -5  -2  -7   67.70    2.40
  -5  -2  -7   67.85    2.23
  -5  -2  -7   56.90    2.26
  -5  -2  -7   53.37    2.15
   5   2   8   60.68    2.47
   5   2   8   60.84    2.54
  -5  -2  -8   50.21    2.31
  -5  -2  -8   48.81    2.17
  -5  -2  -8   42.26    2.18
  -5  -2  -8   39.24    2.06
   5   2   9   27.92    2.14
   5   2   9   25.90    2.25
  -5  -2  -9   22.77    2.02
  -5  -2  -9   23.74    1.92
  -5  -2  -9   18.55    1.97
  -5  -2  -9   16.62    1.76
   5   2  10    5.97    1.26
   5   2  10    5.59    1.37
  -5  -2 -10    5.03    1.24
  -5  -2 -10    4.04    1.19
  -5  -2 -10    4.91    1.19
  -5  -2 -10    4.15    1.10
   5   2  11    5.91    1.38
   5   2  11    5.00    1.50
  -5  -2 -11    3.64    1.35
  -5  -2 -11    3.21    1.32
  -5  -2 -11    5.08    1.35
  -5  -2 -11    1.16    0.98
   5   2  12    0.69    1.32
  -5  -2 -12    1.16    1.33
  -5  -2 -12   -0.10    1.29
  -5  -2 -12    0.87    1.26
   6   2 -15    0.43    1.54
   6   2 -15    0.57    1.31
   6   2 -15   -0.54    1.31
  -6  -2  15   -2.12    1.34
  -6  -2  15    0.05    0.63
   6   2 -14   -0.80    1.30
   6   2 -14    0.32    1.51
   6   2 -14   -0.71    1.10
   6   2 -14   -1.86    1.16
  -6  -2  14   -1.70    1.11
  -6  -2  14    0.09    0.65
   6   2 -13   -1.63    1.18
   6   2 -13    0.70    0.95
   6   2 -13   -2.03    0.96
   6   2 -13   -1.28    1.06
  -6  -2  13   -0.01    1.12
  -6  -2  13   -0.41    0.63
   6   2 -12   -1.11    1.02
   6   2 -12    1.53    0.88
   6   2 -12   -1.09    0.89
   6   2 -12   -0.34    1.02
  -6  -2  12   -0.13    1.01
   6   2 -11    6.79    1.30
   6   2 -11    7.40    1.06
   6   2 -11    6.06    1.22
   6   2 -11    7.16    1.27
  -6  -2  11    3.78    1.08
   6   2 -10   25.68    2.06
   6   2 -10   30.56    1.76
   6   2 -10   21.71    1.85
   6   2 -10   20.29    1.81
  -6  -2  10   16.82    1.88
   6   2  -9   40.86    2.10
   6   2  -9   42.83    1.79
   6   2  -9   39.98    2.06
   6   2  -9   30.81    1.86
  -6  -2   9   30.22    1.98
   6   2  -8   92.15    2.65
   6   2  -8  103.34    2.27
   6   2  -8   98.57    2.67
   6   2  -8   79.23    2.46
  -6  -2   8   70.90    2.38
   6   2  -7  173.67    3.28
   6   2  -7  178.40    2.72
   6   2  -7  178.96    3.20
   6   2  -7  149.33    3.04
  -6  -2   7  133.75    2.87
   6   2  -6   24.75    1.57
   6   2  -6   25.02    1.38
   6   2  -6   25.68    1.54
   6   2  -6   22.32    1.51
  -6  -2   6   19.78    1.49
   6   2  -5   33.45    1.79
   6   2  -5   23.59    1.53
   6   2  -5   28.47    1.36
   6   2  -5   27.54    1.51
   6   2  -5   22.80    1.55
  -6  -2   5   19.41    1.46
  -6  -2   5   22.08    1.13
  -6  -2   5   21.75    1.04
   6   2  -4   61.85    2.07
   6   2  -4   47.09    1.76
   6   2  -4   51.28    1.63
   6   2  -4   50.71    1.68
   6   2  -4   44.55    1.79
  -6  -2   4   33.32    1.69
  -6  -2   4   43.45    1.40
  -6  -2   4   39.80    1.34
   6   2  -3    2.82    0.77
   6   2  -3    3.25    0.68
   6   2  -3    1.81    0.62
   6   2  -3    3.87    0.66
   6   2  -3    3.63    0.79
  -6  -2   3    0.31    0.74
  -6  -2   3    2.07    0.46
  -6  -2   3    2.69    0.59
  -6  -2   3    2.29    0.54
   6   2  -2    0.60    0.67
   6   2  -2    0.35    0.53
   6   2  -2    0.27    0.52
   6   2  -2    1.03    0.51
   6   2  -2    1.03    0.66
  -6  -2   2    0.42    0.39
  -6  -2   2    1.07    0.53
  -6  -2   2    0.68    0.50
   6   2  -1   -0.51    0.62
   6   2  -1    0.11    0.50
   6   2  -1   -0.62    0.47
   6   2  -1   -0.44    0.44
   6   2  -1   -0.17    0.61
  -6  -2   1    0.08    0.40
  -6  -2   1    0.10    0.38
  -6  -2   1   -0.31    0.49
  -6  -2   1   -0.38    0.48
   6   2   0    1.65    0.77
   6   2   0    2.87    0.58
   6   2   0    2.76    0.71
   6   2   0    3.69    0.64
   6   2   0    2.83    0.73
  -6  -2   0    2.37    0.55
  -6  -2   0    2.74    0.48
  -6  -2   0    2.42    0.65
  -6  -2   0    1.62    0.60
   6   2   1   39.54    1.88
   6   2   1   40.26    1.36
   6   2   1   39.67    1.78
   6   2   1   35.59    1.55
  -6  -2  -1   31.10    1.39
  -6  -2  -1   36.14    1.21
  -6  -2  -1   28.81    1.58
  -6  -2  -1   27.63    1.49
   6   2   2   75.05    2.36
   6   2   2   68.30    2.21
   6   2   2   65.48    1.91
  -6  -2  -2   59.11    1.84
  -6  -2  -2   65.34    1.62
  -6  -2  -2   48.25    1.92
  -6  -2  -2   49.57    1.86
   6   2   3  247.47    3.85
   6   2   3  211.45    3.56
   6   2   3  199.41    2.97
  -6  -2  -3  175.34    3.03
  -6  -2  -3  214.44    2.83
  -6  -2  -3  153.73    3.08
  -6  -2  -3  149.16    2.99
   6   2   4  248.51    3.98
   6   2   4  199.91    3.61
   6   2   4  193.36    2.94
  -6  -2  -4  176.60    3.21
  -6  -2  -4  207.29    2.97
  -6  -2  -4  153.27    3.20
  -6  -2  -4  146.50    3.08
   6   2   5  166.06    3.47
   6   2   5  140.97    3.26
   6   2   5  130.73    3.27
  -6  -2  -5  127.87    2.95
  -6  -2  -5  141.65    2.71
  -6  -2  -5  104.67    2.86
  -6  -2  -5   99.70    2.74
   6   2   6  179.77    3.67
   6   2   6  151.72    3.51
  -6  -2  -6  134.91    3.16
  -6  -2  -6  145.38    2.90
  -6  -2  -6  111.36    3.05
  -6  -2  -6  107.81    2.95
   6   2   7   37.64    2.30
   6   2   7   29.27    2.27
  -6  -2  -7   27.61    2.03
  -6  -2  -7   28.01    1.87
  -6  -2  -7   22.42    2.01
  -6  -2  -7   19.42    1.82
   6   2   8    7.08    1.24
   6   2   8    8.43    1.38
  -6  -2  -8    4.21    1.16
  -6  -2  -8    4.15    1.12
  -6  -2  -8    4.42    1.16
  -6  -2  -8    2.58    0.98
   6   2   9    0.88    1.09
   6   2   9   -1.06    1.19
  -6  -2  -9   -0.48    1.04
  -6  -2  -9   -2.31    0.94
  -6  -2  -9   -0.50    1.03
  -6  -2  -9   -1.44    0.85
   6   2  10   -0.97    1.13
   6   2  10   -1.63    1.25
  -6  -2 -10   -0.54    1.19
  -6  -2 -10   -2.38    1.07
  -6  -2 -10   -2.31    1.06
  -6  -2 -10   -2.14    1.00
   6   2  11   -2.31    1.21
   6   2  11   -0.83    1.34
  -6  -2 -11   -0.91    1.30
  -6  -2 -11   -0.68    1.25
  -6  -2 -11   -0.80    1.16
   7   2 -14   -1.96    1.40
   7   2 -14    0.41    1.32
   7   2 -14   -1.44    1.30
  -7  -2  14   -3.47    1.26
  -7  -2  14    0.94    0.78
   7   2 -13    1.67    1.44
   7   2 -13    1.14    1.30
   7   2 -13    0.58    1.31
  -7  -2  13    0.84    1.31
  -7  -2  13   -0.01    0.69
   7   2 -12    3.46    1.37
   7   2 -12    3.91    1.31
   7   2 -12    2.57    1.27
  -7  -2  12    2.13    1.22
   7   2 -11   24.03    2.39
   7   2 -11   18.76    2.16
   7   2 -11   18.15    2.11
  -7  -2  11   13.35    1.57
   7   2 -10   33.57    2.40
   7   2 -10   29.04    2.23
   7   2 -10   27.88    2.13
  -7  -2  10   31.36    2.28
   7   2  -9   39.08    2.33
   7   2  -9   39.75    2.24
   7   2  -9   28.77    2.05
  -7  -2   9   34.18    2.18
   7   2  -8   37.04    2.19
   7   2  -8   38.46    2.11
   7   2  -8   27.45    1.90
  -7  -2   8   30.06    2.00
   7   2  -7   29.41    1.94
   7   2  -7   32.40    1.94
   7   2  -7   24.41    1.82
  -7  -2   7   23.93    1.80
   7   2  -6   21.53    1.72
   7   2  -6   22.94    1.68
   7   2  -6   18.90    1.64
  -7  -2   6   18.47    1.63
   7   2  -5    2.06    0.88
   7   2  -5    1.33    0.75
   7   2  -5    2.46    0.77
   7   2  -5    0.54    0.77
  -7  -2   5   -0.06    0.72
   7   2  -4    2.98    0.96
   7   2  -4    3.07    0.85
   7   2  -4    4.39    0.79
   7   2  -4    3.59    0.92
  -7  -2   4    1.98    0.85
  -7  -2   4    3.30    0.69
  -7  -2   4    2.42    0.59
   7   2  -3   -1.64    0.75
   7   2  -3   -0.04    0.67
   7   2  -3    1.24    0.67
   7   2  -3    1.57    0.82
  -7  -2   3    0.51    0.83
  -7  -2   3    0.87    0.62
  -7  -2   3    1.18    0.57
   7   2  -2    5.68    1.08
   7   2  -2    8.08    0.97
   7   2  -2    8.91    0.93
   7   2  -2    7.77    1.07
  -7  -2   2    7.14    0.90
  -7  -2   2    6.09    0.80
   7   2  -1   39.47    2.15
   7   2  -1   42.33    1.72
   7   2  -1   37.75    1.80
  -7  -2   1   32.83    1.43
  -7  -2   1   30.80    1.70
  -7  -2   1   32.50    1.64
   7   2   0  157.29    3.34
   7   2   0  145.31    2.61
   7   2   0  139.05    2.98
   7   2   0  131.89    2.82
  -7  -2   0  112.71    2.38
  -7  -2   0  103.15    2.62
  -7  -2   0   99.34    2.53
   7   2   1  186.16    3.60
   7   2   1  163.96    3.30
   7   2   1  152.54    2.94
  -7  -2  -1  129.89    2.66
  -7  -2  -1  120.60    2.87
  -7  -2  -1  119.77    2.81
   7   2   2  146.75    3.33
   7   2   2  131.25    3.13
   7   2   2  111.15    2.55
  -7  -2  -2  109.54    2.60
  -7  -2  -2   92.04    2.71
  -7  -2  -2   93.44    2.63
   7   2   3  118.39    3.12
   7   2   3   98.97    2.92
   7   2   3   93.42    2.38
  -7  -2  -3   83.06    2.46
  -7  -2  -3   74.73    2.59
  -7  -2  -3   70.04    2.44
   7   2   4   71.37    2.70
   7   2   4   63.07    2.61
  -7  -2  -4   51.08    2.19
  -7  -2  -4   42.57    2.25
  -7  -2  -4   42.77    2.12
   7   2   5   33.41    2.27
   7   2   5   27.51    2.24
  -7  -2  -5   26.04    1.91
  -7  -2  -5   21.08    2.00
  -7  -2  -5   19.34    1.81
   7   2   6   13.16    1.46
   7   2   6   10.18    1.45
  -7  -2  -6    9.85    1.34
  -7  -2  -6    7.71    1.30
  -7  -2  -6    6.10    1.16
   7   2   7   -0.08    1.08
   7   2   7   -0.54    1.12
  -7  -2  -7   -0.49    0.99
  -7  -2  -7   -0.22    1.02
  -7  -2  -7   -1.62    0.84
   7   2   8    2.32    1.26
   7   2   8    0.49    1.26
  -7  -2  -8   -0.65    1.15
  -7  -2  -8    0.38    1.16
  -7  -2  -8   -1.32    1.37
   7   2   9    5.02    1.50
   7   2   9    3.40    1.56
  -7  -2  -9    3.18    1.38
  -7  -2  -9    3.22    1.39
   8   2 -12   10.54    1.80
   8   2 -12    9.05    1.63
   8   2 -12    7.24    1.58
  -8  -2  12   10.19    1.66
   8   2 -11    5.08    1.57
   8   2 -11    6.66    1.44
   8   2 -11    2.85    1.34
  -8  -2  11    5.20    1.38
   8   2 -10    9.73    1.57
   8   2 -10   11.68    1.57
   8   2 -10    7.81    1.45
  -8  -2  10    8.96    1.43
   8   2  -9    9.91    1.53
   8   2  -9   13.15    1.57
   8   2  -9    6.32    1.36
  -8  -2   9    7.87    1.33
   8   2  -8    2.20    1.10
   8   2  -8    3.71    1.11
   8   2  -8    1.43    1.08
  -8  -2   8    1.72    0.99
   8   2  -7   -0.48    0.96
   8   2  -7    2.85    1.00
   8   2  -7   -0.02    0.95
  -8  -2   7    1.81    0.96
   8   2  -6   -0.34    0.87
   8   2  -6   -0.55    0.77
   8   2  -6   -1.60    0.84
  -8  -2   6   -1.20    0.77
   8   2  -5   -1.16    0.98
   8   2  -5    0.52    0.88
   8   2  -5    1.35    0.84
   8   2  -5    0.81    0.89
  -8  -2   5   -0.72    0.81
   8   2  -4    0.44    1.10
   8   2  -4    3.71    1.00
   8   2  -4    4.53    0.96
   8   2  -4    4.00    1.04
  -8  -2   4    2.65    0.97
   8   2  -3    9.28    1.41
   8   2  -3   13.54    1.68
   8   2  -3   14.96    1.72
  -8  -2   3    9.96    1.28
  -8  -2   3   14.24    1.61
   8   2  -2   49.58    2.55
   8   2  -2   52.97    2.15
   8   2  -2   42.08    2.07
  -8  -2   2   40.51    2.02
  -8  -2   2   36.53    1.83
   8   2  -1   89.81    3.00
   8   2  -1   91.13    2.42
   8   2  -1   70.53    2.42
  -8  -2   1   69.30    2.42
  -8  -2   1   64.26    2.28
   8   2   0  131.12    3.45
   8   2   0   96.05    2.72
  -8  -2   0   80.10    2.45
  -8  -2   0   84.74    2.73
  -8  -2   0   75.77    2.51
   8   2   1  162.11    3.74
   8   2   1  135.00    3.40
   8   2   1  116.75    2.90
  -8  -2  -1  107.51    2.71
  -8  -2  -1   99.52    2.98
  -8  -2  -1   95.78    2.86
   8   2   2   83.58    3.00
   8   2   2   69.81    2.82
   8   2   2   60.90    2.24
  -8  -2  -2   53.07    2.24
  -8  -2  -2   51.12    2.50
  -8  -2  -2   47.27    2.32
   8   2   3   22.83    2.25
   8   2   3   20.00    2.23
  -8  -2  -3   17.40    1.78
  -8  -2  -3   15.96    1.99
  -8  -2  -3   17.44    1.86
   8   2   4    1.79    1.13
   8   2   4    1.94    1.15
  -8  -2  -4    1.12    0.91
  -8  -2  -4    1.88    1.08
  -8  -2  -4    0.50    0.92
   8   2   5   -0.34    1.08
   8   2   5   -2.04    1.08
  -8  -2  -5   -0.33    0.96
  -8  -2  -5    0.26    1.07
  -8  -2  -5   -1.84    0.89
   8   2   6    0.97    1.26
   8   2   6   -0.65    1.29
  -8  -2  -6   -1.00    1.05
  -8  -2  -6    0.91    1.22
   8   2   7   -1.16    1.25
   8   2   7   -1.04    1.34
  -8  -2  -7   -1.65    1.11
  -8  -2  -7   -1.63    1.12
   9   2  -9   -1.15    1.27
   9   2  -9    1.23    1.12
   9   2  -9   -2.34    1.11
  -9  -2   9   -0.89    1.10
   9   2  -8   -0.88    1.20
   9   2  -8    0.45    1.04
   9   2  -8   -0.40    1.19
  -9  -2   8   -0.77    1.06
   9   2  -7   -0.91    1.21
   9   2  -7    0.91    1.02
   9   2  -7   -0.43    1.13
  -9  -2   7   -0.39    1.11
   9   2  -6    2.47    1.22
   9   2  -6    2.53    1.09
   9   2  -6    2.88    1.16
  -9  -2   6   -0.99    1.03
   9   2  -5    7.88    1.29
   9   2  -5    6.47    1.29
  -9  -2   5    2.04    1.17
   9   2  -4   21.02    1.93
   9   2  -4   27.58    2.12
   9   2  -4   19.12    1.96
  -9  -2   4   13.57    1.58
   9   2  -3   58.85    3.00
   9   2  -3   56.36    2.61
   9   2  -3   43.88    2.37
  -9  -2   3   37.63    2.46
   9   2  -2   77.25    3.17
   9   2  -2   70.36    2.70
   9   2  -2   55.32    2.55
  -9  -2   2   51.52    2.62
  -9  -2   2   55.41    3.82
   9   2  -1   65.52    2.98
   9   2  -1   42.20    2.30
  -9  -2   1   43.24    2.40
  -9  -2   1   35.48    2.23
   9   2   0   44.24    2.72
   9   2   0   30.45    2.05
  -9  -2   0   32.82    2.32
  -9  -2   0   25.97    2.12
   9   2   1   16.64    1.77
   9   2   1   12.75    1.40
  -9  -2  -1   11.60    1.50
  -9  -2  -1   10.70    1.41
   9   2   2    5.19    1.36
  -9  -2  -2    3.64    1.07
  -9  -2  -2    2.26    1.19
  -9  -2  -2    2.31    1.03
   9   2   3   -0.25    1.19
   9   2   3   -3.23    1.11
  -9  -2  -3   -1.51    0.91
  -9  -2  -3   -1.91    1.02
  -9  -2  -3   -1.17    1.01
   9   2   4   -0.22    1.16
   9   2   4   -0.62    1.22
  -9  -2  -4   -1.48    1.02
  -9  -2  -4   -1.52    1.14
   9   2   5   -0.56    1.28
   9   2   5   -1.32    1.24
  -9  -2  -5   -1.50    1.09
  -9  -2  -5   -1.54    1.20
  10   2  -4   29.19    2.78
  10   2  -4   29.13    2.52
  10   2  -4   20.73    2.27
 -10  -2   4   13.19    1.66
  10   2  -3   27.49    2.77
  10   2  -3   24.72    2.71
  10   2  -3   18.06    2.16
 -10  -2   3   11.25    1.66
  10   2  -2   14.70    1.84
  10   2  -2    8.56    1.47
 -10  -2   2   10.13    1.67
  10   2  -1    4.77    1.46
  10   2  -1    4.28    1.26
 -10  -2   1    2.13    1.38
 -10   3  -1    5.62    1.16
 -10   3  -1    7.24    1.35
  10  -3   1    7.47    1.59
  10  -3   1    8.05    1.71
  10  -3   1    6.26    1.56
  10  -3   1    6.30    1.61
 -10   3   0   13.71    1.57
 -10   3   0   15.73    1.79
  10  -3   0   20.60    2.49
  10  -3   0   17.10    1.98
  10  -3   0   13.38    1.93
 -10   3   1   13.72    1.65
 -10   3   1   13.35    1.66
  10  -3  -1   16.24    1.95
  10  -3  -1   16.40    1.85
  10  -3  -1   18.00    2.02
  10  -3  -1   15.07    1.95
  -9   3  -7    1.13    1.19
  -9   3  -7    0.35    1.05
  -9   3  -7   -0.80    0.95
   9  -3   7   -1.40    1.28
   9  -3   7   -1.39    1.24
  -9   3  -6    2.82    1.11
  -9   3  -6    1.40    0.94
   9  -3   6    1.21    1.34
   9  -3   6    0.77    1.28
  -9   3  -5    1.70    1.03
  -9   3  -5    1.69    0.95
   9  -3   5    2.78    1.26
   9  -3   5    2.71    1.39
   9  -3   5    2.04    1.31
   9  -3   5    1.64    1.35
  -9   3  -4    4.59    1.16
  -9   3  -4    4.66    1.12
   9  -3   4    6.07    1.47
   9  -3   4    2.87    1.36
   9  -3   4    5.74    1.35
   9  -3   4    6.49    1.23
  -9   3  -3   18.69    1.91
  -9   3  -3   13.52    1.52
   9  -3   3   20.07    2.39
   9  -3   3   17.25    1.87
   9  -3   3   22.70    2.31
   9  -3   3   16.88    1.94
   9  -3   3   15.06    1.78
  -9   3  -2   28.57    1.97
  -9   3  -2   27.67    2.05
   9  -3   2   40.55    2.68
   9  -3   2   41.57    2.72
   9  -3   2   38.13    2.47
   9  -3   2   33.36    2.19
   9  -3   2   32.65    2.55
  -9   3  -1   41.50    2.22
  -9   3  -1   40.95    2.26
   9  -3   1   57.40    2.89
   9  -3   1   59.13    2.91
   9  -3   1   51.14    2.57
   9  -3   1   48.77    2.36
   9  -3   1   53.16    2.86
  -9   3   0   46.48    2.35
  -9   3   0   42.33    2.31
   9  -3   0   65.17    2.99
   9  -3   0   66.95    2.94
   9  -3   0   70.23    2.98
   9  -3   0   51.40    2.51
   9  -3   0   52.89    2.82
  -9   3   1   19.26    1.93
  -9   3   1    9.27    1.13
   9  -3  -1   30.16    2.47
   9  -3  -1   32.41    2.40
   9  -3  -1   33.42    2.47
   9  -3  -1   25.87    2.34
  -9   3   2    5.08    1.14
  -9   3   2    2.57    0.79
   9  -3  -2    5.57    1.36
   9  -3  -2    4.61    1.22
   9  -3  -2    7.61    1.43
   9  -3  -2    5.52    1.36
  -9   3   3    1.63    1.05
  -9   3   3    1.48    0.75
   9  -3  -3    0.91    1.26
   9  -3  -3    1.43    1.05
   9  -3  -3    2.72    1.30
   9  -3  -3    2.12    1.19
  -9   3   4    0.70    1.08
  -9   3   4    1.14    0.75
   9  -3  -4   -0.49    1.18
   9  -3  -4    2.64    1.14
   9  -3  -4    2.40    1.33
   9  -3  -4    2.64    1.29
  -9   3   5   -0.86    1.05
  -9   3   5    0.44    0.75
   9  -3  -5   -0.82    1.30
   9  -3  -5    1.64    1.34
   9  -3  -5    2.44    1.28
  -9   3   6   -2.28    1.01
  -9   3   6    0.22    0.79
   9  -3  -6   -1.54    1.22
   9  -3  -6   -1.69    1.27
   9  -3  -6   -1.07    1.19
  -9   3   7   -0.86    1.13
  -9   3   7   -0.45    0.78
   9  -3  -7   -2.36    1.31
   9  -3  -7   -2.14    1.32
   9  -3  -7   -0.97    1.32
  -8   3  -9    8.85    1.57
  -8   3  -9   10.99    1.53
  -8   3  -9   10.07    1.44
   8  -3   9    8.60    1.67
   8  -3   9   11.49    1.86
  -8   3  -8    0.76    1.13
  -8   3  -8    0.89    0.95
  -8   3  -8    2.20    1.02
   8  -3   8    1.75    1.29
   8  -3   8    1.61    1.30
  -8   3  -7   -0.40    0.86
  -8   3  -7   -0.56    0.81
   8  -3   7   -0.06    1.11
   8  -3   7   -0.59    1.03
   8  -3   7    0.35    0.97
  -8   3  -6    3.47    1.02
  -8   3  -6    2.81    0.98
   8  -3   6    3.71    1.27
   8  -3   6    3.07    1.30
   8  -3   6    4.85    1.21
   8  -3   6    4.60    1.12
  -8   3  -5   31.61    2.10
  -8   3  -5   30.60    1.96
   8  -3   5   43.57    2.60
   8  -3   5   32.98    2.48
   8  -3   5   41.36    2.53
   8  -3   5   36.51    2.29
  -8   3  -4   79.79    2.76
  -8   3  -4   74.74    2.58
   8  -3   4  105.96    3.29
   8  -3   4   98.96    3.17
   8  -3   4   94.50    3.13
   8  -3   4   95.11    3.04
  -8   3  -3   77.01    2.38
  -8   3  -3   76.34    2.64
  -8   3  -3   70.72    2.47
   8  -3   3  103.60    3.24
   8  -3   3   99.22    3.16
   8  -3   3   92.02    2.95
   8  -3   3   86.20    2.84
   8  -3   3   87.68    2.97
  -8   3  -2   39.73    1.93
  -8   3  -2   39.61    2.03
   8  -3   2   55.56    2.63
   8  -3   2   56.98    2.64
   8  -3   2   49.74    2.37
   8  -3   2   47.36    2.27
   8  -3   2   52.09    2.52
  -8   3  -1   30.27    1.81
  -8   3  -1   27.86    1.85
  -8   3  -1   17.93    1.30
   8  -3   1   43.33    2.35
   8  -3   1   41.48    2.40
   8  -3   1   35.12    2.06
   8  -3   1   32.79    1.98
   8  -3   1   38.89    2.30
  -8   3   0   20.45    1.66
  -8   3   0   12.37    1.20
   8  -3   0   31.23    2.13
   8  -3   0   31.49    2.14
   8  -3   0   32.65    2.17
   8  -3   0   22.73    1.79
   8  -3   0   23.80    1.71
   8  -3   0   24.89    1.99
  -8   3   1    9.00    1.15
  -8   3   1    5.29    0.83
   8  -3  -1   11.88    1.38
   8  -3  -1   15.41    1.85
   8  -3  -1   13.83    1.52
   8  -3  -1   12.57    1.56
   8  -3  -1   11.77    1.44
   8  -3  -1   15.33    1.88
  -8   3   2    0.98    0.81
  -8   3   2    0.97    0.62
   8  -3  -2    2.58    1.02
   8  -3  -2    3.05    1.02
   8  -3  -2    0.62    1.05
   8  -3  -2    1.73    1.02
  -8   3   3   -0.54    0.81
  -8   3   3   -0.25    0.54
   8  -3  -3   -2.13    0.91
   8  -3  -3    0.45    0.96
   8  -3  -3   -2.44    0.95
   8  -3  -3   -0.31    0.91
  -8   3   4   -0.02    0.90
  -8   3   4    0.26    0.61
   8  -3  -4   -0.20    1.05
   8  -3  -4    0.66    0.98
   8  -3  -4    0.01    1.07
   8  -3  -4    0.00    0.99
  -8   3   5    0.24    0.96
  -8   3   5    0.80    0.68
   8  -3  -5    1.32    1.06
   8  -3  -5    1.11    0.98
   8  -3  -5    0.20    1.14
   8  -3  -5    0.69    1.06
  -8   3   6    4.04    1.12
  -8   3   6    3.12    0.89
   8  -3  -6    5.84    1.32
   8  -3  -6    5.26    1.21
   8  -3  -6    5.49    1.41
   8  -3  -6    4.88    1.31
  -8   3   7    9.82    1.52
  -8   3   7    5.16    1.07
   8  -3  -7   10.19    1.61
   8  -3  -7   14.32    1.73
   8  -3  -7   10.35    1.63
  -8   3   8    3.58    1.19
  -8   3   8    1.44    0.83
   8  -3  -8    2.89    1.33
   8  -3  -8    4.73    1.45
   8  -3  -8    2.44    1.39
  -8   3   9    6.36    1.37
  -8   3   9    1.51    0.92
   8  -3  -9    4.61    1.61
   8  -3  -9    7.50    1.58
   8  -3  -9    5.86    1.59
  -7   3 -11    0.67    1.12
  -7   3 -11    1.00    1.16
  -7   3 -11    0.47    1.11
   7  -3  11   -0.69    1.12
   7  -3  11   -1.12    1.31
   7  -3  11   -1.34    1.35
  -7   3 -10    0.23    0.92
  -7   3 -10    1.26    1.08
  -7   3 -10    0.72    0.99
   7  -3  10    0.19    1.00
   7  -3  10   -1.41    1.17
   7  -3  10   -0.65    1.21
   7  -3  10    0.49    1.31
  -7   3  -9    4.07    1.21
  -7   3  -9    4.55    1.14
  -7   3  -9    5.87    1.15
   7  -3   9    6.85    1.17
   7  -3   9    7.12    1.39
   7  -3   9    4.97    1.28
   7  -3   9    4.09    1.17
  -7   3  -8   10.78    1.34
  -7   3  -8    9.17    1.22
   7  -3   8   18.34    1.82
   7  -3   8   11.01    1.41
   7  -3   8   10.94    1.39
   7  -3   8    9.67    1.31
  -7   3  -7   30.20    1.95
  -7   3  -7   28.76    1.84
   7  -3   7   43.51    2.07
   7  -3   7   36.13    2.33
   7  -3   7   33.47    2.27
   7  -3   7   33.26    2.17
  -7   3  -6   54.46    2.26
  -7   3  -6   51.58    2.13
   7  -3   6   76.80    2.40
   7  -3   6   68.63    2.73
   7  -3   6   63.57    2.70
   7  -3   6   64.16    2.64
   7  -3   6   65.49    2.57
  -7   3  -5   99.69    2.39
  -7   3  -5   95.51    2.73
  -7   3  -5   95.47    2.63
   7  -3   5  118.14    3.20
   7  -3   5  115.77    3.14
   7  -3   5  116.06    3.11
   7  -3   5  111.25    3.00
  -7   3  -4   87.31    2.26
  -7   3  -4   90.92    2.65
  -7   3  -4   92.79    2.59
   7  -3   4  117.46    3.17
   7  -3   4  115.07    3.11
   7  -3   4  104.12    2.86
  -7   3  -3  112.09    2.51
  -7   3  -3  108.93    2.71
   7  -3   3  149.20    3.34
   7  -3   3  148.57    3.27
   7  -3   3  136.63    3.18
   7  -3   3  128.48    3.00
   7  -3   3  138.68    3.12
  -7   3  -2   66.92    2.06
  -7   3  -2   64.68    2.17
  -7   3  -2   41.62    1.46
   7  -3   2   93.96    2.72
   7  -3   2   89.57    2.71
   7  -3   2   81.33    2.53
   7  -3   2   74.85    2.35
   7  -3   2   86.70    2.58
  -7   3  -1    6.04    0.89
  -7   3  -1    6.81    1.05
  -7   3  -1    3.73    0.64
   7  -3   1    9.59    1.17
   7  -3   1    7.45    1.14
   7  -3   1    6.32    1.14
   7  -3   1    7.69    1.03
   7  -3   1    8.05    1.01
   7  -3   1    7.97    1.11
  -7   3   0    1.52    0.66
  -7   3   0    1.35    0.54
   7  -3   0    2.82    0.86
   7  -3   0    2.89    0.89
   7  -3   0    2.60    0.94
   7  -3   0    2.18    0.76
   7  -3   0    1.42    0.69
   7  -3   0    2.57    0.90
  -7   3   1   -0.50    0.56
  -7   3   1   -0.30    0.45
   7  -3  -1   -0.13    0.72
   7  -3  -1   -0.63    0.76
   7  -3  -1   -0.94    0.81
   7  -3  -1    0.30    0.61
   7  -3  -1    0.11    0.58
   7  -3  -1    0.37    0.81
  -7   3   2    3.83    0.89
  -7   3   2    2.19    0.63
   7  -3  -2    4.52    0.98
   7  -3  -2    4.75    1.01
   7  -3  -2    3.11    1.06
   7  -3  -2    4.07    0.74
   7  -3  -2    4.89    0.74
   7  -3  -2    3.63    0.96
  -7   3   3    1.01    0.71
  -7   3   3    0.40    0.54
   7  -3  -3    1.34    0.83
   7  -3  -3   -0.17    0.88
   7  -3  -3   -1.15    0.90
   7  -3  -3    0.35    0.88
  -7   3   4   16.56    1.60
  -7   3   4    9.96    1.19
   7  -3  -4   24.88    1.84
   7  -3  -4   25.12    1.99
   7  -3  -4   18.04    2.01
   7  -3  -4   20.43    1.84
  -7   3   5   38.69    2.02
  -7   3   5   24.71    1.57
   7  -3  -5   53.99    2.38
   7  -3  -5   63.12    2.50
   7  -3  -5   55.65    2.53
   7  -3  -5   48.11    2.38
  -7   3   6   26.96    1.89
  -7   3   6   18.51    1.52
   7  -3  -6   40.99    2.26
   7  -3  -6   50.12    2.38
   7  -3  -6   48.12    2.53
   7  -3  -6   36.76    2.24
  -7   3   7   11.61    1.41
   7  -3  -7   26.15    2.16
   7  -3  -7   35.14    2.21
   7  -3  -7   29.42    2.33
   7  -3  -7   26.67    2.24
  -7   3   8    8.67    1.18
   7  -3  -8   26.71    2.33
   7  -3  -8   34.96    2.24
   7  -3  -8   33.23    2.49
   7  -3  -8   25.43    2.29
  -7   3   9    1.63    0.79
   7  -3  -9    3.68    1.42
   7  -3  -9    4.85    1.39
   7  -3  -9    4.59    1.40
  -7   3  10   -0.03    0.72
   7  -3 -10    0.47    1.30
   7  -3 -10    1.94    1.30
   7  -3 -10    0.26    1.18
  -7   3  11    1.07    0.86
   7  -3 -11   -0.59    1.52
   7  -3 -11   -0.44    1.36
   7  -3 -11   -0.67    1.29
  -6   3 -13   -0.79    1.10
  -6   3 -13   -1.08    1.21
  -6   3 -13   -3.12    1.18
   6  -3  13   -1.56    1.17
   6  -3  13   -1.13    1.35
  -6   3 -12    6.67    1.29
  -6   3 -12   10.31    1.49
  -6   3 -12    8.33    1.44
   6  -3  12   11.18    1.47
   6  -3  12    9.01    1.66
   6  -3  12    9.73    1.67
   6  -3  12    8.38    1.74
  -6   3 -11    4.74    1.12
  -6   3 -11    6.67    1.27
  -6   3 -11    6.40    1.26
   6  -3  11    6.98    1.23
   6  -3  11    6.48    1.44
   6  -3  11    5.38    1.33
   6  -3  11    4.50    1.15
  -6   3 -10   11.94    1.35
  -6   3 -10   14.14    1.73
  -6   3 -10   15.67    1.76
   6  -3  10   16.82    1.90
   6  -3  10   12.91    1.54
   6  -3  10   16.91    2.09
   6  -3  10   16.75    1.93
  -6   3  -9   75.90    2.69
  -6   3  -9   87.48    2.78
  -6   3  -9   88.34    2.65
   6  -3   9  109.21    2.84
   6  -3   9   94.27    3.07
   6  -3   9   92.74    3.00
   6  -3   9   89.03    2.91
  -6   3  -8  115.11    2.96
  -6   3  -8  122.05    2.89
   6  -3   8  149.86    3.04
   6  -3   8  136.87    3.38
   6  -3   8  130.74    3.29
   6  -3   8  127.78    3.23
  -6   3  -7   68.41    2.34
  -6   3  -7   72.03    2.30
   6  -3   7   92.29    2.43
   6  -3   7   80.69    2.70
   6  -3   7   76.97    2.64
   6  -3   7   74.95    2.55
  -6   3  -6   44.21    1.55
  -6   3  -6   42.89    1.93
  -6   3  -6   45.39    1.89
   6  -3   6   58.27    1.99
   6  -3   6   52.74    2.30
   6  -3   6   50.70    2.30
   6  -3   6   53.96    2.26
   6  -3   6   50.75    2.19
  -6   3  -5   74.65    1.88
  -6   3  -5   73.12    2.28
  -6   3  -5   78.83    2.22
   6  -3   5  104.14    2.23
   6  -3   5   90.88    2.66
   6  -3   5   93.17    2.66
   6  -3   5   88.82    2.57
   6  -3   5   87.33    2.52
  -6   3  -4   82.29    1.98
  -6   3  -4   77.64    2.32
  -6   3  -4   83.07    2.21
   6  -3   4  120.24    2.23
   6  -3   4  111.18    2.76
   6  -3   4  102.46    2.62
   6  -3   4   98.48    2.57
   6  -3   4  100.25    2.55
  -6   3  -3    9.62    1.00
  -6   3  -3    9.72    1.16
  -6   3  -3    5.85    0.69
   6  -3   3   11.12    1.17
   6  -3   3   11.86    1.20
   6  -3   3   12.07    1.38
   6  -3   3   10.92    1.36
   6  -3   3   14.16    1.49
  -6   3  -2    9.97    1.02
  -6   3  -2    9.29    1.13
  -6   3  -2    5.56    0.62
   6  -3   2   12.59    1.46
   6  -3   2   10.21    1.14
   6  -3   2   11.63    1.33
   6  -3   2   12.39    1.29
   6  -3   2   11.97    1.41
  -6   3  -1    6.84    0.80
  -6   3  -1    7.09    0.95
  -6   3  -1    5.62    0.65
   6  -3   1   10.99    1.32
   6  -3   1   11.26    1.13
   6  -3   1    8.63    1.06
   6  -3   1    8.24    0.91
   6  -3   1   10.13    1.20
   6  -3   1    9.42    1.04
  -6   3   0    1.04    0.53
  -6   3   0    0.64    0.41
   6  -3   0    1.91    0.70
   6  -3   0    0.44    0.73
   6  -3   0   -0.05    0.73
   6  -3   0    1.79    0.62
   6  -3   0    2.29    0.62
   6  -3   0    1.39    0.73
  -6   3   1   22.98    1.35
  -6   3   1   16.11    1.06
   6  -3  -1   37.14    1.71
   6  -3  -1   38.86    1.86
   6  -3  -1   32.12    1.82
   6  -3  -1   32.58    1.47
   6  -3  -1   30.68    1.42
   6  -3  -1   33.18    1.70
  -6   3   2   53.03    1.87
  -6   3   2   33.44    1.41
   6  -3  -2   78.79    2.26
   6  -3  -2   86.28    2.34
   6  -3  -2   80.01    2.37
   6  -3  -2   69.56    1.83
   6  -3  -2   68.88    1.79
   6  -3  -2   70.65    2.19
  -6   3   3    5.28    0.84
  -6   3   3    3.51    0.65
   6  -3  -3    6.36    0.91
   6  -3  -3    8.85    1.04
   6  -3  -3    7.02    1.07
   6  -3  -3    6.55    0.74
   6  -3  -3    8.01    0.96
   6  -3  -3    5.40    1.03
  -6   3   4   23.06    1.53
  -6   3   4   15.60    1.23
   6  -3  -4   30.45    1.79
   6  -3  -4   38.14    2.00
   6  -3  -4   34.79    1.93
   6  -3  -4   27.58    1.52
   6  -3  -4   29.54    1.86
  -6   3   5   47.68    1.96
  -6   3   5   31.26    1.63
   6  -3  -5   67.07    2.32
   6  -3  -5   87.87    2.51
   6  -3  -5   84.10    2.61
   6  -3  -5   72.30    2.49
  -6   3   6   27.14    1.59
   6  -3  -6   72.84    2.38
   6  -3  -6   69.59    2.52
   6  -3  -6   58.86    2.42
  -6   3   7   18.07    1.46
   6  -3  -7   34.96    2.05
   6  -3  -7   45.87    2.16
   6  -3  -7   45.80    2.33
   6  -3  -7   37.64    2.22
  -6   3   8    3.39    0.81
   6  -3  -8    4.71    1.17
   6  -3  -8    8.98    1.19
   6  -3  -8    8.87    1.32
   6  -3  -8    8.40    1.28
  -6   3   9    0.38    0.64
   6  -3  -9    2.28    1.13
   6  -3  -9    3.26    0.99
   6  -3  -9    2.96    1.09
   6  -3  -9    4.77    1.17
  -6   3  10    0.70    0.67
   6  -3 -10   -2.05    1.12
   6  -3 -10    0.28    0.98
   6  -3 -10   -0.50    1.04
   6  -3 -10   -0.54    1.04
  -6   3  11   -1.02    0.62
   6  -3 -11   -1.01    1.32
   6  -3 -11   -0.59    1.10
   6  -3 -11   -0.28    1.11
  -6   3  12   -1.81    0.93
  -6   3  12    0.05    0.82
   6  -3 -12   -1.32    1.45
   6  -3 -12   -0.85    1.23
   6  -3 -12    0.86    1.30
  -5   3 -14    6.27    1.40
  -5   3 -14    4.71    1.40
  -5   3 -14    4.14    1.49
   5  -3  14    6.95    1.46
   5  -3  14    7.62    1.63
  -5   3 -13    0.26    0.99
  -5   3 -13    0.50    1.07
  -5   3 -13   -0.69    1.17
   5  -3  13   -0.85    1.03
   5  -3  13   -0.23    1.16
   5  -3  13    0.60    1.00
  -5   3 -12    6.88    1.18
  -5   3 -12    6.71    1.25
  -5   3 -12    6.37    1.29
   5  -3  12    6.42    1.20
   5  -3  12    6.29    1.33
   5  -3  12    7.23    1.34
   5  -3  12    5.33    1.14
  -5   3 -11   14.69    1.72
  -5   3 -11   12.57    1.38
  -5   3 -11   12.51    1.43
   5  -3  11   18.13    1.86
   5  -3  11   16.49    2.04
   5  -3  11   17.04    2.02
   5  -3  11   16.06    1.87
  -5   3 -10   28.29    1.94
  -5   3 -10   33.54    1.96
  -5   3 -10   30.69    1.94
   5  -3  10   38.45    2.05
   5  -3  10   36.54    2.26
   5  -3  10   34.47    2.21
   5  -3  10   32.67    2.08
  -5   3  -9   46.91    2.15
  -5   3  -9   56.40    2.22
  -5   3  -9   58.98    2.20
   5  -3   9   65.72    2.25
   5  -3   9   62.45    2.48
   5  -3   9   62.40    2.48
   5  -3   9   61.42    2.39
  -5   3  -8  266.50    4.02
  -5   3  -8  277.83    3.90
   5  -3   8  331.08    3.99
   5  -3   8  303.68    4.36
   5  -3   8  291.25    4.29
   5  -3   8  288.83    4.25
  -5   3  -7  396.40    3.63
  -5   3  -7  372.86    4.51
  -5   3  -7  390.50    4.41
   5  -3   7  470.52    4.41
   5  -3   7  441.75    4.97
   5  -3   7  415.86    4.85
   5  -3   7  412.54    4.81
  -5   3  -6   52.17    1.50
  -5   3  -6   49.90    1.82
  -5   3  -6   52.61    1.80
   5  -3   6   62.88    1.83
   5  -3   6   59.12    2.16
   5  -3   6   58.68    2.13
   5  -3   6   54.47    2.05
   5  -3   6   57.28    2.09
  -5   3  -5    4.62    0.61
  -5   3  -5    5.28    0.81
  -5   3  -5    5.37    0.76
   5  -3   5    4.48    0.68
   5  -3   5    6.46    0.95
   5  -3   5    6.46    0.93
   5  -3   5    5.27    0.84
   5  -3   5    4.81    0.81
  -5   3  -4    0.91    0.45
  -5   3  -4    1.48    0.56
  -5   3  -4    1.03    0.32
   5  -3   4    0.75    0.50
   5  -3   4    0.92    0.66
   5  -3   4    1.02    0.68
   5  -3   4    1.41    0.64
   5  -3   4    0.65    0.59
  -5   3  -3    3.81    0.59
  -5   3  -3    5.12    0.72
  -5   3  -3    3.02    0.43
   5  -3   3    6.60    0.86
   5  -3   3    3.98    0.81
   5  -3   3    5.09    0.76
   5  -3   3    5.50    0.76
   5  -3   3    5.19    0.84
  -5   3  -2    0.43    0.40
  -5   3  -2    0.03    0.48
  -5   3  -2    0.13    0.30
   5  -3   2    0.66    0.61
   5  -3   2   -0.77    0.66
   5  -3   2    0.28    0.52
   5  -3   2   -0.07    0.48
   5  -3   2    0.40    0.61
  -5   3  -1    8.39    0.86
  -5   3  -1    5.69    0.65
   5  -3   1   12.24    1.24
   5  -3   1    9.01    0.95
   5  -3   1   10.47    1.06
   5  -3   1   10.54    1.06
   5  -3   1    9.23    0.94
  -5   3   0   69.66    1.78
  -5   3   0   46.80    1.35
   5  -3   0  103.91    2.20
   5  -3   0  101.74    2.25
   5  -3   0  100.00    2.29
   5  -3   0   92.89    1.97
   5  -3   0   90.89    1.93
   5  -3   0   92.98    2.19
  -5   3   1  123.96    2.36
  -5   3   1   83.21    1.82
   5  -3  -1  188.07    2.92
   5  -3  -1  197.20    2.96
   5  -3  -1  183.07    2.95
   5  -3  -1  172.92    2.49
   5  -3  -1  170.21    2.46
   5  -3  -1  175.06    2.88
  -5   3   2  130.82    2.50
  -5   3   2   90.87    1.99
   5  -3  -2  203.16    3.11
   5  -3  -2  220.41    3.17
   5  -3  -2  207.39    3.18
   5  -3  -2  190.22    2.52
   5  -3  -2  183.68    2.47
   5  -3  -2  197.96    3.11
  -5   3   3  258.12    3.49
  -5   3   3  185.06    2.88
   5  -3  -3  400.05    4.32
   5  -3  -3  448.24    4.37
   5  -3  -3  429.15    4.46
   5  -3  -3  365.09    3.28
   5  -3  -3  360.99    3.26
   5  -3  -3  391.44    4.27
  -5   3   4   54.63    1.82
  -5   3   4   41.17    1.55
   5  -3  -4   83.69    2.22
   5  -3  -4   99.85    2.34
   5  -3  -4   95.70    2.38
   5  -3  -4   79.90    1.62
   5  -3  -4   77.57    1.60
   5  -3  -4   87.58    2.34
  -5   3   5   19.26    1.34
  -5   3   5   13.23    1.13
   5  -3  -5   30.10    1.63
   5  -3  -5   37.39    1.72
   5  -3  -5   33.89    1.72
   5  -3  -5   27.86    1.08
   5  -3  -5   31.86    1.73
  -5   3   6    5.92    0.83
   5  -3  -6    8.50    1.01
   5  -3  -6   15.26    1.56
   5  -3  -6   13.59    1.46
   5  -3  -6   14.92    1.51
  -5   3   7    0.35    0.51
   5  -3  -7   -1.30    0.66
   5  -3  -7    0.29    0.74
   5  -3  -7    0.37    0.72
   5  -3  -7   -0.12    0.72
  -5   3   8    0.00    0.50
   5  -3  -8   -0.73    0.85
   5  -3  -8    0.98    0.83
   5  -3  -8    0.30    0.78
   5  -3  -8    0.84    0.86
  -5   3   9   -0.20    0.58
   5  -3  -9   -1.21    0.99
   5  -3  -9   -1.07    0.83
   5  -3  -9    0.17    0.86
   5  -3  -9   -0.08    0.89
  -5   3  10    0.70    0.64
   5  -3 -10    1.08    1.08
   5  -3 -10    0.16    0.91
   5  -3 -10    0.17    0.93
   5  -3 -10    2.09    1.03
  -5   3  11    1.07    0.78
   5  -3 -11    3.72    1.34
   5  -3 -11    3.27    1.11
   5  -3 -11    3.45    1.19
   5  -3 -11    5.09    1.26
  -5   3  12    1.17    0.93
  -5   3  12    0.14    0.79
   5  -3 -12    3.10    1.40
   5  -3 -12    0.63    1.37
   5  -3 -12    1.14    1.16
   5  -3 -12    1.68    1.26
  -5   3  13    7.90    1.30
  -5   3  13    2.71    1.06
   5  -3 -13    6.98    1.73
   5  -3 -13    5.85    1.49
   5  -3 -13    6.01    1.53
  -4   3 -15    0.71    1.10
  -4   3 -15    2.78    1.36
  -4   3 -15    0.59    0.92
  -4   3 -15    2.46    1.46
   4  -3  15    4.99    1.47
   4  -3  15    3.74    1.41
   4  -3  15    3.02    1.18
  -4   3 -14   22.21    2.04
  -4   3 -14   20.67    2.19
  -4   3 -14   24.02    2.33
   4  -3  14   26.72    2.40
   4  -3  14   26.79    2.49
   4  -3  14   23.63    2.17
  -4   3 -13   23.23    1.93
  -4   3 -13   24.73    2.08
  -4   3 -13   24.64    2.18
   4  -3  13   30.18    2.27
   4  -3  13   30.46    2.37
   4  -3  13   28.34    2.14
  -4   3 -12   53.08    2.29
  -4   3 -12   57.15    2.41
  -4   3 -12   58.34    2.46
   4  -3  12   61.75    2.51
   4  -3  12   63.89    2.58
   4  -3  12   66.20    2.67
   4  -3  12   63.10    2.51
  -4   3 -11   42.87    2.08
  -4   3 -11   51.81    2.22
  -4   3 -11   50.83    2.26
   4  -3  11   50.46    2.23
   4  -3  11   58.17    2.44
   4  -3  11   56.30    2.40
   4  -3  11   56.53    2.33
  -4   3 -10   66.73    2.32
  -4   3 -10   77.69    2.41
  -4   3 -10   73.76    2.38
   4  -3  10   80.74    2.40
   4  -3  10   85.51    2.64
   4  -3  10   84.64    2.64
   4  -3  10   85.22    2.56
  -4   3  -9   66.32    2.17
  -4   3  -9   64.48    2.17
   4  -3   9   72.86    2.15
   4  -3   9   71.43    2.39
   4  -3   9   71.20    2.36
   4  -3   9   71.59    2.31
  -4   3  -8    0.03    0.57
  -4   3  -8   -0.04    0.62
  -4   3  -8    0.95    0.70
   4  -3   8    0.61    0.62
   4  -3   8   -0.37    0.79
   4  -3   8    0.05    0.69
   4  -3   8    1.30    0.74
  -4   3  -7  100.18    1.85
  -4   3  -7   91.30    2.22
  -4   3  -7   97.20    2.21
   4  -3   7  107.15    2.14
   4  -3   7   98.73    2.41
   4  -3   7   99.97    2.41
   4  -3   7   97.74    2.37
  -4   3  -6   68.53    1.54
  -4   3  -6   64.71    1.83
  -4   3  -6   67.63    1.82
   4  -3   6   76.75    1.73
   4  -3   6   75.99    2.09
   4  -3   6   73.34    2.05
   4  -3   6   72.58    2.02
   4  -3   6   69.46    1.97
  -4   3  -5    2.20    0.45
  -4   3  -5    1.65    0.55
  -4   3  -5    2.48    0.56
   4  -3   5    2.96    0.52
   4  -3   5    1.41    0.64
   4  -3   5    2.76    0.71
   4  -3   5    1.91    0.60
   4  -3   5    1.84    0.59
  -4   3  -4   32.63    1.13
  -4   3  -4   33.71    1.30
  -4   3  -4   26.64    0.77
   4  -3   4   40.68    1.54
   4  -3   4   40.74    1.54
   4  -3   4   40.23    1.50
   4  -3   4   39.22    1.45
  -4   3  -3   70.03    1.55
  -4   3  -3   69.95    1.70
  -4   3  -3   55.53    1.12
   4  -3   3   95.76    2.04
   4  -3   3   86.77    1.98
   4  -3   3   85.46    1.91
   4  -3   3   84.07    1.86
   4  -3   3   86.74    1.97
  -4   3  -2   29.25    1.10
  -4   3  -2   29.00    1.21
  -4   3  -2   24.26    0.86
   4  -3   2   39.84    1.47
   4  -3   2   36.36    1.45
   4  -3   2   38.53    1.37
   4  -3   2   37.18    1.32
   4  -3   2   37.06    1.44
  -4   3  -1  129.49    2.12
  -4   3  -1   97.70    1.64
   4  -3   1  185.47    2.64
   4  -3   1  171.70    2.40
   4  -3   1  165.93    2.35
   4  -3   1  170.91    2.56
  -4   3   0  164.84    2.42
  -4   3   0  124.92    1.93
   4  -3   0  244.17    2.95
   4  -3   0  255.61    3.03
   4  -3   0  245.98    3.04
   4  -3   0  231.08    2.66
   4  -3   0  227.54    2.64
   4  -3   0  237.56    2.98
  -4   3   1  268.09    3.11
  -4   3   1  201.90    2.55
   4  -3  -1  409.91    3.84
   4  -3  -1  431.97    3.89
   4  -3  -1  417.53    3.90
   4  -3  -1  387.73    3.30
   4  -3  -1  379.31    3.26
   4  -3  -1  392.77    3.78
  -4   3   2  210.44    2.84
  -4   3   2  157.30    2.37
   4  -3  -2  330.84    3.55
   4  -3  -2  343.91    3.51
   4  -3  -2  341.35    3.60
   4  -3  -2  312.69    2.89
   4  -3  -2  306.01    2.87
  -4   3   3   36.91    1.41
  -4   3   3   28.22    1.19
   4  -3  -3   54.95    1.70
   4  -3  -3   59.14    1.68
   4  -3  -3   61.42    1.76
   4  -3  -3   53.96    1.32
   4  -3  -3   52.28    1.31
   4  -3  -3   56.07    1.70
  -4   3   4   48.01    1.60
  -4   3   4   38.40    1.39
   4  -3  -4   78.53    1.98
   4  -3  -4   85.70    1.99
   4  -3  -4   81.14    2.02
   4  -3  -4   74.00    1.46
   4  -3  -4   70.64    1.42
   4  -3  -4   77.60    1.98
  -4   3   5    3.89    0.74
  -4   3   5    5.26    0.70
   4  -3  -5    9.08    0.98
   4  -3  -5   10.72    1.18
   4  -3  -5    9.93    1.17
   4  -3  -5    8.79    0.79
   4  -3  -5    9.38    0.79
   4  -3  -5    9.96    1.16
  -4   3   6   -1.06    0.56
  -4   3   6    0.04    0.43
   4  -3  -6    0.75    0.68
   4  -3  -6    0.16    0.60
   4  -3  -6    0.28    0.61
   4  -3  -6    0.69    0.65
  -4   3   7   -0.25    0.45
   4  -3  -7   -0.48    0.73
   4  -3  -7   -0.41    0.66
   4  -3  -7   -0.91    0.63
   4  -3  -7    0.50    0.67
  -4   3   8   -0.08    0.47
   4  -3  -8   -0.39    0.73
   4  -3  -8   -1.64    0.72
   4  -3  -8   -0.39    0.72
   4  -3  -8   -0.42    0.70
  -4   3   9    4.14    0.85
  -4   3   9    1.22    0.61
   4  -3  -9    4.09    1.04
   4  -3  -9    0.84    0.90
   4  -3  -9    1.84    0.95
   4  -3  -9    2.76    0.95
  -4   3  10   20.66    2.34
  -4   3  10    7.78    1.06
   4  -3 -10   21.78    2.09
   4  -3 -10   12.88    1.37
   4  -3 -10   13.43    1.47
   4  -3 -10   13.36    1.46
  -4   3  11    8.98    1.13
  -4   3  11    5.30    1.00
   4  -3 -11   10.32    1.45
   4  -3 -11    8.72    1.26
   4  -3 -11    8.59    1.36
   4  -3 -11   10.12    1.43
  -4   3  12   18.56    1.78
  -4   3  12    8.35    1.22
   4  -3 -12   25.73    2.47
   4  -3 -12   12.55    1.44
   4  -3 -12   19.89    2.23
   4  -3 -12   19.08    2.21
  -4   3  13    4.83    1.06
  -4   3  13    2.26    1.06
   4  -3 -13    4.27    1.44
   4  -3 -13    3.02    1.15
   4  -3 -13    4.81    1.32
   4  -3 -13    3.73    1.34
  -4   3  14    1.32    1.14
   4  -3 -14    4.99    1.47
   4  -3 -14    5.45    1.53
  -3   3 -16    5.67    1.31
  -3   3 -16    3.74    1.51
  -3   3 -16    6.80    1.62
   3  -3  16    8.15    1.59
   3  -3  16    5.81    1.35
  -3   3 -15    2.23    1.06
  -3   3 -15    2.54    1.24
  -3   3 -15    0.40    0.82
  -3   3 -15    1.60    1.34
   3  -3  15    3.65    1.29
   3  -3  15    3.26    1.16
   3  -3  15    1.67    0.99
  -3   3 -14    9.96    1.24
  -3   3 -14   13.06    1.53
  -3   3 -14   11.03    1.58
   3  -3  14   11.01    1.45
   3  -3  14   17.84    2.05
   3  -3  14   10.06    1.25
  -3   3 -13   31.89    1.94
  -3   3 -13   32.72    2.12
  -3   3 -13   34.40    2.25
   3  -3  13   40.22    2.34
   3  -3  13   38.21    2.28
   3  -3  13   35.51    2.12
  -3   3 -12   96.24    2.65
  -3   3 -12  105.53    2.89
  -3   3 -12  111.71    2.96
   3  -3  12  112.69    3.01
   3  -3  12  120.17    2.99
   3  -3  12  117.39    3.01
   3  -3  12  115.34    2.91
  -3   3 -11   59.87    2.13
  -3   3 -11   66.01    2.27
  -3   3 -11   72.36    2.44
   3  -3  11   67.33    2.34
   3  -3  11   73.43    2.44
   3  -3  11   74.92    2.50
   3  -3  11   71.42    2.36
  -3   3 -10   39.28    1.76
  -3   3 -10   46.99    1.93
  -3   3 -10   48.17    1.97
   3  -3  10   42.63    1.89
   3  -3  10   49.97    2.07
   3  -3  10   47.40    1.99
   3  -3  10   48.29    2.01
  -3   3  -9   51.34    1.50
  -3   3  -9   45.40    1.77
  -3   3  -9   48.86    1.83
   3  -3   9   41.68    1.71
   3  -3   9   48.20    1.89
   3  -3   9   47.75    1.86
   3  -3   9   47.53    1.87
  -3   3  -8    8.43    0.96
  -3   3  -8    5.80    0.79
  -3   3  -8    6.79    0.84
   3  -3   8    6.22    0.76
   3  -3   8    6.07    0.86
   3  -3   8    6.96    0.86
   3  -3   8    5.75    0.81
  -3   3  -7   25.32    1.09
  -3   3  -7   23.75    1.24
  -3   3  -7   24.19    1.25
   3  -3   7   24.25    1.20
   3  -3   7   24.13    1.36
   3  -3   7   24.28    1.35
   3  -3   7   25.01    1.35
  -3   3  -6    9.43    0.80
  -3   3  -6    7.52    0.87
  -3   3  -6    9.51    0.93
   3  -3   6    8.67    0.87
   3  -3   6    8.89    1.07
   3  -3   6    8.98    1.12
   3  -3   6    8.80    1.02
   3  -3   6    8.79    0.97
  -3   3  -5   27.17    1.01
  -3   3  -5   24.89    1.13
  -3   3  -5   27.27    1.15
   3  -3   5   32.58    1.05
   3  -3   5   32.06    1.33
   3  -3   5   28.58    1.31
   3  -3   5   31.04    1.30
   3  -3   5   27.94    1.21
  -3   3  -4   99.85    1.69
  -3   3  -4   99.06    1.85
  -3   3  -4   91.11    1.17
   3  -3   4  121.20    2.10
   3  -3   4  115.49    2.08
   3  -3   4  110.13    2.00
   3  -3   4  109.62    1.97
  -3   3  -3  200.18    2.34
  -3   3  -3  192.79    2.47
  -3   3  -3  172.86    1.73
   3  -3   3  255.03    2.86
   3  -3   3  238.78    2.79
   3  -3   3  237.38    2.73
   3  -3   3  228.04    2.68
  -3   3  -2  829.53    4.70
  -3   3  -2  789.47    4.79
  -3   3  -2  712.34    3.69
   3  -3   2 1115.00    5.68
   3  -3   2 1080.80    5.58
   3  -3   2 1019.38    5.32
   3  -3   2 1010.22    5.30
   3  -3   2 1007.43    5.41
  -3   3  -1  368.72    3.20
  -3   3  -1  345.49    3.19
  -3   3  -1  319.85    2.66
   3  -3   1  513.24    3.87
   3  -3   1  506.13    3.84
   3  -3   1  476.93    3.56
   3  -3   1  472.18    3.55
   3  -3   1  480.83    3.76
  -3   3   0  267.31    2.80
  -3   3   0  223.29    2.36
   3  -3   0  393.90    3.41
   3  -3   0  384.96    3.37
   3  -3   0  363.34    3.04
   3  -3   0  352.95    3.00
   3  -3   0  367.34    3.30
  -3   3   1  178.18    2.35
  -3   3   1  151.77    2.07
   3  -3  -1  262.29    2.86
   3  -3  -1  276.53    2.92
   3  -3  -1  273.76    2.92
   3  -3  -1  252.23    2.50
   3  -3  -1  250.83    2.49
   3  -3  -1  262.44    2.84
  -3   3   2   66.65    1.55
  -3   3   2   55.96    1.38
   3  -3  -2  100.85    1.92
   3  -3  -2  104.98    1.92
   3  -3  -2  103.84    1.94
   3  -3  -2   97.92    1.60
   3  -3  -2   94.03    1.57
   3  -3  -2   99.78    1.87
  -3   3   3   26.00    1.11
  -3   3   3   22.94    1.02
   3  -3  -3   42.35    1.41
   3  -3  -3   44.66    1.41
   3  -3  -3   44.35    1.43
   3  -3  -3   39.76    1.11
   3  -3  -3   40.08    1.10
   3  -3  -3   44.42    1.40
  -3   3   4   -0.16    0.41
  -3   3   4    0.55    0.36
   3  -3  -4    0.21    0.47
   3  -3  -4    0.21    0.47
   3  -3  -4    0.39    0.48
   3  -3  -4    0.31    0.37
   3  -3  -4    0.40    0.38
   3  -3  -4    0.80    0.52
  -3   3   5    3.80    0.64
  -3   3   5    4.25    0.59
   3  -3  -5    8.98    1.08
   3  -3  -5    7.91    0.81
   3  -3  -5    7.89    0.83
   3  -3  -5    6.50    0.73
   3  -3  -5    7.50    0.76
   3  -3  -5    8.10    0.83
  -3   3   6    4.85    0.71
  -3   3   6    4.72    0.64
   3  -3  -6    6.72    0.84
   3  -3  -6    7.95    0.89
   3  -3  -6    8.39    0.96
   3  -3  -6    6.32    0.58
   3  -3  -6    6.03    0.58
   3  -3  -6    8.35    0.90
  -3   3   7    2.94    0.68
  -3   3   7    2.52    0.58
   3  -3  -7    4.27    0.84
   3  -3  -7    4.19    0.82
   3  -3  -7    3.73    0.80
   3  -3  -7    2.84    0.50
   3  -3  -7    5.56    0.86
  -3   3   8   39.44    1.64
  -3   3   8   24.14    1.41
  -3   3   8   18.88    1.26
   3  -3  -8   35.55    1.82
   3  -3  -8   36.02    1.82
   3  -3  -8   32.95    1.81
   3  -3  -8   30.93    1.75
  -3   3   9   76.18    2.20
  -3   3   9   42.39    1.77
  -3   3   9   40.46    1.76
   3  -3  -9   66.88    2.34
   3  -3  -9   63.37    2.34
   3  -3  -9   62.89    2.36
   3  -3  -9   59.31    2.26
  -3   3  10   43.97    2.14
  -3   3  10   26.21    1.62
  -3   3  10   20.19    1.56
   3  -3 -10   36.50    2.19
   3  -3 -10   37.82    2.13
   3  -3 -10   39.04    2.19
   3  -3 -10   33.50    2.05
  -3   3  11   39.12    2.32
  -3   3  11   28.87    1.78
  -3   3  11   22.23    1.76
   3  -3 -11   41.68    2.37
   3  -3 -11   33.75    2.14
   3  -3 -11   33.98    2.22
   3  -3 -11   34.48    2.11
  -3   3  12    3.68    1.17
  -3   3  12    5.62    1.00
  -3   3  12    2.76    0.97
   3  -3 -12    5.82    1.35
   3  -3 -12    5.12    1.14
   3  -3 -12    5.19    1.22
   3  -3 -12    6.39    1.27
  -3   3  13    4.63    1.25
  -3   3  13    2.09    1.00
   3  -3 -13    5.27    1.26
   3  -3 -13    3.68    1.30
   3  -3 -13    3.50    1.27
  -3   3  14   -1.31    1.09
  -3   3  14   -1.50    0.89
   3  -3 -14   -0.95    1.08
   3  -3 -14   -0.44    1.25
   3  -3 -14   -0.26    1.13
  -2   3 -17    0.20    1.44
  -2   3 -17    2.02    1.51
   2  -3  17    2.98    1.57
  -2   3 -16   15.02    1.53
  -2   3 -16   14.36    1.80
  -2   3 -16   16.01    1.84
   2  -3  16   14.84    1.80
  -2   3 -15   17.29    1.83
  -2   3 -15   19.85    2.21
  -2   3 -15   18.63    2.24
   2  -3  15   15.39    1.68
   2  -3  15   19.91    2.03
  -2   3 -14   24.97    1.79
  -2   3 -14   25.90    2.11
  -2   3 -14   27.09    2.24
   2  -3  14   25.30    2.26
   2  -3  14   29.82    2.05
   2  -3  14   26.28    1.89
  -2   3 -13    9.08    1.06
  -2   3 -13    8.08    1.17
  -2   3 -13   11.36    1.43
   2  -3  13   10.80    1.33
   2  -3  13    9.55    1.19
   2  -3  13    9.24    1.10
  -2   3 -12   40.97    1.83
  -2   3 -12   48.12    2.11
  -2   3 -12   45.75    2.26
   2  -3  12   44.77    2.23
   2  -3  12   46.41    2.10
   2  -3  12   46.25    2.04
  -2   3 -11   76.69    1.83
  -2   3 -11   62.06    1.96
  -2   3 -11   64.76    2.17
  -2   3 -11   67.56    2.31
   2  -3  11   71.70    2.33
   2  -3  11   68.99    2.20
   2  -3  11   71.97    2.22
   2  -3  11   68.57    2.16
  -2   3 -10    6.02    0.74
  -2   3 -10    5.16    0.75
  -2   3 -10    5.20    0.86
  -2   3 -10    6.12    1.00
   2  -3  10    5.01    0.84
   2  -3  10    4.70    0.85
   2  -3  10    6.09    0.85
   2  -3  10    5.74    0.84
  -2   3  -9   35.66    1.30
  -2   3  -9   28.04    1.34
  -2   3  -9   28.74    1.40
  -2   3  -9   31.34    1.53
   2  -3   9   30.40    1.48
   2  -3   9   32.42    1.50
   2  -3   9   31.05    1.46
   2  -3   9   29.83    1.44
  -2   3  -8   13.02    0.99
  -2   3  -8   14.23    1.07
  -2   3  -8   13.49    1.15
   2  -3   8   11.93    1.09
   2  -3   8   15.08    1.15
   2  -3   8   13.16    1.11
   2  -3   8   14.86    1.13
  -2   3  -7   59.15    1.42
  -2   3  -7   54.64    1.53
  -2   3  -7   57.95    1.60
   2  -3   7   49.98    1.42
   2  -3   7   59.78    1.59
   2  -3   7   57.79    1.59
   2  -3   7   57.66    1.57
  -2   3  -6  288.17    2.74
  -2   3  -6  255.72    2.87
  -2   3  -6  278.97    3.05
   2  -3   6  244.42    2.53
   2  -3   6  305.93    3.06
   2  -3   6  285.00    3.05
   2  -3   6  279.64    3.01
  -2   3  -5  392.34    3.11
  -2   3  -5  350.87    3.18
  -2   3  -5  384.16    3.40
  -2   3  -5  396.40    2.05
   2  -3   5  343.52    2.68
   2  -3   5  432.31    3.47
   2  -3   5  408.90    3.46
   2  -3   5  406.40    3.48
   2  -3   5  394.95    3.43
  -2   3  -4  582.91    3.72
  -2   3  -4  502.97    3.63
  -2   3  -4  562.68    3.92
  -2   3  -4  573.64    2.70
   2  -3   4  673.23    4.17
   2  -3   4  634.66    4.09
   2  -3   4  619.08    4.11
   2  -3   4  610.87    4.09
  -2   3  -3  617.56    3.80
  -2   3  -3  588.99    3.88
  -2   3  -3  599.70    2.99
   2  -3   3  741.58    4.27
   2  -3   3  713.99    4.17
   2  -3   3  683.01    4.18
   2  -3   3  672.86    4.15
  -2   3  -2  313.70    2.73
  -2   3  -2  293.59    2.69
  -2   3  -2  300.39    2.29
   2  -3   2  392.07    3.10
   2  -3   2  384.44    3.02
   2  -3   2  366.17    3.01
   2  -3   2  358.18    2.97
   2  -3   2  365.20    3.02
  -2   3  -1  294.63    2.66
  -2   3  -1  268.31    2.54
  -2   3  -1  282.76    2.36
   2  -3   1  390.48    3.09
   2  -3   1  389.22    3.01
   2  -3   1  359.15    2.90
   2  -3   1  353.65    2.87
   2  -3   1  368.28    2.98
  -2   3   0   75.78    1.43
  -2   3   0   70.33    1.31
   2  -3   0  102.03    1.69
   2  -3   0  103.65    1.66
   2  -3   0   96.41    1.56
   2  -3   0   93.09    1.54
   2  -3   0  100.41    1.65
  -2   3   1    1.31    0.35
  -2   3   1    1.22    0.33
   2  -3  -1    1.78    0.45
   2  -3  -1    1.96    0.46
   2  -3  -1    1.54    0.41
   2  -3  -1    1.52    0.41
   2  -3  -1    1.59    0.45
  -2   3   2    2.37    0.42
  -2   3   2    2.20    0.41
   2  -3  -2    3.84    0.56
   2  -3  -2    4.10    0.55
   2  -3  -2    2.59    0.44
   2  -3  -2    2.85    0.44
   2  -3  -2    3.52    0.54
  -2   3   3    1.56    0.38
  -2   3   3    1.33    0.38
   2  -3  -3    1.74    0.50
   2  -3  -3    1.48    0.49
   2  -3  -3    1.68    0.50
   2  -3  -3    1.22    0.40
   2  -3  -3    1.12    0.39
   2  -3  -3    1.87    0.49
  -2   3   4   11.05    0.81
  -2   3   4    9.93    0.81
   2  -3  -4   15.82    1.05
   2  -3  -4   15.80    1.05
   2  -3  -4   16.76    1.06
   2  -3  -4   14.52    0.85
   2  -3  -4   14.22    0.84
   2  -3  -4   16.90    0.98
  -2   3   5   51.69    1.41
  -2   3   5   45.00    1.40
   2  -3  -5   80.29    1.78
   2  -3  -5   75.71    1.82
   2  -3  -5   80.41    1.89
   2  -3  -5   69.31    1.42
   2  -3  -5   67.05    1.38
   2  -3  -5   78.41    1.74
  -2   3   6   66.65    1.49
  -2   3   6   42.30    1.37
  -2   3   6   39.44    1.41
   2  -3  -6   65.87    1.77
   2  -3  -6   61.26    1.80
   2  -3  -6   64.86    1.91
   2  -3  -6   54.72    1.36
   2  -3  -6   53.43    1.33
   2  -3  -6   61.18    1.71
  -2   3   7  186.23    2.53
  -2   3   7  118.23    2.16
  -2   3   7  112.04    2.29
   2  -3  -7  183.46    2.75
   2  -3  -7  181.97    2.94
   2  -3  -7  182.93    3.03
   2  -3  -7  154.29    2.10
   2  -3  -7  147.44    2.04
   2  -3  -7  180.11    2.75
  -2   3   8   39.09    1.64
  -2   3   8   24.40    1.29
  -2   3   8   22.84    1.33
   2  -3  -8   36.72    1.72
   2  -3  -8   37.60    1.80
   2  -3  -8   36.23    1.80
   2  -3  -8   30.52    1.20
   2  -3  -8   30.65    1.16
   2  -3  -8   37.95    1.65
  -2   3   9   96.32    2.41
  -2   3   9   63.28    1.87
  -2   3   9   57.46    1.96
   2  -3  -9   88.64    2.41
   2  -3  -9   94.34    2.53
   2  -3  -9   91.14    2.57
   2  -3  -9   89.76    2.35
  -2   3  10   57.86    2.25
  -2   3  10   35.37    1.62
  -2   3  10   33.56    1.77
   2  -3 -10   54.19    2.18
   2  -3 -10   52.73    2.23
   2  -3 -10   50.93    2.28
   2  -3 -10   49.61    2.08
  -2   3  11   10.77    1.23
  -2   3  11    8.54    0.94
  -2   3  11    7.50    1.06
   2  -3 -11    8.50    1.25
   2  -3 -11   10.62    1.29
   2  -3 -11   10.79    1.31
   2  -3 -11   13.61    1.67
  -2   3  12    3.80    1.10
  -2   3  12    2.50    0.93
   2  -3 -12    2.58    1.05
   2  -3 -12    3.03    1.07
   2  -3 -12    3.74    1.05
  -2   3  13   -0.63    0.98
  -2   3  13   -0.69    0.78
   2  -3 -13   -0.18    1.00
   2  -3 -13   -2.02    0.99
   2  -3 -13   -0.35    0.95
  -2   3  14   -0.97    1.04
  -2   3  14   -0.93    0.87
   2  -3 -14   -1.29    1.08
   2  -3 -14   -0.84    1.22
   2  -3 -14    0.35    1.07
  -2   3  15    0.71    1.22
  -2   3  15   -1.89    1.01
   2  -3 -15   -1.85    1.20
   2  -3 -15   -0.62    1.36
  -1   3 -17    0.34    1.42
  -1   3 -17    1.26    1.43
   1  -3  17   -0.03    1.52
  -1   3 -16    6.49    1.51
  -1   3 -16    5.64    1.46
   1  -3  16    5.38    1.49
  -1   3 -15   20.34    1.75
  -1   3 -15   18.68    2.09
  -1   3 -15   22.31    2.19
   1  -3  15   19.70    2.40
  -1   3 -14    9.62    1.12
  -1   3 -14    8.67    1.32
  -1   3 -14   11.89    1.47
   1  -3  14    9.82    1.32
   1  -3  14    8.81    1.14
  -1   3 -13   15.85    1.48
  -1   3 -13   19.79    1.83
  -1   3 -13   17.35    1.85
   1  -3  13   22.59    2.01
   1  -3  13   18.01    1.68
   1  -3  13   18.02    1.55
  -1   3 -12   14.16    1.37
  -1   3 -12    8.34    0.94
  -1   3 -12    9.67    1.14
  -1   3 -12    9.78    1.25
   1  -3  12    8.60    1.13
   1  -3  12   10.17    1.03
   1  -3  12   10.16    1.00
  -1   3 -11   68.50    1.84
  -1   3 -11   54.20    1.71
  -1   3 -11   58.26    2.05
  -1   3 -11   63.62    2.23
   1  -3  11   63.11    2.16
   1  -3  11   64.66    1.94
   1  -3  11   65.79    1.91
  -1   3 -10   19.64    1.24
  -1   3 -10   16.70    1.13
  -1   3 -10   18.50    1.34
  -1   3 -10   19.90    1.55
   1  -3  10   19.55    1.42
   1  -3  10   20.44    1.33
   1  -3  10   18.76    1.26
   1  -3  10   20.19    1.27
  -1   3  -9  137.18    2.17
  -1   3  -9  103.01    1.93
  -1   3  -9  123.07    2.31
  -1   3  -9  125.63    2.46
   1  -3   9  115.87    2.27
   1  -3   9  132.76    2.19
   1  -3   9  126.35    2.20
   1  -3   9  123.29    2.19
  -1   3  -8   64.49    1.53
  -1   3  -8   59.06    1.58
  -1   3  -8   61.61    1.75
  -1   3  -8   60.02    0.95
   1  -3   8   54.46    1.56
   1  -3   8   66.11    1.54
   1  -3   8   63.85    1.60
   1  -3   8   59.77    1.55
  -1   3  -7  105.75    1.81
  -1   3  -7   97.68    1.81
  -1   3  -7  102.44    1.98
  -1   3  -7  103.21    1.18
   1  -3   7   82.99    1.68
   1  -3   7  105.53    1.77
   1  -3   7  100.28    1.83
   1  -3   7  100.90    1.83
  -1   3  -6  297.45    2.78
  -1   3  -6  277.22    2.75
  -1   3  -6  293.46    3.00
  -1   3  -6  303.90    1.96
   1  -3   6  241.17    2.47
   1  -3   6  315.48    2.76
   1  -3   6  295.67    2.87
   1  -3   6  291.49    2.84
  -1   3  -5  345.42    2.90
  -1   3  -5  304.22    2.70
  -1   3  -5  330.70    3.00
  -1   3  -5  348.84    2.16
   1  -3   5  282.24    2.42
   1  -3   5  367.10    2.85
   1  -3   5  342.71    2.98
   1  -3   5  336.25    2.95
  -1   3  -4  791.25    4.21
  -1   3  -4  667.86    3.72
  -1   3  -4  764.04    4.26
  -1   3  -4  790.27    3.32
   1  -3   4  686.97    3.32
   1  -3   4  866.48    4.18
   1  -3   4  812.80    4.11
   1  -3   4  790.51    4.31
   1  -3   4  768.21    4.24
  -1   3  -3  165.86    1.95
  -1   3  -3  162.48    1.92
  -1   3  -3  171.47    1.67
   1  -3   3  188.14    1.99
   1  -3   3  183.90    1.94
   1  -3   3  174.48    2.05
   1  -3   3  172.00    2.03
  -1   3  -2  538.82    3.38
  -1   3  -2  502.14    3.16
  -1   3  -2  531.50    2.99
   1  -3   2  631.87    3.51
   1  -3   2  616.05    3.30
   1  -3   2  563.92    3.47
   1  -3   2  555.85    3.45
  -1   3  -1    1.97    0.37
  -1   3  -1    3.03    0.40
  -1   3  -1    2.76    0.39
   1  -3   1    2.82    0.44
   1  -3   1    3.43    0.43
   1  -3   1    2.67    0.42
   1  -3   1    2.87    0.44
   1  -3   1    2.62    0.46
  -1   3   0   12.32    0.66
  -1   3   0   10.42    0.67
  -1   3   0   12.02    0.70
   1  -3   0   14.94    0.83
   1  -3   0   14.83    0.76
   1  -3   0   14.89    0.80
   1  -3   0   15.16    0.79
   1  -3   0   14.96    0.78
  -1   3   1    5.45    0.55
  -1   3   1    6.11    0.63
   1  -3  -1    7.37    0.73
   1  -3  -1    7.01    0.69
   1  -3  -1    5.89    0.67
   1  -3  -1    4.64    0.48
   1  -3  -1    7.22    0.67
  -1   3   2    5.64    0.59
  -1   3   2    5.43    0.62
   1  -3  -2    7.64    0.79
   1  -3  -2    6.98    0.73
   1  -3  -2    5.08    0.52
   1  -3  -2    5.02    0.51
   1  -3  -2    6.10    0.69
  -1   3   3   96.37    1.56
  -1   3   3   93.27    1.69
   1  -3  -3  133.39    2.03
   1  -3  -3  137.36    1.97
   1  -3  -3  113.51    1.70
   1  -3  -3  109.26    1.65
   1  -3  -3  129.25    1.74
  -1   3   4  196.73    1.98
  -1   3   4  127.90    1.83
  -1   3   4  121.04    1.98
   1  -3  -4  183.37    2.47
   1  -3  -4  187.65    2.43
   1  -3  -4  157.66    2.02
   1  -3  -4  148.25    1.95
   1  -3  -4  188.54    2.16
  -1   3   5  219.45    2.33
  -1   3   5  148.04    2.02
  -1   3   5  136.23    2.19
   1  -3  -5  206.97    2.76
   1  -3  -5  212.28    2.74
   1  -3  -5  175.76    2.19
   1  -3  -5  169.81    2.14
   1  -3  -5  214.25    2.43
  -1   3   6  279.86    2.86
  -1   3   6  184.80    2.32
  -1   3   6  177.21    2.61
   1  -3  -6  272.52    2.88
   1  -3  -6  269.55    3.29
   1  -3  -6  275.88    3.29
   1  -3  -6  227.12    2.55
   1  -3  -6  216.29    2.48
   1  -3  -6  274.64    2.89
  -1   3   7  206.43    2.75
  -1   3   7  132.03    2.08
  -1   3   7  132.05    2.40
   1  -3  -7  197.87    2.63
   1  -3  -7  191.00    2.98
   1  -3  -7  200.79    3.07
   1  -3  -7  160.11    2.28
   1  -3  -7  157.49    2.24
   1  -3  -7  196.46    2.66
  -1   3   8   56.14    1.84
  -1   3   8   37.11    1.30
  -1   3   8   39.87    1.57
   1  -3  -8   55.13    1.74
   1  -3  -8   52.93    1.96
   1  -3  -8   56.51    2.00
   1  -3  -8   45.38    1.47
   1  -3  -8   44.42    1.41
   1  -3  -8   58.24    1.75
  -1   3   9    2.22    0.81
  -1   3   9    2.16    0.54
  -1   3   9    2.41    0.69
   1  -3  -9    3.09    0.81
   1  -3  -9    3.01    0.89
   1  -3  -9    2.57    0.84
   1  -3  -9    2.26    0.62
   1  -3  -9    2.10    0.55
   1  -3  -9    3.24    0.80
  -1   3  10   12.16    1.23
  -1   3  10   10.94    1.30
   1  -3 -10   13.77    1.64
   1  -3 -10   14.28    1.70
   1  -3 -10   15.66    1.42
  -1   3  11    1.91    0.92
  -1   3  11    3.25    0.83
   1  -3 -11    3.65    1.00
   1  -3 -11    4.46    1.09
   1  -3 -11    3.50    0.92
  -1   3  12    0.41    0.89
  -1   3  12   -0.51    0.73
   1  -3 -12    1.13    1.01
   1  -3 -12    0.09    0.98
   1  -3 -12    1.47    0.89
  -1   3  13    0.03    0.98
  -1   3  13   -0.51    0.81
   1  -3 -13   -0.21    1.08
   1  -3 -13    0.02    1.11
  -1   3  14    2.53    1.15
  -1   3  14   -0.70    1.04
   1  -3 -14    1.10    1.29
   1  -3 -14    0.80    1.31
  -1   3  15    1.95    1.33
   1  -3 -15   -1.21    1.39
   1  -3 -15   -2.08    1.41
   0   3 -17    8.37    1.61
   0   3 -17    9.79    1.73
   0  -3  17    6.11    1.74
   0   3 -16    7.57    1.46
   0   3 -16    7.82    1.54
   0  -3  16    2.77    1.44
   0   3 -15   19.05    2.10
   0   3 -15   18.84    2.16
   0  -3  15   16.36    1.69
   0   3 -14    9.13    1.31
   0   3 -14   11.39    1.46
   0  -3  14   11.55    1.37
   0   3 -13    0.14    0.79
   0   3 -13   -1.06    0.65
   0   3 -13    0.71    0.92
   0   3 -13    0.46    0.99
   0  -3  13    1.71    0.86
   0   3 -12    2.81    0.82
   0   3 -12    1.57    0.64
   0   3 -12    2.67    0.93
   0   3 -12    2.49    1.03
   0  -3  12    4.24    0.92
   0  -3  12    4.20    0.75
   0  -3  12    4.39    0.71
   0   3 -11   42.92    1.68
   0   3 -11   33.96    1.31
   0   3 -11   36.19    1.75
   0   3 -11   38.12    1.87
   0  -3  11   33.49    1.78
   0  -3  11   40.42    1.48
   0  -3  11   41.35    1.49
   0   3 -10   86.47    1.97
   0   3 -10   69.19    1.56
   0   3 -10   73.46    1.96
   0   3 -10   75.51    2.14
   0   3 -10   78.05    1.46
   0  -3  10   72.00    2.03
   0  -3  10   83.78    1.81
   0  -3  10   82.14    1.80
   0   3  -9   88.60    1.89
   0   3  -9   71.81    1.50
   0   3  -9   81.18    1.87
   0   3  -9   83.87    2.10
   0   3  -9   86.66    1.46
   0  -3   9   72.00    1.89
   0  -3   9   89.27    1.67
   0  -3   9   86.89    1.75
   0  -3   9   87.92    1.75
   0   3  -8  379.16    3.41
   0   3  -8  283.74    2.57
   0   3  -8  347.33    3.29
   0   3  -8  340.95    3.55
   0   3  -8  365.62    2.64
   0  -3   8  313.04    3.30
   0  -3   8  371.18    2.90
   0  -3   8  368.79    3.19
   0  -3   8  359.34    3.14
   0   3  -7  227.79    2.59
   0   3  -7  215.87    2.43
   0   3  -7  221.94    2.76
   0   3  -7  230.40    2.07
   0  -3   7  182.21    2.40
   0  -3   7  233.21    2.20
   0  -3   7  223.91    2.43
   0  -3   7  219.30    2.40
   0   3  -6  429.29    3.36
   0   3  -6  403.52    3.02
   0   3  -6  408.44    3.43
   0   3  -6  428.61    2.73
   0  -3   6  352.88    3.02
   0  -3   6  446.01    2.82
   0  -3   6  409.49    3.12
   0  -3   6  403.44    3.10
   0   3  -5  207.72    2.31
   0   3  -5  191.34    1.94
   0   3  -5  199.82    2.29
   0   3  -5  204.22    1.90
   0  -3   5  159.69    1.91
   0  -3   5  220.65    1.94
   0  -3   5  199.64    2.17
   0  -3   5  198.63    2.16
   0   3  -4  178.82    2.08
   0   3  -4  155.70    1.61
   0   3  -4  167.64    1.96
   0   3  -4  170.98    1.76
   0  -3   4  131.42    1.61
   0  -3   4  185.83    1.74
   0  -3   4  167.07    1.95
   0  -3   4  163.34    1.93
   0   3  -3   33.68    1.01
   0   3  -3   26.57    0.73
   0   3  -3   31.12    0.90
   0   3  -3   30.43    0.88
   0  -3   3   23.95    0.76
   0  -3   3   34.86    0.89
   0  -3   3   33.31    0.83
   0  -3   3   29.49    0.97
   0  -3   3   29.78    0.95
   0   3  -2    7.97    0.64
   0   3  -2    7.23    0.54
   0   3  -2    7.64    0.63
   0  -3   2    5.53    0.52
   0  -3   2    8.69    0.65
   0  -3   2    9.01    0.57
   0  -3   2    6.84    0.68
   0  -3   2    7.33    0.68
   0   3  -1    2.04    0.38
   0   3  -1    2.02    0.31
   0   3  -1    1.80    0.38
   0  -3   1    1.82    0.36
   0  -3   1    1.84    0.32
   0  -3   1    1.22    0.36
   0  -3   1    1.53    0.37
   0   3   0    0.90    0.31
   0   3   0    1.19    0.27
   0   3   0    0.90    0.35
   0  -3   0    0.61    0.35
   0  -3   0    0.49    0.29
   0  -3   0    0.55    0.35
   0  -3   0    0.63    0.33
   0  -3   0    0.91    0.34
   0   3   1   76.05    1.27
   0   3   1   73.69    1.39
   0  -3  -1   87.04    1.49
   0  -3  -1   89.73    1.29
   0  -3  -1   73.46    1.37
   0  -3  -1   72.88    1.37
   0  -3  -1   86.02    1.16
   0   3   2  259.68    2.07
   0   3   2  203.00    1.99
   0   3   2  198.53    2.26
   0  -3  -2  241.80    2.49
   0  -3  -2  255.40    2.25
   0  -3  -2  203.32    2.22
   0  -3  -2  194.08    2.17
   0  -3  -2  242.87    1.86
   0   3   3  591.03    3.37
   0   3   3  448.17    2.95
   0   3   3  436.23    3.43
   0  -3  -3  538.89    3.87
   0  -3  -3  568.22    3.58
   0  -3  -3  446.05    3.31
   0  -3  -3  438.84    3.29
   0  -3  -3  549.93    2.89
   0   3   4  432.47    3.17
   0   3   4  321.86    2.56
   0   3   4  320.08    3.09
   0  -3  -4  399.77    3.55
   0  -3  -4  433.48    3.41
   0  -3  -4  336.39    3.01
   0  -3  -4  328.50    2.97
   0  -3  -4  422.55    2.73
   0   3   5  539.14    3.82
   0   3   5  393.47    2.89
   0   3   5  376.41    3.48
   0  -3  -5  488.95    4.13
   0  -3  -5  518.63    4.00
   0  -3  -5  406.22    3.41
   0  -3  -5  396.96    3.37
   0  -3  -5  510.85    3.21
   0   3   6  159.17    2.37
   0   3   6  112.46    1.65
   0   3   6  111.51    2.11
   0  -3  -6  144.96    2.52
   0  -3  -6  157.39    2.49
   0  -3  -6  121.37    2.05
   0  -3  -6  120.39    2.05
   0  -3  -6  154.91    1.99
   0   3   7  142.26    2.45
   0   3   7  101.91    1.62
   0   3   7   95.03    2.04
   0  -3  -7  129.03    2.54
   0  -3  -7  135.51    2.51
   0  -3  -7  106.66    2.02
   0  -3  -7  104.31    2.01
   0  -3  -7  139.16    2.04
   0   3   8   18.03    1.40
   0   3   8   12.06    0.82
   0   3   8   14.53    1.21
   0  -3  -8   16.11    1.47
   0  -3  -8   17.57    1.51
   0  -3  -8   14.50    1.20
   0  -3  -8   15.05    1.16
   0  -3  -8   20.34    1.17
   0   3   9    6.47    0.93
   0   3   9    5.35    0.83
   0  -3  -9    6.23    0.96
   0  -3  -9    6.73    1.01
   0  -3  -9    4.49    0.76
   0  -3  -9    4.82    0.74
   0  -3  -9    6.96    0.83
   0   3  10    6.26    0.97
   0   3  10    5.27    0.89
   0  -3 -10    6.26    1.05
   0  -3 -10    6.29    1.11
   0  -3 -10    4.55    0.82
   0  -3 -10    4.81    0.77
   0  -3 -10    5.70    0.87
   0   3  11    0.31    0.82
   0   3  11   -0.43    0.71
   0  -3 -11   -0.41    0.84
   0  -3 -11   -0.24    0.94
   0  -3 -11   -0.57    0.71
   0  -3 -11   -1.18    0.91
   0   3  12    4.13    1.06
   0   3  12    3.25    0.96
   0  -3 -12    3.94    1.21
   0  -3 -12    3.73    1.23
   0   3  13    4.39    1.20
   0  -3 -13    2.04    1.30
   0  -3 -13    2.05    1.29
   0   3  14   20.94    2.56
   0  -3 -14   10.41    1.66
   0  -3 -14   12.37    1.77
   0   3  15   29.64    2.96
   0  -3 -15   15.95    1.98
   0  -3 -15   14.88    2.04
   1   3 -17    8.47    1.59
   1   3 -17    8.22    1.71
  -1  -3  17    8.04    1.79
   1   3 -16    5.53    1.41
   1   3 -16    6.74    1.56
  -1  -3  16    5.44    1.46
   1   3 -15    8.66    1.28
   1   3 -15    8.21    1.38
   1   3 -15    7.91    1.42
  -1  -3  15    7.69    1.34
   1   3 -14   26.91    1.91
   1   3 -14   24.17    2.07
   1   3 -14   26.36    2.11
  -1  -3  14   24.39    2.14
   1   3 -13   18.66    1.68
   1   3 -13   18.58    1.82
   1   3 -13   17.51    1.82
  -1  -3  13   19.83    1.86
   1   3 -12    5.27    0.95
   1   3 -12    5.79    1.01
   1   3 -12    4.30    1.06
   1   3 -12    6.07    0.86
  -1  -3  12    5.53    0.93
   1   3 -11   43.88    1.77
   1   3 -11   35.68    1.51
   1   3 -11   44.79    1.82
   1   3 -11   40.84    1.90
   1   3 -11   39.38    1.42
  -1  -3  11   37.59    1.85
  -1  -3  11   44.90    1.39
  -1  -3  11   42.37    1.36
   1   3 -10  106.16    2.24
   1   3 -10   83.68    1.48
   1   3 -10   95.50    2.12
   1   3 -10   95.55    2.35
   1   3 -10   98.97    1.85
  -1  -3  10   88.78    2.24
  -1  -3  10   98.82    1.77
  -1  -3  10   96.37    1.75
   1   3  -9  166.16    2.57
   1   3  -9  133.28    1.65
   1   3  -9  152.17    2.36
   1   3  -9  143.15    2.57
   1   3  -9  158.73    2.15
  -1  -3   9  139.75    2.51
  -1  -3   9  161.40    2.10
  -1  -3   9  161.01    2.09
   1   3  -8   94.81    1.94
   1   3  -8   84.03    1.70
   1   3  -8   83.68    1.93
   1   3  -8   93.55    1.65
  -1  -3   8   75.29    1.82
  -1  -3   8   92.96    1.60
  -1  -3   8   93.40    1.60
   1   3  -7  173.18    2.39
   1   3  -7  151.97    1.97
   1   3  -7  154.11    2.33
   1   3  -7  166.04    2.04
  -1  -3   7  135.44    2.16
  -1  -3   7  167.18    2.00
  -1  -3   7  165.54    1.98
   1   3  -6   82.74    1.67
   1   3  -6   73.98    1.30
   1   3  -6   74.50    1.61
   1   3  -6   81.54    1.46
  -1  -3   6   59.45    1.41
  -1  -3   6   77.48    1.41
  -1  -3   6   75.36    1.38
   1   3  -5    0.31    0.40
   1   3  -5    0.36    0.27
   1   3  -5    0.17    0.39
   1   3  -5    0.73    0.37
  -1  -3   5    0.51    0.36
  -1  -3   5   -0.05    0.34
  -1  -3   5    0.18    0.34
   1   3  -4   33.48    1.10
   1   3  -4   32.33    0.70
   1   3  -4   33.51    1.03
   1   3  -4   33.20    1.01
  -1  -3   4   23.36    0.91
  -1  -3   4   31.41    0.98
  -1  -3   4   29.21    0.96
   1   3  -3   18.47    0.91
   1   3  -3   17.46    0.76
   1   3  -3   16.34    0.80
  -1  -3   3   11.57    0.73
  -1  -3   3   18.91    0.67
  -1  -3   3   15.56    0.80
  -1  -3   3   15.16    0.80
   1   3  -2  215.46    2.05
   1   3  -2  196.70    2.09
   1   3  -2  190.09    1.68
   1   3  -2  189.15    2.05
  -1  -3   2  117.30    1.57
  -1  -3   2  204.55    1.72
  -1  -3   2  174.59    1.96
  -1  -3   2  168.94    1.93
   1   3  -1  774.83    3.68
   1   3  -1  692.32    3.68
   1   3  -1  674.28    2.75
   1   3  -1  662.80    3.79
  -1  -3   1  727.10    3.41
  -1  -3   1  597.84    3.58
  -1  -3   1  592.48    3.57
   1   3   0  195.10    1.94
   1   3   0  180.45    1.88
   1   3   0  177.21    1.29
   1   3   0  172.87    2.04
  -1  -3   0  187.37    1.95
  -1  -3   0  198.23    1.41
  -1  -3   0  156.83    1.96
  -1  -3   0  155.72    1.95
   1   3   1  928.24    4.23
   1   3   1  818.78    3.79
   1   3   1  770.78    4.28
  -1  -3  -1  843.78    4.29
  -1  -3  -1  912.55    3.41
  -1  -3  -1  692.80    4.08
  -1  -3  -1  680.83    4.04
   1   3   2  431.13    3.07
   1   3   2  381.71    2.57
   1   3   2  364.39    3.09
  -1  -3  -2  392.11    3.18
  -1  -3  -2  432.40    2.72
  -1  -3  -2  327.50    2.95
  -1  -3  -2  320.59    2.92
   1   3   3  385.20    3.09
   1   3   3  328.31    2.36
   1   3   3  310.00    2.96
  -1  -3  -3  350.77    3.21
  -1  -3  -3  373.15    2.82
  -1  -3  -3  285.37    2.86
  -1  -3  -3  279.04    2.83
   1   3   4   99.42    1.79
   1   3   4   82.53    1.24
   1   3   4   77.88    1.68
  -1  -3  -4   90.12    1.86
  -1  -3  -4   96.47    1.69
  -1  -3  -4   74.59    1.63
  -1  -3  -4   72.74    1.61
   1   3   5   52.82    1.51
   1   3   5   42.16    1.37
  -1  -3  -5   49.91    1.61
  -1  -3  -5   55.35    1.48
  -1  -3  -5   42.03    1.38
  -1  -3  -5   37.93    1.32
   1   3   6   43.27    1.50
   1   3   6   35.90    1.41
  -1  -3  -6   39.75    1.60
  -1  -3  -6   44.00    1.52
  -1  -3  -6   31.81    1.34
  -1  -3  -6   33.05    1.32
  -1  -3  -6   45.66    1.06
   1   3   7    4.10    0.71
   1   3   7    3.36    0.70
  -1  -3  -7    2.36    0.73
  -1  -3  -7    3.35    0.74
  -1  -3  -7    1.93    0.61
  -1  -3  -7    1.99    0.59
  -1  -3  -7    3.27    0.51
   1   3   8   36.07    1.69
   1   3   8   26.33    1.45
  -1  -3  -8   35.18    1.84
  -1  -3  -8   34.39    1.73
  -1  -3  -8   26.63    1.46
  -1  -3  -8   26.11    1.41
  -1  -3  -8   34.18    1.81
   1   3   9   -0.04    0.69
   1   3   9    0.99    0.73
  -1  -3  -9    0.48    0.80
  -1  -3  -9   -0.45    0.79
  -1  -3  -9    0.65    0.66
  -1  -3  -9    0.61    0.62
   1   3  10    5.63    0.96
   1   3  10    3.32    0.88
  -1  -3 -10    5.23    1.05
  -1  -3 -10    2.92    1.03
  -1  -3 -10    2.95    0.83
  -1  -3 -10    3.42    0.79
   1   3  11    4.78    1.06
   1   3  11    3.03    0.94
  -1  -3 -11    4.87    1.13
  -1  -3 -11    2.91    1.16
  -1  -3 -11    2.61    0.89
  -1  -3 -11    3.20    0.86
   1   3  12   35.13    2.44
  -1  -3 -12   24.58    2.34
  -1  -3 -12   27.44    2.38
  -1  -3 -12   19.32    1.91
   1   3  13   12.58    1.62
  -1  -3 -13    9.17    1.59
  -1  -3 -13    9.08    1.60
   1   3  14    4.98    1.55
  -1  -3 -14    2.10    1.49
  -1  -3 -14    5.34    1.55
   2   3 -17    3.04    1.52
   2   3 -17    3.99    1.58
  -2  -3  17    3.03    1.61
   2   3 -16    3.61    1.30
   2   3 -16    1.32    1.28
   2   3 -16    1.61    1.42
  -2  -3  16    4.91    1.41
   2   3 -15    4.27    1.23
   2   3 -15    4.54    1.30
   2   3 -15    5.31    1.37
  -2  -3  15    6.36    1.33
   2   3 -14    6.06    1.16
   2   3 -14    6.16    1.20
   2   3 -14    5.39    1.27
  -2  -3  14    6.19    1.19
   2   3 -13   30.86    1.95
   2   3 -13   29.80    1.95
   2   3 -13   27.15    1.97
   2   3 -13   27.13    1.60
  -2  -3  13   24.57    1.99
   2   3 -12   26.90    1.77
   2   3 -12   27.44    1.73
   2   3 -12   24.19    1.77
   2   3 -12   25.47    1.50
  -2  -3  12   23.97    1.81
   2   3 -11   13.45    1.42
   2   3 -11   13.40    1.40
   2   3 -11   12.51    1.48
   2   3 -11   14.00    1.23
  -2  -3  11   12.44    1.42
   2   3 -10  103.24    2.32
   2   3 -10   99.08    2.13
   2   3 -10   94.62    2.35
   2   3 -10   96.23    2.02
  -2  -3  10   86.53    2.28
  -2  -3  10  100.38    1.98
  -2  -3  10   97.48    1.60
   2   3  -9   49.45    1.69
   2   3  -9   47.32    1.48
   2   3  -9   46.35    1.70
   2   3  -9   48.61    1.50
  -2  -3   9   41.60    1.63
  -2  -3   9   51.53    1.23
  -2  -3   9   49.64    1.19
   2   3  -8  134.13    2.36
   2   3  -8  120.56    1.91
   2   3  -8  120.32    2.27
   2   3  -8  127.45    2.11
  -2  -3   8  108.48    2.17
  -2  -3   8  131.00    1.74
  -2  -3   8  125.34    1.70
   2   3  -7   76.40    1.80
   2   3  -7   66.82    1.36
   2   3  -7   68.88    1.70
   2   3  -7   72.04    1.60
  -2  -3   7   58.51    1.60
  -2  -3   7   72.80    1.36
  -2  -3   7   70.75    1.34
   2   3  -6   33.40    1.27
   2   3  -6   30.34    0.91
   2   3  -6   29.12    1.16
   2   3  -6   32.40    1.15
  -2  -3   6   24.13    1.10
  -2  -3   6   31.19    1.00
  -2  -3   6   32.55    1.00
   2   3  -5   43.75    1.32
   2   3  -5   35.21    1.15
   2   3  -5   41.29    1.22
  -2  -3   5   31.88    1.16
  -2  -3   5   40.64    1.08
  -2  -3   5   36.72    1.04
   2   3  -4    0.99    0.44
   2   3  -4    1.37    0.43
   2   3  -4    0.98    0.42
  -2  -3   4    0.55    0.38
  -2  -3   4    0.98    0.37
  -2  -3   4    1.04    0.37
   2   3  -3   71.86    1.50
   2   3  -3   67.92    1.44
   2   3  -3   57.47    1.15
   2   3  -3   67.24    1.43
  -2  -3   3   39.35    1.18
  -2  -3   3   60.72    1.28
  -2  -3   3   59.99    1.28
   2   3  -2  407.10    3.15
   2   3  -2  377.85    2.97
   2   3  -2  319.16    2.12
   2   3  -2  372.61    3.09
  -2  -3   2  386.83    2.31
  -2  -3   2  319.68    2.73
  -2  -3   2  318.21    2.73
   2   3  -1  518.92    3.52
   2   3  -1  479.87    3.20
   2   3  -1  471.45    3.47
  -2  -3   1  489.07    2.88
  -2  -3   1  404.51    3.15
  -2  -3   1  397.43    3.12
   2   3   0  773.49    4.32
   2   3   0  696.40    3.68
   2   3   0  668.15    4.14
  -2  -3   0  703.30    3.76
  -2  -3   0  575.15    3.85
  -2  -3   0  569.48    3.84
   2   3   1  583.65    3.87
   2   3   1  534.57    3.11
   2   3   1  523.05    3.74
  -2  -3  -1  525.56    3.54
  -2  -3  -1  579.55    2.59
  -2  -3  -1  439.84    3.51
  -2  -3  -1  433.35    3.48
   2   3   2  511.02    3.76
   2   3   2  450.81    2.75
   2   3   2  441.87    3.52
  -2  -3  -2  442.35    3.49
  -2  -3  -2  475.00    2.77
  -2  -3  -2  358.05    3.30
  -2  -3  -2  356.50    3.28
   2   3   3  298.11    3.04
   2   3   3  253.87    2.77
  -2  -3  -3  251.82    2.85
  -2  -3  -3  272.12    2.41
  -2  -3  -3  207.36    2.65
  -2  -3  -3  210.65    2.66
   2   3   4   18.00    1.09
   2   3   4   14.16    1.03
  -2  -3  -4   14.58    1.09
  -2  -3  -4   16.82    0.96
  -2  -3  -4   13.43    1.03
  -2  -3  -4   11.71    0.97
   2   3   5   41.39    1.50
   2   3   5   33.74    1.33
  -2  -3  -5   34.82    1.47
  -2  -3  -5   36.35    1.31
  -2  -3  -5   28.23    1.33
  -2  -3  -5   27.17    1.27
   2   3   6    2.11    0.62
   2   3   6    2.06    0.63
  -2  -3  -6    1.41    0.67
  -2  -3  -6    2.65    0.65
  -2  -3  -6    1.97    0.60
  -2  -3  -6    1.70    0.57
   2   3   7    2.29    0.71
   2   3   7    1.73    0.67
  -2  -3  -7    1.79    0.78
  -2  -3  -7    1.60    0.72
  -2  -3  -7    0.73    0.59
  -2  -3  -7    0.97    0.60
   2   3   8   44.70    1.93
   2   3   8   32.27    1.59
  -2  -3  -8   36.56    1.92
  -2  -3  -8   39.77    1.87
  -2  -3  -8   31.16    1.70
  -2  -3  -8   27.55    1.59
   2   3   9   43.61    2.05
   2   3   9   30.11    1.63
  -2  -3  -9   35.33    2.07
  -2  -3  -9   39.40    2.07
  -2  -3  -9   31.11    1.85
  -2  -3  -9   29.48    1.75
   2   3  10   27.94    2.01
   2   3  10   17.38    1.54
  -2  -3 -10   20.15    2.02
  -2  -3 -10   18.83    2.00
  -2  -3 -10   19.10    1.80
  -2  -3 -10   18.33    1.65
   2   3  11   50.94    2.58
  -2  -3 -11   43.36    2.50
  -2  -3 -11   44.32    2.47
  -2  -3 -11   37.21    2.17
  -2  -3 -11   31.65    1.97
   2   3  12   44.47    2.78
  -2  -3 -12   40.94    2.64
  -2  -3 -12   37.83    2.57
  -2  -3 -12   32.41    2.23
  -2  -3 -12   26.94    2.02
   2   3  13   39.23    2.90
  -2  -3 -13   32.97    2.77
  -2  -3 -13   33.88    2.70
  -2  -3 -13   28.02    2.26
   2   3  14    2.77    1.55
  -2  -3 -14    0.49    1.48
  -2  -3 -14    3.72    1.54
   3   3 -17    0.21    1.35
   3   3 -17   -0.24    1.37
   3   3 -17   -1.46    1.42
  -3  -3  17    1.21    1.62
   3   3 -16    5.06    1.41
   3   3 -16    3.10    1.27
   3   3 -16    2.28    1.37
  -3  -3  16    4.03    1.44
   3   3 -15    2.08    1.16
   3   3 -15    3.23    1.21
   3   3 -15    1.16    1.14
  -3  -3  15    2.68    1.23
   3   3 -14   15.84    1.96
   3   3 -14   10.94    1.32
   3   3 -14    9.81    1.39
   3   3 -14   13.25    1.65
  -3  -3  14    9.45    1.35
  -3  -3  14    4.01    0.78
   3   3 -13    7.63    1.17
   3   3 -13    7.27    1.14
   3   3 -13    5.89    1.13
   3   3 -13    6.46    1.07
  -3  -3  13    3.30    1.01
   3   3 -12   36.79    2.03
   3   3 -12   32.63    1.84
   3   3 -12   33.28    1.94
   3   3 -12   30.60    1.72
  -3  -3  12   31.94    1.96
   3   3 -11   30.93    1.78
   3   3 -11   25.29    1.58
   3   3 -11   28.47    1.75
   3   3 -11   25.61    1.55
  -3  -3  11   25.60    1.79
   3   3 -10    8.59    1.03
   3   3 -10    7.39    0.86
   3   3 -10    9.19    1.04
   3   3 -10    6.80    0.93
  -3  -3  10    6.30    0.88
   3   3  -9   40.73    1.68
   3   3  -9   41.95    1.44
   3   3  -9   39.78    1.67
   3   3  -9   37.78    1.56
  -3  -3   9   34.43    1.59
   3   3  -8    2.23    0.67
   3   3  -8    2.82    0.54
   3   3  -8    2.26    0.64
   3   3  -8    2.28    0.66
  -3  -3   8    2.73    0.62
  -3  -3   8    2.77    0.45
  -3  -3   8    2.51    0.43
   3   3  -7   57.43    1.74
   3   3  -7   61.33    1.30
   3   3  -7   51.20    1.56
   3   3  -7   53.69    1.60
  -3  -3   7   42.80    1.54
  -3  -3   7   58.49    1.26
  -3  -3   7   55.35    1.22
   3   3  -6  140.41    2.36
   3   3  -6  127.51    2.09
   3   3  -6  140.42    2.28
  -3  -3   6   99.71    2.03
  -3  -3   6  132.43    1.76
  -3  -3   6  129.79    1.74
   3   3  -5   99.26    1.73
   3   3  -5  101.24    1.94
  -3  -3   5   63.33    1.63
  -3  -3   5   93.86    1.55
  -3  -3   5   93.75    1.55
   3   3  -4  282.42    3.06
   3   3  -4  253.75    2.44
   3   3  -4  255.66    2.88
  -3  -3   4  156.31    2.32
  -3  -3   4  223.33    2.33
  -3  -3   4  224.18    2.34
   3   3  -3  174.61    2.45
   3   3  -3  160.05    2.21
   3   3  -3  164.19    1.82
   3   3  -3  164.52    2.33
  -3  -3   3   96.79    1.89
  -3  -3   3  138.68    1.95
  -3  -3   3  140.50    1.95
   3   3  -2  365.68    3.37
   3   3  -2  328.00    2.96
   3   3  -2  350.31    2.30
   3   3  -2  338.75    3.23
  -3  -3   2  336.02    2.30
  -3  -3   2  286.74    2.78
  -3  -3   2  281.91    2.78
   3   3  -1  796.28    4.87
   3   3  -1  680.29    4.02
   3   3  -1  704.48    4.57
  -3  -3   1  681.62    3.59
  -3  -3   1  590.80    4.08
  -3  -3   1  575.48    4.02
   3   3   0  181.44    2.46
   3   3   0  151.93    1.89
   3   3   0  161.41    2.29
  -3  -3   0  153.62    1.93
  -3  -3   0  132.32    2.09
  -3  -3   0  130.58    2.07
   3   3   1   79.73    1.76
   3   3   1   66.00    1.25
   3   3   1   70.01    1.60
  -3  -3  -1   64.62    1.44
  -3  -3  -1   58.43    1.55
  -3  -3  -1   57.89    1.51
   3   3   2   11.77    1.04
   3   3   2    9.21    0.65
   3   3   2    9.79    0.94
  -3  -3  -2   10.63    0.90
  -3  -3  -2    9.32    0.69
  -3  -3  -2    9.53    0.98
  -3  -3  -2    7.44    0.87
   3   3   3   17.91    1.19
   3   3   3   14.21    0.99
  -3  -3  -3   15.37    1.06
  -3  -3  -3   14.62    0.85
  -3  -3  -3   12.63    1.09
  -3  -3  -3   11.40    0.97
   3   3   4   25.60    1.34
   3   3   4   21.13    1.16
  -3  -3  -4   20.53    1.25
  -3  -3  -4   20.65    1.05
  -3  -3  -4   16.32    1.22
  -3  -3  -4   17.32    1.15
   3   3   5    1.45    0.60
   3   3   5    1.41    0.61
  -3  -3  -5    1.00    0.61
  -3  -3  -5    1.28    0.58
  -3  -3  -5    1.26    0.61
  -3  -3  -5    1.39    0.56
   3   3   6   23.46    1.52
   3   3   6   20.00    1.30
  -3  -3  -6   19.67    1.47
  -3  -3  -6   19.28    1.34
  -3  -3  -6   17.52    1.41
  -3  -3  -6   15.60    1.32
   3   3   7   48.18    2.01
   3   3   7   39.07    1.61
  -3  -3  -7   40.93    1.97
  -3  -3  -7   44.24    1.81
  -3  -3  -7   34.01    1.78
  -3  -3  -7   30.87    1.68
   3   3   8   95.15    2.70
   3   3   8   65.69    1.97
  -3  -3  -8   78.86    2.58
  -3  -3  -8   80.31    2.40
  -3  -3  -8   57.72    2.24
  -3  -3  -8   59.63    2.20
   3   3   9  163.47    3.52
   3   3   9  113.26    2.86
  -3  -3  -9  137.20    3.36
  -3  -3  -9  147.43    3.21
  -3  -3  -9  118.41    3.05
  -3  -3  -9  106.77    2.86
   3   3  10   63.30    2.73
  -3  -3 -10   55.28    2.63
  -3  -3 -10   56.30    2.54
  -3  -3 -10   46.32    2.37
  -3  -3 -10   43.04    2.25
   3   3  11   25.19    2.41
  -3  -3 -11   22.40    2.28
  -3  -3 -11   28.42    2.34
  -3  -3 -11   15.81    1.55
  -3  -3 -11   17.77    1.92
   3   3  12    4.37    1.42
  -3  -3 -12    3.44    1.37
  -3  -3 -12    4.79    1.38
  -3  -3 -12    2.85    1.15
  -3  -3 -12    2.13    1.03
   3   3  13    5.17    1.51
  -3  -3 -13    4.73    1.57
  -3  -3 -13    6.62    1.54
  -3  -3 -13    2.40    1.19
  -3  -3 -13    2.31    1.09
   4   3 -16    2.62    1.34
   4   3 -16    0.53    1.16
   4   3 -16   -0.13    1.28
   4   3 -16    1.98    1.60
  -4  -3  16   -0.61    1.34
  -4  -3  16    0.18    0.80
   4   3 -15    9.23    1.55
   4   3 -15    6.41    1.25
   4   3 -15    7.98    1.52
   4   3 -15    4.64    1.26
  -4  -3  15    6.74    1.50
  -4  -3  15    1.36    0.73
   4   3 -14    3.89    1.20
   4   3 -14    3.87    1.05
   4   3 -14    3.19    1.20
   4   3 -14    2.15    1.09
  -4  -3  14    0.88    1.08
   4   3 -13   20.68    2.04
   4   3 -13   17.29    1.72
   4   3 -13   16.76    1.92
   4   3 -13   12.94    1.61
  -4  -3  13   12.76    1.47
   4   3 -12    6.81    1.11
   4   3 -12    8.06    1.03
   4   3 -12    6.28    1.11
   4   3 -12    5.04    1.08
  -4  -3  12    6.38    1.11
   4   3 -11   13.66    1.62
   4   3 -11   14.77    1.43
   4   3 -11   12.56    1.29
   4   3 -11    9.52    1.18
  -4  -3  11   10.47    1.19
   4   3 -10   29.98    1.87
   4   3 -10   35.07    1.56
   4   3 -10   26.80    1.73
   4   3 -10   28.03    1.66
  -4  -3  10   28.82    1.73
   4   3  -9   13.53    1.49
   4   3  -9   15.56    1.19
   4   3  -9   11.36    1.14
   4   3  -9   12.19    1.38
  -4  -3   9   13.98    1.38
   4   3  -8   31.72    1.65
   4   3  -8   39.32    1.29
   4   3  -8   31.75    1.53
   4   3  -8   32.04    1.55
  -4  -3   8   26.98    1.51
   4   3  -7   70.28    1.98
   4   3  -7   81.56    1.46
   4   3  -7   73.13    1.88
   4   3  -7   69.15    1.93
  -4  -3   7   50.91    1.77
  -4  -3   7   68.93    1.42
  -4  -3   7   63.80    1.37
   4   3  -6   58.59    1.76
   4   3  -6   62.84    1.65
   4   3  -6   61.73    1.80
  -4  -3   6   41.92    1.60
  -4  -3   6   58.41    1.35
  -4  -3   6   56.62    1.34
   4   3  -5  222.33    2.99
   4   3  -5  234.63    2.70
   4   3  -5  234.32    3.10
  -4  -3   5  145.26    2.52
  -4  -3   5  210.24    2.37
  -4  -3   5  205.96    2.35
   4   3  -4  225.18    3.02
   4   3  -4  190.50    2.68
   4   3  -4  204.14    2.35
   4   3  -4  200.96    2.84
  -4  -3   4  119.72    2.29
  -4  -3   4  174.68    2.26
  -4  -3   4  172.36    2.24
   4   3  -3  101.98    2.14
   4   3  -3   85.52    1.82
   4   3  -3   96.84    1.54
   4   3  -3   93.11    1.97
  -4  -3   3   53.27    1.69
  -4  -3   3   80.14    1.67
  -4  -3   3   79.00    1.66
   4   3  -2   85.09    1.98
   4   3  -2   68.34    1.59
   4   3  -2   75.35    1.26
   4   3  -2   72.63    1.79
  -4  -3   2   68.22    1.23
  -4  -3   2   60.22    1.53
  -4  -3   2   59.19    1.52
   4   3  -1   34.89    1.45
   4   3  -1   28.94    1.12
   4   3  -1   35.43    0.82
   4   3  -1   32.59    1.32
  -4  -3   1   29.66    1.00
  -4  -3   1   25.26    1.17
  -4  -3   1   26.88    1.20
   4   3   0  105.63    2.17
   4   3   0   83.50    1.57
   4   3   0   89.80    1.91
  -4  -3   0   81.62    1.60
  -4  -3   0   72.95    1.78
  -4  -3   0   70.29    1.75
   4   3   1   57.94    1.76
   4   3   1   46.03    1.18
   4   3   1   44.87    1.47
  -4  -3  -1   41.65    1.32
  -4  -3  -1   39.85    1.48
  -4  -3  -1   37.16    1.42
   4   3   2    0.40    0.56
   4   3   2    1.62    0.61
  -4  -3  -2    0.69    0.46
  -4  -3  -2    1.11    0.43
  -4  -3  -2    0.84    0.56
  -4  -3  -2    1.04    0.51
   4   3   3   81.91    2.13
   4   3   3   70.41    1.80
  -4  -3  -3   63.84    1.80
  -4  -3  -3   66.55    1.44
  -4  -3  -3   56.69    1.85
  -4  -3  -3   52.32    1.73
   4   3   4   81.35    2.21
   4   3   4   69.44    1.83
  -4  -3  -4   66.79    1.98
  -4  -3  -4   66.86    1.62
  -4  -3  -4   53.25    1.93
  -4  -3  -4   50.73    1.81
   4   3   5   10.12    1.04
   4   3   5    7.89    0.87
  -4  -3  -5    7.07    1.00
  -4  -3  -5    7.74    0.83
  -4  -3  -5    7.11    0.97
  -4  -3  -5    5.37    0.86
   4   3   6  111.28    2.76
   4   3   6   90.34    2.13
  -4  -3  -6   88.16    2.51
  -4  -3  -6   89.43    2.23
  -4  -3  -6   70.09    2.32
  -4  -3  -6   68.91    2.26
   4   3   7   94.12    2.77
   4   3   7   70.51    2.05
  -4  -3  -7   76.45    2.53
  -4  -3  -7   80.32    2.31
  -4  -3  -7   61.62    2.35
  -4  -3  -7   58.02    2.24
   4   3   8   72.73    2.68
  -4  -3  -8   60.56    2.52
  -4  -3  -8   66.65    2.35
  -4  -3  -8   52.84    2.35
  -4  -3  -8   49.52    2.25
   4   3   9   77.90    2.88
  -4  -3  -9   70.61    2.76
  -4  -3  -9   72.52    2.56
  -4  -3  -9   53.42    2.55
  -4  -3  -9   55.33    2.42
   4   3  10   35.05    2.46
  -4  -3 -10   30.66    2.37
  -4  -3 -10   34.95    2.23
  -4  -3 -10   25.17    2.27
  -4  -3 -10   25.10    2.08
   4   3  11   15.79    1.72
  -4  -3 -11   14.09    1.69
  -4  -3 -11   18.01    2.16
  -4  -3 -11   12.22    1.54
  -4  -3 -11   10.77    1.40
   4   3  12    1.56    1.25
  -4  -3 -12    0.01    1.32
  -4  -3 -12   -0.05    1.22
  -4  -3 -12   -0.23    1.15
  -4  -3 -12   -0.81    0.98
   5   3 -16    1.39    1.53
   5   3 -16    2.62    1.48
   5   3 -16    1.24    1.33
  -5  -3  16    1.07    1.58
  -5  -3  16    0.19    0.73
   5   3 -15    2.04    1.43
   5   3 -15    2.53    1.33
   5   3 -15   -0.42    1.20
  -5  -3  15   -0.80    1.28
  -5  -3  15    0.97    0.73
   5   3 -14   12.05    1.62
   5   3 -14   10.55    1.57
   5   3 -14    6.15    1.35
  -5  -3  14   10.04    1.61
   5   3 -13    5.97    1.32
   5   3 -13    6.83    1.37
   5   3 -13    4.81    1.29
  -5  -3  13    7.34    1.32
   5   3 -12   18.64    2.02
   5   3 -12   13.83    1.55
   5   3 -12   14.22    1.74
  -5  -3  12   18.32    2.00
   5   3 -11   14.98    1.83
   5   3 -11   10.73    1.33
   5   3 -11   11.73    1.32
  -5  -3  11   10.08    1.23
   5   3 -10    5.00    1.13
   5   3 -10    5.71    1.09
   5   3 -10    4.40    1.01
  -5  -3  10    6.06    0.98
   5   3  -9   25.26    1.73
   5   3  -9   23.27    1.69
   5   3  -9   24.74    1.64
  -5  -3   9   22.30    1.67
   5   3  -8    7.88    0.96
   5   3  -8   12.55    1.39
   5   3  -8   11.28    1.36
  -5  -3   8    6.55    0.91
   5   3  -7   32.93    1.64
   5   3  -7   37.19    1.61
   5   3  -7   35.62    1.70
  -5  -3   7   21.55    1.53
  -5  -3   7   33.43    1.29
   5   3  -6  185.80    3.09
   5   3  -6  197.92    2.87
   5   3  -6  187.36    3.12
  -5  -3   6  119.18    2.58
  -5  -3   6  173.39    2.30
  -5  -3   6  168.14    2.25
   5   3  -5  103.08    2.45
   5   3  -5   91.20    2.21
   5   3  -5   94.76    1.97
   5   3  -5   90.72    2.26
  -5  -3   5   55.30    1.90
  -5  -3   5   82.48    1.75
  -5  -3   5   79.03    1.69
   5   3  -4  154.72    2.81
   5   3  -4  127.49    2.44
   5   3  -4  142.79    2.18
   5   3  -4  132.17    2.58
  -5  -3   4   85.10    2.23
  -5  -3   4  117.26    2.07
  -5  -3   4  115.93    2.05
   5   3  -3   91.80    2.27
   5   3  -3   72.12    1.85
   5   3  -3   80.62    1.59
   5   3  -3   75.05    2.00
  -5  -3   3   64.32    1.67
  -5  -3   3   65.32    1.67
   5   3  -2   16.22    1.37
   5   3  -2   13.79    1.07
   5   3  -2   16.66    0.85
   5   3  -2   12.96    1.18
  -5  -3   2   13.61    0.81
  -5  -3   2   12.36    1.06
  -5  -3   2   10.73    1.01
   5   3  -1    3.58    0.74
   5   3  -1    3.25    0.58
   5   3  -1    2.30    0.70
  -5  -3   1    2.38    0.47
  -5  -3   1    1.66    0.56
  -5  -3   1    1.63    0.57
   5   3   0   -0.28    0.56
   5   3   0   -0.97    0.39
   5   3   0    0.00    0.60
  -5  -3   0    0.28    0.42
  -5  -3   0   -0.22    0.49
  -5  -3   0   -0.02    0.50
   5   3   1   17.02    1.44
   5   3   1   13.69    0.96
   5   3   1   12.98    1.19
  -5  -3  -1   12.64    1.05
  -5  -3  -1   11.49    1.28
  -5  -3  -1   12.02    1.20
   5   3   2   10.03    1.02
   5   3   2    9.49    0.99
   5   3   2   11.22    1.22
  -5  -3  -2    9.23    1.12
  -5  -3  -2    7.93    0.98
  -5  -3  -2    6.04    0.80
   5   3   3   79.40    2.41
   5   3   3   69.29    1.96
  -5  -3  -3   64.90    2.00
  -5  -3  -3   63.09    1.71
  -5  -3  -3   52.52    2.04
  -5  -3  -3   52.33    1.96
   5   3   4  433.46    4.97
   5   3   4  363.52    3.96
  -5  -3  -4  345.66    4.26
  -5  -3  -4  353.21    3.51
  -5  -3  -4  284.22    4.12
  -5  -3  -4  270.07    3.98
   5   3   5  248.44    4.02
   5   3   5  206.69    3.12
  -5  -3  -5  206.09    3.58
  -5  -3  -5  203.66    2.97
  -5  -3  -5  157.55    3.31
  -5  -3  -5  153.18    3.24
   5   3   6   75.02    2.67
   5   3   6   61.91    1.96
  -5  -3  -6   61.52    2.43
  -5  -3  -6   61.74    2.08
  -5  -3  -6   48.48    2.28
  -5  -3  -6   47.58    2.19
   5   3   7   47.42    2.43
  -5  -3  -7   41.72    2.26
  -5  -3  -7   37.00    1.97
  -5  -3  -7   33.04    2.14
  -5  -3  -7   32.37    2.02
   5   3   8   17.33    2.05
  -5  -3  -8   18.05    2.00
  -5  -3  -8   11.22    1.27
  -5  -3  -8   10.02    1.35
  -5  -3  -8    9.97    1.24
   5   3   9    3.51    1.16
  -5  -3  -9    2.22    1.16
  -5  -3  -9    2.10    1.07
  -5  -3  -9    1.62    1.08
  -5  -3  -9    1.93    0.97
   5   3  10   -0.39    1.03
  -5  -3 -10   -1.40    1.12
  -5  -3 -10   -0.44    1.09
  -5  -3 -10   -1.23    1.03
  -5  -3 -10   -2.23    0.81
   5   3  11    1.71    1.26
  -5  -3 -11    1.55    1.38
  -5  -3 -11    1.00    1.24
  -5  -3 -11   -0.11    1.23
   6   3 -15    3.69    1.64
   6   3 -15    4.47    1.49
   6   3 -15    2.45    1.39
  -6  -3  15    3.33    1.51
  -6  -3  15    1.21    0.76
   6   3 -14    1.94    1.45
   6   3 -14    1.11    1.29
   6   3 -14    1.76    1.31
  -6  -3  14    2.80    1.34
   6   3 -13    6.07    1.58
   6   3 -13    3.04    1.31
   6   3 -13    5.71    1.40
  -6  -3  13    7.97    1.41
   6   3 -12    7.65    1.43
   6   3 -12    6.24    1.39
   6   3 -12    7.53    1.35
  -6  -3  12    8.41    1.34
   6   3 -11   10.57    1.48
   6   3 -11    8.66    1.35
   6   3 -11   10.35    1.34
  -6  -3  11    9.97    1.33
   6   3 -10   30.68    2.06
   6   3 -10   27.88    2.00
   6   3 -10   25.61    1.91
  -6  -3  10   23.87    1.97
   6   3  -9   26.91    1.85
   6   3  -9   27.03    1.86
   6   3  -9   25.86    1.82
  -6  -3   9   19.68    1.79
   6   3  -8   21.78    1.69
   6   3  -8   20.83    1.69
   6   3  -8   19.22    1.65
  -6  -3   8   16.71    1.66
   6   3  -7    4.10    0.98
   6   3  -7    2.13    0.76
   6   3  -7    1.45    0.79
  -6  -3   7    0.88    0.74
   6   3  -6    1.21    0.80
   6   3  -6    1.33    0.68
   6   3  -6   -0.06    0.74
  -6  -3   6   -0.22    0.68
   6   3  -5   70.49    2.35
   6   3  -5   59.66    2.05
   6   3  -5   66.43    1.89
   6   3  -5   62.00    2.16
  -6  -3   5   42.37    1.89
  -6  -3   5   55.28    1.68
  -6  -3   5   53.23    1.60
   6   3  -4   57.69    2.17
   6   3  -4   48.06    1.85
   6   3  -4   51.92    1.62
   6   3  -4   44.87    1.85
  -6  -3   4   32.22    1.77
  -6  -3   4   43.00    1.60
  -6  -3   4   40.60    1.50
   6   3  -3   26.20    1.77
   6   3  -3   22.60    1.45
   6   3  -3   24.81    1.21
   6   3  -3   17.50    1.47
  -6  -3   3   15.64    1.57
  -6  -3   3   18.90    1.33
  -6  -3   3   19.15    1.24
   6   3  -2   54.04    2.11
   6   3  -2   44.56    1.66
   6   3  -2   42.94    1.82
  -6  -3   2   38.07    1.47
  -6  -3   2   40.32    1.66
  -6  -3   2   36.54    1.58
   6   3  -1   39.22    1.96
   6   3  -1   35.46    1.51
   6   3  -1   31.58    1.69
  -6  -3   1   30.52    1.29
  -6  -3   1   30.64    1.61
  -6  -3   1   28.62    1.53
   6   3   0   34.28    1.96
   6   3   0   34.93    1.45
   6   3   0   30.57    1.62
  -6  -3   0   28.59    1.37
  -6  -3   0   26.63    1.66
  -6  -3   0   29.07    1.62
   6   3   1  132.98    3.03
   6   3   1  122.70    2.52
   6   3   1  113.45    2.54
  -6  -3  -1  103.60    2.31
  -6  -3  -1   94.97    2.56
  -6  -3  -1   90.79    2.46
   6   3   2   66.75    2.45
   6   3   2   58.32    2.00
  -6  -3  -2   54.26    1.94
  -6  -3  -2   44.67    2.08
  -6  -3  -2   45.52    2.06
   6   3   3   29.13    2.02
   6   3   3   27.48    1.62
  -6  -3  -3   24.62    1.71
  -6  -3  -3   22.06    1.88
  -6  -3  -3   19.98    1.74
   6   3   4   65.88    2.59
   6   3   4   58.84    2.01
  -6  -3  -4   55.16    2.24
  -6  -3  -4   46.28    2.26
  -6  -3  -4   46.93    2.20
   6   3   5  124.36    3.27
   6   3   5   98.33    2.44
  -6  -3  -5  102.91    2.88
  -6  -3  -5   77.53    2.77
  -6  -3  -5   79.98    2.71
   6   3   6   85.63    2.96
  -6  -3  -6   69.69    2.65
  -6  -3  -6   56.67    2.59
  -6  -3  -6   49.65    2.36
   6   3   7    9.01    1.34
  -6  -3  -7   10.42    1.40
  -6  -3  -7    5.90    1.26
  -6  -3  -7    5.85    1.16
   6   3   8    4.24    1.22
  -6  -3  -8    2.41    1.25
  -6  -3  -8    0.44    1.09
  -6  -3  -8    1.37    1.00
   6   3   9    3.35    1.29
  -6  -3  -9    3.74    1.43
  -6  -3  -9    1.08    1.25
   6   3  10    0.10    1.21
  -6  -3 -10   -1.47    1.27
  -6  -3 -10   -1.25    1.17
   7   3 -13   -0.46    1.32
   7   3 -13   -1.65    1.12
   7   3 -13    2.26    1.35
  -7  -3  13    0.62    1.27
   7   3 -12    1.54    1.31
   7   3 -12    0.34    1.16
   7   3 -12    1.42    1.22
  -7  -3  12    2.03    1.26
   7   3 -11    8.04    1.45
   7   3 -11    5.80    1.35
   7   3 -11    6.98    1.39
  -7  -3  11    5.25    1.27
   7   3 -10    6.32    1.26
   7   3 -10    5.82    1.26
   7   3 -10    3.63    1.18
  -7  -3  10    4.63    1.22
   7   3  -9   21.69    2.03
   7   3  -9   19.98    1.88
   7   3  -9   16.51    1.84
  -7  -3   9   13.38    1.48
   7   3  -8   37.67    2.20
   7   3  -8   38.77    2.03
   7   3  -8   31.35    2.01
  -7  -3   8   29.23    2.09
   7   3  -7   19.90    1.83
   7   3  -7   21.05    1.71
   7   3  -7   15.85    1.62
  -7  -3   7   13.50    1.69
   7   3  -6    2.91    0.96
   7   3  -6    4.09    0.87
   7   3  -6    2.37    0.95
  -7  -3   6    2.47    0.87
   7   3  -5   -1.45    0.85
   7   3  -5   -0.43    0.75
   7   3  -5    0.40    0.67
   7   3  -5   -1.45    0.79
  -7  -3   5    0.05    0.74
   7   3  -4   11.89    1.34
   7   3  -4   13.30    1.33
   7   3  -4   13.73    1.43
   7   3  -4    9.23    1.21
  -7  -3   4    8.80    1.15
  -7  -3   4   13.73    1.40
  -7  -3   4   11.32    1.22
   7   3  -3   20.10    2.05
   7   3  -3   20.41    1.64
   7   3  -3   19.36    1.67
  -7  -3   3   16.54    1.75
  -7  -3   3   21.62    1.59
  -7  -3   3   17.01    1.37
   7   3  -2   23.53    2.06
   7   3  -2   25.61    1.61
   7   3  -2   25.54    1.71
  -7  -3   2   24.79    1.72
  -7  -3   2   21.75    1.57
   7   3  -1   89.69    2.87
   7   3  -1   83.21    2.20
   7   3  -1   80.51    2.46
  -7  -3   1   66.47    2.37
  -7  -3   1   64.56    2.27
   7   3   0   95.10    2.95
   7   3   0   83.67    2.83
   7   3   0   81.62    2.41
  -7  -3   0   71.70    2.12
  -7  -3   0   67.02    2.52
  -7  -3   0   67.45    2.40
   7   3   1   86.85    2.86
   7   3   1   71.71    2.32
  -7  -3  -1   63.73    2.18
  -7  -3  -1   60.48    2.50
  -7  -3  -1   59.63    2.39
   7   3   2   98.50    3.02
   7   3   2   78.37    2.36
  -7  -3  -2   72.45    2.38
  -7  -3  -2   69.35    2.65
  -7  -3  -2   66.54    2.53
   7   3   3   47.15    2.46
   7   3   3   37.82    1.86
  -7  -3  -3   36.96    2.06
  -7  -3  -3   34.04    2.21
  -7  -3  -3   32.61    2.09
   7   3   4   23.31    2.15
   7   3   4   19.74    1.58
  -7  -3  -4   18.51    1.87
  -7  -3  -4   14.21    1.56
  -7  -3  -4   10.48    1.27
   7   3   5    5.78    1.23
  -7  -3  -5    5.02    1.18
  -7  -3  -5    5.00    1.21
  -7  -3  -5    4.14    1.11
   7   3   6    5.66    1.33
  -7  -3  -6    3.47    1.20
  -7  -3  -6    4.17    1.27
  -7  -3  -6    2.27    1.06
   7   3   7   -0.35    1.14
  -7  -3  -7   -2.09    1.15
  -7  -3  -7   -0.70    1.13
   7   3   8    0.68    1.30
  -7  -3  -8   -0.10    1.32
  -7  -3  -8   -0.32    1.23
   8   3 -12    0.21    1.45
   8   3 -12    1.63    1.28
   8   3 -12   -0.41    1.30
  -8  -3  12   -1.02    1.24
   8   3 -11   -0.38    1.26
   8   3 -11    1.46    1.15
   8   3 -11    0.21    1.26
  -8  -3  11   -0.82    1.24
   8   3 -10    3.70    1.43
   8   3 -10    6.65    1.33
   8   3 -10    5.13    1.37
  -8  -3  10    3.83    1.35
   8   3  -9    5.38    1.39
   8   3  -9    6.31    1.23
   8   3  -9    3.22    1.29
  -8  -3   9    4.23    1.31
   8   3  -8    7.38    1.41
   8   3  -8    8.96    1.28
   8   3  -8    5.35    1.31
  -8  -3   8    7.05    1.37
   8   3  -7   14.22    1.67
   8   3  -7   15.60    1.75
   8   3  -7   11.40    1.53
  -8  -3   7   11.59    1.49
   8   3  -6   10.99    1.42
   8   3  -6   11.26    1.41
   8   3  -6    7.85    1.30
  -8  -3   6    4.56    1.17
   8   3  -5   14.36    1.59
   8   3  -5   14.64    1.54
   8   3  -5   11.72    1.43
  -8  -3   5    8.95    1.31
   8   3  -4   21.97    2.32
   8   3  -4   24.19    1.91
   8   3  -4   21.42    1.90
  -8  -3   4   18.24    2.02
   8   3  -3   21.99    2.31
   8   3  -3   30.13    1.92
   8   3  -3   25.67    1.92
  -8  -3   3   19.13    2.00
  -8  -3   3   21.55    1.87
  -8  -3   3   18.29    1.69
   8   3  -2   22.20    2.31
   8   3  -2   24.88    1.77
   8   3  -2   22.47    1.82
  -8  -3   2   20.50    1.98
  -8  -3   2   16.08    1.73
   8   3  -1   25.97    2.30
   8   3  -1   27.03    1.96
  -8  -3   1   22.39    2.06
  -8  -3   1   17.36    1.86
   8   3   0   58.51    2.75
   8   3   0   47.33    2.21
  -8  -3   0   43.38    2.48
  -8  -3   0   36.91    2.21
   8   3   1   55.78    2.72
   8   3   1   43.68    2.13
  -8  -3  -1   41.31    2.51
  -8  -3  -1   39.81    2.31
   8   3   2   24.51    2.27
   8   3   2   18.00    1.72
  -8  -3  -2   16.55    1.82
  -8  -3  -2   18.24    2.23
  -8  -3  -2   15.69    1.94
   8   3   3    4.06    1.25
  -8  -3  -3    2.66    1.05
  -8  -3  -3    1.25    1.12
  -8  -3  -3    1.13    0.96
   8   3   4    2.35    1.20
  -8  -3  -4    0.85    1.04
  -8  -3  -4   -0.23    1.11
  -8  -3  -4   -0.71    0.89
   8   3   5    4.75    1.41
  -8  -3  -5    3.09    1.25
  -8  -3  -5    2.32    1.30
   8   3   6   13.01    1.77
  -8  -3  -6    7.08    1.46
  -8  -3  -6    9.41    1.65
   9   3  -9    1.29    1.44
   9   3  -9    3.49    1.24
   9   3  -9    2.63    1.41
  -9  -3   9    4.96    1.45
   9   3  -8    8.76    1.69
   9   3  -8    6.52    1.51
  -9  -3   8    8.19    1.59
   9   3  -7    9.79    1.62
   9   3  -7    7.33    1.49
  -9  -3   7    8.11    1.56
   9   3  -6    5.02    1.36
   9   3  -6    7.05    1.43
  -9  -3   6    4.44    1.32
   9   3  -5    5.57    1.46
   9   3  -5    6.97    1.29
   9   3  -5    5.00    1.33
  -9  -3   5    3.58    1.31
   9   3  -4   13.87    1.71
   9   3  -4   17.85    2.06
   9   3  -4   12.40    1.61
  -9  -3   4    9.64    1.56
   9   3  -3   34.58    2.75
   9   3  -3   29.85    2.18
   9   3  -3   24.66    2.16
  -9  -3   3   18.53    2.29
   9   3  -2   30.75    2.62
   9   3  -2   21.78    2.10
  -9  -3   2   16.88    1.86
  -9  -3   2   20.60    2.25
   9   3  -1   13.45    1.66
   9   3  -1   13.00    1.53
  -9  -3   1   10.02    1.46
  -9  -3   1    8.12    1.31
   9   3   0    8.30    1.50
   9   3   0    4.83    1.20
  -9  -3   0    7.36    1.44
  -9  -3   0    5.09    1.17
   9   3   1    8.21    1.53
   9   3   1    6.90    1.29
  -9  -3  -1    4.22    1.35
  -9  -3  -1    3.90    1.18
   9   3   2    8.36    1.55
  -9  -3  -2    5.21    1.43
   9   3   3    5.61    1.48
  -9  -3  -3    6.92    1.54
  -9   4  -6   18.09    2.11
  -9   4  -6   13.72    1.62
   9  -4   6   16.18    1.93
   9  -4   6   16.78    1.99
   9  -4   6   14.98    1.91
  -9   4  -5   12.65    1.55
  -9   4  -5   13.45    1.61
   9  -4   5   12.98    1.76
   9  -4   5   14.83    1.82
   9  -4   5   13.96    1.84
  -9   4  -4    6.96    1.32
  -9   4  -4    5.35    1.25
   9  -4   4    6.93    1.52
   9  -4   4   10.53    1.74
   9  -4   4    8.94    1.57
   9  -4   4    5.35    1.24
  -9   4  -3    5.76    1.10
  -9   4  -3    5.24    1.22
  -9   4  -3    4.65    1.23
   9  -4   3    4.44    1.38
   9  -4   3    3.55    1.50
   9  -4   3    4.42    1.29
   9  -4   3    5.29    1.14
  -9   4  -2    3.88    1.07
  -9   4  -2    5.51    1.26
   9  -4   2    4.52    1.38
   9  -4   2    5.09    1.53
   9  -4   2    5.44    1.25
   9  -4   2    4.46    1.08
   9  -4   2    4.46    1.51
  -9   4  -1    9.12    1.45
  -9   4  -1    5.63    1.28
   9  -4   1    9.09    1.59
   9  -4   1    8.55    1.63
   9  -4   1    7.96    1.29
   9  -4   1    6.92    1.18
   9  -4   1    7.83    1.59
  -9   4   0    6.92    1.28
  -9   4   0    9.12    1.41
   9  -4   0   10.10    1.62
   9  -4   0   12.21    1.76
   9  -4   0    8.40    1.45
   9  -4   0   10.37    1.64
  -9   4   1    5.70    1.22
  -9   4   1    5.34    1.21
  -9   4   1    2.58    0.83
   9  -4  -1    5.60    1.48
   9  -4  -1    7.74    1.55
   9  -4  -1    6.24    1.51
  -9   4   2    8.45    1.38
  -9   4   2    3.48    0.90
   9  -4  -2    9.27    1.66
   9  -4  -2   10.12    1.66
   9  -4  -2    9.66    1.67
   9  -4  -2    9.02    1.65
  -9   4   3    6.45    1.35
  -9   4   3    3.60    0.99
   9  -4  -3    9.13    1.70
   9  -4  -3    9.49    1.59
   9  -4  -3   10.41    1.71
   9  -4  -3    8.88    1.58
  -9   4   4    5.15    1.36
  -9   4   4    1.84    0.93
   9  -4  -4    6.80    1.63
   9  -4  -4    7.53    1.52
   9  -4  -4    7.23    1.61
   9  -4  -4    6.23    1.58
  -9   4   5    0.67    1.19
  -9   4   5    0.77    0.89
   9  -4  -5    4.31    1.53
   9  -4  -5    4.95    1.37
   9  -4  -5    2.76    1.49
   9  -4  -5    2.27    1.40
  -8   4  -9   37.82    2.68
  -8   4  -9   38.19    2.60
  -8   4  -9   35.75    2.45
   8  -4   9   42.06    3.10
   8  -4   9   38.59    3.11
  -8   4  -8   27.41    2.26
  -8   4  -8   23.33    2.12
   8  -4   8   29.65    2.75
   8  -4   8   28.60    2.80
  -8   4  -7   11.69    1.46
  -8   4  -7   11.84    1.47
   8  -4   7   15.11    1.86
   8  -4   7   14.43    1.80
   8  -4   7   13.36    1.74
   8  -4   7   12.69    1.70
  -8   4  -6    8.37    1.31
  -8   4  -6    8.39    1.31
   8  -4   6   10.40    1.53
   8  -4   6    7.94    1.50
   8  -4   6   10.06    1.53
   8  -4   6    8.55    1.31
  -8   4  -5    7.29    1.25
  -8   4  -5    8.26    1.30
   8  -4   5    8.29    1.42
   8  -4   5    9.36    1.53
   8  -4   5    9.65    1.47
   8  -4   5    7.49    1.20
  -8   4  -4    6.84    1.05
  -8   4  -4    8.25    1.25
  -8   4  -4    8.42    1.24
   8  -4   4    9.23    1.46
   8  -4   4   10.33    1.55
   8  -4   4    9.91    1.41
   8  -4   4    9.55    1.27
  -8   4  -3    5.00    0.99
  -8   4  -3    6.75    1.20
   8  -4   3    6.77    1.30
   8  -4   3    6.26    1.39
   8  -4   3    8.39    1.26
   8  -4   3    6.37    1.10
   8  -4   3    6.48    1.41
  -8   4  -2    9.94    1.20
  -8   4  -2   10.52    1.36
   8  -4   2   12.76    1.58
   8  -4   2   10.37    1.54
   8  -4   2   12.66    1.41
   8  -4   2   10.20    1.22
   8  -4   2   11.02    1.55
  -8   4  -1   15.57    1.67
  -8   4  -1   13.61    1.52
   8  -4   1   18.78    2.23
   8  -4   1   18.43    1.82
   8  -4   1   16.83    1.92
   8  -4   1   14.02    1.70
   8  -4   1   18.41    2.06
  -8   4   0   16.98    1.72
  -8   4   0   16.00    1.71
  -8   4   0   10.46    1.22
   8  -4   0   19.86    2.25
   8  -4   0   20.48    2.25
   8  -4   0   17.80    1.89
   8  -4   0   18.76    1.72
   8  -4   0   23.22    2.16
  -8   4   1   12.14    1.35
  -8   4   1    7.38    0.98
   8  -4  -1   16.14    1.67
   8  -4  -1   18.32    2.23
   8  -4  -1   15.17    1.79
   8  -4  -1   17.53    2.02
  -8   4   2    8.14    1.19
  -8   4   2    4.35    0.86
   8  -4  -2   12.69    1.53
   8  -4  -2   13.30    1.59
   8  -4  -2   13.40    1.62
   8  -4  -2   12.15    1.55
  -8   4   3   10.46    1.44
  -8   4   3    6.22    0.98
   8  -4  -3   15.10    1.76
   8  -4  -3   20.14    2.24
   8  -4  -3   14.56    1.70
   8  -4  -3   12.68    1.58
  -8   4   4    5.96    1.18
  -8   4   4    3.36    0.90
   8  -4  -4    8.33    1.40
   8  -4  -4    9.77    1.39
   8  -4  -4    9.03    1.58
   8  -4  -4    8.29    1.43
  -8   4   5    2.93    1.11
  -8   4   5    1.93    0.86
   8  -4  -5    2.76    1.28
   8  -4  -5    5.09    1.21
   8  -4  -5    2.73    1.39
   8  -4  -5    2.90    1.32
  -8   4   6    1.33    1.07
  -8   4   6    1.81    0.88
   8  -4  -6    4.70    1.41
   8  -4  -6    7.40    1.32
   8  -4  -6    5.93    1.44
   8  -4  -6    4.51    1.44
  -8   4   7    0.92    1.03
  -8   4   7   -0.11    0.78
   8  -4  -7   -1.32    1.26
   8  -4  -7    1.06    1.13
   8  -4  -7    1.17    1.30
   8  -4  -7    0.52    1.38
  -8   4   8    2.10    1.27
  -8   4   8    0.61    0.89
   8  -4  -8    1.75    1.67
   8  -4  -8    3.87    1.48
   8  -4  -8    0.61    1.44
  -7   4 -11   39.80    2.71
  -7   4 -11   48.01    2.77
  -7   4 -11   41.15    2.67
   7  -4  11   45.38    3.16
   7  -4  11   42.56    3.23
  -7   4 -10   37.24    2.50
  -7   4 -10   35.19    2.47
  -7   4 -10   34.75    2.35
   7  -4  10   40.68    2.91
   7  -4  10   33.61    2.95
  -7   4  -9   28.07    2.15
  -7   4  -9   23.59    2.05
   7  -4   9   31.79    2.59
   7  -4   9   28.69    2.62
   7  -4   9   21.29    2.18
  -7   4  -8    9.93    1.34
  -7   4  -8    9.75    1.32
   7  -4   8   10.04    1.52
   7  -4   8    9.94    1.50
   7  -4   8    9.35    1.32
  -7   4  -7    2.24    0.86
  -7   4  -7    1.67    0.92
   7  -4   7    2.67    1.13
   7  -4   7    1.03    1.13
   7  -4   7    2.25    1.08
   7  -4   7    1.54    0.88
  -7   4  -6    1.75    0.82
  -7   4  -6    2.11    0.89
  -7   4  -6    1.56    0.91
   7  -4   6    2.21    1.09
   7  -4   6    2.03    1.15
   7  -4   6    4.01    1.12
   7  -4   6    2.17    0.89
  -7   4  -5    4.49    0.85
  -7   4  -5    5.68    1.09
  -7   4  -5    5.27    1.03
   7  -4   5    6.48    1.25
   7  -4   5    7.21    1.27
   7  -4   5    6.94    1.17
   7  -4   5    5.98    1.04
  -7   4  -4   19.79    1.54
  -7   4  -4   18.99    1.64
   7  -4   4   24.44    2.19
   7  -4   4   25.49    2.11
   7  -4   4   25.65    2.07
   7  -4   4   22.94    1.89
  -7   4  -3   38.18    1.83
  -7   4  -3   36.37    1.92
   7  -4   3   45.09    2.41
   7  -4   3   41.92    2.33
   7  -4   3   44.64    2.33
   7  -4   3   39.07    2.13
   7  -4   3   45.44    2.30
  -7   4  -2   29.11    1.68
  -7   4  -2   25.74    1.73
  -7   4  -2   20.15    1.29
   7  -4   2   33.15    2.24
   7  -4   2   35.27    2.19
   7  -4   2   29.94    2.04
   7  -4   2   33.05    1.99
   7  -4   2   34.99    2.14
  -7   4  -1   43.89    1.92
  -7   4  -1   36.70    1.93
  -7   4  -1   29.10    1.41
   7  -4   1   56.11    2.54
   7  -4   1   59.01    2.50
   7  -4   1   47.26    2.20
   7  -4   1   45.60    2.08
   7  -4   1   52.59    2.29
  -7   4   0   35.09    1.84
  -7   4   0   24.25    1.42
   7  -4   0   54.01    2.43
   7  -4   0   49.04    2.32
   7  -4   0   43.38    2.06
   7  -4   0   43.12    1.94
   7  -4   0   46.20    2.20
  -7   4   1    5.79    0.94
  -7   4   1    5.20    0.81
   7  -4  -1    9.59    1.22
   7  -4  -1    9.97    1.23
   7  -4  -1    7.48    1.24
   7  -4  -1   11.80    1.46
   7  -4  -1    7.65    0.94
   7  -4  -1    8.22    1.23
  -7   4   2    6.69    1.01
  -7   4   2    6.05    0.88
   7  -4  -2   11.92    1.33
   7  -4  -2   12.00    1.37
   7  -4  -2   10.28    1.37
   7  -4  -2   11.69    1.42
   7  -4  -2   13.01    1.31
   7  -4  -2    9.06    1.32
  -7   4   3   15.24    1.55
  -7   4   3   11.86    1.26
   7  -4  -3   21.83    1.97
   7  -4  -3   26.41    2.05
   7  -4  -3   18.76    2.05
   7  -4  -3   15.15    1.82
  -7   4   4    8.76    1.26
  -7   4   4    4.88    0.88
   7  -4  -4   10.40    1.43
   7  -4  -4   12.25    1.41
   7  -4  -4   11.82    1.44
   7  -4  -4   11.67    1.49
  -7   4   5    9.80    1.30
  -7   4   5    4.47    0.90
   7  -4  -5    9.35    1.39
   7  -4  -5   12.67    1.49
   7  -4  -5   11.15    1.42
   7  -4  -5    9.58    1.39
  -7   4   6    2.99    0.96
  -7   4   6    1.79    0.77
   7  -4  -6    4.59    1.25
   7  -4  -6    6.39    1.27
   7  -4  -6    3.50    1.20
   7  -4  -6    2.72    1.20
  -7   4   7    5.08    1.15
  -7   4   7    3.41    0.92
   7  -4  -7    6.96    1.47
   7  -4  -7   10.16    1.41
   7  -4  -7    9.77    1.50
   7  -4  -7    6.96    1.48
  -7   4   8    3.59    1.14
  -7   4   8    2.11    0.87
   7  -4  -8    5.25    1.49
   7  -4  -8    4.73    1.29
   7  -4  -8    3.78    1.33
   7  -4  -8    5.02    1.40
  -7   4   9    2.02    1.10
  -7   4   9    0.55    0.76
   7  -4  -9    0.67    1.39
   7  -4  -9    3.42    1.25
   7  -4  -9    2.25    1.35
   7  -4  -9    1.28    1.36
  -7   4  10    3.18    1.31
  -7   4  10    1.36    0.93
   7  -4 -10    4.94    1.78
   7  -4 -10    3.90    1.51
   7  -4 -10    4.43    1.52
  -6   4 -13   24.41    2.48
  -6   4 -13   20.44    2.46
  -6   4 -13   19.74    2.05
   6  -4  13   35.03    2.69
   6  -4  13   26.94    3.00
   6  -4  13   26.73    2.97
  -6   4 -12   27.03    2.35
  -6   4 -12   28.02    2.35
  -6   4 -12   25.40    2.39
   6  -4  12   35.49    2.48
   6  -4  12   27.44    2.76
   6  -4  12   26.77    2.82
  -6   4 -11   18.35    2.08
  -6   4 -11   23.97    2.10
  -6   4 -11   21.04    2.06
   6  -4  11   29.24    2.16
   6  -4  11   22.85    2.51
   6  -4  11   23.17    2.52
   6  -4  11   22.04    2.22
  -6   4 -10   12.35    1.44
  -6   4 -10   12.22    1.43
   6  -4  10   19.68    1.86
   6  -4  10   14.43    1.59
   6  -4  10   12.98    1.56
   6  -4  10   10.20    1.30
  -6   4  -9   17.53    1.73
  -6   4  -9   15.88    1.71
   6  -4   9   19.09    1.84
   6  -4   9   19.27    2.11
   6  -4   9   19.94    2.16
   6  -4   9   15.43    1.87
  -6   4  -8    3.79    0.94
  -6   4  -8    2.68    0.96
   6  -4   8    3.93    1.09
   6  -4   8    4.57    1.09
   6  -4   8    4.02    0.98
  -6   4  -7    3.21    0.76
  -6   4  -7    4.45    0.92
  -6   4  -7    5.50    1.01
   6  -4   7    5.36    1.10
   6  -4   7    4.09    1.10
   6  -4   7    5.70    1.05
   6  -4   7    4.95    1.08
  -6   4  -6   16.34    1.32
  -6   4  -6   14.38    1.47
  -6   4  -6   18.06    1.55
   6  -4   6   20.42    1.94
   6  -4   6   17.35    1.87
   6  -4   6   19.76    1.81
   6  -4   6   21.18    1.83
  -6   4  -5   21.31    1.40
  -6   4  -5   18.81    1.58
  -6   4  -5   22.82    1.55
   6  -4   5   24.60    1.95
   6  -4   5   24.12    1.92
   6  -4   5   26.53    1.90
   6  -4   5   25.20    1.88
  -6   4  -4   50.68    1.83
  -6   4  -4   45.38    1.90
   6  -4   4   58.04    2.34
   6  -4   4   51.25    2.23
   6  -4   4   57.28    2.28
   6  -4   4   55.52    2.24
  -6   4  -3   67.96    2.03
  -6   4  -3   63.80    2.14
  -6   4  -3   51.14    1.49
   6  -4   3   86.51    2.64
   6  -4   3   81.77    2.56
   6  -4   3   78.82    2.46
   6  -4   3   78.80    2.43
   6  -4   3   80.71    2.54
  -6   4  -2   83.93    2.23
  -6   4  -2   76.15    2.28
  -6   4  -2   63.46    1.69
   6  -4   2  111.26    2.86
   6  -4   2  103.43    2.74
   6  -4   2  102.80    2.64
   6  -4   2   96.41    2.53
   6  -4   2  101.50    2.71
  -6   4  -1   55.96    1.90
  -6   4  -1   51.21    2.02
  -6   4  -1   42.21    1.49
   6  -4   1   81.21    2.52
   6  -4   1   78.53    2.46
   6  -4   1   74.18    2.27
   6  -4   1   69.91    2.16
   6  -4   1   74.32    2.38
  -6   4   0   43.20    1.78
  -6   4   0   34.14    1.43
   6  -4   0   68.12    2.36
   6  -4   0   63.48    2.29
   6  -4   0   62.45    2.06
   6  -4   0   57.77    1.95
   6  -4   0   56.00    2.16
  -6   4   1   38.16    1.72
  -6   4   1   27.42    1.38
   6  -4  -1   61.70    2.28
   6  -4  -1   56.22    2.18
   6  -4  -1   53.73    1.93
   6  -4  -1   48.63    1.76
   6  -4  -1   51.47    2.10
  -6   4   2    0.03    0.51
  -6   4   2   -0.27    0.47
   6  -4  -2   -0.78    0.71
   6  -4  -2    0.05    0.78
   6  -4  -2   -0.57    0.73
   6  -4  -2    0.31    0.64
   6  -4  -2    0.04    0.55
   6  -4  -2   -1.23    0.75
  -6   4   3    1.08    0.68
  -6   4   3    1.92    0.60
   6  -4  -3    2.38    0.94
   6  -4  -3    3.34    1.00
   6  -4  -3    1.72    0.91
   6  -4  -3    2.04    0.68
   6  -4  -3    2.66    0.64
   6  -4  -3    1.17    0.90
  -6   4   4   29.03    1.73
  -6   4   4   20.45    1.44
   6  -4  -4   41.42    2.13
   6  -4  -4   50.25    2.26
   6  -4  -4   48.55    2.22
   6  -4  -4   42.68    2.09
  -6   4   5    7.36    1.06
  -6   4   5    5.38    0.91
   6  -4  -5   10.81    1.34
   6  -4  -5   12.69    1.32
   6  -4  -5   11.93    1.37
   6  -4  -5    8.35    1.22
  -6   4   6    8.70    1.16
  -6   4   6    6.00    0.97
   6  -4  -6   11.33    1.39
   6  -4  -6   20.80    1.99
   6  -4  -6   15.84    1.91
   6  -4  -6   12.22    1.40
  -6   4   7    7.07    1.14
  -6   4   7    4.56    0.90
   6  -4  -7   11.18    1.46
   6  -4  -7   16.44    2.00
   6  -4  -7   12.10    1.45
   6  -4  -7   10.68    1.40
  -6   4   8    3.87    1.02
  -6   4   8    2.46    0.80
   6  -4  -8    5.78    1.32
   6  -4  -8    6.35    1.23
   6  -4  -8    6.26    1.29
   6  -4  -8    5.39    1.29
  -6   4   9    1.29    1.00
  -6   4   9    2.18    0.87
   6  -4  -9    2.33    1.35
   6  -4  -9    4.41    1.28
   6  -4  -9    2.71    1.23
   6  -4  -9    3.52    1.29
  -6   4  10   -0.64    0.99
  -6   4  10    0.41    0.83
   6  -4 -10    0.17    1.48
   6  -4 -10    1.75    1.22
   6  -4 -10    0.02    1.24
   6  -4 -10    2.05    1.28
  -6   4  11    0.16    1.09
  -6   4  11    1.04    0.95
   6  -4 -11    1.72    1.58
   6  -4 -11    0.63    1.27
   6  -4 -11    0.08    1.36
   6  -4 -11    1.92    1.45
  -5   4 -14   27.02    2.44
  -5   4 -14   25.71    2.44
  -5   4 -14   26.70    2.61
   5  -4  14   37.24    2.72
   5  -4  14   33.46    2.88
   5  -4  14   34.03    2.96
  -5   4 -13   17.26    2.02
  -5   4 -13   17.34    2.07
  -5   4 -13   13.98    1.73
   5  -4  13   21.48    2.23
   5  -4  13   18.26    1.90
   5  -4  13   16.17    1.84
   5  -4  13   18.12    2.14
  -5   4 -12    4.85    1.13
  -5   4 -12    4.74    1.15
  -5   4 -12    4.24    1.26
   5  -4  12    4.98    1.05
   5  -4  12    4.92    1.28
   5  -4  12    5.86    1.32
   5  -4  12    4.07    1.09
  -5   4 -11    2.46    1.00
  -5   4 -11    3.05    0.98
  -5   4 -11    3.93    1.13
   5  -4  11    3.88    0.95
   5  -4  11    4.99    1.23
   5  -4  11    3.37    1.14
   5  -4  11    3.75    0.99
  -5   4 -10    0.01    0.70
  -5   4 -10   -0.14    0.89
   5  -4  10    1.15    0.79
   5  -4  10    0.73    0.97
   5  -4  10    0.88    0.87
   5  -4  10    0.86    0.86
  -5   4  -9   16.25    1.54
  -5   4  -9   16.12    1.64
   5  -4   9   20.47    1.62
   5  -4   9   17.14    1.90
   5  -4   9   17.41    1.84
   5  -4   9   19.10    1.85
  -5   4  -8   35.13    1.60
  -5   4  -8   32.22    1.77
  -5   4  -8   34.34    1.82
   5  -4   8   40.26    1.77
   5  -4   8   39.74    2.17
   5  -4   8   37.90    2.10
   5  -4   8   39.20    2.13
  -5   4  -7    6.83    0.83
  -5   4  -7    6.55    0.96
  -5   4  -7    8.09    1.05
   5  -4   7    7.09    0.86
   5  -4   7    8.56    1.18
   5  -4   7    8.05    1.15
   5  -4   7    7.30    1.09
   5  -4   7    6.89    1.05
  -5   4  -6   92.82    2.12
  -5   4  -6   81.43    2.31
  -5   4  -6   90.62    2.37
   5  -4   6  106.35    2.76
   5  -4   6   98.47    2.69
   5  -4   6   99.45    2.68
   5  -4   6   98.06    2.64
  -5   4  -5  126.31    2.39
  -5   4  -5  114.46    2.61
  -5   4  -5  118.59    2.59
   5  -4   5  148.16    3.02
   5  -4   5  138.01    2.94
   5  -4   5  136.23    2.91
   5  -4   5  136.84    2.90
  -5   4  -4   91.33    2.08
  -5   4  -4   84.18    2.20
  -5   4  -4   76.05    1.51
   5  -4   4  113.88    2.66
   5  -4   4  108.84    2.63
   5  -4   4  103.73    2.52
   5  -4   4  105.94    2.52
  -5   4  -3  115.67    2.32
  -5   4  -3  108.10    2.42
  -5   4  -3   92.09    1.73
   5  -4   3  158.34    2.97
   5  -4   3  142.00    2.85
   5  -4   3  142.38    2.75
   5  -4   3  138.41    2.69
   5  -4   3  135.04    2.82
  -5   4  -2   60.28    1.77
  -5   4  -2   56.24    1.85
  -5   4  -2   48.15    1.38
   5  -4   2   81.87    2.26
   5  -4   2   78.14    2.22
   5  -4   2   77.94    2.09
   5  -4   2   74.78    2.05
   5  -4   2   72.39    2.18
  -5   4  -1   51.03    1.68
  -5   4  -1   47.40    1.78
  -5   4  -1   40.73    1.34
   5  -4   1   74.26    2.15
   5  -4   1   70.35    2.15
   5  -4   1   65.94    1.91
   5  -4   1   65.54    1.89
   5  -4   1   63.90    2.06
  -5   4   0   37.63    1.54
  -5   4   0   30.91    1.26
   5  -4   0   55.12    1.95
   5  -4   0   54.26    1.94
   5  -4   0   49.17    1.68
   5  -4   0   49.54    1.67
   5  -4   0   46.92    1.86
  -5   4   1   25.24    1.39
  -5   4   1   20.78    1.17
   5  -4  -1   42.17    1.84
   5  -4  -1   38.24    1.76
   5  -4  -1   36.16    1.48
   5  -4  -1   35.07    1.48
   5  -4  -1   35.27    1.70
  -5   4   2   37.34    1.59
  -5   4   2   29.40    1.36
   5  -4  -2   56.39    2.03
   5  -4  -2   63.68    2.16
   5  -4  -2   60.43    2.05
   5  -4  -2   53.74    1.69
   5  -4  -2   51.03    1.64
   5  -4  -2   53.72    1.96
  -5   4   3    0.51    0.52
  -5   4   3    0.11    0.46
   5  -4  -3   -0.10    0.70
   5  -4  -3    0.56    0.73
   5  -4  -3    0.38    0.67
   5  -4  -3    0.00    0.54
   5  -4  -3   -0.32    0.48
   5  -4  -3    0.58    0.73
  -5   4   4    1.37    0.60
  -5   4   4    0.57    0.52
   5  -4  -4    0.85    0.77
   5  -4  -4    0.31    0.76
   5  -4  -4    1.20    0.78
   5  -4  -4    0.20    0.55
   5  -4  -4    1.01    0.54
   5  -4  -4    1.01    0.76
  -5   4   5   38.40    1.75
  -5   4   5   28.98    1.54
   5  -4  -5   60.01    2.24
   5  -4  -5   65.75    2.33
   5  -4  -5   58.30    2.24
   5  -4  -5   54.68    2.14
  -5   4   6    7.24    0.94
  -5   4   6    6.72    0.94
   5  -4  -6   10.68    1.21
   5  -4  -6   12.60    1.30
   5  -4  -6   10.99    1.25
   5  -4  -6   14.66    1.64
  -5   4   7    3.55    0.84
  -5   4   7    3.01    0.77
   5  -4  -7    5.01    1.08
   5  -4  -7    6.04    1.14
   5  -4  -7    8.07    1.17
   5  -4  -7    6.06    1.15
  -5   4   8   14.04    1.63
  -5   4   8   13.52    1.41
   5  -4  -8   23.24    2.17
   5  -4  -8   22.98    2.12
   5  -4  -8   22.19    2.12
   5  -4  -8   24.13    1.99
  -5   4   9    2.71    0.97
  -5   4   9    1.93    0.82
   5  -4  -9    4.38    1.36
   5  -4  -9    3.98    1.13
   5  -4  -9    4.39    1.17
   5  -4  -9    6.49    1.29
  -5   4  10    2.14    0.97
  -5   4  10    1.77    0.84
   5  -4 -10    3.14    1.42
   5  -4 -10    2.27    1.13
   5  -4 -10    1.05    1.15
   5  -4 -10    2.21    1.27
  -5   4  11   -0.33    0.90
  -5   4  11    0.51    0.95
   5  -4 -11    0.99    1.45
   5  -4 -11    0.39    1.12
   5  -4 -11    0.97    1.17
   5  -4 -11    0.09    1.22
  -5   4  12    0.14    1.03
  -5   4  12   -0.15    0.99
   5  -4 -12    0.41    1.62
   5  -4 -12    1.09    1.18
   5  -4 -12    1.64    1.32
   5  -4 -12   -0.14    1.36
  -4   4 -15    5.86    1.31
  -4   4 -15    5.87    1.48
  -4   4 -15    5.74    1.70
   4  -4  15    9.74    1.55
   4  -4  15    7.79    1.61
   4  -4  15    6.87    1.38
  -4   4 -14    6.04    1.24
  -4   4 -14    4.80    1.26
  -4   4 -14    6.78    1.52
   4  -4  14    6.12    1.25
   4  -4  14    5.11    1.37
   4  -4  14    5.84    1.22
  -4   4 -13    3.16    1.02
  -4   4 -13    2.47    1.00
  -4   4 -13    2.92    1.26
   4  -4  13    2.47    1.03
   4  -4  13    3.81    1.23
   4  -4  13    3.38    1.19
   4  -4  13    3.81    1.04
  -4   4 -12   -0.79    0.82
  -4   4 -12   -0.49    0.82
  -4   4 -12    0.39    1.00
   4  -4  12    0.26    0.85
   4  -4  12   -0.56    0.95
   4  -4  12    0.69    0.95
   4  -4  12    0.75    0.85
  -4   4 -11    2.03    1.00
  -4   4 -11    4.59    1.03
  -4   4 -11    5.81    1.16
   4  -4  11    3.61    0.92
   4  -4  11    5.01    1.11
   4  -4  11    5.74    1.12
   4  -4  11    6.67    1.08
  -4   4 -10    0.29    0.68
  -4   4 -10    0.00    0.80
   4  -4  10    0.58    0.75
   4  -4  10   -0.57    0.89
   4  -4  10    0.08    0.81
   4  -4  10    0.95    0.81
  -4   4  -9   41.50    1.69
  -4   4  -9   37.81    1.85
  -4   4  -9   39.10    1.88
   4  -4   9   40.47    1.78
   4  -4   9   42.63    2.11
   4  -4   9   39.83    2.08
   4  -4   9   40.81    2.04
  -4   4  -8  159.88    2.62
  -4   4  -8  137.49    2.88
  -4   4  -8  146.35    2.94
   4  -4   8  162.18    2.68
   4  -4   8  161.57    3.20
   4  -4   8  156.69    3.17
   4  -4   8  158.32    3.17
  -4   4  -7  237.59    3.08
  -4   4  -7  200.93    3.27
  -4   4  -7  224.08    3.43
   4  -4   7  245.71    2.96
   4  -4   7  248.00    3.69
   4  -4   7  228.29    3.61
   4  -4   7  236.14    3.62
   4  -4   7  233.79    3.59
  -4   4  -6  167.32    2.57
  -4   4  -6  153.34    2.80
  -4   4  -6  164.44    2.88
   4  -4   6  187.53    2.41
   4  -4   6  191.86    3.19
   4  -4   6  174.32    3.10
   4  -4   6  180.20    3.10
   4  -4   6  176.41    3.05
  -4   4  -5  159.57    2.50
  -4   4  -5  143.51    2.64
  -4   4  -5  151.92    2.68
  -4   4  -5  141.84    1.73
   4  -4   5  189.13    3.06
   4  -4   5  174.12    2.95
   4  -4   5  173.05    2.93
   4  -4   5  168.25    2.87
  -4   4  -4  161.54    2.51
  -4   4  -4  153.63    2.64
  -4   4  -4  140.51    1.84
   4  -4   4  204.44    3.09
   4  -4   4  196.78    3.05
   4  -4   4  186.58    2.92
   4  -4   4  178.80    2.84
  -4   4  -3   14.38    0.99
  -4   4  -3   14.20    1.08
  -4   4  -3   13.13    0.79
   4  -4   3   18.75    1.31
   4  -4   3   20.08    1.35
   4  -4   3   18.83    1.25
   4  -4   3   18.12    1.26
   4  -4   3   17.34    1.37
  -4   4  -2    3.73    0.59
  -4   4  -2    3.07    0.61
  -4   4  -2    2.39    0.44
   4  -4   2    3.77    0.70
   4  -4   2    2.95    0.70
   4  -4   2    3.25    0.64
   4  -4   2    3.76    0.66
   4  -4   2    3.26    0.77
  -4   4  -1   59.69    1.66
  -4   4  -1   54.05    1.66
  -4   4  -1   52.62    1.39
   4  -4   1   80.86    2.00
   4  -4   1   78.83    2.00
   4  -4   1   74.25    1.83
   4  -4   1   73.33    1.84
   4  -4   1   70.08    1.93
  -4   4   0    9.88    0.94
  -4   4   0    7.87    0.82
   4  -4   0   14.77    1.22
   4  -4   0   13.94    1.20
   4  -4   0   12.95    1.09
   4  -4   0   13.66    1.12
   4  -4   0   12.96    1.22
  -4   4   1   42.14    1.51
  -4   4   1   33.32    1.28
   4  -4  -1   58.83    1.85
   4  -4  -1   58.59    1.82
   4  -4  -1   54.25    1.62
   4  -4  -1   51.05    1.58
   4  -4  -1   52.96    1.73
  -4   4   2   47.20    1.61
  -4   4   2   39.00    1.45
   4  -4  -2   74.08    2.02
   4  -4  -2   70.49    1.97
   4  -4  -2   66.57    1.69
   4  -4  -2   62.75    1.66
   4  -4  -2   69.64    1.95
  -4   4   3   23.39    1.27
  -4   4   3   19.06    1.19
   4  -4  -3   35.85    1.66
   4  -4  -3   36.71    1.66
   4  -4  -3   38.06    1.67
   4  -4  -3   33.76    1.33
   4  -4  -3   33.16    1.33
   4  -4  -3   36.21    1.60
  -4   4   4   41.43    1.59
  -4   4   4   37.51    1.52
   4  -4  -4   65.03    2.05
   4  -4  -4   67.09    2.10
   4  -4  -4   68.04    2.11
   4  -4  -4   59.35    1.62
   4  -4  -4   58.19    1.59
   4  -4  -4   61.31    1.95
  -4   4   5   10.90    1.17
  -4   4   5    9.57    1.10
   4  -4  -5   17.01    1.53
   4  -4  -5   17.72    1.58
   4  -4  -5   16.15    1.46
   4  -4  -5   14.82    1.14
   4  -4  -5   14.32    1.09
   4  -4  -5   16.84    1.45
  -4   4   6   25.62    1.52
  -4   4   6   22.34    1.40
   4  -4  -6   39.26    1.92
   4  -4  -6   41.16    2.02
   4  -4  -6   38.89    1.93
   4  -4  -6   33.59    1.51
   4  -4  -6   39.09    1.91
  -4   4   7    6.11    0.90
  -4   4   7    6.66    0.90
   4  -4  -7   11.89    1.29
   4  -4  -7    8.63    1.16
   4  -4  -7    9.85    1.23
  -4   4   8   -0.35    0.64
  -4   4   8    0.25    0.64
   4  -4  -8    0.07    0.93
   4  -4  -8   -0.46    0.85
   4  -4  -8   -0.74    0.83
   4  -4  -8   -1.30    0.83
  -4   4   9   16.11    1.60
  -4   4   9   13.85    1.50
   4  -4  -9   19.28    2.11
   4  -4  -9   21.48    2.05
   4  -4  -9   20.13    2.04
   4  -4  -9   18.27    1.94
  -4   4  10    5.61    1.04
  -4   4  10    3.94    1.00
   4  -4 -10    6.08    1.40
   4  -4 -10    6.73    1.28
   4  -4 -10    8.17    1.32
   4  -4 -10    6.77    1.39
  -4   4  11    3.28    1.01
  -4   4  11    2.49    1.03
   4  -4 -11    2.48    1.42
   4  -4 -11    5.68    1.28
   4  -4 -11    5.84    1.36
   4  -4 -11    2.66    1.32
  -4   4  12    0.90    0.93
  -4   4  12    0.57    1.00
   4  -4 -12    0.61    1.35
   4  -4 -12    0.57    1.19
   4  -4 -12    1.86    1.23
   4  -4 -12    3.55    1.35
  -4   4  13   -2.94    1.01
   4  -4 -13   -0.01    1.20
   4  -4 -13    1.38    1.28
   4  -4 -13    3.10    1.38
  -3   4 -16    2.17    1.11
  -3   4 -16    1.29    1.41
  -3   4 -16    2.98    1.58
   3  -4  16    4.52    1.47
   3  -4  16    3.78    1.34
  -3   4 -15    0.37    0.89
  -3   4 -15    0.63    1.16
  -3   4 -15    0.58    1.35
   3  -4  15    1.28    1.20
   3  -4  15   -0.51    1.06
   3  -4  15    0.72    0.96
  -3   4 -14    0.96    0.85
  -3   4 -14   -0.38    0.97
  -3   4 -14    0.78    1.23
   3  -4  14    0.07    1.00
   3  -4  14    1.21    1.03
   3  -4  14    0.27    0.83
  -3   4 -13    7.48    1.07
  -3   4 -13    8.38    1.24
  -3   4 -13    8.84    1.45
   3  -4  13    6.65    1.20
   3  -4  13    7.46    1.23
   3  -4  13    9.22    1.26
   3  -4  13    7.82    1.15
  -3   4 -12   -0.18    0.74
  -3   4 -12    0.48    0.78
  -3   4 -12   -0.57    0.98
   3  -4  12   -1.23    0.82
   3  -4  12    0.57    0.91
   3  -4  12   -0.41    0.88
   3  -4  12    0.13    0.81
  -3   4 -11   42.53    1.99
  -3   4 -11   50.28    2.08
  -3   4 -11   51.25    2.24
   3  -4  11   46.32    2.12
   3  -4  11   53.10    2.24
   3  -4  11   54.08    2.30
   3  -4  11   55.17    2.28
  -3   4 -10   46.99    1.75
  -3   4 -10   41.48    1.86
  -3   4 -10   40.47    1.97
   3  -4  10   36.87    1.85
   3  -4  10   43.62    2.05
   3  -4  10   44.89    2.10
   3  -4  10   45.43    2.05
  -3   4  -9  129.28    2.42
  -3   4  -9  114.52    2.61
  -3   4  -9  119.87    2.72
   3  -4   9  109.77    2.38
   3  -4   9  127.68    2.76
   3  -4   9  125.92    2.79
   3  -4   9  128.58    2.80
  -3   4  -8  269.64    3.22
  -3   4  -8  242.93    3.45
  -3   4  -8  245.11    3.52
   3  -4   8  242.43    3.05
   3  -4   8  282.08    3.67
   3  -4   8  269.02    3.68
   3  -4   8  264.66    3.64
  -3   4  -7  134.18    2.31
  -3   4  -7  115.48    2.37
  -3   4  -7  124.67    2.50
   3  -4   7  128.11    2.13
   3  -4   7  140.88    2.62
   3  -4   7  127.52    2.60
   3  -4   7  133.90    2.61
   3  -4   7  131.34    2.57
  -3   4  -6  247.52    2.97
  -3   4  -6  213.92    2.99
  -3   4  -6  233.33    3.17
  -3   4  -6  235.22    1.92
   3  -4   6  247.81    2.58
   3  -4   6  271.59    3.35
   3  -4   6  252.74    3.30
   3  -4   6  256.42    3.33
   3  -4   6  243.24    3.23
  -3   4  -5   82.29    1.79
  -3   4  -5   74.25    1.81
  -3   4  -5   81.17    1.90
  -3   4  -5   80.58    1.30
   3  -4   5   95.37    2.09
   3  -4   5   90.06    2.05
   3  -4   5   89.73    2.05
   3  -4   5   88.34    2.02
  -3   4  -4  102.21    1.94
  -3   4  -4   97.56    1.99
  -3   4  -4   94.64    1.49
   3  -4   4  122.13    2.25
   3  -4   4  114.20    2.20
   3  -4   4  111.57    2.17
   3  -4   4  112.42    2.17
  -3   4  -3   98.90    1.91
  -3   4  -3   94.98    1.93
  -3   4  -3   91.96    1.54
   3  -4   3  122.76    2.21
   3  -4   3  120.62    2.19
   3  -4   3  112.88    2.14
   3  -4   3  110.74    2.10
  -3   4  -2    2.23    0.48
  -3   4  -2    2.70    0.55
  -3   4  -2    1.57    0.41
   3  -4   2    3.22    0.63
   3  -4   2    2.51    0.60
   3  -4   2    2.96    0.58
   3  -4   2    2.93    0.56
   3  -4   2    2.53    0.65
  -3   4  -1    7.54    0.81
  -3   4  -1    6.66    0.73
  -3   4  -1    6.27    0.70
   3  -4   1    9.83    1.05
   3  -4   1    8.43    1.01
   3  -4   1    8.58    0.96
   3  -4   1    8.53    0.93
   3  -4   1    8.89    1.03
  -3   4   0  114.41    2.08
  -3   4   0   96.27    1.80
   3  -4   0  145.66    2.39
   3  -4   0  146.99    2.36
   3  -4   0  135.22    2.17
   3  -4   0  133.89    2.15
   3  -4   0  137.38    2.29
  -3   4   1   53.14    1.51
  -3   4   1   49.49    1.43
   3  -4  -1   75.57    1.89
   3  -4  -1   75.08    1.83
   3  -4  -1   68.07    1.64
   3  -4  -1   67.81    1.63
   3  -4  -1   74.64    1.80
  -3   4   2  164.91    2.55
  -3   4   2  144.01    2.37
   3  -4  -2  232.19    3.09
   3  -4  -2  238.81    3.07
   3  -4  -2  207.41    2.59
   3  -4  -2  206.30    2.59
   3  -4  -2  219.45    2.88
  -3   4   3   59.53    1.66
  -3   4   3   52.48    1.59
   3  -4  -3   89.91    2.11
   3  -4  -3   91.10    2.11
   3  -4  -3   77.19    1.71
   3  -4  -3   77.69    1.72
   3  -4  -3   85.92    1.97
  -3   4   4    5.51    0.69
  -3   4   4    5.85    0.72
   3  -4  -4    8.57    0.90
   3  -4  -4   10.28    1.21
   3  -4  -4    8.20    0.96
   3  -4  -4    8.49    0.96
   3  -4  -4    8.97    1.10
  -3   4   5   59.16    1.76
  -3   4   5   50.33    1.68
   3  -4  -5   86.06    2.21
   3  -4  -5   86.85    2.27
   3  -4  -5   86.63    2.23
   3  -4  -5   80.14    1.76
   3  -4  -5   77.06    1.71
   3  -4  -5   82.92    2.09
  -3   4   6   23.71    1.34
  -3   4   6   22.09    1.35
   3  -4  -6   34.74    1.76
   3  -4  -6   34.60    1.79
   3  -4  -6   35.76    1.79
   3  -4  -6   33.30    1.32
   3  -4  -6   29.01    1.25
   3  -4  -6   36.97    1.71
  -3   4   7   15.92    1.28
  -3   4   7   14.49    1.28
   3  -4  -7   21.27    1.72
   3  -4  -7   23.38    1.75
   3  -4  -7   20.65    1.70
   3  -4  -7   17.37    1.12
   3  -4  -7   19.00    1.64
  -3   4   8   11.12    1.09
  -3   4   8   10.62    1.29
   3  -4  -8   17.41    1.82
   3  -4  -8   16.49    1.79
   3  -4  -8   17.06    1.79
   3  -4  -8   14.71    1.42
  -3   4   9    1.51    0.75
  -3   4   9    1.60    0.78
   3  -4  -9    1.02    1.11
   3  -4  -9    2.18    0.98
   3  -4  -9    2.71    1.01
   3  -4  -9    1.56    1.06
  -3   4  10    7.32    1.04
  -3   4  10    4.53    1.03
   3  -4 -10    8.16    1.37
   3  -4 -10   11.11    1.38
   3  -4 -10    9.95    1.33
   3  -4 -10   10.83    1.38
  -3   4  11    5.69    1.00
  -3   4  11    3.14    1.05
   3  -4 -11    4.51    1.32
   3  -4 -11    5.98    1.31
   3  -4 -11    6.95    1.31
   3  -4 -11    7.69    1.28
  -3   4  12    2.21    1.07
   3  -4 -12    4.61    1.29
   3  -4 -12    5.84    1.36
   3  -4 -12    6.81    1.28
  -3   4  13   -0.65    1.04
   3  -4 -13    0.65    1.27
   3  -4 -13    1.98    1.28
   3  -4 -13    3.70    1.27
  -2   4 -16   -1.87    1.12
  -2   4 -16   -2.00    1.29
   2  -4  16   -1.04    1.29
  -2   4 -15    0.18    0.78
  -2   4 -15    0.99    1.11
  -2   4 -15   -0.68    1.23
   2  -4  15   -0.27    1.13
   2  -4  15   -0.05    0.95
   2  -4  15   -0.25    1.08
  -2   4 -14   -0.54    0.72
  -2   4 -14    0.54    0.99
  -2   4 -14    0.19    1.17
   2  -4  14   -1.26    0.98
   2  -4  14   -0.27    0.86
   2  -4  14   -0.25    0.80
  -2   4 -13   28.60    1.77
  -2   4 -13   34.17    2.07
  -2   4 -13   32.93    2.24
   2  -4  13   31.50    2.23
   2  -4  13   35.47    2.12
   2  -4  13   34.95    2.18
   2  -4  13   35.66    2.06
  -2   4 -12   80.04    2.20
  -2   4 -12   61.67    2.13
  -2   4 -12   68.98    2.38
  -2   4 -12   68.90    2.58
   2  -4  12   66.47    2.52
   2  -4  12   75.87    2.44
   2  -4  12   72.21    2.54
   2  -4  12   69.15    2.43
  -2   4 -11  133.17    2.57
  -2   4 -11  105.36    2.47
  -2   4 -11  119.83    2.78
  -2   4 -11  121.19    2.96
   2  -4  11  119.04    2.84
   2  -4  11  130.29    2.79
   2  -4  11  128.74    2.91
   2  -4  11  124.62    2.81
  -2   4 -10  148.29    2.61
  -2   4 -10  134.59    2.77
  -2   4 -10  132.18    2.89
   2  -4  10  134.65    2.73
   2  -4  10  146.68    2.76
   2  -4  10  142.27    2.82
   2  -4  10  142.56    2.82
  -2   4  -9  117.01    2.31
  -2   4  -9  107.44    2.37
  -2   4  -9  111.71    2.54
   2  -4   9  110.23    2.30
   2  -4   9  117.88    2.40
   2  -4   9  115.41    2.46
   2  -4   9  118.68    2.48
  -2   4  -8  298.28    3.31
  -2   4  -8  272.35    3.38
  -2   4  -8  270.86    3.52
   2  -4   8  270.16    3.11
   2  -4   8  308.68    3.46
   2  -4   8  293.55    3.55
   2  -4   8  285.46    3.50
  -2   4  -7  118.82    2.16
  -2   4  -7  106.07    2.08
  -2   4  -7  107.59    2.22
  -2   4  -7  116.21    1.37
   2  -4   7  104.38    1.89
   2  -4   7  127.23    2.25
   2  -4   7  119.20    2.29
   2  -4   7  112.61    2.23
  -2   4  -6   72.00    1.69
  -2   4  -6   63.70    1.60
  -2   4  -6   69.25    1.76
  -2   4  -6   71.18    1.18
   2  -4   6   63.88    1.39
   2  -4   6   79.74    1.80
   2  -4   6   72.56    1.78
   2  -4   6   71.60    1.79
   2  -4   6   70.31    1.77
  -2   4  -5   29.82    1.19
  -2   4  -5   24.90    1.09
  -2   4  -5   26.18    1.16
  -2   4  -5   28.45    0.89
   2  -4   5   31.63    1.26
   2  -4   5   28.70    1.24
   2  -4   5   28.16    1.28
   2  -4   5   28.46    1.24
  -2   4  -4   18.56    1.00
  -2   4  -4   15.84    0.95
  -2   4  -4   18.19    0.82
   2  -4   4   21.16    1.11
   2  -4   4   20.72    1.09
   2  -4   4   20.42    1.13
   2  -4   4   19.28    1.08
  -2   4  -3   38.96    1.25
  -2   4  -3   37.95    1.23
  -2   4  -3   39.78    1.09
   2  -4   3   46.66    1.41
   2  -4   3   45.33    1.36
   2  -4   3   43.42    1.38
   2  -4   3   42.60    1.35
  -2   4  -2   35.78    1.19
  -2   4  -2   31.42    1.12
  -2   4  -2   34.00    1.07
   2  -4   2   40.75    1.36
   2  -4   2   39.46    1.30
   2  -4   2   38.62    1.31
   2  -4   2   37.03    1.29
  -2   4  -1  185.51    2.43
  -2   4  -1  163.87    2.21
  -2   4  -1  177.56    2.22
   2  -4   1  228.41    2.71
   2  -4   1  226.39    2.58
   2  -4   1  206.09    2.54
   2  -4   1  207.05    2.54
   2  -4   1  216.39    2.58
  -2   4   0   39.12    1.24
  -2   4   0   34.20    1.16
  -2   4   0   39.74    1.22
   2  -4   0   50.45    1.48
   2  -4   0   51.40    1.40
   2  -4   0   44.01    1.35
   2  -4   0   46.84    1.37
   2  -4   0   49.56    1.38
  -2   4   1  156.13    2.28
  -2   4   1  149.94    2.22
   2  -4  -1  203.70    2.68
   2  -4  -1  205.85    2.57
   2  -4  -1  184.95    2.40
   2  -4  -1  178.76    2.35
   2  -4  -1  201.35    2.48
  -2   4   2  300.81    3.16
  -2   4   2  282.15    3.12
   2  -4  -2  407.95    3.81
   2  -4  -2  409.96    3.65
   2  -4  -2  366.01    3.30
   2  -4  -2  355.88    3.25
   2  -4  -2  387.75    3.42
  -2   4   3  226.60    2.81
  -2   4   3  206.72    2.82
   2  -4  -3  312.28    3.49
   2  -4  -3  314.19    3.35
   2  -4  -3  266.98    2.86
   2  -4  -3  271.04    2.88
   2  -4  -3  303.01    3.12
  -2   4   4   61.44    1.60
  -2   4   4   60.76    1.69
   2  -4  -4   85.48    2.08
   2  -4  -4   88.44    2.06
   2  -4  -4   78.27    1.72
   2  -4  -4   75.60    1.67
   2  -4  -4   86.95    1.88
  -2   4   5    8.79    0.90
  -2   4   5    6.14    0.77
   2  -4  -5   10.03    1.25
   2  -4  -5    9.21    0.93
   2  -4  -5    7.97    0.77
   2  -4  -5    7.64    0.95
   2  -4  -5    9.20    0.91
  -2   4   6    9.62    0.99
  -2   4   6   10.80    1.13
   2  -4  -6   14.17    1.42
   2  -4  -6   13.84    1.39
   2  -4  -6   11.10    1.13
   2  -4  -6   11.26    1.05
   2  -4  -6   13.95    1.28
  -2   4   7    9.91    1.07
  -2   4   7   10.36    1.21
   2  -4  -7   13.27    1.49
   2  -4  -7   14.00    1.48
   2  -4  -7   12.29    1.18
   2  -4  -7   10.60    1.06
   2  -4  -7   14.13    1.34
  -2   4   8    0.10    0.62
  -2   4   8   -1.22    0.51
  -2   4   8   -1.20    0.61
   2  -4  -8    0.34    0.76
   2  -4  -8    0.83    0.79
   2  -4  -8   -0.07    0.60
   2  -4  -8   -0.29    0.52
   2  -4  -8   -0.81    0.79
  -2   4   9   27.79    1.69
  -2   4   9   15.59    1.36
  -2   4   9   14.43    1.48
   2  -4  -9   27.78    1.94
   2  -4  -9   25.92    1.91
   2  -4  -9   23.64    1.75
  -2   4  10   18.48    1.74
  -2   4  10   11.83    1.34
  -2   4  10   11.03    1.23
   2  -4 -10   17.79    1.93
   2  -4 -10   18.57    1.93
   2  -4 -10   20.89    1.70
  -2   4  11    6.16    1.04
  -2   4  11    3.33    1.04
   2  -4 -11    6.24    1.25
   2  -4 -11    7.32    1.27
   2  -4 -11    5.78    1.08
  -2   4  12    3.88    1.60
  -2   4  12    1.32    1.01
   2  -4 -12    2.78    1.25
   2  -4 -12    4.04    1.30
   2  -4 -12    4.35    1.12
  -2   4  13    2.00    1.18
   2  -4 -13    3.36    1.40
   2  -4 -13    2.35    1.39
  -2   4  14   -1.75    1.13
   2  -4 -14   -0.21    1.39
   2  -4 -14   -2.92    1.27
  -1   4 -17   -0.55    1.33
  -1   4 -17   -0.32    1.41
   1  -4  17   -0.86    1.44
  -1   4 -16    1.92    1.25
  -1   4 -16    2.00    1.35
   1  -4  16    0.94    1.37
  -1   4 -15    8.80    1.43
  -1   4 -15   11.66    1.59
   1  -4  15   11.61    1.58
  -1   4 -14   22.36    1.90
  -1   4 -14   25.58    2.07
  -1   4 -14   25.83    2.21
   1  -4  14   26.13    2.41
   1  -4  14   29.59    2.04
   1  -4  14   26.96    1.85
  -1   4 -13   98.02    2.52
  -1   4 -13   73.12    2.20
  -1   4 -13   79.00    2.62
  -1   4 -13   76.10    2.80
   1  -4  13   88.25    2.90
   1  -4  13   90.04    2.64
   1  -4  13   85.96    2.46
  -1   4 -12  101.31    2.51
  -1   4 -12   78.12    2.16
  -1   4 -12   84.53    2.53
  -1   4 -12   85.25    2.75
   1  -4  12   93.84    2.71
   1  -4  12   92.67    2.42
   1  -4  12   98.65    2.55
   1  -4  12   92.73    2.44
  -1   4 -11  160.64    2.82
  -1   4 -11  125.56    2.42
  -1   4 -11  139.08    2.85
  -1   4 -11  131.50    3.00
   1  -4  11  142.29    2.92
   1  -4  11  155.75    2.72
   1  -4  11  150.70    2.83
   1  -4  11  145.70    2.76
  -1   4 -10  142.96    2.59
  -1   4 -10  127.59    2.54
  -1   4 -10  128.87    2.83
   1  -4  10  124.14    2.55
   1  -4  10  142.64    2.44
   1  -4  10  135.41    2.56
   1  -4  10  131.02    2.51
  -1   4  -9    3.19    0.72
  -1   4  -9    3.27    0.64
  -1   4  -9    3.32    0.82
   1  -4   9    3.29    0.65
   1  -4   9    4.05    0.66
   1  -4   9    4.39    0.71
   1  -4   9    3.25    0.67
  -1   4  -8    3.73    0.68
  -1   4  -8    3.91    0.59
  -1   4  -8    4.65    0.77
  -1   4  -8    3.42    0.44
   1  -4   8    3.33    0.58
   1  -4   8    4.86    0.63
   1  -4   8    2.92    0.63
   1  -4   8    3.49    0.63
  -1   4  -7    1.51    0.55
  -1   4  -7    1.46    0.43
  -1   4  -7    2.02    0.57
  -1   4  -7    1.52    0.37
   1  -4   7    0.95    0.43
   1  -4   7    2.27    0.53
   1  -4   7    1.47    0.53
   1  -4   7    1.26    0.51
  -1   4  -6   71.54    1.69
  -1   4  -6   65.90    1.48
  -1   4  -6   70.52    1.69
  -1   4  -6   73.96    1.31
   1  -4   6   60.23    1.37
   1  -4   6   79.38    1.61
   1  -4   6   72.95    1.71
   1  -4   6   72.29    1.69
  -1   4  -5   22.67    1.11
  -1   4  -5   18.22    0.88
  -1   4  -5   21.47    1.03
  -1   4  -5   21.67    0.88
   1  -4   5   19.00    0.87
   1  -4   5   22.76    1.05
   1  -4   5   20.87    1.04
   1  -4   5   21.28    1.10
   1  -4   5   20.76    1.08
  -1   4  -4   88.80    1.74
  -1   4  -4   87.07    1.68
  -1   4  -4   88.47    1.49
   1  -4   4   93.53    1.70
   1  -4   4   90.75    1.64
   1  -4   4   87.47    1.78
   1  -4   4   88.49    1.78
  -1   4  -3  646.74    4.31
  -1   4  -3  599.17    3.97
  -1   4  -3  626.18    3.77
   1  -4   3  713.54    4.25
   1  -4   3  691.57    3.95
   1  -4   3  633.39    4.30
   1  -4   3  630.13    4.28
  -1   4  -2  143.50    2.07
  -1   4  -2  132.45    1.87
  -1   4  -2  140.58    1.94
   1  -4   2  159.94    2.14
   1  -4   2  161.67    1.98
   1  -4   2  141.23    2.13
   1  -4   2  138.87    2.10
  -1   4  -1   57.64    1.40
  -1   4  -1   49.19    1.19
  -1   4  -1   56.74    1.37
   1  -4   1   70.42    1.57
   1  -4   1   69.25    1.41
   1  -4   1   60.46    1.48
   1  -4   1   58.27    1.47
  -1   4   0  231.54    2.57
  -1   4   0  192.21    2.15
  -1   4   0  220.48    2.55
   1  -4   0  283.08    2.89
   1  -4   0  282.99    2.62
   1  -4   0  249.03    2.71
   1  -4   0  241.37    2.66
   1  -4   0  263.39    2.53
  -1   4   1  214.17    2.49
  -1   4   1  206.66    2.55
   1  -4  -1  264.56    2.90
   1  -4  -1  271.65    2.66
   1  -4  -1  233.07    2.63
   1  -4  -1  227.16    2.60
   1  -4  -1  252.15    2.47
  -1   4   2   17.77    0.92
  -1   4   2   18.51    1.02
   1  -4  -2   22.54    1.17
   1  -4  -2   23.58    1.08
   1  -4  -2   20.52    1.10
   1  -4  -2   19.48    1.05
   1  -4  -2   24.05    1.04
  -1   4   3  175.01    2.33
  -1   4   3  161.94    2.46
   1  -4  -3  220.50    2.87
   1  -4  -3  228.59    2.71
   1  -4  -3  193.78    2.50
   1  -4  -3  184.55    2.43
   1  -4  -3  214.60    2.40
  -1   4   4   61.50    1.50
  -1   4   4   59.79    1.67
   1  -4  -4   81.94    1.97
   1  -4  -4   85.87    1.91
   1  -4  -4   69.43    1.67
   1  -4  -4   69.37    1.64
   1  -4  -4   78.76    1.63
  -1   4   5   43.50    1.36
  -1   4   5   39.46    1.50
   1  -4  -5   58.78    1.84
   1  -4  -5   58.34    1.76
   1  -4  -5   48.92    1.53
   1  -4  -5   47.49    1.48
   1  -4  -5   54.69    1.51
  -1   4   6   38.91    1.41
  -1   4   6   24.44    1.17
  -1   4   6   25.28    1.39
   1  -4  -6   38.00    1.70
   1  -4  -6   38.03    1.65
   1  -4  -6   31.11    1.40
   1  -4  -6   30.21    1.33
   1  -4  -6   34.31    1.41
  -1   4   7   63.96    1.79
  -1   4   7   42.50    1.44
  -1   4   7   36.04    1.63
   1  -4  -7   57.56    2.07
   1  -4  -7   58.45    2.03
   1  -4  -7   49.49    1.66
   1  -4  -7   45.53    1.56
   1  -4  -7   57.44    1.74
  -1   4   8    8.32    0.91
  -1   4   8    8.40    1.00
  -1   4   8    7.30    0.98
   1  -4  -8    9.39    1.11
   1  -4  -8    8.59    1.10
   1  -4  -8    7.44    0.87
   1  -4  -8    5.98    0.77
   1  -4  -8   11.97    1.30
  -1   4   9    3.80    0.89
  -1   4   9    3.04    0.79
  -1   4   9    1.68    0.80
   1  -4  -9    4.32    0.99
   1  -4  -9    4.71    1.01
   1  -4  -9    2.98    0.74
   1  -4  -9    2.79    0.67
   1  -4  -9    4.32    0.86
  -1   4  10    9.76    1.10
  -1   4  10    5.96    1.05
   1  -4 -10    9.94    1.33
   1  -4 -10    9.43    1.26
   1  -4 -10   12.81    1.51
  -1   4  11    8.21    1.13
  -1   4  11    7.17    1.18
   1  -4 -11    7.15    1.33
   1  -4 -11    8.11    1.38
  -1   4  12    6.26    1.12
  -1   4  12    2.89    1.08
   1  -4 -12    6.33    1.40
   1  -4 -12    4.61    1.34
  -1   4  13    2.71    1.10
  -1   4  13    2.36    1.18
   1  -4 -13    1.58    1.38
   1  -4 -13    2.85    1.42
  -1   4  14    5.68    1.35
  -1   4  14    1.38    1.32
   1  -4 -14    2.47    1.56
   1  -4 -14    1.45    1.53
   0   4 -17    0.90    1.37
   0   4 -17    2.75    1.47
   0  -4  17    0.44    1.58
   0   4 -16    8.75    1.49
   0   4 -16   10.50    1.63
   0  -4  16    7.46    1.68
   0   4 -15   23.34    2.18
   0   4 -15   23.82    2.27
   0  -4  15   15.98    1.72
   0   4 -14   24.54    1.91
   0   4 -14   22.82    2.02
   0   4 -14   24.66    2.19
   0  -4  14   29.42    2.31
   0   4 -13   90.30    2.57
   0   4 -13   74.13    2.54
   0   4 -13   72.77    2.70
   0  -4  13   83.86    2.74
   0  -4  13   91.00    2.38
   0  -4  13   86.92    2.25
   0   4 -12  174.47    3.15
   0   4 -12  131.87    3.16
   0   4 -12  143.05    2.99
   0   4 -12  138.30    3.20
   0  -4  12  152.65    3.20
   0  -4  12  168.68    2.84
   0  -4  12  161.09    2.75
   0   4 -11   39.04    1.83
   0   4 -11   33.28    1.33
   0   4 -11   35.97    1.71
   0   4 -11   30.57    1.91
   0  -4  11   37.58    1.85
   0  -4  11   42.01    1.55
   0  -4  11   39.50    1.61
   0  -4  11   39.18    1.57
   0   4 -10   33.44    1.60
   0   4 -10   25.50    1.14
   0   4 -10   30.73    1.45
   0   4 -10   31.51    1.77
   0   4 -10   30.88    1.13
   0  -4  10   29.34    1.56
   0  -4  10   35.48    1.33
   0  -4  10   31.71    1.45
   0  -4  10   32.46    1.40
   0   4  -9    2.85    0.69
   0   4  -9    3.26    0.60
   0   4  -9    3.12    0.80
   0   4  -9    2.69    0.49
   0  -4   9    2.24    0.59
   0  -4   9    3.47    0.56
   0  -4   9    3.37    0.62
   0  -4   9    2.70    0.60
   0   4  -8    0.76    0.55
   0   4  -8    0.36    0.41
   0   4  -8    0.68    0.61
   0   4  -8    0.50    0.40
   0  -4   8   -0.58    0.42
   0  -4   8   -0.07    0.40
   0  -4   8   -0.18    0.46
   0  -4   8   -0.25    0.46
   0   4  -7   43.25    1.46
   0   4  -7   40.03    1.19
   0   4  -7   39.41    1.44
   0   4  -7   41.21    1.13
   0  -4   7   35.69    1.29
   0  -4   7   44.12    1.19
   0  -4   7   38.33    1.36
   0  -4   7   38.63    1.34
   0   4  -6   53.90    1.53
   0   4  -6   49.90    1.19
   0   4  -6   53.10    1.49
   0   4  -6   53.91    1.26
   0  -4   6   42.13    1.26
   0  -4   6   55.94    1.26
   0  -4   6   50.48    1.46
   0  -4   6   49.97    1.44
   0   4  -5   26.93    1.19
   0   4  -5   23.05    0.84
   0   4  -5   25.98    1.09
   0   4  -5   26.90    1.00
   0  -4   5   18.82    0.91
   0  -4   5   27.15    0.98
   0  -4   5   22.53    1.11
   0  -4   5   24.07    1.11
   0   4  -4   18.81    1.06
   0   4  -4   16.10    0.74
   0   4  -4   17.89    0.93
   0   4  -4   17.16    0.91
   0  -4   4   12.32    0.81
   0  -4   4   15.05    0.95
   0  -4   4   12.65    0.89
   0  -4   4   18.86    1.05
   0  -4   4   15.69    0.99
   0   4  -3 1381.99    6.19
   0   4  -3 1327.26    5.50
   0   4  -3 1360.43    5.75
   0  -4   3  916.74    4.08
   0  -4   3 1494.05    5.61
   0  -4   3 1430.39    4.89
   0  -4   3 1303.39    5.97
   0  -4   3 1304.52    5.97
   0   4  -2 1771.38    6.87
   0   4  -2 1700.01    5.91
   0   4  -2 1718.04    6.57
   0  -4   2 1094.04    4.24
   0  -4   2 1940.42    6.55
   0  -4   2 1911.92    5.52
   0  -4   2 1678.71    6.75
   0  -4   2 1658.43    6.71
   0   4  -1 1009.11    5.14
   0   4  -1  933.40    4.20
   0   4  -1  977.99    5.11
   0  -4   1 1123.64    5.20
   0  -4   1 1129.41    4.32
   0  -4   1  965.18    5.18
   0  -4   1  939.01    5.10
   0   4   0    3.90    0.50
   0   4   0    4.80    0.54
   0   4   0    3.79    0.57
   0  -4   0    4.99    0.59
   0  -4   0    4.66    0.50
   0  -4   0    3.89    0.57
   0  -4   0    4.05    0.54
   0   4   1   88.89    1.60
   0   4   1   71.90    1.19
   0   4   1   84.85    1.73
   0  -4  -1  102.69    1.85
   0  -4  -1  104.59    1.57
   0  -4  -1   85.58    1.72
   0  -4  -1   83.69    1.68
   0  -4  -1   94.39    1.41
   0   4   2   46.87    1.12
   0   4   2   38.14    1.14
   0   4   2   41.33    1.38
   0  -4  -2   44.58    1.40
   0  -4  -2   46.32    1.23
   0  -4  -2   38.63    1.29
   0  -4  -2   39.11    1.28
   0  -4  -2   41.47    1.05
   0   4   3   13.33    0.84
   0   4   3   11.53    0.79
   0   4   3   10.58    0.97
   0  -4  -3   14.33    1.07
   0  -4  -3   14.40    0.96
   0  -4  -3   12.17    0.96
   0  -4  -3   10.96    0.94
   0  -4  -3   11.46    0.78
   0   4   4   46.18    1.31
   0   4   4   34.77    1.12
   0   4   4   31.38    1.36
   0  -4  -4   42.36    1.56
   0  -4  -4   45.50    1.44
   0  -4  -4   35.49    1.35
   0  -4  -4   35.88    1.35
   0  -4  -4   38.40    1.11
   0   4   5   14.94    1.10
   0   4   5   12.30    0.85
   0   4   5   11.55    1.13
   0  -4  -5   15.81    1.27
   0  -4  -5   15.51    1.17
   0  -4  -5   11.70    1.08
   0  -4  -5   12.67    1.07
   0  -4  -5   13.59    0.91
   0   4   6   28.56    1.40
   0   4   6   21.87    1.01
   0   4   6   21.73    1.41
   0  -4  -6   27.16    1.57
   0  -4  -6   29.66    1.51
   0  -4  -6   24.93    1.35
   0  -4  -6   23.27    1.30
   0  -4  -6   28.66    1.16
   0   4   7   26.35    1.50
   0   4   7   20.66    1.02
   0   4   7   17.30    1.39
   0  -4  -7   25.30    1.66
   0  -4  -7   27.27    1.65
   0  -4  -7   22.82    1.44
   0  -4  -7   22.47    1.36
   0  -4  -7   26.48    1.25
   0   4   8  156.40    2.89
   0   4   8   98.25    2.51
   0  -4  -8  124.40    2.91
   0  -4  -8  136.00    2.91
   0  -4  -8  108.81    2.45
   0  -4  -8  105.30    2.34
   0   4   9   26.48    1.80
   0   4   9   18.23    1.64
   0  -4  -9   24.57    1.90
   0  -4  -9   27.16    1.91
   0  -4  -9   20.84    1.57
   0  -4  -9   18.62    1.45
   0   4  10    4.15    0.94
   0   4  10    2.69    0.96
   0  -4 -10    2.47    1.04
   0  -4 -10    2.90    1.05
   0  -4 -10    3.60    0.88
   0  -4 -10    2.20    0.76
   0   4  11    6.52    1.13
   0   4  11    4.94    1.15
   0  -4 -11    5.68    1.30
   0  -4 -11    4.92    1.30
   0   4  12    5.07    1.15
   0   4  12    1.11    1.09
   0  -4 -12    1.52    1.36
   0  -4 -12    1.35    1.25
   0   4  13    1.20    1.23
   0   4  13    0.78    1.35
   0  -4 -13   -0.46    1.33
   0  -4 -13    0.83    1.35
   1   4 -17   14.11    1.80
   1   4 -17   21.18    2.62
  -1  -4  17   15.75    2.09
   1   4 -16   33.93    3.06
   1   4 -16   34.79    2.59
   1   4 -16   35.70    2.67
  -1  -4  16   42.22    3.02
   1   4 -15   43.58    2.36
   1   4 -15   40.91    2.47
   1   4 -15   38.66    2.51
  -1  -4  15   43.22    2.75
   1   4 -14    9.51    1.27
   1   4 -14    8.71    1.27
   1   4 -14    8.12    1.34
  -1  -4  14    9.46    1.30
   1   4 -13    4.27    1.05
   1   4 -13    3.06    1.00
   1   4 -13    3.19    1.08
  -1  -4  13    5.94    1.08
   1   4 -12    4.17    0.96
   1   4 -12    2.65    0.87
   1   4 -12    3.80    1.08
  -1  -4  12    4.27    0.91
  -1  -4  12    4.65    1.00
  -1  -4  12    4.28    0.69
   1   4 -11   13.19    1.48
   1   4 -11   13.03    1.37
   1   4 -11    8.68    1.17
   1   4 -11   13.19    1.08
  -1  -4  11   12.42    1.46
  -1  -4  11   13.38    1.21
  -1  -4  11   12.97    1.11
   1   4 -10    4.42    0.81
   1   4 -10    3.08    0.69
   1   4 -10    2.92    0.85
   1   4 -10    3.23    0.63
  -1  -4  10    1.88    0.68
  -1  -4  10    3.07    0.65
  -1  -4  10    3.07    0.61
   1   4  -9   18.57    1.33
   1   4  -9   15.45    1.09
   1   4  -9   15.72    1.32
   1   4  -9   19.57    1.08
  -1  -4   9   11.75    1.22
  -1  -4   9   15.11    1.14
  -1  -4   9   15.57    1.11
   1   4  -8   68.71    1.87
   1   4  -8   59.38    1.46
   1   4  -8   61.42    1.82
   1   4  -8   67.38    1.57
  -1  -4   8   50.96    1.65
  -1  -4   8   62.86    1.63
  -1  -4   8   59.83    1.60
   1   4  -7  227.79    2.95
   1   4  -7  205.01    2.24
   1   4  -7  204.52    2.77
   1   4  -7  217.54    2.55
  -1  -4   7  169.33    2.49
  -1  -4   7  214.70    2.61
  -1  -4   7  208.70    2.57
   1   4  -6  143.99    2.33
   1   4  -6  136.88    1.69
   1   4  -6  134.66    2.18
   1   4  -6  141.31    2.06
  -1  -4   6  103.81    1.92
  -1  -4   6  150.62    1.64
  -1  -4   6  133.59    2.09
  -1  -4   6  133.03    2.09
   1   4  -5  646.11    4.55
   1   4  -5  597.43    3.04
   1   4  -5  597.00    4.06
   1   4  -5  624.94    4.14
  -1  -4   5  431.27    3.46
  -1  -4   5  678.18    3.29
  -1  -4   5  596.43    4.09
  -1  -4   5  576.69    4.01
   1   4  -4  192.03    2.52
   1   4  -4  176.84    1.53
   1   4  -4  179.33    2.16
   1   4  -4  186.90    2.34
  -1  -4   4  122.89    1.85
  -1  -4   4  202.34    1.92
  -1  -4   4  175.31    2.29
  -1  -4   4  171.90    2.27
   1   4  -3    3.82    0.52
   1   4  -3    2.80    0.62
   1   4  -3    3.35    0.49
   1   4  -3    1.82    0.53
  -1  -4   3    1.93    0.44
  -1  -4   3    3.71    0.46
  -1  -4   3    4.60    0.59
  -1  -4   3    4.65    0.58
   1   4  -2  189.43    2.17
   1   4  -2  170.06    2.26
   1   4  -2  163.61    1.77
   1   4  -2  166.17    2.27
  -1  -4   2  101.14    1.66
  -1  -4   2  183.83    2.03
  -1  -4   2  159.01    2.22
  -1  -4   2  151.08    2.16
   1   4  -1  755.12    4.06
   1   4  -1  675.65    4.21
   1   4  -1  643.76    3.14
   1   4  -1  636.57    4.31
  -1  -4   1  704.26    4.02
  -1  -4   1  594.72    4.17
  -1  -4   1  592.99    4.15
   1   4   0   67.71    1.39
   1   4   0   62.28    1.41
   1   4   0   60.40    0.97
   1   4   0   58.54    1.52
  -1  -4   0   66.93    1.48
  -1  -4   0   56.85    1.48
  -1  -4   0   55.11    1.47
   1   4   1   42.23    1.19
   1   4   1   38.03    1.13
   1   4   1   35.56    1.29
  -1  -4  -1   39.63    1.30
  -1  -4  -1   41.92    1.00
  -1  -4  -1   34.55    1.28
  -1  -4  -1   32.74    1.23
   1   4   2  115.47    1.84
   1   4   2  100.57    1.64
   1   4   2   95.61    1.92
  -1  -4  -2  106.89    1.99
  -1  -4  -2  113.92    1.63
  -1  -4  -2   90.38    1.87
  -1  -4  -2   86.27    1.83
   1   4   3    4.43    0.57
   1   4   3    4.24    0.52
   1   4   3    4.75    0.68
  -1  -4  -3    4.80    0.69
  -1  -4  -3    5.58    0.59
  -1  -4  -3    3.00    0.58
  -1  -4  -3    4.43    0.63
   1   4   4   29.38    1.26
   1   4   4   23.59    0.96
   1   4   4   22.50    1.28
  -1  -4  -4   27.32    1.39
  -1  -4  -4   29.19    1.21
  -1  -4  -4   21.19    1.24
  -1  -4  -4   21.30    1.20
   1   4   5   21.72    1.28
   1   4   5   16.63    0.89
   1   4   5   15.72    1.26
  -1  -4  -5   18.14    1.39
  -1  -4  -5   20.97    1.25
  -1  -4  -5   15.86    1.22
  -1  -4  -5   15.54    1.19
   1   4   6  134.50    2.51
   1   4   6   96.90    1.66
   1   4   6   88.04    2.19
  -1  -4  -6  110.04    2.54
  -1  -4  -6  117.81    2.35
  -1  -4  -6   91.38    2.20
  -1  -4  -6   89.09    2.16
   1   4   7   36.36    1.76
   1   4   7   27.32    1.66
  -1  -4  -7   28.52    1.80
  -1  -4  -7   32.59    1.73
  -1  -4  -7   26.83    1.61
  -1  -4  -7   23.72    1.51
   1   4   8   20.56    1.72
   1   4   8   13.68    1.56
  -1  -4  -8   13.78    1.71
  -1  -4  -8   15.83    1.68
  -1  -4  -8   13.78    1.52
  -1  -4  -8   12.74    1.43
   1   4   9   52.05    2.21
   1   4   9   30.54    1.86
  -1  -4  -9   39.13    2.23
  -1  -4  -9   36.80    2.10
  -1  -4  -9   30.83    1.86
  -1  -4  -9   29.66    1.79
   1   4  10   20.12    1.92
   1   4  10    9.91    1.23
  -1  -4 -10   10.19    1.38
  -1  -4 -10   12.55    1.42
  -1  -4 -10    7.39    1.13
  -1  -4 -10    8.13    1.08
   1   4  11   20.48    2.10
   1   4  11    8.72    1.29
  -1  -4 -11   11.45    1.61
  -1  -4 -11   10.85    1.51
  -1  -4 -11    7.78    1.21
  -1  -4 -11    7.06    1.11
   1   4  12    7.52    1.33
  -1  -4 -12    4.51    1.47
  -1  -4 -12    4.80    1.36
   1   4  13    7.43    1.51
  -1  -4 -13    4.24    1.53
  -1  -4 -13    4.67    1.49
   2   4 -17   12.18    1.75
   2   4 -17   11.12    1.76
   2   4 -17   11.27    1.91
  -2  -4  17   12.24    1.94
   2   4 -16    9.55    1.53
   2   4 -16    8.49    1.49
   2   4 -16    7.30    1.65
  -2  -4  16   11.17    1.69
   2   4 -15   20.94    2.16
   2   4 -15   19.73    2.13
   2   4 -15   15.44    1.76
  -2  -4  15   21.98    2.40
   2   4 -14   14.72    1.50
   2   4 -14   15.92    1.87
   2   4 -14   12.52    1.49
  -2  -4  14   12.92    1.44
   2   4 -13    2.02    0.94
   2   4 -13    0.54    0.85
   2   4 -13    1.54    0.96
   2   4 -13    0.40    0.78
  -2  -4  13   -0.60    0.81
   2   4 -12   17.27    1.67
   2   4 -12   17.48    1.54
   2   4 -12   14.88    1.66
   2   4 -12   15.12    1.34
  -2  -4  12   15.73    1.67
   2   4 -11    2.06    0.78
   2   4 -11    1.47    0.71
   2   4 -11    1.96    0.85
   2   4 -11    1.55    0.69
  -2  -4  11    0.06    0.73
  -2  -4  11    1.21    0.81
   2   4 -10    5.70    0.89
   2   4 -10    6.44    0.79
   2   4 -10    5.65    0.95
  -2  -4  10    3.51    0.81
  -2  -4  10    4.79    0.70
  -2  -4  10    5.44    0.69
   2   4  -9   28.70    1.58
   2   4  -9   24.05    1.22
   2   4  -9   24.33    1.52
   2   4  -9   24.68    1.31
  -2  -4   9   20.59    1.41
  -2  -4   9   22.77    1.22
  -2  -4   9   23.70    1.20
   2   4  -8  186.09    2.92
   2   4  -8  166.04    2.13
   2   4  -8  163.99    2.71
   2   4  -8  175.78    2.61
  -2  -4   8  137.87    2.54
  -2  -4   8  175.79    2.38
  -2  -4   8  170.59    2.34
   2   4  -7  459.01    4.28
   2   4  -7  395.43    2.82
   2   4  -7  388.21    3.76
   2   4  -7  431.66    3.85
  -2  -4   7  320.97    3.54
  -2  -4   7  427.36    3.52
  -2  -4   7  415.91    3.46
   2   4  -6  514.55    4.37
   2   4  -6  438.13    3.73
   2   4  -6  498.80    4.07
  -2  -4   6  339.54    3.48
  -2  -4   6  481.14    3.70
  -2  -4   6  468.71    3.65
   2   4  -5  303.94    3.30
   2   4  -5  252.93    2.69
   2   4  -5  294.43    3.13
  -2  -4   5  195.03    2.58
  -2  -4   5  277.17    2.86
  -2  -4   5  274.62    2.84
   2   4  -4  233.38    2.82
   2   4  -4  190.17    2.18
   2   4  -4  219.55    2.70
  -2  -4   4  136.90    2.14
  -2  -4   4  206.60    2.51
  -2  -4   4  204.65    2.49
   2   4  -3  195.70    2.46
   2   4  -3  174.75    2.40
   2   4  -3  149.97    1.80
   2   4  -3  173.39    2.43
  -2  -4   3  106.52    1.88
  -2  -4   3  187.77    1.85
  -2  -4   3  156.56    2.24
  -2  -4   3  158.03    2.23
   2   4  -2    1.09    0.45
   2   4  -2    1.51    0.51
   2   4  -2    0.22    0.34
   2   4  -2    0.85    0.48
  -2  -4   2    1.17    0.38
  -2  -4   2    1.03    0.46
  -2  -4   2    0.26    0.40
   2   4  -1    8.41    0.90
   2   4  -1   11.11    0.93
   2   4  -1   10.68    0.90
  -2  -4   1   10.70    0.84
  -2  -4   1    8.66    0.91
  -2  -4   1    9.46    0.92
   2   4   0    8.78    0.89
   2   4   0    7.42    0.84
   2   4   0    7.82    0.88
  -2  -4   0    7.57    0.85
  -2  -4   0    6.27    0.68
  -2  -4   0    6.61    0.67
   2   4   1   11.21    0.95
   2   4   1   10.67    0.87
   2   4   1    7.57    0.94
  -2  -4  -1    8.85    0.92
  -2  -4  -1    6.71    0.72
  -2  -4  -1    8.00    0.92
   2   4   2  100.30    1.94
   2   4   2   86.38    1.56
   2   4   2   80.43    1.87
  -2  -4  -2   89.20    1.90
  -2  -4  -2   93.74    1.45
  -2  -4  -2   73.28    1.82
  -2  -4  -2   71.50    1.79
   2   4   3  126.50    2.24
   2   4   3  104.89    1.66
   2   4   3  100.98    2.12
  -2  -4  -3  111.36    2.21
  -2  -4  -3  119.27    1.79
  -2  -4  -3   92.59    2.08
  -2  -4  -3   89.31    2.04
   2   4   4  227.02    3.03
   2   4   4  173.47    2.01
   2   4   4  179.37    2.79
  -2  -4  -4  192.88    2.97
  -2  -4  -4  206.89    2.51
  -2  -4  -4  163.63    2.75
  -2  -4  -4  160.91    2.71
   2   4   5   61.43    1.89
   2   4   5   47.56    1.78
  -2  -4  -5   53.21    1.91
  -2  -4  -5   55.05    1.65
  -2  -4  -5   44.31    1.75
  -2  -4  -5   43.06    1.69
   2   4   6  104.13    2.44
   2   4   6   73.86    2.15
  -2  -4  -6   80.96    2.36
  -2  -4  -6   91.29    2.16
  -2  -4  -6   69.70    2.13
  -2  -4  -6   69.00    2.10
   2   4   7  101.68    2.60
   2   4   7   68.09    2.16
  -2  -4  -7   78.38    2.48
  -2  -4  -7   84.58    2.30
  -2  -4  -7   65.44    2.22
  -2  -4  -7   64.80    2.18
   2   4   8   45.11    2.14
   2   4   8   26.60    1.71
  -2  -4  -8   31.61    2.09
  -2  -4  -8   31.79    1.94
  -2  -4  -8   22.91    1.85
  -2  -4  -8   24.28    1.79
   2   4   9   24.91    2.00
   2   4   9   13.21    1.62
  -2  -4  -9   15.02    1.51
  -2  -4  -9   16.46    1.91
  -2  -4  -9   10.92    1.30
  -2  -4  -9   11.06    1.24
   2   4  10    1.13    1.02
   2   4  10    0.55    0.93
  -2  -4 -10    1.03    1.12
  -2  -4 -10   -0.02    1.02
  -2  -4 -10   -1.32    0.89
  -2  -4 -10   -0.05    0.87
   2   4  11    4.36    1.30
  -2  -4 -11    5.32    1.34
  -2  -4 -11    7.72    1.37
  -2  -4 -11    3.12    1.10
  -2  -4 -11    2.27    1.01
   2   4  12    0.47    1.21
  -2  -4 -12   -0.30    1.30
  -2  -4 -12    1.86    1.32
  -2  -4 -12    1.01    1.08
  -2  -4 -12   -0.78    0.92
   2   4  13   -1.46    1.29
  -2  -4 -13    0.26    1.47
  -2  -4 -13    1.78    1.37
  -2  -4 -13    0.50    1.55
   3   4 -17    1.91    1.42
   3   4 -17    1.05    1.28
   3   4 -17   -0.05    1.50
  -3  -4  17    1.38    1.57
   3   4 -16   -0.02    1.29
   3   4 -16   -0.76    1.07
   3   4 -16   -0.33    1.27
  -3  -4  16    0.01    1.31
   3   4 -15   -1.16    1.11
   3   4 -15   -1.47    0.98
   3   4 -15    0.46    1.17
  -3  -4  15    0.46    1.13
   3   4 -14    0.80    1.06
   3   4 -14    1.66    0.96
   3   4 -14   -0.42    1.03
   3   4 -14    1.16    0.96
  -3  -4  14   -0.92    0.94
   3   4 -13    0.78    0.95
   3   4 -13    4.10    0.98
   3   4 -13    2.27    1.04
   3   4 -13    0.92    0.85
  -3  -4  13   -0.83    0.81
   3   4 -12   16.52    1.75
   3   4 -12   15.74    1.55
   3   4 -12   15.61    1.73
   3   4 -12   14.41    1.52
  -3  -4  12   10.61    1.30
   3   4 -11   30.37    1.90
   3   4 -11   27.40    1.55
   3   4 -11   28.46    1.83
   3   4 -11   28.02    1.59
  -3  -4  11   23.09    1.82
   3   4 -10  110.54    2.68
   3   4 -10  103.12    2.09
   3   4 -10  105.21    2.62
   3   4 -10  102.65    2.39
  -3  -4  10   92.60    2.53
   3   4  -9  156.07    2.96
   3   4  -9  158.06    2.25
   3   4  -9  151.06    2.85
   3   4  -9  151.93    2.73
  -3  -4   9  128.36    2.69
  -3  -4   9  159.92    2.27
  -3  -4   9  152.65    2.20
   3   4  -8   53.94    1.94
   3   4  -8   57.22    1.37
   3   4  -8   49.27    1.78
   3   4  -8   52.03    1.77
  -3  -4   8   45.31    1.74
  -3  -4   8   57.18    1.55
  -3  -4   8   58.69    1.53
   3   4  -7  173.82    2.90
   3   4  -7  155.49    2.54
   3   4  -7  170.48    2.74
  -3  -4   7  122.74    2.44
  -3  -4   7  173.62    2.36
  -3  -4   7  168.33    2.31
   3   4  -6  225.41    3.12
   3   4  -6  188.61    2.58
   3   4  -6  216.12    2.97
  -3  -4   6  152.09    2.58
  -3  -4   6  206.27    2.55
  -3  -4   6  208.25    2.55
   3   4  -5   46.84    1.35
   3   4  -5   50.89    1.61
  -3  -4   5   31.43    1.35
  -3  -4   5   48.22    1.42
  -3  -4   5   48.89    1.42
   3   4  -4   48.84    1.60
   3   4  -4   42.75    1.48
   3   4  -4   42.71    1.20
   3   4  -4   44.31    1.50
  -3  -4   4   26.95    1.30
  -3  -4   4   40.07    1.35
  -3  -4   4   37.32    1.32
   3   4  -3   30.04    1.37
   3   4  -3   27.11    1.24
   3   4  -3   24.79    0.90
   3   4  -3   23.56    1.18
  -3  -4   3   17.09    1.19
  -3  -4   3   27.27    0.90
  -3  -4   3   22.65    1.16
  -3  -4   3   21.85    1.16
   3   4  -2    0.00    0.49
   3   4  -2    0.11    0.44
   3   4  -2    0.68    0.29
   3   4  -2    0.71    0.51
  -3  -4   2    0.06    0.37
  -3  -4   2    0.32    0.48
  -3  -4   2    0.49    0.47
   3   4  -1   95.70    2.00
   3   4  -1   81.96    1.70
   3   4  -1   84.57    1.92
  -3  -4   1   86.35    1.60
  -3  -4   1   73.97    1.80
  -3  -4   1   72.79    1.78
   3   4   0   82.99    1.91
   3   4   0   73.50    1.58
   3   4   0   74.31    1.83
  -3  -4   0   76.28    1.65
  -3  -4   0   64.36    1.76
  -3  -4   0   63.90    1.74
   3   4   1  158.90    2.56
   3   4   1  129.75    1.92
   3   4   1  132.53    2.37
  -3  -4  -1  135.82    2.24
  -3  -4  -1  114.56    2.28
  -3  -4  -1  107.76    2.20
   3   4   2  207.24    2.97
   3   4   2  159.71    2.04
   3   4   2  172.49    2.73
  -3  -4  -2  176.06    2.66
  -3  -4  -2  152.35    2.68
  -3  -4  -2  144.40    2.58
   3   4   3   78.45    2.07
   3   4   3   56.84    1.30
   3   4   3   62.32    1.90
  -3  -4  -3   65.95    1.93
  -3  -4  -3   67.65    1.47
  -3  -4  -3   56.67    1.89
  -3  -4  -3   52.68    1.79
   3   4   4  223.92    3.31
   3   4   4  176.13    2.91
  -3  -4  -4  178.53    3.02
  -3  -4  -4  192.99    2.49
  -3  -4  -4  153.72    2.89
  -3  -4  -4  147.51    2.80
   3   4   5   81.04    2.29
   3   4   5   64.33    2.04
  -3  -4  -5   65.21    2.21
  -3  -4  -5   71.64    1.87
  -3  -4  -5   56.16    2.04
  -3  -4  -5   51.81    1.96
   3   4   6   42.07    1.97
   3   4   6   30.50    1.70
  -3  -4  -6   34.06    1.99
  -3  -4  -6   36.21    1.71
  -3  -4  -6   26.53    1.73
  -3  -4  -6   26.80    1.73
   3   4   7   47.99    2.17
   3   4   7   40.43    1.90
  -3  -4  -7   37.03    2.16
  -3  -4  -7   37.83    1.89
  -3  -4  -7   31.29    1.93
  -3  -4  -7   29.67    1.90
   3   4   8    2.94    0.96
   3   4   8    1.88    0.86
  -3  -4  -8    1.09    1.02
  -3  -4  -8    1.67    0.98
  -3  -4  -8    0.80    0.93
  -3  -4  -8   -0.55    0.86
   3   4   9   29.33    2.26
   3   4   9   19.51    1.69
  -3  -4  -9   22.92    2.23
  -3  -4  -9   24.15    2.01
  -3  -4  -9   14.90    1.50
  -3  -4  -9   15.51    1.87
   3   4  10    0.85    1.14
  -3  -4 -10    1.91    1.28
  -3  -4 -10    1.43    1.12
  -3  -4 -10    2.29    1.10
  -3  -4 -10    0.42    0.93
   3   4  11    2.71    1.34
  -3  -4 -11    5.43    1.50
  -3  -4 -11    5.75    1.34
  -3  -4 -11    1.39    1.16
  -3  -4 -11    2.72    1.10
   3   4  12    4.88    1.48
  -3  -4 -12    5.81    1.57
  -3  -4 -12    5.51    1.43
  -3  -4 -12    4.18    1.39
  -3  -4 -12    2.01    1.11
   4   4 -16   -1.67    1.33
   4   4 -16   -1.87    1.25
  -4  -4  16   -1.15    1.39
   4   4 -15    0.64    1.34
   4   4 -15    0.70    1.22
   4   4 -15   -1.24    1.01
  -4  -4  15   -1.43    1.17
   4   4 -14    6.21    1.37
   4   4 -14    6.90    1.39
   4   4 -14    5.51    1.21
  -4  -4  14    2.39    1.21
   4   4 -13   25.08    2.21
   4   4 -13   22.70    2.03
   4   4 -13   22.16    1.82
  -4  -4  13   17.50    2.14
   4   4 -12   12.89    1.44
   4   4 -12   12.02    1.37
   4   4 -12   12.06    1.32
  -4  -4  12   12.38    1.37
   4   4 -11   57.71    2.39
   4   4 -11   52.93    2.28
   4   4 -11   54.00    2.20
  -4  -4  11   50.25    2.26
   4   4 -10   93.79    2.67
   4   4 -10   86.50    2.53
   4   4 -10   93.11    2.52
  -4  -4  10   81.48    2.51
   4   4  -9   87.32    2.54
   4   4  -9   72.76    2.24
   4   4  -9   80.29    2.31
  -4  -4   9   70.06    2.26
   4   4  -8   86.40    2.40
   4   4  -8   79.94    2.17
   4   4  -8   81.00    2.24
  -4  -4   8   65.36    2.09
  -4  -4   8   89.55    1.86
  -4  -4   8   84.25    1.77
   4   4  -7    8.73    0.99
   4   4  -7   11.31    1.26
  -4  -4   7    5.15    0.80
  -4  -4   7    8.69    1.06
  -4  -4   7    8.47    1.02
   4   4  -6    6.56    0.85
   4   4  -6    6.40    0.74
   4   4  -6    7.34    0.89
  -4  -4   6    2.67    0.65
  -4  -4   6    6.52    0.72
  -4  -4   6    5.64    0.67
   4   4  -5    2.63    0.71
   4   4  -5    2.66    0.67
   4   4  -5    3.88    0.58
   4   4  -5    2.61    0.66
  -4  -4   5    1.37    0.59
  -4  -4   5    2.58    0.59
  -4  -4   5    2.82    0.59
   4   4  -4    2.44    0.68
   4   4  -4    2.80    0.66
   4   4  -4    4.18    0.53
   4   4  -4    4.07    0.74
  -4  -4   4    1.19    0.64
  -4  -4   4    2.83    0.58
  -4  -4   4    2.38    0.58
   4   4  -3   36.53    1.63
   4   4  -3   32.92    1.38
   4   4  -3   34.47    1.02
   4   4  -3   30.95    1.45
  -4  -4   3   18.51    1.37
  -4  -4   3   30.48    1.34
  -4  -4   3   29.00    1.32
   4   4  -2    1.21    0.65
   4   4  -2    3.49    0.63
   4   4  -2    3.18    0.40
   4   4  -2    2.63    0.67
  -4  -4   2    2.72    0.50
  -4  -4   2    2.56    0.61
  -4  -4   2    2.77    0.61
   4   4  -1   68.08    2.00
   4   4  -1   55.87    1.55
   4   4  -1   55.56    1.75
  -4  -4   1   61.25    1.49
  -4  -4   1   50.70    1.70
  -4  -4   1   53.17    1.71
   4   4   0  243.79    3.37
   4   4   0  188.21    2.48
   4   4   0  197.73    3.00
  -4  -4   0  200.04    2.61
  -4  -4   0  175.04    2.87
  -4  -4   0  170.73    2.81
   4   4   1  226.56    3.33
   4   4   1  182.70    2.35
   4   4   1  185.44    2.96
  -4  -4  -1  187.36    2.71
  -4  -4  -1  161.16    2.85
  -4  -4  -1  156.32    2.80
   4   4   2  246.92    3.54
   4   4   2  204.82    2.37
   4   4   2  205.09    3.15
  -4  -4  -2  202.53    2.98
  -4  -4  -2  169.63    2.99
   4   4   3  199.36    3.32
   4   4   3  161.12    2.85
  -4  -4  -3  162.78    2.91
  -4  -4  -3  135.13    2.85
  -4  -4  -3  131.78    2.79
   4   4   4   81.86    2.41
   4   4   4   65.43    2.07
  -4  -4  -4   59.68    2.18
  -4  -4  -4   50.83    2.09
  -4  -4  -4   53.11    2.08
   4   4   5   15.10    1.68
   4   4   5   13.38    1.42
  -4  -4  -5   10.11    1.18
  -4  -4  -5   10.23    1.13
  -4  -4  -5   10.88    1.23
  -4  -4  -5    9.31    1.09
   4   4   6    2.00    0.92
   4   4   6    3.24    0.86
  -4  -4  -6    1.97    0.96
  -4  -4  -6    2.44    0.85
  -4  -4  -6    0.78    0.86
  -4  -4  -6    1.19    0.84
   4   4   7   17.16    1.97
   4   4   7   20.16    1.54
  -4  -4  -7   19.86    1.99
  -4  -4  -7   20.16    1.72
  -4  -4  -7   13.28    1.39
  -4  -4  -7   12.83    1.35
   4   4   8    1.56    1.05
   4   4   8    1.90    0.89
  -4  -4  -8    2.60    1.11
  -4  -4  -8    2.61    1.00
  -4  -4  -8    0.22    0.96
  -4  -4  -8    1.65    0.92
   4   4   9    8.45    1.37
  -4  -4  -9    9.13    1.47
  -4  -4  -9    9.14    1.26
  -4  -4  -9    7.15    1.29
  -4  -4  -9    6.33    1.16
   4   4  10    5.87    1.39
  -4  -4 -10    6.66    1.43
  -4  -4 -10    5.42    1.29
  -4  -4 -10    3.40    1.26
  -4  -4 -10    3.93    1.16
   4   4  11    6.20    1.46
  -4  -4 -11    3.68    1.54
  -4  -4 -11    6.03    1.38
  -4  -4 -11    1.60    1.26
   5   4 -15    3.67    1.53
   5   4 -15    1.37    1.40
   5   4 -15    1.71    1.30
  -5  -4  15   -0.23    1.38
   5   4 -14   13.86    1.77
   5   4 -14   11.90    1.73
   5   4 -14    9.41    1.48
  -5  -4  14   12.45    1.77
   5   4 -13   32.55    2.51
   5   4 -13   28.70    2.40
   5   4 -13   27.33    2.15
  -5  -4  13   35.35    2.55
   5   4 -12   52.62    2.60
   5   4 -12   44.94    2.44
   5   4 -12   42.18    2.25
  -5  -4  12   53.30    2.56
   5   4 -11   18.95    1.91
   5   4 -11   18.64    1.95
   5   4 -11   19.58    1.77
  -5  -4  11   19.67    1.87
   5   4 -10   23.50    1.95
   5   4 -10   16.59    1.72
   5   4 -10   20.75    1.72
  -5  -4  10   19.59    1.74
   5   4  -9   22.93    1.81
   5   4  -9   22.37    1.69
   5   4  -9   22.12    1.68
  -5  -4   9   18.39    1.63
   5   4  -8    1.17    0.78
   5   4  -8    0.31    0.68
   5   4  -8   -0.28    0.70
  -5  -4   8   -0.67    0.64
   5   4  -7   -0.72    0.62
   5   4  -7    0.24    0.60
   5   4  -7    0.12    0.67
  -5  -4   7   -0.21    0.62
  -5  -4   7    0.19    0.56
  -5  -4   7   -0.58    0.48
   5   4  -6   10.87    1.33
   5   4  -6   11.01    1.16
   5   4  -6   11.22    1.31
  -5  -4   6    4.63    0.84
  -5  -4   6    8.16    0.84
  -5  -4   6    8.09    0.81
   5   4  -5    1.73    0.82
   5   4  -5    3.01    0.74
   5   4  -5    3.40    0.63
   5   4  -5    3.50    0.81
  -5  -4   5    0.15    0.64
  -5  -4   5    2.16    0.63
  -5  -4   5    2.91    0.65
   5   4  -4   36.24    1.87
   5   4  -4   33.18    1.58
   5   4  -4   36.78    1.29
   5   4  -4   32.36    1.63
  -5  -4   4   20.78    1.52
  -5  -4   4   31.73    1.51
  -5  -4   4   29.35    1.45
   5   4  -3  109.47    2.65
   5   4  -3   87.48    2.13
   5   4  -3   87.58    2.30
  -5  -4   3   85.90    2.13
  -5  -4   3   82.62    2.08
   5   4  -2  152.23    2.99
   5   4  -2  117.00    2.33
   5   4  -2  124.26    2.66
  -5  -4   2  131.18    2.02
  -5  -4   2  114.33    2.46
  -5  -4   2  112.01    2.40
   5   4  -1  218.16    3.49
   5   4  -1  169.74    2.64
   5   4  -1  176.76    3.10
  -5  -4   1  179.59    2.48
  -5  -4   1  157.76    2.88
  -5  -4   1  158.06    2.85
   5   4   0  146.04    3.01
   5   4   0  116.60    2.17
   5   4   0  117.00    2.61
  -5  -4   0  120.11    2.25
  -5  -4   0  105.73    2.54
  -5  -4   0  107.23    2.50
   5   4   1  162.64    3.18
   5   4   1  131.93    2.19
   5   4   1  132.91    2.75
  -5  -4  -1  133.39    2.51
  -5  -4  -1  114.37    2.68
  -5  -4  -1  112.43    2.63
   5   4   2   79.11    2.49
   5   4   2   67.75    2.13
  -5  -4  -2   65.53    2.06
  -5  -4  -2   56.78    2.19
  -5  -4  -2   54.12    2.10
   5   4   3   13.35    1.29
   5   4   3   16.48    1.48
  -5  -4  -3   11.22    1.13
  -5  -4  -3   10.09    1.26
  -5  -4  -3    9.79    1.14
   5   4   4   47.86    2.28
   5   4   4   40.50    1.84
  -5  -4  -4   37.18    2.05
  -5  -4  -4   28.87    2.03
  -5  -4  -4   28.55    1.93
   5   4   5    6.17    1.12
   5   4   5    4.04    0.91
  -5  -4  -5    3.01    1.09
  -5  -4  -5    2.26    0.99
  -5  -4  -5    1.97    0.93
   5   4   6   -0.71    0.89
   5   4   6    0.63    0.77
  -5  -4  -6   -1.79    0.91
  -5  -4  -6   -0.36    0.86
  -5  -4  -6   -0.27    0.86
   5   4   7    5.51    1.20
  -5  -4  -7    4.94    1.25
  -5  -4  -7    4.38    1.16
  -5  -4  -7    2.37    1.00
   5   4   8    7.03    1.38
  -5  -4  -8    4.10    1.32
  -5  -4  -8    4.45    1.22
  -5  -4  -8    3.58    1.10
   5   4   9   20.40    2.44
  -5  -4  -9   11.31    1.71
  -5  -4  -9   10.73    1.55
  -5  -4  -9    7.33    1.31
   5   4  10   27.26    2.68
  -5  -4 -10   14.72    1.88
  -5  -4 -10   13.48    1.78
   6   4 -14    7.19    1.69
   6   4 -14    5.38    1.55
   6   4 -14    5.87    1.46
  -6  -4  14    7.59    1.62
   6   4 -13   12.95    1.73
   6   4 -13   10.93    1.66
   6   4 -13   10.03    1.56
  -6  -4  13   12.55    1.66
   6   4 -12    9.63    1.44
   6   4 -12    7.58    1.43
   6   4 -12    8.86    1.41
  -6  -4  12    9.37    1.40
   6   4 -11    3.98    1.17
   6   4 -11    4.57    1.16
   6   4 -11    4.30    1.16
  -6  -4  11    3.73    1.12
   6   4 -10    0.89    0.97
   6   4 -10    0.59    0.87
   6   4 -10    0.48    0.89
  -6  -4  10   -1.27    0.80
   6   4  -9    0.90    0.85
   6   4  -9   -0.09    0.77
   6   4  -9   -0.84    0.82
  -6  -4   9   -0.44    0.76
   6   4  -8    2.82    0.89
   6   4  -8    3.19    0.89
  -6  -4   8    1.57    0.85
   6   4  -7    0.20    0.80
   6   4  -7    0.27    0.71
   6   4  -7   -0.03    0.80
  -6  -4   7   -1.10    0.72
   6   4  -6    4.45    0.93
   6   4  -6    6.21    0.89
   6   4  -6    5.24    1.03
  -6  -4   6    0.51    0.87
  -6  -4   6    5.46    0.88
  -6  -4   6    4.52    0.75
   6   4  -5  108.85    2.94
   6   4  -5   91.43    2.58
   6   4  -5  100.73    2.20
   6   4  -5   84.16    2.53
  -6  -4   5   59.47    2.28
  -6  -4   5   93.31    2.31
  -6  -4   5   84.04    2.14
   6   4  -4  129.06    3.08
   6   4  -4  100.88    2.57
   6   4  -4  102.96    2.71
  -6  -4   4   74.82    2.47
  -6  -4   4  105.50    2.49
  -6  -4   4   98.03    2.35
   6   4  -3  164.46    3.38
   6   4  -3  133.42    2.77
   6   4  -3  125.76    2.92
  -6  -4   3   97.49    2.70
  -6  -4   3  121.53    2.71
  -6  -4   3  119.06    2.60
   6   4  -2  168.94    3.40
   6   4  -2  138.75    2.72
   6   4  -2  131.05    2.94
  -6  -4   2  123.07    2.78
  -6  -4   2  118.63    2.69
   6   4  -1  101.28    2.82
   6   4  -1   83.69    2.16
   6   4  -1   80.36    2.41
  -6  -4   1   78.10    2.41
  -6  -4   1   71.27    2.38
  -6  -4   1   67.24    2.25
   6   4   0   34.63    2.09
   6   4   0   29.67    1.48
   6   4   0   27.99    1.73
  -6  -4   0   28.10    1.56
  -6  -4   0   23.31    1.81
  -6  -4   0   21.33    1.69
   6   4   1    9.14    1.19
   6   4   1    8.14    1.09
  -6  -4  -1    6.29    0.95
  -6  -4  -1    7.20    1.10
  -6  -4  -1    7.14    1.10
   6   4   2    7.21    1.15
   6   4   2    7.85    1.10
  -6  -4  -2    6.69    1.03
  -6  -4  -2    5.69    1.14
  -6  -4  -2    5.10    1.01
   6   4   3    1.06    0.93
   6   4   3    2.61    0.90
  -6  -4  -3    1.81    0.89
  -6  -4  -3    2.03    0.99
  -6  -4  -3    0.96    0.86
   6   4   4    8.44    1.26
   6   4   4    7.05    1.04
  -6  -4  -4    5.04    1.10
  -6  -4  -4    3.62    1.10
  -6  -4  -4    4.60    1.03
   6   4   5   22.78    2.21
   6   4   5   18.44    1.60
  -6  -4  -5   19.92    2.05
  -6  -4  -5   13.97    1.55
  -6  -4  -5   12.71    1.43
   6   4   6   18.05    2.21
  -6  -4  -6   10.10    1.49
  -6  -4  -6    8.40    1.41
  -6  -4  -6    6.92    1.20
   6   4   7   24.59    2.46
  -6  -4  -7   16.17    1.80
  -6  -4  -7   12.66    1.60
  -6  -4  -7   12.65    1.57
   6   4   8   23.30    2.61
  -6  -4  -8   13.21    1.80
  -6  -4  -8    8.83    1.60
   6   4   9   14.74    1.87
  -6  -4  -9   11.41    1.76
  -6  -4  -9    8.15    1.68
   7   4 -13    0.65    1.41
   7   4 -13    0.27    1.20
   7   4 -13   -0.67    1.25
  -7  -4  13   -0.25    1.28
   7   4 -12    1.57    1.29
   7   4 -12    0.16    1.12
   7   4 -12   -0.20    1.17
  -7  -4  12   -0.17    1.25
   7   4 -11   -0.14    1.12
   7   4 -11   -0.08    1.02
   7   4 -11   -0.94    1.08
  -7  -4  11    0.52    1.16
   7   4 -10   -0.83    1.00
   7   4 -10   -0.85    0.88
   7   4 -10   -0.70    1.01
  -7  -4  10   -0.90    1.00
   7   4  -9    2.10    1.00
   7   4  -9    1.84    0.98
   7   4  -9    2.36    1.10
  -7  -4   9   -0.07    1.01
   7   4  -8   12.97    1.55
   7   4  -8   14.98    1.69
   7   4  -8   12.03    1.46
  -7  -4   8    8.15    1.32
   7   4  -7   29.47    2.11
   7   4  -7   33.51    1.87
   7   4  -7   26.97    2.02
  -7  -4   7   21.29    2.01
   7   4  -6   31.93    2.08
   7   4  -6   27.75    2.00
  -7  -4   6   20.04    2.02
   7   4  -5   63.51    2.69
   7   4  -5   41.96    2.19
   7   4  -5   39.24    2.17
  -7  -4   5   35.03    2.19
  -7  -4   5   45.66    2.66
   7   4  -4  101.66    3.06
   7   4  -4   84.10    2.61
   7   4  -4   75.51    2.59
  -7  -4   4   58.53    2.52
  -7  -4   4   80.72    2.48
  -7  -4   4   70.64    2.27
   7   4  -3   83.13    2.85
   7   4  -3   63.80    2.28
   7   4  -3   57.10    2.33
  -7  -4   3   47.10    2.36
  -7  -4   3   58.56    2.33
  -7  -4   3   55.04    2.15
   7   4  -2   44.74    2.37
   7   4  -2   40.07    1.93
   7   4  -2   36.93    2.01
  -7  -4   2   32.68    2.06
  -7  -4   2   29.20    1.88
   7   4  -1   34.67    2.24
   7   4  -1   30.62    1.72
   7   4  -1   27.21    1.82
  -7  -4   1   21.95    2.01
  -7  -4   1   18.37    1.75
   7   4   0    5.61    1.14
   7   4   0    6.31    1.10
  -7  -4   0    3.94    1.07
  -7  -4   0    2.34    0.93
   7   4   1    0.47    0.91
   7   4   1    0.77    0.85
  -7  -4  -1   -0.17    0.94
  -7  -4  -1   -0.94    0.78
   7   4   2   -0.86    0.89
   7   4   2   -0.26    0.84
  -7  -4  -2   -1.49    0.78
  -7  -4  -2   -0.62    0.94
  -7  -4  -2   -0.61    0.85
   7   4   3    1.49    1.02
   7   4   3    1.85    0.93
  -7  -4  -3    0.51    0.92
  -7  -4  -3    1.12    1.04
  -7  -4  -3    1.52    0.94
   7   4   4   19.30    2.25
   7   4   4   14.49    1.67
  -7  -4  -4   12.35    1.43
  -7  -4  -4   10.64    1.48
  -7  -4  -4    7.76    1.28
   7   4   5   36.62    2.68
  -7  -4  -5   26.87    2.34
  -7  -4  -5   22.73    2.44
  -7  -4  -5   12.37    1.52
   7   4   6   40.87    2.89
  -7  -4  -6   32.49    2.67
  -7  -4  -6   26.52    2.77
   7   4   7   46.51    3.13
  -7  -4  -7   32.65    2.85
  -7  -4  -7   34.60    2.94
   8   4 -11   -0.92    1.31
   8   4 -11   -0.30    1.10
   8   4 -11   -1.21    1.22
  -8  -4  11   -0.93    1.27
   8   4 -10    4.49    1.57
   8   4 -10    6.69    1.38
   8   4 -10    5.11    1.44
  -8  -4  10    4.66    1.46
   8   4  -9   11.82    1.72
   8   4  -9   10.52    1.42
   8   4  -9   10.45    1.58
  -8  -4   9    8.74    1.55
   8   4  -8   27.65    2.47
   8   4  -8   20.05    2.14
  -8  -4   8   21.70    2.38
   8   4  -7   39.75    2.54
   8   4  -7   33.02    2.34
  -8  -4   7   34.41    2.46
   8   4  -6   42.34    2.44
   8   4  -6   32.76    2.28
  -8  -4   6   28.60    2.33
   8   4  -5   34.33    2.50
   8   4  -5   30.22    2.15
   8   4  -5   23.08    2.05
  -8  -4   5   20.55    2.16
   8   4  -4   14.38    1.60
   8   4  -4   17.61    1.83
   8   4  -4   11.93    1.50
  -8  -4   4    8.55    1.46
   8   4  -3    3.30    1.16
   8   4  -3    3.82    0.96
   8   4  -3    3.65    1.15
  -8  -4   3    0.72    1.12
  -8  -4   3    1.26    1.03
  -8  -4   3    0.44    0.87
   8   4  -2    0.49    1.07
   8   4  -2    1.23    1.44
   8   4  -2    0.58    0.98
  -8  -4   2   -1.60    0.92
  -8  -4   2   -0.67    0.86
   8   4  -1    0.68    1.05
   8   4  -1    0.23    0.95
  -8  -4   1    0.66    1.08
  -8  -4   1   -0.20    0.93
   8   4   0    7.17    1.33
   8   4   0    3.59    1.11
  -8  -4   0    3.88    1.26
  -8  -4   0    2.58    1.00
   8   4   1    9.50    1.44
   8   4   1    7.46    1.24
  -8  -4  -1    5.80    1.37
  -8  -4  -1    4.48    1.13
   8   4   2   11.17    1.57
   8   4   2    9.42    1.32
  -8  -4  -2    7.91    1.49
  -8  -4  -2    6.12    1.26
   8   4   3   21.49    2.53
   8   4   3   12.16    1.48
  -8  -4  -3   13.64    1.53
  -8  -4  -3   13.46    1.77
   8   4   4   44.31    3.01
  -8  -4  -4   30.21    2.51
  -8  -4  -4   31.97    2.80
   8   4   5   48.92    3.21
  -8  -4  -5   34.43    2.78
  -8  -4  -5   32.72    2.95
   9   4  -7   13.00    1.77
   9   4  -7    9.11    1.62
  -9  -4   7   10.46    1.66
   9   4  -6    3.62    1.25
   9   4  -6    4.40    1.37
  -9  -4   6    4.79    1.38
   9   4  -5    3.15    1.37
   9   4  -5    3.67    1.18
   9   4  -5    2.64    1.28
  -9  -4   5    2.34    1.31
   9   4  -4    0.15    1.26
   9   4  -4    1.70    1.05
   9   4  -4    0.02    1.13
  -9  -4   4    0.22    1.22
   9   4  -3   -1.20    1.21
   9   4  -3   -0.83    1.11
  -9  -4   3   -0.74    1.24
   9   4  -2   -1.98    1.17
   9   4  -2   -0.17    1.09
  -9  -4   2    0.23    1.31
  -9  -4   2   -0.71    1.08
   9   4  -1    2.30    1.38
   9   4  -1    2.07    1.20
  -9  -4   1    2.50    1.29
  -9  -4   1   -0.10    0.96
   9   4   0   10.44    1.69
   9   4   0    9.74    1.53
  -9  -4   0    7.95    1.58
   9   4   1   33.17    2.94
   9   4   1   20.58    2.13
  -9  -4  -1   25.95    2.80
  -9   5  -4    3.37    1.05
  -9   5  -4    2.67    1.29
  -9   5  -4    4.92    1.30
   9  -5   4    2.60    1.43
   9  -5   4    3.40    1.63
   9  -5   4    5.05    1.51
  -9   5  -3   -0.66    0.90
  -9   5  -3    1.02    1.07
   9  -5   3    1.01    1.35
   9  -5   3   -3.71    1.41
   9  -5   3    1.91    1.29
   9  -5   3    1.08    1.20
  -9   5  -2   -0.38    0.95
  -9   5  -2   -0.45    0.98
   9  -5   2   -0.93    1.19
   9  -5   2   -3.93    1.39
   9  -5   2    2.22    1.17
   9  -5   2    0.30    0.86
   9  -5   2   -1.50    1.28
  -9   5  -1   -0.52    0.96
  -9   5  -1    1.01    1.06
   9  -5   1    0.80    1.38
   9  -5   1   -3.60    1.38
   9  -5   1    0.20    1.03
   9  -5   1   -0.86    1.32
  -9   5   0    0.58    1.06
  -9   5   0    3.19    1.16
   9  -5   0    0.46    1.41
   9  -5   0   -3.12    1.40
   9  -5   0    0.23    1.42
  -9   5   1    0.76    1.11
  -9   5   1    1.90    1.20
  -9   5   1    0.22    0.82
   9  -5  -1    1.67    1.53
   9  -5  -1    0.21    1.55
   9  -5  -1    0.70    1.44
  -9   5   2    8.55    1.62
  -9   5   2    4.73    1.32
  -9   5   2    4.09    1.08
   9  -5  -2    6.29    1.75
   9  -5  -2    7.46    1.77
   9  -5  -2    6.66    1.77
  -9   5   3   19.98    2.36
  -9   5   3    7.47    1.29
   9  -5  -3   28.03    2.91
   9  -5  -3   24.71    2.72
   9  -5  -3   21.79    2.70
  -8   5  -8   21.06    2.26
  -8   5  -8   20.18    2.28
   8  -5   8   22.99    2.86
   8  -5   8   19.39    2.16
  -8   5  -7   10.71    1.51
  -8   5  -7   12.04    1.59
   8  -5   7   11.41    1.74
   8  -5   7   15.39    1.92
   8  -5   7   13.37    1.89
  -8   5  -6    7.25    1.26
  -8   5  -6    9.32    1.43
   8  -5   6   11.22    1.72
   8  -5   6   10.64    1.73
   8  -5   6   10.68    1.72
   8  -5   6    6.75    1.50
  -8   5  -5    3.58    0.98
  -8   5  -5    2.71    1.10
  -8   5  -5    4.14    1.16
   8  -5   5    4.39    1.38
   8  -5   5    4.98    1.51
   8  -5   5    5.94    1.40
   8  -5   5    3.72    1.04
  -8   5  -4   -0.83    0.72
  -8   5  -4   -0.70    0.84
   8  -5   4   -0.14    1.17
   8  -5   4   -2.98    1.21
   8  -5   4    0.77    1.14
   8  -5   4    1.05    0.91
  -8   5  -3   -0.56    0.81
  -8   5  -3    0.06    0.89
   8  -5   3   -0.12    1.16
   8  -5   3   -3.37    1.17
   8  -5   3    0.87    1.04
   8  -5   3    0.83    0.85
  -8   5  -2   -0.53    0.80
  -8   5  -2    0.14    0.86
   8  -5   2   -1.83    1.10
   8  -5   2   -0.37    0.93
   8  -5   2    1.65    0.89
   8  -5   2   -0.85    1.19
  -8   5  -1    8.48    1.26
  -8   5  -1    6.27    1.24
   8  -5   1   12.02    1.71
   8  -5   1    9.15    1.63
   8  -5   1   10.98    1.36
   8  -5   1    9.82    1.23
   8  -5   1    8.52    1.54
  -8   5   0   25.48    2.11
  -8   5   0   19.21    1.95
  -8   5   0   14.73    1.48
   8  -5   0   28.96    2.71
   8  -5   0   27.55    2.47
   8  -5   0   27.75    2.12
   8  -5   0   26.78    1.94
   8  -5   0   25.73    2.53
  -8   5   1   27.44    2.19
  -8   5   1   21.75    1.96
  -8   5   1   17.30    1.58
   8  -5  -1   37.48    2.85
   8  -5  -1   35.37    2.69
   8  -5  -1   28.34    2.50
  -8   5   2   22.94    2.18
  -8   5   2   17.53    1.61
   8  -5  -2   39.65    2.80
   8  -5  -2   38.75    2.63
   8  -5  -2   32.88    2.56
  -8   5   3   17.66    2.11
  -8   5   3    8.20    1.21
   8  -5  -3   35.98    2.67
   8  -5  -3   27.99    2.56
   8  -5  -3   19.90    2.38
  -8   5   4    6.83    1.37
  -8   5   4    4.68    1.07
   8  -5  -4   13.35    1.66
   8  -5  -4   10.64    1.62
   8  -5  -4   10.10    1.62
  -8   5   5    3.94    1.28
  -8   5   5    2.20    0.97
   8  -5  -5    8.80    1.59
   8  -5  -5    6.74    1.52
   8  -5  -5    7.53    1.57
  -8   5   6   -0.16    1.05
  -8   5   6    0.62    0.94
   8  -5  -6   -1.39    1.42
   8  -5  -6    0.98    1.38
   8  -5  -6    0.01    1.35
   8  -5  -6    1.26    1.40
  -7   5 -11   35.87    2.74
  -7   5 -11   34.56    2.59
  -7   5 -11   31.43    2.65
   7  -5  11   33.49    3.12
   7  -5  11   36.81    3.22
  -7   5 -10   42.89    2.60
  -7   5 -10   39.48    2.56
   7  -5  10   44.60    3.13
   7  -5  10   44.75    3.28
  -7   5  -9   25.40    2.19
  -7   5  -9   26.24    2.21
   7  -5   9   29.25    2.74
   7  -5   9   30.49    2.88
  -7   5  -8    7.51    1.25
  -7   5  -8    7.05    1.35
   7  -5   8    7.82    1.53
   7  -5   8    6.79    1.50
   7  -5   8    7.56    1.51
   7  -5   8    5.12    1.16
  -7   5  -7   -1.75    0.69
  -7   5  -7   -0.75    0.79
   7  -5   7    0.01    1.13
   7  -5   7    0.28    1.18
   7  -5   7    0.06    1.06
   7  -5   7    0.38    0.92
  -7   5  -6   -1.22    0.67
  -7   5  -6    1.02    0.87
  -7   5  -6   -0.64    0.80
   7  -5   6   -0.97    1.00
   7  -5   6    0.40    1.12
   7  -5   6    1.15    0.99
   7  -5   6    0.94    0.90
  -7   5  -5   -0.73    0.67
  -7   5  -5   -0.08    0.79
  -7   5  -5   -0.68    0.76
   7  -5   5   -0.97    0.97
   7  -5   5   -2.76    1.01
   7  -5   5    1.73    1.02
   7  -5   5   -0.33    0.81
  -7   5  -4   11.97    1.49
  -7   5  -4   10.43    1.32
   7  -5   4   12.25    1.46
   7  -5   4   11.21    1.50
   7  -5   4   11.56    1.42
   7  -5   4   14.80    1.84
  -7   5  -3   26.42    1.81
  -7   5  -3   22.88    1.83
   7  -5   3   29.31    2.31
   7  -5   3   29.98    2.36
   7  -5   3   33.35    2.33
   7  -5   3   29.87    2.13
   7  -5   3   28.23    2.24
  -7   5  -2   31.49    1.92
  -7   5  -2   28.34    1.92
   7  -5   2   39.95    2.57
   7  -5   2   40.31    2.42
   7  -5   2   35.75    2.33
   7  -5   2   35.21    2.18
   7  -5   2   35.49    2.39
  -7   5  -1   54.43    2.32
  -7   5  -1   43.62    2.20
  -7   5  -1   35.35    1.72
   7  -5   1   76.10    2.97
   7  -5   1   69.09    2.77
   7  -5   1   63.83    2.57
   7  -5   1   59.87    2.45
   7  -5   1   58.22    2.65
  -7   5   0   45.63    2.20
  -7   5   0   38.88    2.17
  -7   5   0   28.66    1.64
   7  -5   0   65.76    2.78
   7  -5   0   61.07    2.66
   7  -5   0   55.03    2.40
   7  -5   0   54.24    2.27
   7  -5   0   51.24    2.52
  -7   5   1   24.29    1.86
  -7   5   1   18.19    1.50
   7  -5  -1   39.96    2.41
   7  -5  -1   32.71    2.20
   7  -5  -1   31.16    1.96
   7  -5  -1   29.60    1.80
   7  -5  -1   25.90    2.12
  -7   5   2   13.94    1.68
  -7   5   2   10.99    1.35
   7  -5  -2   21.39    2.19
   7  -5  -2   21.53    2.13
   7  -5  -2   19.41    1.76
   7  -5  -2   15.54    1.65
  -7   5   3    8.72    1.20
  -7   5   3    6.49    1.03
   7  -5  -3   20.28    2.23
   7  -5  -3   18.43    2.10
   7  -5  -3   12.22    1.53
  -7   5   4    5.33    1.15
  -7   5   4    3.70    0.94
   7  -5  -4    9.93    1.54
   7  -5  -4    7.53    1.33
   7  -5  -4    5.37    1.29
  -7   5   5   -0.42    0.85
  -7   5   5   -1.62    0.66
   7  -5  -5   -1.39    1.14
   7  -5  -5   -1.31    1.00
   7  -5  -5   -1.43    0.99
  -7   5   6   -1.75    0.82
  -7   5   6   -0.92    0.73
   7  -5  -6   -2.01    1.17
   7  -5  -6   -2.04    1.14
   7  -5  -6   -2.23    1.05
   7  -5  -6   -0.63    1.15
  -7   5   7    1.67    1.05
  -7   5   7    1.34    0.93
   7  -5  -7   -0.11    1.34
   7  -5  -7    0.70    1.37
   7  -5  -7    1.66    1.28
   7  -5  -7    1.94    1.33
  -7   5   8   -0.32    1.08
  -7   5   8   -0.96    0.82
   7  -5  -8    1.27    1.61
   7  -5  -8   -1.10    1.32
   7  -5  -8   -0.91    1.26
   7  -5  -8   -0.95    1.32
  -6   5 -12   39.05    2.64
  -6   5 -12   42.11    2.66
  -6   5 -12   40.43    2.70
   6  -5  12   44.82    3.14
   6  -5  12   52.31    3.41
  -6   5 -11   25.09    2.20
  -6   5 -11   26.02    2.30
   6  -5  11   22.37    2.64
   6  -5  11   27.66    2.89
  -6   5 -10   24.68    2.05
  -6   5 -10   25.94    2.10
   6  -5  10   28.51    2.56
   6  -5  10   29.21    2.56
   6  -5  10   29.65    2.44
  -6   5  -9    5.88    1.10
  -6   5  -9    7.58    1.26
   6  -5   9    7.26    1.40
   6  -5   9    7.36    1.31
   6  -5   9    7.48    1.30
  -6   5  -8    0.72    0.78
  -6   5  -8    1.91    0.83
  -6   5  -8    1.84    0.92
   6  -5   8    4.80    1.21
   6  -5   8    3.23    1.24
   6  -5   8    3.07    1.06
   6  -5   8    3.96    1.01
  -6   5  -7    6.29    0.95
  -6   5  -7    5.66    0.98
  -6   5  -7    5.96    1.07
   6  -5   7    5.96    1.22
   6  -5   7    5.58    1.25
   6  -5   7    5.93    1.14
   6  -5   7    7.41    1.19
  -6   5  -6    0.96    0.73
  -6   5  -6    0.78    0.78
  -6   5  -6    0.82    0.80
   6  -5   6    0.73    0.99
   6  -5   6    0.37    1.05
   6  -5   6    0.81    0.90
   6  -5   6    1.82    0.89
  -6   5  -5   25.60    1.61
  -6   5  -5   22.83    1.70
  -6   5  -5   23.16    1.71
   6  -5   5   29.61    2.12
   6  -5   5   21.61    2.11
   6  -5   5   28.66    2.09
   6  -5   5   31.89    2.05
  -6   5  -4   44.09    1.92
  -6   5  -4   36.38    1.93
   6  -5   4   48.83    2.42
   6  -5   4   46.52    2.38
   6  -5   4   50.35    2.35
   6  -5   4   49.87    2.29
  -6   5  -3  126.45    2.87
  -6   5  -3  110.27    2.86
  -6   5  -3  105.25    2.91
   6  -5   3  158.66    3.56
   6  -5   3  150.75    3.39
   6  -5   3  146.87    3.32
   6  -5   3  141.34    3.17
   6  -5   3  133.76    3.26
  -6   5  -2  141.64    3.03
  -6   5  -2  122.59    2.99
  -6   5  -2  107.91    2.34
   6  -5   2  181.90    3.65
   6  -5   2  173.61    3.59
   6  -5   2  169.63    3.41
   6  -5   2  159.55    3.26
   6  -5   2  157.35    3.49
  -6   5  -1   80.57    2.43
  -6   5  -1   72.89    2.43
  -6   5  -1   66.79    1.99
   6  -5   1  113.32    3.06
   6  -5   1  114.80    3.04
   6  -5   1  103.24    2.74
   6  -5   1   97.42    2.63
   6  -5   1   95.76    2.85
  -6   5   0   78.69    2.40
  -6   5   0   67.60    2.38
  -6   5   0   61.65    2.00
   6  -5   0  118.65    3.06
   6  -5   0  113.06    3.01
   6  -5   0   97.87    2.61
   6  -5   0   98.72    2.59
   6  -5   0   91.80    2.74
  -6   5   1   21.02    1.55
  -6   5   1   17.24    1.38
   6  -5  -1   33.12    2.13
   6  -5  -1   29.58    1.97
   6  -5  -1   28.39    1.74
   6  -5  -1   28.23    1.68
   6  -5  -1   26.09    1.92
  -6   5   2    1.18    0.70
  -6   5   2    0.72    0.64
   6  -5  -2    1.75    1.00
   6  -5  -2    1.63    0.90
   6  -5  -2    0.16    0.70
   6  -5  -2    1.29    0.67
   6  -5  -2    0.65    0.88
  -6   5   3    1.33    0.69
  -6   5   3    1.48    0.73
   6  -5  -3    2.73    1.04
   6  -5  -3    2.43    0.98
   6  -5  -3    1.10    0.74
   6  -5  -3    1.73    0.69
   6  -5  -3    2.64    1.01
  -6   5   4   -0.58    0.64
  -6   5   4   -0.65    0.63
   6  -5  -4   -1.46    0.90
   6  -5  -4   -2.32    0.80
   6  -5  -4   -0.39    0.85
  -6   5   5    0.47    0.76
  -6   5   5    0.46    0.74
   6  -5  -5    1.44    1.14
   6  -5  -5   -0.01    1.02
   6  -5  -5    1.97    1.09
  -6   5   6    4.08    1.04
  -6   5   6    1.89    0.88
   6  -5  -6    4.27    1.29
   6  -5  -6    3.94    1.32
   6  -5  -6    3.68    1.26
   6  -5  -6    5.75    1.33
  -6   5   7    4.60    1.11
  -6   5   7    2.03    0.92
   6  -5  -7    4.91    1.40
   6  -5  -7    4.92    1.36
   6  -5  -7    5.05    1.39
   6  -5  -7    5.48    1.37
  -6   5   8   11.68    1.47
  -6   5   8    5.75    1.16
   6  -5  -8   13.62    1.86
   6  -5  -8   20.82    2.47
   6  -5  -8   14.01    1.80
   6  -5  -8   12.97    1.78
  -6   5   9    5.20    1.29
  -6   5   9    3.68    1.15
   6  -5  -9    8.44    1.75
   6  -5  -9    8.85    1.57
   6  -5  -9    8.57    1.64
   6  -5  -9    9.34    1.71
  -6   5  10    4.01    1.30
  -6   5  10    1.83    1.13
   6  -5 -10    3.84    1.82
   6  -5 -10    5.49    1.56
   6  -5 -10    3.93    1.52
   6  -5 -10    1.43    1.54
  -5   5 -14   11.25    1.64
  -5   5 -14    9.27    1.60
  -5   5 -14   10.22    1.83
   5  -5  14   10.84    1.56
   5  -5  14   10.37    1.79
   5  -5  14   12.89    1.94
  -5   5 -13    9.85    1.47
  -5   5 -13    9.04    1.47
  -5   5 -13    7.93    1.61
   5  -5  13    8.02    1.35
   5  -5  13    9.68    1.71
   5  -5  13   11.90    1.80
  -5   5 -12    5.08    1.21
  -5   5 -12    4.73    1.15
  -5   5 -12    5.38    1.39
   5  -5  12    4.69    1.36
   5  -5  12    3.64    1.40
   5  -5  12    5.56    1.39
   5  -5  12    2.76    1.09
  -5   5 -11   -0.15    0.83
  -5   5 -11   -0.40    1.00
   5  -5  11   -1.47    1.07
   5  -5  11   -1.22    1.00
   5  -5  11   -0.23    0.89
  -5   5 -10   -0.38    0.74
  -5   5 -10    0.24    0.89
   5  -5  10    1.04    1.07
   5  -5  10    0.23    0.96
   5  -5  10   -0.06    0.87
  -5   5  -9   18.21    1.61
  -5   5  -9   17.01    1.68
  -5   5  -9   19.08    1.74
   5  -5   9   22.21    2.10
   5  -5   9   18.48    2.04
   5  -5   9   20.41    1.91
  -5   5  -8   63.18    2.11
  -5   5  -8   55.07    2.18
  -5   5  -8   57.70    2.26
   5  -5   8   71.29    2.66
   5  -5   8   60.32    2.55
   5  -5   8   62.82    2.55
   5  -5   8   63.90    2.51
  -5   5  -7   23.43    1.54
  -5   5  -7   19.89    1.55
  -5   5  -7   21.74    1.67
   5  -5   7   26.29    2.01
   5  -5   7   22.89    2.03
   5  -5   7   23.99    1.95
   5  -5   7   25.47    1.91
  -5   5  -6   42.52    1.77
  -5   5  -6   36.46    1.85
  -5   5  -6   36.52    1.86
   5  -5   6   47.97    2.23
   5  -5   6   40.22    2.22
   5  -5   6   48.02    2.22
   5  -5   6   44.11    2.11
  -5   5  -5  123.54    2.64
  -5   5  -5  112.61    2.71
   5  -5   5  151.96    3.23
   5  -5   5  140.85    3.18
   5  -5   5  140.46    3.10
   5  -5   5  138.80    3.06
  -5   5  -4  136.23    2.75
  -5   5  -4  123.39    2.79
  -5   5  -4  121.73    2.20
   5  -5   4  174.27    3.40
   5  -5   4  161.56    3.26
   5  -5   4  154.44    3.13
   5  -5   4  156.51    3.12
  -5   5  -3  100.57    2.42
  -5   5  -3   90.97    2.44
  -5   5  -3   83.26    1.89
   5  -5   3  126.69    2.93
   5  -5   3  120.33    2.86
   5  -5   3  115.67    2.73
   5  -5   3  115.95    2.69
   5  -5   3  108.96    2.79
  -5   5  -2   79.03    2.20
  -5   5  -2   73.56    2.22
  -5   5  -2   69.82    1.82
   5  -5   2  105.82    2.67
   5  -5   2  105.61    2.70
   5  -5   2   94.67    2.44
   5  -5   2   98.11    2.48
   5  -5   2   90.63    2.58
  -5   5  -1   38.82    1.70
  -5   5  -1   35.91    1.69
  -5   5  -1   35.92    1.47
   5  -5   1   56.59    2.15
   5  -5   1   53.41    2.08
   5  -5   1   52.31    1.99
   5  -5   1   50.00    1.93
   5  -5   1   47.59    2.05
  -5   5   0    1.23    0.59
  -5   5   0    2.53    0.80
  -5   5   0    1.22    0.58
   5  -5   0    2.71    0.91
   5  -5   0    1.49    0.83
   5  -5   0    2.68    0.77
   5  -5   0    2.59    0.72
   5  -5   0    2.17    0.86
  -5   5   1    1.46    0.59
  -5   5   1    0.51    0.56
   5  -5  -1    0.62    0.76
   5  -5  -1    1.22    0.81
   5  -5  -1    1.02    0.71
   5  -5  -1    0.76    0.67
   5  -5  -1    1.74    0.83
  -5   5   2    6.35    0.84
  -5   5   2    7.02    0.91
   5  -5  -2   12.71    1.27
   5  -5  -2    8.75    1.14
   5  -5  -2    8.83    1.01
   5  -5  -2    9.15    0.97
   5  -5  -2   11.82    1.48
  -5   5   3   -0.10    0.58
  -5   5   3    0.04    0.56
   5  -5  -3   -1.14    0.78
   5  -5  -3   -1.13    0.77
   5  -5  -3   -0.77    0.67
   5  -5  -3   -0.06    0.62
   5  -5  -3   -0.41    0.78
  -5   5   4    2.66    0.73
  -5   5   4    0.70    0.68
   5  -5  -4    3.34    1.04
   5  -5  -4    1.00    1.00
   5  -5  -4    1.04    0.77
   5  -5  -4    2.07    0.72
   5  -5  -4    2.55    0.95
  -5   5   5    7.61    1.03
  -5   5   5    4.69    0.89
   5  -5  -5   12.48    1.41
   5  -5  -5    9.45    1.29
   5  -5  -5    9.84    1.29
  -5   5   6    9.63    1.16
  -5   5   6    6.56    1.04
   5  -5  -6   19.67    2.16
   5  -5  -6   12.59    1.50
   5  -5  -6   12.80    1.49
  -5   5   7   24.94    1.95
  -5   5   7   18.67    1.68
   5  -5  -7   38.56    2.54
   5  -5  -7   35.01    2.44
   5  -5  -7   31.64    2.23
  -5   5   8   10.83    1.37
  -5   5   8    8.75    1.22
   5  -5  -8   25.59    2.40
   5  -5  -8   20.40    2.26
   5  -5  -8   19.54    2.22
  -5   5   9    9.31    1.37
  -5   5   9    5.05    1.14
   5  -5  -9   21.45    2.40
   5  -5  -9   11.46    1.60
   5  -5  -9   11.77    1.65
  -5   5  10    3.89    1.10
  -5   5  10    3.12    1.10
   5  -5 -10    7.81    1.44
   5  -5 -10    4.68    1.40
   5  -5 -10    2.99    1.41
  -5   5  11   -0.63    0.96
  -5   5  11   -0.96    1.02
   5  -5 -11   -0.36    1.25
   5  -5 -11    0.74    1.21
   5  -5 -11   -0.99    1.37
  -4   5 -15   19.71    2.30
  -4   5 -15   21.52    2.45
  -4   5 -15   16.25    2.03
   4  -5  15   27.73    2.58
   4  -5  15   19.45    2.02
   4  -5  15   20.61    2.08
  -4   5 -14   11.09    1.44
  -4   5 -14   10.27    1.57
  -4   5 -14   10.28    1.73
   4  -5  14   11.14    1.46
   4  -5  14   11.13    1.64
   4  -5  14   12.30    1.79
   4  -5  14   10.04    1.41
  -4   5 -13    3.89    1.08
  -4   5 -13    2.68    1.09
  -4   5 -13    1.81    1.27
   4  -5  13    3.86    1.10
   4  -5  13    3.15    1.27
   4  -5  13    3.42    1.24
   4  -5  13    3.63    1.10
  -4   5 -12   -0.37    0.89
  -4   5 -12    0.25    0.90
  -4   5 -12    0.55    1.05
   4  -5  12    0.78    0.86
   4  -5  12   -0.39    1.01
   4  -5  12    0.65    1.01
   4  -5  12    0.50    0.93
  -4   5 -11    0.28    0.77
  -4   5 -11   -0.61    0.89
   4  -5  11   -0.36    0.74
   4  -5  11   -0.93    0.92
   4  -5  11   -0.04    0.91
   4  -5  11    1.46    0.86
  -4   5 -10    0.72    0.81
  -4   5 -10    0.24    0.72
  -4   5 -10    0.49    0.85
   4  -5  10   -0.62    0.68
   4  -5  10    0.47    0.92
   4  -5  10    0.55    0.90
   4  -5  10    1.17    0.87
  -4   5  -9   -0.25    0.75
  -4   5  -9    0.37    0.71
  -4   5  -9   -0.14    0.77
   4  -5   9    0.36    0.64
   4  -5   9   -1.37    0.85
   4  -5   9   -0.35    0.82
   4  -5   9   -0.01    0.79
  -4   5  -8  140.94    2.77
  -4   5  -8  125.18    2.86
  -4   5  -8  133.31    3.00
   4  -5   8  150.78    2.58
   4  -5   8  157.72    3.28
   4  -5   8  149.42    3.26
   4  -5   8  143.99    3.16
  -4   5  -7  272.52    3.63
  -4   5  -7  231.51    3.63
  -4   5  -7  245.27    3.80
   4  -5   7  301.27    4.18
   4  -5   7  272.93    4.06
   4  -5   7  278.50    4.08
   4  -5   7  275.49    4.04
  -4   5  -6  195.02    3.09
  -4   5  -6  165.04    3.08
  -4   5  -6  184.14    3.25
   4  -5   6  221.36    3.58
   4  -5   6  205.23    3.49
   4  -5   6  206.33    3.48
   4  -5   6  202.16    3.44
  -4   5  -5  284.07    3.65
  -4   5  -5  263.83    3.72
  -4   5  -5  260.44    2.72
   4  -5   5  336.99    4.22
   4  -5   5  314.93    4.08
   4  -5   5  304.14    4.02
   4  -5   5  298.76    3.99
  -4   5  -4  133.52    2.57
  -4   5  -4  123.68    2.57
  -4   5  -4  120.96    2.03
   4  -5   4  163.87    3.00
   4  -5   4  155.77    2.93
   4  -5   4  149.19    2.88
   4  -5   4  152.39    2.90
  -4   5  -3   21.39    1.28
  -4   5  -3   22.36    1.35
  -4   5  -3   20.83    1.12
   4  -5   3   28.41    1.62
   4  -5   3   28.36    1.64
   4  -5   3   27.41    1.55
   4  -5   3   27.78    1.56
  -4   5  -2    0.44    0.49
  -4   5  -2    1.39    0.60
  -4   5  -2    0.87    0.47
   4  -5   2    0.44    0.63
   4  -5   2    0.79    0.69
   4  -5   2    1.07    0.64
   4  -5   2    1.39    0.65
   4  -5   2    1.35    0.78
  -4   5  -1    4.80    0.77
  -4   5  -1    4.11    0.72
  -4   5  -1    4.06    0.63
   4  -5   1    5.74    0.86
   4  -5   1    4.81    0.85
   4  -5   1    6.08    0.84
   4  -5   1    4.88    0.80
   4  -5   1    5.46    0.90
  -4   5   0    1.01    0.54
  -4   5   0    2.33    0.66
  -4   5   0    1.78    0.56
   4  -5   0    1.57    0.72
   4  -5   0    1.63    0.74
   4  -5   0    2.41    0.69
   4  -5   0    1.16    0.65
   4  -5   0    2.34    0.76
  -4   5   1    0.26    0.53
  -4   5   1    0.06    0.50
   4  -5  -1    0.19    0.66
   4  -5  -1   -0.78    0.66
   4  -5  -1   -1.02    0.56
   4  -5  -1    0.84    0.70
  -4   5   2    1.08    0.55
  -4   5   2    0.77    0.58
   4  -5  -2    0.59    0.74
   4  -5  -2   -0.98    0.70
   4  -5  -2   -0.13    0.62
   4  -5  -2    0.77    0.63
   4  -5  -2    0.55    0.75
  -4   5   3   52.26    1.87
  -4   5   3   43.44    1.74
   4  -5  -3   70.79    2.37
   4  -5  -3   69.67    2.35
   4  -5  -3   65.93    2.00
   4  -5  -3   61.14    1.90
   4  -5  -3   66.56    2.16
  -4   5   4   51.49    1.93
  -4   5   4   39.49    1.75
   4  -5  -4   74.13    2.49
   4  -5  -4   72.42    2.46
   4  -5  -4   66.29    2.04
   4  -5  -4   60.77    1.89
   4  -5  -4   64.72    2.26
  -4   5   5   54.21    2.03
  -4   5   5   41.74    1.85
   4  -5  -5   84.11    2.65
   4  -5  -5   75.93    2.54
   4  -5  -5   68.24    2.03
   4  -5  -5   64.84    1.92
   4  -5  -5   69.94    2.42
  -4   5   6   42.45    1.95
  -4   5   6   34.34    1.85
   4  -5  -6   67.62    2.55
   4  -5  -6   60.43    2.44
   4  -5  -6   58.31    2.28
  -4   5   7   14.09    1.55
  -4   5   7    9.12    1.16
   4  -5  -7   20.87    2.06
   4  -5  -7   20.01    1.99
   4  -5  -7   15.61    1.82
  -4   5   8    6.00    1.03
  -4   5   8    6.48    1.12
   4  -5  -8   11.53    1.41
   4  -5  -8   11.37    1.45
   4  -5  -8   10.14    1.39
  -4   5   9    1.08    0.84
  -4   5   9    0.12    0.86
   4  -5  -9    2.43    1.17
   4  -5  -9    1.59    1.09
   4  -5  -9    1.32    1.11
  -4   5  10   -0.72    0.78
  -4   5  10   -0.76    0.87
   4  -5 -10   -0.06    1.16
   4  -5 -10    0.12    1.12
   4  -5 -10   -1.68    1.03
  -4   5  11    0.06    0.89
  -4   5  11   -0.08    1.05
   4  -5 -11   -1.31    1.24
   4  -5 -11    0.93    1.25
   4  -5 -11   -0.01    1.17
  -4   5  12   -1.27    1.15
   4  -5 -12   -2.13    1.31
   4  -5 -12    0.75    1.31
   4  -5 -12   -1.93    1.19
  -3   5 -15   -0.35    0.96
  -3   5 -15   -1.52    1.09
  -3   5 -15   -2.36    1.36
   3  -5  15   -0.26    1.15
   3  -5  15    0.24    1.19
   3  -5  15    0.77    0.97
  -3   5 -14    2.27    1.01
  -3   5 -14    2.27    1.12
  -3   5 -14    1.37    1.27
   3  -5  14    2.25    1.10
   3  -5  14    1.82    1.17
   3  -5  14    1.45    1.16
   3  -5  14    2.09    1.00
  -3   5 -13    6.25    1.06
  -3   5 -13    3.94    1.07
  -3   5 -13    5.31    1.34
   3  -5  13    4.49    1.09
   3  -5  13    6.68    1.23
   3  -5  13    7.56    1.27
   3  -5  13    6.24    1.16
  -3   5 -12    9.19    1.18
  -3   5 -12    9.72    1.25
  -3   5 -12    9.48    1.38
   3  -5  12    7.28    1.12
   3  -5  12    7.51    1.20
   3  -5  12   10.12    1.32
   3  -5  12    8.07    1.16
  -3   5 -11   18.01    1.61
  -3   5 -11   14.67    1.54
  -3   5 -11   14.58    1.73
   3  -5  11   13.53    1.65
   3  -5  11   17.50    1.80
   3  -5  11   17.86    1.97
   3  -5  11   15.83    1.73
  -3   5 -10   94.13    2.43
  -3   5 -10   87.28    2.49
  -3   5 -10   91.73    2.67
   3  -5  10   86.54    2.35
   3  -5  10  101.24    2.70
   3  -5  10   96.39    2.78
   3  -5  10   94.31    2.70
  -3   5  -9  137.55    2.78
  -3   5  -9  121.14    2.75
  -3   5  -9  124.92    2.90
   3  -5   9  122.42    2.48
   3  -5   9  145.27    3.00
   3  -5   9  139.69    3.07
   3  -5   9  135.88    3.01
  -3   5  -8  192.03    3.12
  -3   5  -8  168.23    3.04
  -3   5  -8  175.49    3.24
   3  -5   8  168.46    2.59
   3  -5   8  212.26    3.41
   3  -5   8  191.81    3.37
   3  -5   8  190.53    3.34
  -3   5  -7  218.38    3.22
  -3   5  -7  194.95    3.12
  -3   5  -7  209.43    3.37
   3  -5   7  237.98    3.46
   3  -5   7  222.86    3.44
   3  -5   7  222.72    3.47
   3  -5   7  226.83    3.49
  -3   5  -6  113.39    2.38
  -3   5  -6   95.42    2.22
  -3   5  -6  108.32    2.41
  -3   5  -6  107.84    1.73
   3  -5   6  132.25    2.65
   3  -5   6  118.91    2.53
   3  -5   6  122.06    2.61
   3  -5   6  118.64    2.57
  -3   5  -5   27.58    1.35
  -3   5  -5   27.09    1.37
  -3   5  -5   25.99    1.11
   3  -5   5   33.64    1.59
   3  -5   5   30.75    1.56
   3  -5   5   29.63    1.58
   3  -5   5   29.51    1.55
  -3   5  -4    9.09    1.00
  -3   5  -4    8.49    0.96
  -3   5  -4    8.91    0.88
   3  -5   4   11.60    1.26
   3  -5   4    8.56    0.91
   3  -5   4   10.48    1.30
   3  -5   4    9.96    1.19
  -3   5  -3    4.83    0.66
  -3   5  -3    6.30    0.76
  -3   5  -3    4.50    0.63
   3  -5   3    6.80    0.83
   3  -5   3    5.72    0.83
   3  -5   3    7.10    0.85
   3  -5   3    5.33    0.76
  -3   5  -2    2.95    0.59
  -3   5  -2    3.93    0.65
  -3   5  -2    2.70    0.55
   3  -5   2    3.23    0.71
   3  -5   2    3.32    0.73
   3  -5   2    3.29    0.69
   3  -5   2    3.74    0.69
   3  -5   2    3.73    0.78
  -3   5  -1   -0.49    0.39
  -3   5  -1    0.25    0.43
  -3   5  -1    0.17    0.45
   3  -5   1   -1.47    0.52
   3  -5   1   -0.24    0.53
   3  -5   1    0.03    0.53
   3  -5   1    0.45    0.67
  -3   5   0   19.63    1.18
  -3   5   0   18.67    1.16
  -3   5   0   18.99    1.14
   3  -5   0   22.07    1.46
   3  -5   0   20.77    1.39
   3  -5   0   20.96    1.34
   3  -5   0   21.24    1.35
   3  -5   0   21.88    1.38
  -3   5   1   86.67    2.07
  -3   5   1   78.12    1.95
   3  -5  -1  114.15    2.51
   3  -5  -1  111.60    2.41
   3  -5  -1   98.96    2.17
   3  -5  -1  101.77    2.22
   3  -5  -1  105.07    2.29
  -3   5   2  152.92    2.70
  -3   5   2  135.43    2.56
   3  -5  -2  204.42    3.27
   3  -5  -2  202.72    3.13
   3  -5  -2  185.39    2.84
   3  -5  -2  182.17    2.81
   3  -5  -2  187.70    2.95
  -3   5   3   92.18    2.23
  -3   5   3   78.44    2.10
   3  -5  -3  121.80    2.68
   3  -5  -3  124.28    2.66
   3  -5  -3  109.87    2.30
   3  -5  -3  107.06    2.27
   3  -5  -3  111.87    2.43
  -3   5   4   78.71    2.14
  -3   5   4   65.76    2.05
   3  -5  -4  108.79    2.67
   3  -5  -4  111.24    2.64
   3  -5  -4  101.26    2.27
   3  -5  -4   94.14    2.14
   3  -5  -4  103.07    2.46
  -3   5   5   65.71    2.05
  -3   5   5   58.17    2.02
   3  -5  -5  102.20    2.73
   3  -5  -5   96.42    2.59
   3  -5  -5   90.02    2.21
   3  -5  -5   81.59    2.01
   3  -5  -5   88.52    2.39
  -3   5   6   10.36    1.29
  -3   5   6    7.11    0.98
   3  -5  -6   15.88    1.76
   3  -5  -6   15.16    1.60
   3  -5  -6   18.21    1.45
   3  -5  -6   14.68    1.24
   3  -5  -6   13.48    1.56
  -3   5   7    6.31    0.91
  -3   5   7    5.64    0.91
   3  -5  -7    8.75    1.16
   3  -5  -7    8.22    1.14
   3  -5  -7    8.73    1.16
  -3   5   8    0.07    0.67
  -3   5   8   -0.26    0.70
   3  -5  -8    2.40    1.04
   3  -5  -8    1.24    0.96
   3  -5  -8   -0.56    0.86
  -3   5   9    0.36    0.75
  -3   5   9   -1.51    0.70
   3  -5  -9   -0.11    1.00
   3  -5  -9    0.35    0.97
   3  -5  -9    0.05    0.92
  -3   5  10   -1.42    0.72
  -3   5  10   -0.33    0.91
   3  -5 -10   -1.57    1.06
   3  -5 -10    0.73    1.06
   3  -5 -10   -2.25    0.90
  -3   5  11   -0.27    1.01
   3  -5 -11   -1.61    1.18
   3  -5 -11    0.81    1.17
   3  -5 -11   -0.82    1.01
  -3   5  12    0.00    1.16
   3  -5 -12    0.19    1.46
   3  -5 -12   -0.44    1.26
  -2   5 -16    0.85    1.34
  -2   5 -16    0.92    1.53
   2  -5  16    2.42    1.38
  -2   5 -15   -2.04    0.98
  -2   5 -15   -0.76    1.37
   2  -5  15   -0.92    1.08
   2  -5  15    1.17    1.04
   2  -5  15    1.07    0.91
  -2   5 -14    1.34    0.81
  -2   5 -14    0.58    0.99
  -2   5 -14    1.13    1.26
   2  -5  14    0.89    1.10
   2  -5  14    1.24    1.01
   2  -5  14    1.32    0.99
   2  -5  14    1.88    0.91
  -2   5 -13   20.48    1.78
  -2   5 -13   17.07    1.59
  -2   5 -13   18.40    1.80
  -2   5 -13   18.72    2.11
   2  -5  13   20.32    2.04
   2  -5  13   23.20    1.89
   2  -5  13   21.12    2.04
   2  -5  13   21.98    1.86
  -2   5 -12   82.71    2.43
  -2   5 -12   70.00    2.28
  -2   5 -12   75.68    2.49
  -2   5 -12   73.86    2.73
   2  -5  12   76.00    2.60
   2  -5  12   83.02    2.50
   2  -5  12   85.16    2.75
   2  -5  12   77.41    2.54
  -2   5 -11   81.42    2.37
  -2   5 -11   70.70    2.30
  -2   5 -11   71.54    2.55
   2  -5  11   73.27    2.41
   2  -5  11   79.81    2.39
   2  -5  11   76.73    2.56
   2  -5  11   77.59    2.47
  -2   5 -10  148.19    2.90
  -2   5 -10  143.04    2.87
  -2   5 -10  139.37    3.08
   2  -5  10  147.38    2.83
   2  -5  10  158.65    2.94
   2  -5  10  152.40    3.09
   2  -5  10  149.32    3.03
  -2   5  -9   70.35    2.16
  -2   5  -9   65.59    1.99
  -2   5  -9   64.89    2.19
   2  -5   9   67.24    1.94
   2  -5   9   76.54    2.17
   2  -5   9   75.83    2.33
   2  -5   9   73.75    2.26
  -2   5  -8  122.46    2.56
  -2   5  -8  107.59    2.31
  -2   5  -8  113.83    2.57
   2  -5   8  111.80    2.14
   2  -5   8  132.94    2.55
   2  -5   8  120.95    2.63
   2  -5   8  126.07    2.65
  -2   5  -7  104.95    2.31
  -2   5  -7   89.94    2.03
  -2   5  -7   98.21    2.29
  -2   5  -7  102.07    1.67
   2  -5   7   92.29    1.81
   2  -5   7  110.61    2.28
   2  -5   7  102.93    2.28
   2  -5   7  107.24    2.41
   2  -5   7  107.10    2.39
  -2   5  -6    8.52    0.89
  -2   5  -6    6.58    0.72
  -2   5  -6    7.67    0.83
  -2   5  -6    8.01    0.82
   2  -5   6    9.22    1.13
   2  -5   6    9.20    1.13
   2  -5   6    8.47    0.92
   2  -5   6    6.63    0.81
  -2   5  -5   10.50    1.04
  -2   5  -5    8.01    0.90
  -2   5  -5    9.28    0.96
  -2   5  -5    8.70    0.85
   2  -5   5   10.92    1.12
   2  -5   5    9.00    1.07
   2  -5   5    8.87    0.90
   2  -5   5    7.46    0.83
  -2   5  -4    7.30    0.80
  -2   5  -4    6.11    0.69
  -2   5  -4    5.93    0.64
   2  -5   4    7.29    0.78
   2  -5   4    6.56    0.77
   2  -5   4    6.05    0.80
   2  -5   4    5.63    0.72
  -2   5  -3    0.84    0.46
  -2   5  -3    0.31    0.42
  -2   5  -3    0.42    0.44
   2  -5   3   -0.41    0.52
   2  -5   3   -0.94    0.53
   2  -5   3   -0.14    0.53
   2  -5   3   -0.51    0.47
  -2   5  -2   38.96    1.41
  -2   5  -2   35.30    1.30
  -2   5  -2   37.87    1.32
   2  -5   2   43.15    1.57
   2  -5   2   39.22    1.47
   2  -5   2   40.56    1.54
   2  -5   2   37.81    1.48
  -2   5  -1   84.86    1.92
  -2   5  -1   72.28    1.71
  -2   5  -1   79.60    1.82
   2  -5   1   95.08    2.12
   2  -5   1   91.52    1.97
   2  -5   1   85.96    2.01
   2  -5   1   86.96    2.01
   2  -5   1   89.35    1.99
  -2   5   0  195.08    2.81
  -2   5   0  171.14    2.49
  -2   5   0  184.06    2.69
   2  -5   0  243.37    3.21
   2  -5   0  238.96    2.98
   2  -5   0  215.76    2.95
   2  -5   0  207.29    2.88
   2  -5   0  214.23    2.84
  -2   5   1  282.45    3.37
  -2   5   1  234.77    2.89
  -2   5   1  261.80    3.28
   2  -5  -1  355.48    3.91
   2  -5  -1  356.23    3.65
   2  -5  -1  311.76    3.48
   2  -5  -1  307.63    3.45
   2  -5  -1  321.79    3.41
  -2   5   2  166.60    2.68
  -2   5   2  150.48    2.64
   2  -5  -2  220.17    3.24
   2  -5  -2  216.19    3.02
   2  -5  -2  188.42    2.79
   2  -5  -2  189.89    2.81
   2  -5  -2  196.86    2.77
  -2   5   3  154.70    2.62
  -2   5   3  143.46    2.67
   2  -5  -3  200.38    3.16
   2  -5  -3  208.20    3.06
   2  -5  -3  181.37    2.76
   2  -5  -3  177.95    2.74
   2  -5  -3  193.54    2.78
  -2   5   4   34.68    1.47
  -2   5   4   33.48    1.59
   2  -5  -4   47.75    1.94
   2  -5  -4   48.94    1.80
   2  -5  -4   44.77    1.65
   2  -5  -4   42.78    1.60
   2  -5  -4   45.62    1.66
  -2   5   5   12.07    1.14
  -2   5   5    8.19    0.96
   2  -5  -5   15.81    1.55
   2  -5  -5   17.64    1.46
   2  -5  -5   17.30    1.35
   2  -5  -5   15.04    1.24
   2  -5  -5   16.65    1.37
  -2   5   6    1.43    0.61
  -2   5   6    1.00    0.65
   2  -5  -6    2.61    0.86
   2  -5  -6    2.58    0.85
   2  -5  -6    2.02    0.71
   2  -5  -6    2.09    0.67
   2  -5  -6    2.34    0.78
  -2   5   7    4.24    0.80
  -2   5   7    3.85    0.86
   2  -5  -7    6.25    1.05
   2  -5  -7    6.35    1.02
   2  -5  -7    4.14    0.80
   2  -5  -7    3.85    0.74
   2  -5  -7    4.97    0.93
  -2   5   8   -0.61    0.60
  -2   5   8   -0.08    0.75
   2  -5  -8    1.00    0.93
   2  -5  -8    0.46    0.89
   2  -5  -8   -0.02    0.91
   2  -5  -8   -0.09    1.00
   2  -5  -8   -0.76    0.78
  -2   5   9    1.77    0.74
  -2   5   9    1.40    0.88
   2  -5  -9    1.30    1.02
   2  -5  -9    2.28    1.09
   2  -5  -9    2.49    0.98
  -2   5  10    3.67    1.12
   2  -5 -10    5.25    1.34
   2  -5 -10    7.01    1.39
  -2   5  11    3.79    1.24
   2  -5 -11    5.57    1.53
   2  -5 -11    4.52    1.40
  -2   5  12    2.77    1.32
   2  -5 -12    4.67    1.64
   2  -5 -12    5.48    1.58
  -1   5 -17   -2.31    1.29
  -1   5 -17    0.08    1.53
   1  -5  17    0.32    1.43
  -1   5 -16    2.32    1.27
  -1   5 -16    2.96    1.51
   1  -5  16    1.16    1.40
  -1   5 -15    3.75    1.21
  -1   5 -15    5.45    1.47
   1  -5  15    4.65    1.37
  -1   5 -14   27.45    2.01
  -1   5 -14   21.25    1.97
  -1   5 -14   23.97    2.26
   1  -5  14   22.35    2.32
   1  -5  14   25.37    2.09
   1  -5  14   25.39    1.90
  -1   5 -13   46.43    2.20
  -1   5 -13   35.93    2.07
  -1   5 -13   40.69    2.42
   1  -5  13   38.63    2.33
   1  -5  13   45.68    2.28
   1  -5  13   40.75    2.07
  -1   5 -12  123.36    2.89
  -1   5 -12   94.45    2.35
  -1   5 -12  107.18    2.73
  -1   5 -12  106.72    3.05
   1  -5  12  105.86    2.86
   1  -5  12  122.84    2.66
   1  -5  12  119.37    2.90
   1  -5  12  117.14    2.79
  -1   5 -11  109.15    2.68
  -1   5 -11   98.75    2.50
  -1   5 -11   97.92    2.81
   1  -5  11   98.72    2.58
   1  -5  11  113.04    2.46
   1  -5  11  109.32    2.69
   1  -5  11  106.22    2.60
  -1   5 -10   99.15    2.47
  -1   5 -10   90.99    2.25
  -1   5 -10   89.47    2.56
   1  -5  10   85.90    2.27
   1  -5  10  100.35    2.23
   1  -5  10   99.98    2.49
   1  -5  10   99.55    2.45
  -1   5  -9   48.82    1.89
  -1   5  -9   43.44    1.58
  -1   5  -9   48.90    1.93
   1  -5   9   44.63    1.67
   1  -5   9   50.31    1.69
   1  -5   9   51.45    1.90
   1  -5   9   47.95    1.84
  -1   5  -8    0.45    0.68
  -1   5  -8    1.07    0.48
  -1   5  -8    1.94    0.69
  -1   5  -8    0.86    0.45
   1  -5   8    1.67    0.55
   1  -5   8    1.73    0.61
   1  -5   8    1.68    0.67
   1  -5   8    1.60    0.65
  -1   5  -7   -0.48    0.58
  -1   5  -7    0.14    0.40
  -1   5  -7    0.70    0.55
  -1   5  -7    0.16    0.42
   1  -5   7    0.23    0.43
   1  -5   7    0.34    0.50
   1  -5   7   -0.39    0.54
   1  -5   7   -0.36    0.50
  -1   5  -6    4.15    0.73
  -1   5  -6    3.45    0.53
  -1   5  -6    4.21    0.67
  -1   5  -6    4.26    0.57
   1  -5   6    2.93    0.51
   1  -5   6    3.93    0.64
   1  -5   6    4.23    0.65
   1  -5   6    3.75    0.71
   1  -5   6    3.81    0.66
  -1   5  -5    8.59    1.03
  -1   5  -5    7.18    0.78
  -1   5  -5    9.79    0.92
  -1   5  -5    8.04    0.87
   1  -5   5    7.83    0.76
   1  -5   5    8.46    0.96
   1  -5   5    7.76    0.84
   1  -5   5    7.42    0.80
  -1   5  -4   55.03    1.62
  -1   5  -4   51.76    1.49
  -1   5  -4   52.32    1.42
   1  -5   4   55.90    1.62
   1  -5   4   51.83    1.48
   1  -5   4   48.53    1.64
   1  -5   4   50.28    1.64
  -1   5  -3  303.36    3.37
  -1   5  -3  272.53    2.98
  -1   5  -3  286.10    3.03
   1  -5   3  326.72    3.31
   1  -5   3  317.53    3.01
   1  -5   3  290.90    3.36
   1  -5   3  285.72    3.31
  -1   5  -2  233.52    2.95
  -1   5  -2  217.95    2.62
  -1   5  -2  228.31    2.79
   1  -5   2  263.22    3.05
   1  -5   2  256.33    2.73
   1  -5   2  237.05    3.02
   1  -5   2  230.20    2.97
  -1   5  -1  332.84    3.49
  -1   5  -1  294.70    2.96
  -1   5  -1  313.99    3.33
   1  -5   1  385.64    3.70
   1  -5   1  380.55    3.29
   1  -5   1  330.86    3.52
   1  -5   1  337.52    3.55
  -1   5   0  342.73    3.54
  -1   5   0  294.69    2.92
  -1   5   0  327.11    3.51
   1  -5   0  411.55    3.92
   1  -5   0  404.72    3.44
   1  -5   0  353.47    3.64
   1  -5   0  348.44    3.61
   1  -5   0  366.63    3.30
  -1   5   1  202.83    2.77
  -1   5   1  169.22    2.25
  -1   5   1  189.82    2.81
   1  -5  -1  243.30    3.16
   1  -5  -1  246.76    2.84
   1  -5  -1  215.98    2.94
   1  -5  -1  208.05    2.87
   1  -5  -1  223.80    2.63
  -1   5   2  105.18    2.07
  -1   5   2  101.82    2.21
   1  -5  -2  129.01    2.47
   1  -5  -2  130.12    2.22
   1  -5  -2  114.76    2.26
   1  -5  -2  110.17    2.19
   1  -5  -2  122.67    2.03
  -1   5   3   11.76    0.99
  -1   5   3   11.71    1.19
   1  -5  -3   13.98    1.28
   1  -5  -3   16.15    1.20
   1  -5  -3   12.41    1.20
   1  -5  -3   13.92    1.18
   1  -5  -3   14.91    1.09
  -1   5   4    0.68    0.46
  -1   5   4    0.56    0.60
   1  -5  -4    0.65    0.62
   1  -5  -4    0.53    0.60
   1  -5  -4    0.06    0.58
   1  -5  -4    0.57    0.55
   1  -5  -4    0.27    0.58
  -1   5   5    0.27    0.45
  -1   5   5   -0.23    0.59
   1  -5  -5    0.08    0.68
   1  -5  -5   -0.41    0.63
   1  -5  -5    0.68    0.64
   1  -5  -5    0.50    0.58
   1  -5  -5    0.45    0.63
  -1   5   6    1.78    0.59
  -1   5   6    1.65    0.56
  -1   5   6    1.14    0.71
   1  -5  -6    1.33    0.85
   1  -5  -6    0.94    0.79
   1  -5  -6    0.26    0.71
   1  -5  -6    1.29    0.66
   1  -5  -6    0.99    0.71
  -1   5   7   -0.53    0.48
  -1   5   7    0.38    0.73
   1  -5  -7   -1.00    0.78
   1  -5  -7   -1.00    0.80
   1  -5  -7   -0.99    0.68
   1  -5  -7   -0.65    0.59
   1  -5  -7    0.76    0.70
  -1   5   8    1.40    0.75
  -1   5   8    0.94    0.62
  -1   5   8    0.35    0.82
   1  -5  -8    2.09    1.01
   1  -5  -8    0.89    0.92
   1  -5  -8    0.79    0.75
   1  -5  -8    0.84    0.67
  -1   5   9   17.10    1.78
   1  -5  -9   21.96    2.09
   1  -5  -9   23.59    2.04
   1  -5  -9   19.19    1.69
   1  -5  -9   17.11    2.00
  -1   5  10   19.20    2.08
   1  -5 -10   31.37    2.47
   1  -5 -10   33.08    2.44
  -1   5  11   11.26    1.56
   1  -5 -11   23.25    2.61
   1  -5 -11   20.37    2.40
  -1   5  12    7.07    1.56
   1  -5 -12   10.54    1.80
   1  -5 -12   10.68    1.68
   0   5 -17    0.99    1.41
   0   5 -17    1.17    1.52
   0  -5  17    2.49    1.62
   0   5 -16    8.43    1.48
   0   5 -16    9.36    1.71
   0  -5  16   10.56    1.73
   0   5 -15   25.63    2.13
   0   5 -15   16.66    2.04
   0   5 -15   19.93    2.31
   0  -5  15   21.83    2.52
   0   5 -14   21.04    2.02
   0   5 -14   11.93    1.39
   0   5 -14   12.88    1.62
   0  -5  14   19.91    2.21
   0   5 -13   41.66    2.17
   0   5 -13   30.42    1.94
   0   5 -13   26.60    2.11
   0  -5  13   29.95    2.20
   0  -5  13   32.76    1.97
   0  -5  13   33.22    1.84
   0   5 -12   46.71    2.18
   0   5 -12   40.71    1.94
   0   5 -12   41.43    2.26
   0  -5  12   39.86    2.13
   0  -5  12   47.68    2.04
   0  -5  12   43.57    1.90
   0   5 -11   32.27    1.89
   0   5 -11   28.55    1.61
   0   5 -11   31.14    2.01
   0  -5  11   29.64    1.80
   0  -5  11   33.54    1.78
   0  -5  11   31.97    1.66
   0   5 -10    3.73    0.91
   0   5 -10    4.83    0.76
   0   5 -10    4.56    1.02
   0   5 -10    5.38    0.69
   0  -5  10    4.46    0.79
   0  -5  10    3.99    0.67
   0  -5  10    5.07    0.85
   0  -5  10    4.47    0.80
   0   5  -9    8.45    1.01
   0   5  -9    6.78    0.75
   0   5  -9    9.29    1.07
   0   5  -9    7.35    0.73
   0  -5   9    6.86    0.82
   0  -5   9    8.08    1.01
   0  -5   9    8.09    0.91
   0  -5   9    7.38    0.88
   0   5  -8    0.41    0.61
   0   5  -8    0.82    0.44
   0   5  -8    0.93    0.67
   0   5  -8    0.78    0.48
   0  -5   8   -0.01    0.50
   0  -5   8    0.38    0.47
   0  -5   8   -0.06    0.56
   0  -5   8   -0.45    0.56
   0   5  -7    9.56    1.19
   0   5  -7    7.92    0.78
   0   5  -7    9.42    1.09
   0   5  -7    9.29    0.91
   0  -5   7    7.12    0.73
   0  -5   7    9.45    0.94
   0  -5   7    7.77    0.84
   0  -5   7    8.65    0.86
   0   5  -6   43.54    1.61
   0   5  -6   37.05    1.13
   0   5  -6   40.60    1.46
   0   5  -6   42.77    1.35
   0  -5   6   32.90    1.23
   0  -5   6   41.44    1.31
   0  -5   6   38.13    1.53
   0  -5   6   40.01    1.55
   0   5  -5  197.85    2.86
   0   5  -5  165.12    2.03
   0   5  -5  181.06    2.54
   0   5  -5  188.25    2.50
   0  -5   5  145.02    2.06
   0  -5   5  208.37    2.47
   0  -5   5  189.77    2.22
   0  -5   5  182.47    2.72
   0  -5   5  180.10    2.71
   0   5  -4  311.14    3.46
   0   5  -4  248.50    2.37
   0   5  -4  299.23    3.07
   0   5  -4  303.35    3.17
   0  -5   4  214.98    2.34
   0  -5   4  337.42    3.12
   0  -5   4  317.24    2.71
   0  -5   4  291.92    3.33
   0  -5   4  289.65    3.30
   0   5  -3  541.40    4.42
   0   5  -3  508.91    3.79
   0   5  -3  517.04    4.13
   0  -5   3  353.58    2.82
   0  -5   3  592.66    4.14
   0  -5   3  562.57    3.46
   0  -5   3  514.69    4.33
   0  -5   3  506.16    4.29
   0   5  -2  429.42    3.90
   0   5  -2  396.70    3.21
   0   5  -2  406.80    3.75
   0  -5   2  471.36    3.80
   0  -5   2  457.25    3.12
   0  -5   2  406.69    3.88
   0  -5   2  399.18    3.82
   0   5  -1  164.74    2.49
   0   5  -1  152.68    1.97
   0   5  -1  156.87    2.48
   0  -5   1  186.77    2.55
   0  -5   1  188.33    2.12
   0  -5   1  162.52    2.56
   0  -5   1  159.68    2.50
   0   5   0   82.72    1.83
   0   5   0   75.33    1.40
   0   5   0   76.89    1.87
   0  -5   0   93.97    1.97
   0  -5   0   96.94    1.64
   0  -5   0   81.14    1.95
   0  -5   0   80.45    1.89
   0   5   1    4.15    0.60
   0   5   1    4.76    0.51
   0   5   1    5.10    0.75
   0  -5  -1    4.98    0.70
   0  -5  -1    6.34    0.64
   0  -5  -1    5.09    0.71
   0  -5  -1    4.73    0.67
   0   5   2    2.36    0.53
   0   5   2    2.42    0.41
   0   5   2    1.76    0.63
   0  -5  -2    1.87    0.62
   0  -5  -2    3.03    0.55
   0  -5  -2    2.68    0.63
   0  -5  -2    2.61    0.58
   0  -5  -2    2.39    0.53
   0   5   3    1.66    0.47
   0   5   3    1.05    0.46
   0   5   3    0.81    0.60
   0  -5  -3    0.90    0.63
   0  -5  -3    1.43    0.54
   0  -5  -3    1.02    0.58
   0  -5  -3    1.02    0.52
   0  -5  -3    0.25    0.48
   0   5   4    3.07    0.57
   0   5   4    2.39    0.53
   0   5   4    3.12    0.77
   0  -5  -4    2.26    0.70
   0  -5  -4    2.23    0.66
   0  -5  -4    2.44    0.70
   0  -5  -4    1.78    0.62
   0  -5  -4    1.80    0.55
   0   5   5    9.48    1.10
   0   5   5    7.69    0.95
   0   5   5    5.88    0.94
   0  -5  -5    6.40    0.94
   0  -5  -5    7.07    0.92
   0  -5  -5    6.86    0.93
   0  -5  -5    4.33    0.78
   0   5   6   67.52    1.95
   0   5   6   45.82    1.56
   0   5   6   44.23    1.98
   0  -5  -6   51.47    2.14
   0  -5  -6   51.10    2.02
   0  -5  -6   43.12    1.95
   0  -5  -6   39.57    1.78
   0   5   7   64.83    2.12
   0   5   7   43.44    2.04
   0  -5  -7   49.26    2.31
   0  -5  -7   54.73    2.23
   0  -5  -7   45.38    2.13
   0  -5  -7   41.61    1.93
   0   5   8   29.66    1.89
   0   5   8   15.83    1.72
   0  -5  -8   17.61    1.98
   0  -5  -8   21.60    1.96
   0  -5  -8   18.24    1.86
   0  -5  -8   13.86    1.59
   0   5   9   17.13    1.87
   0   5   9    9.03    1.33
   0  -5  -9   10.75    1.41
   0  -5  -9   13.26    1.45
   0  -5  -9    9.76    1.21
   0  -5  -9    9.26    1.12
   0   5  10   27.86    2.25
   0   5  10   16.30    1.97
   0  -5 -10   22.10    2.32
   0  -5 -10   26.09    2.29
   0  -5 -10   20.63    2.00
   0  -5 -10   12.46    1.74
   0   5  11   10.71    1.41
   0   5  11    5.46    1.44
   0  -5 -11    9.86    1.57
   0  -5 -11   10.09    1.54
   0   5  12    2.42    1.22
   0   5  12   -0.97    1.27
   0  -5 -12   -0.12    1.37
   0  -5 -12    2.79    1.37
   1   5 -17    6.83    1.53
   1   5 -17    4.59    1.65
  -1  -5  17    6.92    1.79
   1   5 -16   12.06    1.54
   1   5 -16    9.36    1.44
   1   5 -16   11.02    1.73
  -1  -5  16    9.50    1.71
   1   5 -15   27.53    2.28
   1   5 -15   27.98    2.21
   1   5 -15   23.62    2.33
  -1  -5  15   27.90    2.59
   1   5 -14   25.13    2.11
   1   5 -14   21.97    1.93
   1   5 -14   19.46    2.13
  -1  -5  14   24.35    2.28
   1   5 -13    4.09    1.11
   1   5 -13    2.96    0.98
   1   5 -13    2.57    1.09
  -1  -5  13    2.96    1.02
   1   5 -12    9.50    1.22
   1   5 -12    6.21    1.01
   1   5 -12    5.48    1.16
  -1  -5  12    7.90    1.12
  -1  -5  12    8.81    1.00
  -1  -5  12    7.01    0.87
   1   5 -11    7.93    1.14
   1   5 -11    7.31    0.97
   1   5 -11    7.40    1.17
   1   5 -11    7.55    0.89
  -1  -5  11    7.71    1.02
  -1  -5  11    8.45    0.97
  -1  -5  11   10.26    1.28
   1   5 -10    1.33    0.79
   1   5 -10    0.19    0.59
   1   5 -10    0.70    0.81
   1   5 -10    0.96    0.62
  -1  -5  10    0.26    0.66
  -1  -5  10    0.81    0.68
  -1  -5  10    1.07    0.63
   1   5  -9   12.19    1.42
   1   5  -9    9.41    1.03
   1   5  -9   10.21    1.12
   1   5  -9    9.84    1.09
  -1  -5   9    7.23    0.89
  -1  -5   9    7.05    0.88
  -1  -5   9    8.31    0.91
   1   5  -8   33.99    1.67
   1   5  -8   30.32    1.17
   1   5  -8   32.86    1.64
   1   5  -8   34.82    1.38
  -1  -5   8   24.51    1.37
  -1  -5   8   34.81    1.16
  -1  -5   8   28.66    1.49
  -1  -5   8   26.12    1.48
   1   5  -7  102.13    2.30
   1   5  -7   97.87    1.62
   1   5  -7   98.61    2.19
   1   5  -7  101.51    2.03
  -1  -5   7   74.16    1.86
  -1  -5   7  106.70    1.64
  -1  -5   7   97.24    2.14
  -1  -5   7   93.58    2.11
   1   5  -6  154.25    2.67
   1   5  -6  146.81    1.78
   1   5  -6  149.57    2.44
   1   5  -6  149.25    2.40
  -1  -5   6  110.53    2.07
  -1  -5   6  168.45    2.02
  -1  -5   6  146.24    2.47
  -1  -5   6  145.22    2.46
   1   5  -5  310.66    3.58
   1   5  -5  262.94    2.16
   1   5  -5  275.04    3.01
   1   5  -5  283.71    3.20
  -1  -5   5  186.17    2.50
  -1  -5   5  311.70    2.73
  -1  -5   5  276.91    3.27
  -1  -5   5  274.76    3.24
   1   5  -4  418.54    4.01
   1   5  -4  395.44    3.37
   1   5  -4  404.84    3.80
  -1  -5   4  266.14    2.85
  -1  -5   4  449.56    3.33
  -1  -5   4  388.04    3.80
  -1  -5   4  379.72    3.75
   1   5  -3  430.76    3.49
   1   5  -3  389.53    3.81
   1   5  -3  366.25    3.06
   1   5  -3  365.39    3.66
  -1  -5   3  236.95    2.64
  -1  -5   3  417.78    3.33
  -1  -5   3  362.20    3.70
  -1  -5   3  344.60    3.58
   1   5  -2  310.29    2.92
   1   5  -2  267.50    3.13
   1   5  -2  255.82    2.42
   1   5  -2  254.56    3.12
  -1  -5   2  160.35    2.20
  -1  -5   2  290.17    2.92
  -1  -5   2  254.34    3.17
  -1  -5   2  241.89    3.06
   1   5  -1   18.82    1.03
   1   5  -1   17.80    1.14
   1   5  -1   16.85    0.76
   1   5  -1   15.38    1.13
  -1  -5   1   18.43    1.09
  -1  -5   1   16.72    1.22
  -1  -5   1   15.35    1.11
   1   5   0    0.59    0.41
   1   5   0    0.74    0.47
   1   5   0    0.81    0.30
   1   5   0    0.64    0.53
  -1  -5   0    0.81    0.49
  -1  -5   0    0.27    0.37
  -1  -5   0    0.76    0.54
  -1  -5   0    0.59    0.47
   1   5   1   12.91    0.96
   1   5   1   12.04    0.98
   1   5   1   10.26    0.58
   1   5   1   10.68    1.07
  -1  -5  -1   11.81    1.10
  -1  -5  -1   13.55    0.86
  -1  -5  -1   10.43    1.13
  -1  -5  -1   11.25    1.08
   1   5   2    2.04    0.50
   1   5   2    1.73    0.52
   1   5   2    2.05    0.65
  -1  -5  -2    0.80    0.60
  -1  -5  -2    1.40    0.48
  -1  -5  -2    1.64    0.62
  -1  -5  -2    0.65    0.55
   1   5   3    1.98    0.54
   1   5   3    1.49    0.50
   1   5   3    1.44    0.68
  -1  -5  -3    0.92    0.67
  -1  -5  -3    0.78    0.53
  -1  -5  -3    1.13    0.63
  -1  -5  -3    1.37    0.62
   1   5   4   47.22    1.63
   1   5   4   36.28    1.36
   1   5   4   33.81    1.68
  -1  -5  -4   40.89    1.83
  -1  -5  -4   41.44    1.55
  -1  -5  -4   35.27    1.72
  -1  -5  -4   34.29    1.64
   1   5   5   83.35    2.13
   1   5   5   65.94    1.68
   1   5   5   60.76    2.12
  -1  -5  -5   70.80    2.34
  -1  -5  -5   78.23    2.09
  -1  -5  -5   61.43    2.12
  -1  -5  -5   59.86    2.08
   1   5   6  145.61    2.85
   1   5   6   95.45    2.63
  -1  -5  -6  119.26    2.97
  -1  -5  -6  134.06    2.75
  -1  -5  -6  101.71    2.67
  -1  -5  -6  101.34    2.60
   1   5   7  188.50    3.35
   1   5   7  124.92    2.96
  -1  -5  -7  149.34    3.38
  -1  -5  -7  167.49    3.20
  -1  -5  -7  126.11    2.99
  -1  -5  -7  122.30    2.89
   1   5   8   67.65    2.44
   1   5   8   40.55    2.18
  -1  -5  -8   50.16    2.45
  -1  -5  -8   57.09    2.36
  -1  -5  -8   45.49    2.25
  -1  -5  -8   42.65    2.10
   1   5   9   25.10    2.11
   1   5   9   13.12    1.46
  -1  -5  -9   18.31    2.10
  -1  -5  -9   19.79    1.96
  -1  -5  -9   16.46    1.88
  -1  -5  -9   14.22    1.71
   1   5  10    3.07    1.15
   1   5  10   -0.30    1.08
  -1  -5 -10    3.36    1.21
  -1  -5 -10    1.16    1.12
  -1  -5 -10    0.42    1.01
  -1  -5 -10    0.32    0.87
   1   5  11    2.29    1.13
   1   5  11    0.46    1.18
  -1  -5 -11    1.84    1.32
  -1  -5 -11   -0.86    1.12
  -1  -5 -11    0.54    1.07
   1   5  12   -1.29    1.07
   1   5  12   -0.79    1.41
  -1  -5 -12   -1.33    1.35
  -1  -5 -12   -0.68    1.26
   2   5 -17    8.69    1.62
   2   5 -17    5.98    2.16
   2   5 -17    4.92    1.66
  -2  -5  17    5.52    1.77
   2   5 -16    7.31    1.49
   2   5 -16    5.74    1.38
   2   5 -16    6.11    1.57
  -2  -5  16    4.86    1.52
   2   5 -15    5.57    1.35
   2   5 -15    5.21    1.20
   2   5 -15    5.51    1.44
  -2  -5  15    6.79    1.43
   2   5 -14    5.82    1.26
   2   5 -14    5.41    1.12
   2   5 -14    5.38    1.27
  -2  -5  14    6.17    1.26
   2   5 -13    1.43    1.06
   2   5 -13    1.19    0.91
   2   5 -13    2.06    1.06
   2   5 -13    2.14    1.09
  -2  -5  13    2.18    0.97
   2   5 -12   -0.49    0.93
   2   5 -12   -1.53    0.71
   2   5 -12   -1.66    0.84
   2   5 -12   -1.11    0.72
  -2  -5  12   -0.77    0.75
   2   5 -11   16.37    1.78
   2   5 -11   13.40    1.40
   2   5 -11   13.20    1.40
   2   5 -11   14.65    1.41
  -2  -5  11   15.46    1.64
  -2  -5  11   14.80    1.45
  -2  -5  11   14.23    1.29
   2   5 -10   31.07    1.88
   2   5 -10   28.76    1.43
   2   5 -10   29.19    1.84
   2   5 -10   29.40    1.53
  -2  -5  10   23.04    1.64
  -2  -5  10   27.94    1.55
  -2  -5  10   28.63    1.51
   2   5  -9   88.19    2.45
   2   5  -9   80.50    1.76
   2   5  -9   76.45    2.26
   2   5  -9   86.09    2.14
  -2  -5   9   64.25    2.07
  -2  -5   9   84.21    2.10
  -2  -5   9   82.34    2.05
   2   5  -8  210.73    3.35
   2   5  -8  187.76    2.74
   2   5  -8  180.96    2.98
   2   5  -8  205.37    3.02
  -2  -5   8  158.62    2.82
  -2  -5   8  200.04    2.89
  -2  -5   8  202.40    2.91
   2   5  -7  202.68    3.18
   2   5  -7  177.84    2.78
   2   5  -7  193.61    2.92
  -2  -5   7  140.52    2.56
  -2  -5   7  191.19    2.80
  -2  -5   7  189.63    2.79
   2   5  -6  244.86    3.36
   2   5  -6  210.49    2.80
   2   5  -6  235.96    3.13
  -2  -5   6  162.65    2.61
  -2  -5   6  234.56    3.03
  -2  -5   6  230.64    3.00
   2   5  -5   71.40    1.97
   2   5  -5   66.91    1.66
   2   5  -5   75.66    1.92
  -2  -5   5   48.50    1.54
  -2  -5   5   74.94    1.91
  -2  -5   5   70.28    1.84
   2   5  -4   26.77    1.34
   2   5  -4   22.20    1.32
   2   5  -4   20.18    1.07
   2   5  -4   24.81    1.31
  -2  -5   4   14.00    1.08
  -2  -5   4   27.59    1.04
  -2  -5   4   22.49    1.33
  -2  -5   4   22.93    1.30
   2   5  -3   32.47    1.36
   2   5  -3   29.18    1.38
   2   5  -3   23.65    1.01
   2   5  -3   25.82    1.32
  -2  -5   3   15.88    1.12
  -2  -5   3   31.29    1.13
  -2  -5   3   26.22    1.35
  -2  -5   3   25.60    1.30
   2   5  -2   -0.03    0.45
   2   5  -2   -0.40    0.50
   2   5  -2   -0.04    0.35
   2   5  -2   -0.31    0.49
  -2  -5   2   -0.05    0.43
  -2  -5   2    0.13    0.52
  -2  -5   2    0.01    0.46
   2   5  -1    0.80    0.48
   2   5  -1    0.19    0.48
   2   5  -1   -0.45    0.47
  -2  -5   1    0.00    0.44
  -2  -5   1   -0.31    0.49
  -2  -5   1    0.13    0.50
   2   5   0   11.55    1.06
   2   5   0   10.81    1.05
   2   5   0    9.64    1.12
  -2  -5   0   11.11    1.08
  -2  -5   0    8.03    0.86
  -2  -5   0    6.75    0.79
   2   5   1   22.87    1.30
   2   5   1   20.42    1.18
   2   5   1   19.95    1.30
  -2  -5  -1   19.87    1.33
  -2  -5  -1   17.29    1.36
  -2  -5  -1   15.52    1.28
   2   5   2  185.92    2.78
   2   5   2  157.40    2.34
   2   5   2  149.87    2.76
  -2  -5  -2  160.97    2.76
  -2  -5  -2  172.74    2.08
  -2  -5  -2  139.02    2.71
  -2  -5  -2  131.16    2.62
   2   5   3  107.01    2.31
   2   5   3   86.95    1.83
   2   5   3   87.77    2.30
  -2  -5  -3   91.23    2.35
  -2  -5  -3   96.69    1.85
  -2  -5  -3   81.14    2.30
  -2  -5  -3   75.50    2.19
   2   5   4   87.45    2.28
   2   5   4   65.09    1.64
   2   5   4   67.63    2.19
  -2  -5  -4   73.87    2.31
  -2  -5  -4   81.09    1.91
  -2  -5  -4   66.72    2.24
  -2  -5  -4   62.81    2.12
   2   5   5  162.01    3.02
   2   5   5  124.31    2.82
  -2  -5  -5  139.27    3.06
  -2  -5  -5  153.84    2.64
  -2  -5  -5  120.17    2.86
  -2  -5  -5  116.28    2.75
   2   5   6   55.03    2.22
   2   5   6   37.81    1.99
  -2  -5  -6   45.29    2.23
  -2  -5  -6   50.60    1.95
  -2  -5  -6   39.83    2.11
  -2  -5  -6   36.41    1.94
   2   5   7   79.17    2.56
   2   5   7   52.18    2.19
  -2  -5  -7   62.33    2.56
  -2  -5  -7   70.34    2.31
  -2  -5  -7   55.59    2.38
  -2  -5  -7   49.96    2.20
   2   5   8   11.79    1.26
   2   5   8    6.71    1.18
  -2  -5  -8    8.99    1.36
  -2  -5  -8    9.89    1.20
  -2  -5  -8    7.42    1.25
  -2  -5  -8    5.68    1.08
   2   5   9    0.06    0.86
   2   5   9   -1.56    0.92
  -2  -5  -9   -0.23    0.99
  -2  -5  -9    0.52    0.95
  -2  -5  -9   -0.75    0.92
  -2  -5  -9   -0.71    0.81
   2   5  10   -1.12    0.96
   2   5  10   -2.18    0.93
  -2  -5 -10   -0.46    1.11
  -2  -5 -10   -0.49    1.01
  -2  -5 -10   -1.56    0.94
  -2  -5 -10   -2.08    0.74
   2   5  11    0.35    1.11
  -2  -5 -11    3.21    1.47
  -2  -5 -11    1.67    1.21
  -2  -5 -11   -0.95    1.06
  -2  -5 -11   -1.87    0.84
   3   5 -16    2.97    1.53
   3   5 -16    2.59    1.49
  -3  -5  16    3.96    1.56
   3   5 -15    1.41    1.33
   3   5 -15    2.19    1.37
  -3  -5  15    2.53    1.33
   3   5 -14    2.22    1.21
   3   5 -14    2.78    1.26
   3   5 -14    2.04    1.01
  -3  -5  14    2.46    1.17
   3   5 -13    5.00    1.26
   3   5 -13    5.20    1.28
   3   5 -13    5.12    1.06
  -3  -5  13    5.41    1.20
   3   5 -12   13.81    1.50
   3   5 -12   10.83    1.37
   3   5 -12   14.24    1.53
  -3  -5  12   10.13    1.29
   3   5 -11   17.25    1.81
   3   5 -11   14.74    1.80
   3   5 -11   18.37    1.56
  -3  -5  11   13.56    1.67
   3   5 -10   51.85    2.23
   3   5 -10   51.82    2.14
   3   5 -10   53.16    2.01
  -3  -5  10   43.39    2.01
  -3  -5  10   53.25    2.82
  -3  -5  10   53.51    1.88
   3   5  -9   79.97    2.48
   3   5  -9   69.52    2.20
   3   5  -9   72.30    2.15
  -3  -5   9   57.84    2.09
  -3  -5   9   77.03    2.06
  -3  -5   9   70.68    1.95
   3   5  -8  115.78    2.73
   3   5  -8   99.11    2.36
   3   5  -8  108.32    2.48
  -3  -5   8   79.49    2.23
  -3  -5   8  116.24    2.35
  -3  -5   8  109.14    2.24
   3   5  -7  152.04    2.92
   3   5  -7  131.03    2.48
   3   5  -7  148.81    2.77
  -3  -5   7  105.13    2.41
  -3  -5   7  152.64    2.62
  -3  -5   7  146.40    2.51
   3   5  -6   79.12    2.18
   3   5  -6   65.20    1.77
   3   5  -6   75.97    2.08
  -3  -5   6   54.42    1.81
  -3  -5   6   75.15    1.97
  -3  -5   6   74.44    1.94
   3   5  -5   11.66    1.27
   3   5  -5    8.40    0.97
   3   5  -5   10.33    1.19
  -3  -5   5    6.24    0.79
  -3  -5   5   10.58    1.20
  -3  -5   5   10.67    1.16
   3   5  -4    0.57    0.61
   3   5  -4    0.27    0.60
   3   5  -4    0.94    0.47
   3   5  -4    0.81    0.58
  -3  -5   4   -0.33    0.52
  -3  -5   4    0.73    0.56
  -3  -5   4    0.51    0.55
   3   5  -3    0.37    0.59
   3   5  -3    0.76    0.61
   3   5  -3    1.02    0.40
   3   5  -3    1.21    0.62
  -3  -5   3   -0.71    0.56
  -3  -5   3    1.26    0.44
  -3  -5   3    0.62    0.56
  -3  -5   3    1.00    0.58
   3   5  -2   17.24    1.34
   3   5  -2   16.61    1.21
   3   5  -2   16.28    1.26
  -3  -5   2   16.64    1.07
  -3  -5   2   13.14    1.28
  -3  -5   2   12.36    1.25
   3   5  -1   21.61    1.40
   3   5  -1   21.95    1.27
   3   5  -1   19.38    1.34
  -3  -5   1   22.55    1.25
  -3  -5   1   18.29    1.40
  -3  -5   1   17.17    1.34
   3   5   0   36.40    1.66
   3   5   0   33.54    1.41
   3   5   0   34.28    1.61
  -3  -5   0   34.66    1.50
  -3  -5   0   29.81    1.62
  -3  -5   0   28.41    1.54
   3   5   1  141.70    2.70
   3   5   1  118.41    2.16
   3   5   1  117.15    2.56
  -3  -5  -1  130.80    2.50
  -3  -5  -1  106.66    2.55
  -3  -5  -1  103.89    2.47
   3   5   2  282.02    3.72
   3   5   2  220.00    2.73
   3   5   2  229.05    3.47
  -3  -5  -2  254.45    3.50
  -3  -5  -2  215.81    3.50
  -3  -5  -2  206.27    3.39
   3   5   3  244.50    3.60
   3   5   3  199.76    3.34
  -3  -5  -3  212.52    3.42
  -3  -5  -3  181.56    3.33
  -3  -5  -3  170.88    3.22
   3   5   4  123.63    2.81
   3   5   4   96.46    2.58
  -3  -5  -4  106.36    2.72
  -3  -5  -4   91.95    2.62
  -3  -5  -4   87.97    2.55
   3   5   5   65.60    2.32
   3   5   5   49.06    2.14
  -3  -5  -5   53.48    2.27
  -3  -5  -5   48.84    2.18
  -3  -5  -5   44.52    2.09
   3   5   6    3.26    0.94
   3   5   6    3.17    1.01
  -3  -5  -6    3.57    1.03
  -3  -5  -6    2.54    0.93
  -3  -5  -6    2.03    0.93
   3   5   7    5.87    1.11
   3   5   7    5.04    1.08
  -3  -5  -7    4.73    1.19
  -3  -5  -7    2.97    1.06
  -3  -5  -7    2.08    0.92
   3   5   8    1.98    0.98
   3   5   8    1.53    0.94
  -3  -5  -8    0.29    1.06
  -3  -5  -8    2.85    1.17
  -3  -5  -8    0.41    1.01
  -3  -5  -8   -0.36    0.85
   3   5   9   -0.62    0.96
   3   5   9    0.15    0.93
  -3  -5  -9   -1.05    1.08
  -3  -5  -9    0.41    1.21
  -3  -5  -9   -0.97    0.98
  -3  -5  -9   -1.44    0.86
   3   5  10    0.31    1.08
  -3  -5 -10   -2.74    1.25
  -3  -5 -10    0.82    1.32
  -3  -5 -10   -1.58    1.07
  -3  -5 -10   -1.56    0.88
   3   5  11   -0.99    1.13
  -3  -5 -11   -0.18    1.39
  -3  -5 -11   -0.99    1.23
   4   5 -16    1.39    1.65
   4   5 -16    3.89    1.68
  -4  -5  16    2.30    1.63
   4   5 -15    0.66    1.51
   4   5 -15    0.85    1.35
   4   5 -15    2.06    1.19
  -4  -5  15    2.12    1.36
   4   5 -14    6.10    1.55
   4   5 -14    1.99    1.33
   4   5 -14    3.86    1.15
  -4  -5  14    4.07    1.33
   4   5 -13    8.31    1.41
   4   5 -13    7.72    1.41
   4   5 -13    7.69    1.26
  -4  -5  13    8.10    1.36
   4   5 -12   20.13    2.06
   4   5 -12   17.11    1.97
   4   5 -12   19.66    1.77
  -4  -5  12   15.42    1.91
   4   5 -11   49.09    2.41
   4   5 -11   47.01    2.29
   4   5 -11   44.30    2.05
  -4  -5  11   39.60    2.17
   4   5 -10   39.28    2.12
   4   5 -10   38.53    2.00
   4   5 -10   38.85    2.00
  -4  -5  10   35.99    1.99
   4   5  -9   31.29    1.90
   4   5  -9   29.23    1.75
   4   5  -9   28.89    1.74
  -4  -5   9   25.18    1.75
   4   5  -8   34.67    1.89
   4   5  -8   31.71    1.64
   4   5  -8   31.64    1.73
  -4  -5   8   24.96    1.67
  -4  -5   8   37.29    1.71
  -4  -5   8   35.03    1.56
   4   5  -7    5.64    0.97
   4   5  -7    5.20    0.82
   4   5  -7    5.51    0.94
  -4  -5   7    2.95    0.79
  -4  -5   7    5.60    0.85
  -4  -5   7    4.23    0.75
   4   5  -6    9.40    1.03
   4   5  -6    9.35    1.11
   4   5  -6   10.07    1.08
  -4  -5   6    6.21    0.87
  -4  -5   6    9.43    0.96
  -4  -5   6    8.53    0.88
   4   5  -5    5.26    0.91
   4   5  -5    5.32    0.85
   4   5  -5    6.10    0.72
   4   5  -5    5.40    0.91
  -4  -5   5    3.15    0.75
  -4  -5   5    5.32    0.80
  -4  -5   5    5.72    0.79
   4   5  -4   -1.49    0.67
   4   5  -4   -0.08    0.61
   4   5  -4    0.23    0.40
   4   5  -4    0.60    0.68
  -4  -5   4    0.17    0.63
  -4  -5   4    0.98    0.66
  -4  -5   4    0.50    0.61
   4   5  -3    6.13    1.00
   4   5  -3    7.72    0.89
   4   5  -3    8.49    0.99
  -4  -5   3    4.34    0.85
  -4  -5   3    7.07    0.98
  -4  -5   3    6.77    0.91
  -4  -5   3    6.83    0.88
   4   5  -2   44.72    2.00
   4   5  -2   43.56    1.67
   4   5  -2   42.17    1.80
  -4  -5   2   45.70    1.51
  -4  -5   2   39.80    1.79
  -4  -5   2   39.85    1.76
   4   5  -1  232.03    3.55
   4   5  -1  192.01    2.86
   4   5  -1  197.33    3.28
  -4  -5   1  210.66    2.83
  -4  -5   1  175.07    3.14
  -4  -5   1  173.56    3.08
   4   5   0  284.11    3.92
   4   5   0  217.69    2.94
   4   5   0  227.85    3.54
  -4  -5   0  251.57    3.26
  -4  -5   0  217.56    3.54
  -4  -5   0  212.52    3.47
   4   5   1  162.96    3.17
   4   5   1  127.81    2.29
   4   5   1  131.37    2.85
  -4  -5  -1  143.53    2.74
  -4  -5  -1  121.11    2.86
  -4  -5  -1  120.99    2.81
   4   5   2  231.27    3.69
   4   5   2  180.42    3.29
  -4  -5  -2  198.18    3.27
  -4  -5  -2  173.37    3.37
  -4  -5  -2  163.83    3.27
   4   5   3   89.57    2.61
   4   5   3   70.31    2.35
  -4  -5  -3   77.62    2.42
  -4  -5  -3   64.10    2.41
  -4  -5  -3   61.92    2.31
   4   5   4    0.89    0.82
   4   5   4    0.63    0.84
  -4  -5  -4    0.13    0.84
  -4  -5  -4    0.15    0.81
  -4  -5  -4   -0.16    0.73
   4   5   5    0.39    0.84
   4   5   5    1.99    0.92
  -4  -5  -5    0.92    0.97
  -4  -5  -5    0.17    0.85
  -4  -5  -5    0.30    0.81
   4   5   6    1.77    0.96
   4   5   6    1.02    0.87
  -4  -5  -6    1.19    1.06
  -4  -5  -6    1.28    0.95
  -4  -5  -6    0.89    0.87
   4   5   7    0.12    0.96
   4   5   7   -0.19    0.85
  -4  -5  -7    0.14    1.07
  -4  -5  -7   -0.45    0.93
  -4  -5  -7   -0.65    0.81
   4   5   8    1.68    1.15
   4   5   8    3.10    0.98
  -4  -5  -8   -0.02    1.16
  -4  -5  -8    1.62    1.19
  -4  -5  -8   -1.25    0.86
   4   5   9   11.01    1.60
  -4  -5  -9    7.80    1.65
  -4  -5  -9    7.11    1.48
  -4  -5  -9    3.93    1.16
   4   5  10   23.57    2.69
  -4  -5 -10   14.73    2.01
  -4  -5 -10   14.97    1.92
   5   5 -15    5.75    1.68
   5   5 -15    3.09    1.56
   5   5 -15    5.59    1.40
  -5  -5  15    4.00    1.58
   5   5 -14    9.20    1.66
   5   5 -14    9.04    1.67
   5   5 -14    8.61    1.43
  -5  -5  14    7.16    1.56
   5   5 -13   11.41    1.64
   5   5 -13   12.48    1.64
   5   5 -13   15.67    1.95
  -5  -5  13    8.85    1.49
   5   5 -12   12.82    1.59
   5   5 -12   16.53    2.06
   5   5 -12   12.06    1.44
  -5  -5  12   12.80    1.51
   5   5 -11   11.52    1.43
   5   5 -11   10.60    1.37
   5   5 -11   10.48    1.35
  -5  -5  11    7.88    1.23
   5   5 -10    7.07    1.16
   5   5 -10    8.12    1.16
   5   5 -10    6.31    1.16
  -5  -5  10    5.68    1.08
   5   5  -9   -0.22    0.79
   5   5  -9    1.34    0.82
   5   5  -9    0.78    0.92
  -5  -5   9    0.25    0.79
   5   5  -8   -0.62    0.82
   5   5  -8   -0.45    0.68
   5   5  -8    0.14    0.82
  -5  -5   8   -0.42    0.71
   5   5  -7   16.35    1.71
   5   5  -7   15.71    1.39
   5   5  -7   13.81    1.58
  -5  -5   7    8.75    1.12
  -5  -5   7   15.72    1.52
  -5  -5   7   13.89    1.39
   5   5  -6   12.91    1.57
   5   5  -6   16.69    1.30
   5   5  -6   12.06    1.50
  -5  -5   6    7.37    1.05
  -5  -5   6   13.63    1.51
  -5  -5   6   12.70    1.39
   5   5  -5   29.46    2.04
   5   5  -5   27.14    1.75
   5   5  -5   27.67    1.72
  -5  -5   5   18.71    1.65
  -5  -5   5   28.33    1.79
  -5  -5   5   27.44    1.64
   5   5  -4   85.07    2.63
   5   5  -4   72.15    2.25
   5   5  -4   70.46    2.25
  -5  -5   4   56.39    2.18
  -5  -5   4   74.94    2.34
  -5  -5   4   72.65    2.24
   5   5  -3   99.15    2.76
   5   5  -3   81.66    2.28
   5   5  -3   80.77    2.42
  -5  -5   3   59.72    2.21
  -5  -5   3   76.16    2.38
  -5  -5   3   76.05    2.30
   5   5  -2   99.53    2.77
   5   5  -2   76.07    2.15
   5   5  -2   84.19    2.48
  -5  -5   2   81.14    2.47
  -5  -5   2   75.65    2.34
   5   5  -1  135.12    3.09
   5   5  -1  108.49    2.38
   5   5  -1  111.62    2.76
  -5  -5   1  120.28    2.39
  -5  -5   1  103.80    2.72
  -5  -5   1   99.73    2.65
   5   5   0  100.56    2.77
   5   5   0   80.78    2.06
   5   5   0   80.10    2.42
  -5  -5   0   85.96    2.24
  -5  -5   0   78.52    2.54
  -5  -5   0   72.85    2.41
   5   5   1   23.31    1.87
   5   5   1   20.72    1.71
  -5  -5  -1   19.64    1.60
  -5  -5  -1   17.70    1.76
  -5  -5  -1   17.02    1.66
   5   5   2   18.78    1.85
   5   5   2   15.69    1.57
  -5  -5  -2   14.45    1.62
  -5  -5  -2   12.64    1.32
  -5  -5  -2   12.08    1.27
   5   5   3   46.07    2.29
   5   5   3   35.36    1.94
  -5  -5  -3   35.09    2.01
  -5  -5  -3   29.87    2.10
  -5  -5  -3   29.78    2.00
   5   5   4    5.31    1.14
   5   5   4    4.78    1.02
  -5  -5  -4    3.09    1.03
  -5  -5  -4    2.85    1.05
  -5  -5  -4    2.92    0.97
   5   5   5    0.61    0.96
   5   5   5    1.99    0.90
  -5  -5  -5    1.29    1.00
  -5  -5  -5   -0.06    0.91
  -5  -5  -5    0.20    0.85
   5   5   6   -1.08    0.97
   5   5   6    0.43    0.83
  -5  -5  -6   -1.56    1.01
  -5  -5  -6   -0.25    1.00
  -5  -5  -6   -1.71    0.81
   5   5   7    6.94    1.42
   5   5   7    5.30    1.10
  -5  -5  -7    3.55    1.39
  -5  -5  -7    3.26    1.26
  -5  -5  -7    1.86    1.05
   5   5   8   12.02    1.73
  -5  -5  -8    6.78    1.61
  -5  -5  -8    5.33    1.50
   5   5   9   23.18    2.84
  -5  -5  -9   13.64    2.01
  -5  -5  -9    8.79    1.71
   6   5 -14    6.68    1.65
   6   5 -14    2.95    1.41
   6   5 -14    3.60    1.40
  -6  -5  14    3.73    1.58
   6   5 -13    8.22    1.62
   6   5 -13    7.42    1.51
   6   5 -13    7.69    1.51
  -6  -5  13    5.62    1.52
   6   5 -12    6.60    1.47
   6   5 -12    7.35    1.40
   6   5 -12    4.24    1.33
  -6  -5  12    3.71    1.34
   6   5 -11    8.36    1.49
   6   5 -11    7.50    1.31
   6   5 -11    4.30    1.25
  -6  -5  11    5.06    1.29
   6   5 -10    6.83    1.35
   6   5 -10    8.49    1.23
   6   5 -10    5.95    1.26
  -6  -5  10    6.58    1.23
   6   5  -9   -0.37    0.99
   6   5  -9    0.31    0.85
   6   5  -9   -1.03    0.91
  -6  -5   9    0.79    0.90
   6   5  -8   -2.01    0.84
   6   5  -8   -0.26    0.74
   6   5  -8   -0.93    0.84
  -6  -5   8   -0.91    0.80
   6   5  -7   -0.15    0.93
   6   5  -7    0.49    1.26
   6   5  -7    0.86    0.93
  -6  -5   7   -0.02    0.85
   6   5  -6   46.35    2.29
   6   5  -6   41.79    2.12
  -6  -5   6   26.25    2.02
  -6  -5   6   44.44    2.10
  -6  -5   6   40.70    1.90
   6   5  -5  100.67    3.05
   6   5  -5   79.04    2.58
   6   5  -5   79.79    2.60
  -6  -5   5   57.14    2.42
  -6  -5   5   80.95    2.57
  -6  -5   5   79.52    2.41
   6   5  -4  100.76    2.99
   6   5  -4   80.02    2.48
   6   5  -4   81.93    2.63
  -6  -5   4   57.66    2.43
  -6  -5   4   82.41    2.61
  -6  -5   4   79.05    2.45
   6   5  -3  140.15    3.35
   6   5  -3  104.11    2.64
   6   5  -3  110.31    2.92
  -6  -5   3   77.19    2.65
  -6  -5   3  107.71    2.89
  -6  -5   3  101.69    2.73
   6   5  -2   91.01    2.85
   6   5  -2   69.70    2.21
   6   5  -2   69.93    2.45
  -6  -5   2   69.29    2.54
  -6  -5   2   65.38    2.41
   6   5  -1   38.29    2.22
   6   5  -1   32.28    1.71
   6   5  -1   29.77    1.89
  -6  -5   1   27.17    2.05
  -6  -5   1   26.61    1.93
   6   5   0   23.91    2.02
   6   5   0   18.94    1.74
  -6  -5   0   15.77    1.81
  -6  -5   0   13.21    1.39
  -6  -5   0   11.81    1.27
   6   5   1    0.36    0.87
   6   5   1   -0.77    0.84
  -6  -5  -1   -0.99    0.76
  -6  -5  -1    0.17    0.90
  -6  -5  -1   -0.35    0.83
   6   5   2    9.32    1.30
   6   5   2    8.02    1.19
  -6  -5  -2    7.35    1.12
  -6  -5  -2    6.96    1.23
  -6  -5  -2    5.84    1.08
   6   5   3    0.40    0.92
   6   5   3    0.97    0.89
  -6  -5  -3    0.04    0.91
  -6  -5  -3    0.10    0.98
  -6  -5  -3   -1.29    0.77
   6   5   4   15.78    1.64
   6   5   4   10.85    1.32
  -6  -5  -4   11.47    1.42
  -6  -5  -4    9.08    1.39
  -6  -5  -4    8.51    1.29
   6   5   5   31.63    2.58
   6   5   5   22.87    1.86
  -6  -5  -5   22.39    2.34
  -6  -5  -5   18.34    1.83
  -6  -5  -5   15.08    1.58
   6   5   6   28.62    2.74
  -6  -5  -6   15.37    1.77
  -6  -5  -6   15.56    1.86
   6   5   7   49.17    3.25
  -6  -5  -7   35.45    2.94
  -6  -5  -7   30.58    2.89
   7   5 -12    0.44    1.37
   7   5 -12    2.29    1.20
   7   5 -12    1.41    1.33
  -7  -5  12    1.33    1.35
   7   5 -11    4.07    1.57
   7   5 -11    2.26    1.18
   7   5 -11    1.01    1.28
  -7  -5  11    0.73    1.27
   7   5 -10    4.84    1.53
   7   5 -10    6.45    1.28
   7   5 -10    5.87    1.41
  -7  -5  10    4.60    1.37
   7   5  -9   22.22    2.40
   7   5  -9   20.67    2.08
  -7  -5   9   20.70    2.31
   7   5  -8   20.17    2.26
   7   5  -8   18.34    1.98
  -7  -5   8   11.83    1.51
   7   5  -7   10.36    1.43
   7   5  -7   10.34    1.43
  -7  -5   7    5.26    1.21
   7   5  -6   19.19    2.02
   7   5  -6   20.27    1.95
  -7  -5   6   11.95    1.45
   7   5  -5   46.30    2.58
   7   5  -5   36.11    2.20
   7   5  -5   35.13    2.16
  -7  -5   5   24.22    2.11
  -7  -5   5   42.37    2.30
   7   5  -4   43.01    2.50
   7   5  -4   34.37    2.07
   7   5  -4   31.59    2.07
  -7  -5   4   22.09    2.09
  -7  -5   4   33.46    2.23
  -7  -5   4   28.10    1.93
   7   5  -3   22.84    2.13
   7   5  -3   22.34    1.81
   7   5  -3   19.14    1.91
  -7  -5   3   10.01    1.36
  -7  -5   3   18.25    2.02
  -7  -5   3   12.33    1.30
   7   5  -2   18.10    2.05
   7   5  -2   15.93    1.65
   7   5  -2   12.34    1.43
  -7  -5   2   10.78    1.37
  -7  -5   2    9.06    1.21
   7   5  -1    4.77    1.14
   7   5  -1    3.00    1.05
  -7  -5   1    3.56    1.18
  -7  -5   1    1.41    0.96
   7   5   0    1.36    0.99
   7   5   0   -0.44    0.92
  -7  -5   0   -0.85    0.99
  -7  -5   0   -0.81    0.85
   7   5   1    2.84    1.14
   7   5   1    1.47    1.02
  -7  -5  -1    0.82    1.09
  -7  -5  -1    0.11    0.86
   7   5   2    4.91    1.29
   7   5   2    2.88    1.11
  -7  -5  -2    2.59    1.07
  -7  -5  -2    3.14    1.24
  -7  -5  -2    2.77    1.06
   7   5   3    9.76    1.55
   7   5   3    7.53    1.29
  -7  -5  -3    4.82    1.21
  -7  -5  -3    5.51    1.45
  -7  -5  -3    5.71    1.29
   7   5   4   28.11    2.73
   7   5   4   20.99    2.00
  -7  -5  -4   16.05    1.69
  -7  -5  -4   16.27    1.91
   7   5   5   50.99    3.24
  -7  -5  -5   37.66    2.83
  -7  -5  -5   33.10    3.11
   8   5  -9   11.53    1.81
   8   5  -9   10.36    1.63
  -8  -5   9    8.68    1.64
   8   5  -8   22.96    2.45
   8   5  -8   14.86    1.81
  -8  -5   8   13.60    1.80
   8   5  -7   22.22    2.32
   8   5  -7   17.36    2.10
  -8  -5   7   12.89    1.66
   8   5  -6   12.73    1.53
   8   5  -6   10.60    1.56
  -8  -5   6    8.72    1.46
   8   5  -5   10.46    1.53
   8   5  -5   10.11    1.36
   8   5  -5    9.00    1.50
  -8  -5   5    6.23    1.35
   8   5  -4    5.17    1.34
   8   5  -4    5.65    1.15
   8   5  -4    4.57    1.30
  -8  -5   4    3.78    1.36
  -8  -5   4    1.70    1.19
   8   5  -3    0.35    1.12
   8   5  -3   -0.16    1.16
   8   5  -3   -0.22    1.08
  -8  -5   3   -0.38    1.13
  -8  -5   3   -1.28    0.99
  -8  -5   3   -2.18    0.83
   8   5  -2   -2.18    1.03
   8   5  -2   -1.74    1.04
  -8  -5   2   -0.55    1.08
  -8  -5   2   -1.30    0.88
   8   5  -1    2.98    1.27
   8   5  -1    3.17    1.25
  -8  -5   1    1.15    1.24
  -8  -5   1    0.17    0.95
   8   5   0    8.62    1.58
   8   5   0    6.24    1.35
  -8  -5   0    6.49    1.54
  -8  -5   0    4.90    1.21
   8   5   1   14.19    1.84
   8   5   1   11.37    1.53
  -8  -5  -1   10.90    1.78
   8   5   2   21.34    2.15
   8   5   2   16.45    2.03
  -8  -5  -2   14.80    1.94
  -8   6  -6   17.94    2.10
  -8   6  -6   14.37    1.73
  -8   6  -6   17.84    2.21
   8  -6   6   15.26    2.02
   8  -6   6   18.07    2.14
   8  -6   6   16.93    2.14
  -8   6  -5   12.20    1.48
  -8   6  -5   13.92    1.70
  -8   6  -5   11.98    1.66
   8  -6   5   16.29    1.95
   8  -6   5   14.45    1.97
   8  -6   5   11.28    1.83
  -8   6  -4    4.67    1.16
  -8   6  -4    6.50    1.38
   8  -6   4    7.60    1.64
   8  -6   4    5.57    1.67
   8  -6   4    5.75    1.48
   8  -6   4    5.20    1.21
  -8   6  -3    3.40    1.08
  -8   6  -3    2.71    1.21
   8  -6   3    2.79    1.44
   8  -6   3    0.29    1.47
   8  -6   3    4.27    1.29
   8  -6   3    4.52    1.13
  -8   6  -2    3.12    1.13
  -8   6  -2    2.82    1.19
   8  -6   2    6.28    1.57
   8  -6   2    2.92    1.54
   8  -6   2    7.38    1.40
   8  -6   2    4.62    1.06
   8  -6   2    2.62    1.54
  -8   6  -1    3.01    1.22
  -8   6  -1    1.90    1.16
   8  -6   1    6.98    1.67
   8  -6   1    2.90    1.53
   8  -6   1    4.64    1.21
   8  -6   1    4.70    1.12
   8  -6   1    4.32    1.60
  -8   6   0    3.56    1.19
  -8   6   0    2.69    1.22
  -8   6   0    4.08    1.04
   8  -6   0    5.76    1.66
   8  -6   0    5.21    1.61
   8  -6   0    6.55    1.28
   8  -6   0    3.33    1.55
  -8   6   1    7.66    1.49
  -8   6   1    6.74    1.37
  -8   6   1    4.62    1.11
   8  -6  -1   12.67    1.88
   8  -6  -1    8.88    1.70
   8  -6  -1    6.61    1.74
  -8   6   2    9.67    1.59
  -8   6   2    6.69    1.30
  -8   6   2    5.55    1.22
   8  -6  -2   14.41    1.98
   8  -6  -2   12.45    1.81
   8  -6  -2   10.33    1.84
  -8   6   3    8.31    1.63
  -8   6   3    4.36    1.21
   8  -6  -3   13.57    1.88
   8  -6  -3   11.29    1.77
   8  -6  -3   10.26    1.81
  -8   6   4    1.80    1.22
  -8   6   4    1.97    1.16
   8  -6  -4    9.40    1.73
   8  -6  -4    5.47    1.62
   8  -6  -4    5.99    1.68
  -7   6  -9   14.21    1.76
  -7   6  -9   14.44    1.71
   7  -6   9   14.43    1.98
   7  -6   9   20.34    2.20
  -7   6  -8   12.37    1.55
  -7   6  -8   14.20    1.72
   7  -6   8   15.71    1.98
   7  -6   8   15.02    1.92
   7  -6   8   17.15    1.96
  -7   6  -7    9.82    1.27
  -7   6  -7    9.87    1.43
  -7   6  -7   13.83    1.61
   7  -6   7   11.78    1.75
   7  -6   7   12.32    1.80
   7  -6   7   15.54    1.87
   7  -6   7   12.29    1.69
  -7   6  -6   11.34    1.42
  -7   6  -6   13.19    1.53
  -7   6  -6    9.43    1.39
   7  -6   6   14.52    1.77
   7  -6   6   13.83    1.80
   7  -6   6   14.56    1.74
   7  -6   6   11.81    1.43
  -7   6  -5   14.91    1.83
  -7   6  -5   10.40    1.36
  -7   6  -5   10.47    1.39
   7  -6   5   12.27    1.59
   7  -6   5   12.08    1.65
   7  -6   5   12.11    1.64
   7  -6   5   11.51    1.45
  -7   6  -4    9.21    1.24
  -7   6  -4    6.28    1.24
   7  -6   4    9.88    1.53
   7  -6   4    8.70    1.50
   7  -6   4    9.70    1.50
   7  -6   4    9.30    1.29
  -7   6  -3    6.30    1.11
  -7   6  -3    4.91    1.17
   7  -6   3    9.05    1.58
   7  -6   3    6.44    1.46
   7  -6   3    8.17    1.43
   7  -6   3    6.50    1.15
  -7   6  -2   10.26    1.33
  -7   6  -2   10.26    1.46
   7  -6   2   16.57    1.74
   7  -6   2   13.25    1.64
   7  -6   2   13.96    1.58
   7  -6   2   15.73    1.92
   7  -6   2   14.48    1.79
  -7   6  -1   16.42    1.93
  -7   6  -1   14.62    1.72
  -7   6  -1   10.19    1.17
   7  -6   1   26.09    2.42
   7  -6   1   21.10    2.21
   7  -6   1   20.03    2.22
   7  -6   1   19.07    1.93
   7  -6   1   16.88    1.84
  -7   6   0    8.16    1.30
  -7   6   0    7.06    1.28
  -7   6   0    6.40    1.07
   7  -6   0   12.79    1.64
   7  -6   0    9.60    1.51
   7  -6   0    8.47    1.26
   7  -6   0    8.67    1.20
   7  -6   0    9.27    1.60
  -7   6   1    5.85    1.15
  -7   6   1    5.76    1.24
  -7   6   1    4.75    1.06
   7  -6  -1   11.14    1.59
   7  -6  -1   10.67    1.57
   7  -6  -1    9.77    1.29
   7  -6  -1    7.03    1.10
   7  -6  -1    6.72    1.48
  -7   6   2   10.55    1.51
  -7   6   2   15.03    1.67
  -7   6   2    7.14    1.19
   7  -6  -2   16.47    1.88
   7  -6  -2   20.11    2.28
   7  -6  -2   13.19    1.69
  -7   6   3    6.42    1.26
  -7   6   3    5.22    1.17
   7  -6  -3   11.81    1.78
   7  -6  -3    9.71    1.55
   7  -6  -3    9.37    1.57
  -7   6   4    2.98    1.19
  -7   6   4    2.69    1.01
   7  -6  -4    2.89    1.47
   7  -6  -4    2.51    1.29
   7  -6  -4    6.05    1.51
  -7   6   5    1.72    1.14
  -7   6   5    0.82    0.99
   7  -6  -5    1.14    1.44
   7  -6  -5    1.00    1.33
   7  -6  -5    2.34    1.39
  -7   6   6    1.11    1.18
  -7   6   6   -0.46    0.93
   7  -6  -6    2.08    1.54
   7  -6  -6    0.95    1.32
   7  -6  -6    1.58    1.38
  -6   6 -11   24.58    2.43
  -6   6 -11   29.58    2.51
   6  -6  11   24.86    2.87
   6  -6  11   27.52    3.22
  -6   6 -10   39.34    2.53
  -6   6 -10   39.52    2.56
   6  -6  10   43.17    3.01
   6  -6  10   40.93    3.15
  -6   6  -9   25.00    2.52
  -6   6  -9   24.99    2.13
  -6   6  -9   27.95    2.17
   6  -6   9   30.77    2.70
   6  -6   9   29.08    2.75
   6  -6   9   31.11    2.42
  -6   6  -8   16.85    1.76
  -6   6  -8   16.10    1.80
  -6   6  -8   16.57    1.89
   6  -6   8   21.43    2.44
   6  -6   8   19.27    2.32
   6  -6   8   20.89    2.42
   6  -6   8   20.52    2.17
  -6   6  -7   10.77    1.25
  -6   6  -7    9.38    1.24
  -6   6  -7   10.49    1.34
   6  -6   7   14.44    1.60
   6  -6   7   11.98    1.58
   6  -6   7   14.11    1.59
   6  -6   7   15.83    1.94
  -6   6  -6    7.28    1.10
  -6   6  -6    6.50    1.11
  -6   6  -6    6.25    1.12
   6  -6   6    7.46    1.32
   6  -6   6    7.10    1.38
   6  -6   6    8.59    1.34
   6  -6   6    8.03    1.18
  -6   6  -5    6.64    1.09
  -6   6  -5    8.20    1.24
   6  -6   5    9.23    1.37
   6  -6   5    7.65    1.35
   6  -6   5    8.69    1.33
   6  -6   5    8.84    1.21
  -6   6  -4   19.22    1.74
  -6   6  -4   16.60    1.68
   6  -6   4   22.82    2.24
   6  -6   4   20.15    2.11
   6  -6   4   18.00    2.08
   6  -6   4   19.17    1.91
  -6   6  -3   23.62    1.82
  -6   6  -3   17.54    1.73
   6  -6   3   28.87    2.26
   6  -6   3   27.09    2.22
   6  -6   3   28.96    2.25
   6  -6   3   23.58    1.99
  -6   6  -2   22.08    1.84
  -6   6  -2   17.31    1.70
  -6   6  -2   16.34    1.48
   6  -6   2   29.83    2.30
   6  -6   2   27.41    2.14
   6  -6   2   25.09    2.17
   6  -6   2   26.03    1.96
   6  -6   2   23.59    2.13
  -6   6  -1   39.75    2.11
  -6   6  -1   32.87    1.95
  -6   6  -1   29.17    1.72
   6  -6   1   49.58    2.54
   6  -6   1   49.95    2.52
   6  -6   1   43.15    2.39
   6  -6   1   39.93    2.11
   6  -6   1   46.20    2.45
  -6   6   0   22.59    1.81
  -6   6   0   20.04    1.71
  -6   6   0   16.69    1.55
   6  -6   0   31.09    2.30
   6  -6   0   31.85    2.25
   6  -6   0   26.54    2.07
   6  -6   0   24.34    1.86
   6  -6   0   30.89    2.18
  -6   6   1    0.88    0.76
  -6   6   1    0.26    0.86
  -6   6   1    0.49    0.72
   6  -6  -1    2.25    1.07
   6  -6  -1    1.91    1.08
   6  -6  -1    2.28    0.91
   6  -6  -1    1.14    0.79
   6  -6  -1    3.45    1.12
  -6   6   2    3.00    0.96
  -6   6   2    0.92    0.80
   6  -6  -2    4.86    1.23
   6  -6  -2    2.55    1.08
   6  -6  -2    4.19    1.00
   6  -6  -2    2.97    0.85
   6  -6  -2    3.78    1.13
  -6   6   3    9.07    1.31
  -6   6   3    5.73    1.10
   6  -6  -3   10.78    1.50
   6  -6  -3   10.18    1.42
   6  -6  -3    9.53    1.49
   6  -6  -3   10.65    1.48
  -6   6   4    2.94    0.94
  -6   6   4    3.00    0.96
   6  -6  -4    5.00    1.34
   6  -6  -4    4.04    1.25
   6  -6  -4    3.50    1.28
  -6   6   5    1.41    0.98
  -6   6   5    0.97    0.90
   6  -6  -5    1.63    1.31
   6  -6  -5   -0.66    1.13
   6  -6  -5    2.09    1.28
  -6   6   6    3.40    1.15
  -6   6   6    1.86    0.98
   6  -6  -6    4.44    1.51
   6  -6  -6    3.15    1.38
   6  -6  -6    3.77    1.48
  -6   6   7    2.88    1.16
  -6   6   7    2.26    1.06
   6  -6  -7    5.47    1.62
   6  -6  -7    3.21    1.47
   6  -6  -7    2.71    1.50
  -6   6   8    0.63    1.14
  -6   6   8    1.21    1.04
   6  -6  -8    5.10    1.62
   6  -6  -8    2.09    1.50
   6  -6  -8    1.77    1.54
  -5   6 -13   15.20    1.82
  -5   6 -13   13.27    1.71
  -5   6 -13   15.56    1.95
   5  -6  13   14.54    1.91
   5  -6  13   15.20    2.06
  -5   6 -12   19.05    2.23
  -5   6 -12   21.79    2.36
   5  -6  12   18.64    2.00
   5  -6  12   26.03    2.87
  -5   6 -11   21.27    2.18
  -5   6 -11   21.81    2.24
   5  -6  11   26.86    2.61
   5  -6  11   28.15    2.86
   5  -6  11   29.66    2.42
  -5   6 -10   41.90    2.21
  -5   6 -10   40.08    2.31
  -5   6 -10   41.93    2.40
   5  -6  10   48.10    2.75
   5  -6  10   43.84    2.82
   5  -6  10   43.98    2.56
  -5   6  -9   32.02    1.99
  -5   6  -9   28.13    1.95
  -5   6  -9   31.22    2.10
   5  -6   9   36.70    2.50
   5  -6   9   38.98    2.59
   5  -6   9   36.26    2.35
  -5   6  -8    4.17    1.03
  -5   6  -8    3.36    0.92
  -5   6  -8    4.46    1.04
   5  -6   8    5.61    1.18
   5  -6   8    6.13    1.26
   5  -6   8    3.88    1.12
   5  -6   8    4.73    1.07
  -5   6  -7   10.04    1.18
  -5   6  -7    8.96    1.15
  -5   6  -7   11.11    1.27
   5  -6   7   10.37    1.39
   5  -6   7   11.43    1.42
   5  -6   7   10.57    1.30
   5  -6   7    8.43    1.20
  -5   6  -6   18.12    1.62
  -5   6  -6   16.81    1.55
  -5   6  -6   14.36    1.54
   5  -6   6   17.07    1.98
   5  -6   6   16.83    1.89
   5  -6   6   18.19    1.81
  -5   6  -5   15.87    1.62
  -5   6  -5   14.59    1.49
   5  -6   5   18.43    2.00
   5  -6   5   15.20    1.89
   5  -6   5   17.26    1.85
   5  -6   5   16.02    1.74
  -5   6  -4   21.26    1.69
  -5   6  -4   21.63    1.62
  -5   6  -4   18.29    2.08
   5  -6   4   26.80    2.04
   5  -6   4   24.94    2.00
   5  -6   4   25.74    1.96
   5  -6   4   25.35    1.88
  -5   6  -3   33.97    1.85
  -5   6  -3   30.69    1.78
  -5   6  -3   29.44    1.58
   5  -6   3   41.87    2.23
   5  -6   3   38.10    2.21
   5  -6   3   36.04    2.16
   5  -6   3   38.53    2.09
  -5   6  -2   41.95    1.96
  -5   6  -2   34.81    1.82
  -5   6  -2   35.01    1.67
   5  -6   2   50.34    2.32
   5  -6   2   47.03    2.26
   5  -6   2   46.34    2.24
   5  -6   2   46.05    2.19
   5  -6   2   45.56    2.22
  -5   6  -1   27.58    1.74
  -5   6  -1   23.33    1.65
  -5   6  -1   21.75    1.51
   5  -6   1   32.42    2.09
   5  -6   1   32.97    2.04
   5  -6   1   31.99    2.07
   5  -6   1   33.16    2.01
   5  -6   1   31.50    2.06
  -5   6   0   38.87    1.91
  -5   6   0   33.56    1.80
  -5   6   0   32.26    1.68
   5  -6   0   49.37    2.29
   5  -6   0   50.37    2.27
   5  -6   0   48.10    2.29
   5  -6   0   47.19    2.17
   5  -6   0   44.01    2.20
  -5   6   1   15.24    1.49
  -5   6   1   12.50    1.34
  -5   6   1   16.45    1.45
   5  -6  -1   21.99    1.99
   5  -6  -1   19.62    1.90
   5  -6  -1   20.77    1.98
   5  -6  -1   23.12    1.81
   5  -6  -1   21.96    1.87
  -5   6   2   -0.01    0.61
  -5   6   2    0.69    0.70
   5  -6  -2    0.87    0.95
   5  -6  -2   -0.01    0.88
   5  -6  -2    0.05    0.83
   5  -6  -2    0.07    0.73
   5  -6  -2    0.58    0.97
  -5   6   3    1.18    0.73
  -5   6   3    1.15    0.77
   5  -6  -3    1.16    0.93
   5  -6  -3    0.13    0.97
   5  -6  -3    0.79    0.84
   5  -6  -3   -0.17    0.73
   5  -6  -3    2.09    1.10
  -5   6   4   11.59    1.37
  -5   6   4    9.31    1.19
   5  -6  -4   17.17    2.02
   5  -6  -4   15.37    1.92
   5  -6  -4   10.64    1.17
   5  -6  -4   13.00    1.51
  -5   6   5    3.88    1.04
  -5   6   5    2.92    0.96
   5  -6  -5    7.72    1.40
   5  -6  -5    4.82    1.26
   5  -6  -5    4.36    1.32
  -5   6   6    5.01    1.15
  -5   6   6    5.11    1.12
   5  -6  -6   12.64    1.67
   5  -6  -6   10.29    1.53
   5  -6  -6    8.36    1.48
  -5   6   7    9.96    1.45
  -5   6   7    6.74    1.25
   5  -6  -7   20.65    2.52
   5  -6  -7   14.41    1.76
   5  -6  -7   12.08    1.71
  -5   6   8    6.24    1.31
  -5   6   8    4.87    1.24
   5  -6  -8   11.85    1.75
   5  -6  -8    7.65    1.56
   5  -6  -8    9.14    1.65
  -5   6   9    2.09    1.14
  -5   6   9    0.29    1.08
   5  -6  -9    4.89    1.55
   5  -6  -9    2.32    1.41
   5  -6  -9    2.29    1.42
  -4   6 -14   22.80    2.25
  -4   6 -14   19.08    2.29
  -4   6 -14   18.33    2.12
   4  -6  14   22.53    2.70
   4  -6  14   29.45    3.14
  -4   6 -13   23.82    2.13
  -4   6 -13   20.17    2.21
  -4   6 -13   21.00    2.50
   4  -6  13   23.02    2.48
   4  -6  13   25.27    2.80
   4  -6  13   25.42    2.39
  -4   6 -12   19.85    1.99
  -4   6 -12   16.55    1.78
   4  -6  12   23.49    2.32
   4  -6  12   27.80    2.69
   4  -6  12   24.77    2.19
  -4   6 -11   11.23    1.31
  -4   6 -11   10.19    1.36
  -4   6 -11    9.97    1.45
   4  -6  11   14.25    1.53
   4  -6  11   12.19    1.56
   4  -6  11   15.22    1.90
  -4   6 -10   10.72    1.27
  -4   6 -10    9.19    1.18
  -4   6 -10   10.59    1.34
   4  -6  10   13.51    1.48
   4  -6  10   10.79    1.40
   4  -6  10   11.06    1.33
  -4   6  -9   44.79    2.11
  -4   6  -9   39.05    1.97
  -4   6  -9   38.70    2.08
   4  -6   9   47.24    2.38
   4  -6   9   43.29    2.39
   4  -6   9   44.09    2.27
  -4   6  -8   26.99    1.80
  -4   6  -8   20.97    1.59
  -4   6  -8   23.36    1.75
   4  -6   8   30.22    2.08
   4  -6   8   27.96    2.09
   4  -6   8   26.37    2.03
   4  -6   8   27.25    1.94
  -4   6  -7    9.97    1.15
  -4   6  -7    8.47    1.03
  -4   6  -7    9.59    1.16
   4  -6   7   10.56    1.24
   4  -6   7   10.42    1.30
   4  -6   7    9.24    1.19
   4  -6   7    9.31    1.21
  -4   6  -6   34.04    1.79
  -4   6  -6   27.00    1.64
  -4   6  -6   32.19    1.76
   4  -6   6   39.14    2.16
   4  -6   6   37.13    2.08
   4  -6   6   35.28    2.05
   4  -6   6   33.41    1.99
  -4   6  -5   38.50    1.79
  -4   6  -5   37.08    1.76
  -4   6  -5   38.41    1.55
   4  -6   5   42.24    2.11
   4  -6   5   42.10    2.07
   4  -6   5   39.00    2.06
   4  -6   5   42.58    2.08
  -4   6  -4   19.54    1.51
  -4   6  -4   19.86    1.43
  -4   6  -4   18.06    1.35
   4  -6   4   22.52    1.81
   4  -6   4   22.89    1.82
   4  -6   4   21.42    1.79
   4  -6   4   23.58    1.80
  -4   6  -3   26.75    1.57
  -4   6  -3   23.85    1.49
  -4   6  -3   24.42    1.44
   4  -6   3   32.19    1.93
   4  -6   3   28.76    1.89
   4  -6   3   28.38    1.96
   4  -6   3   29.34    1.88
  -4   6  -2   37.11    1.71
  -4   6  -2   34.02    1.64
  -4   6  -2   31.56    1.55
   4  -6   2   43.40    2.06
   4  -6   2   43.19    2.00
   4  -6   2   43.03    2.09
   4  -6   2   42.49    2.00
   4  -6   2   38.95    1.98
  -4   6  -1   29.51    1.59
  -4   6  -1   25.73    1.54
  -4   6  -1   27.48    1.50
   4  -6   1   34.55    2.00
   4  -6   1   33.17    1.90
   4  -6   1   36.66    1.97
   4  -6   1   33.16    1.85
   4  -6   1   33.17    1.90
  -4   6   0   22.60    1.51
  -4   6   0   19.36    1.46
  -4   6   0   20.09    1.46
   4  -6   0   28.81    1.87
   4  -6   0   25.96    1.77
   4  -6   0   29.57    1.89
   4  -6   0   26.37    1.73
   4  -6   0   25.77    1.80
  -4   6   1   24.24    1.55
  -4   6   1   16.53    1.51
  -4   6   1   21.36    1.51
   4  -6  -1   31.86    1.85
   4  -6  -1   29.47    1.85
   4  -6  -1   28.41    1.81
   4  -6  -1   27.84    1.69
   4  -6  -1   27.21    1.83
  -4   6   2   20.73    1.53
  -4   6   2   20.46    1.52
   4  -6  -2   29.48    1.93
   4  -6  -2   26.45    1.89
   4  -6  -2   28.57    1.82
   4  -6  -2   25.37    1.65
   4  -6  -2   22.61    1.79
  -4   6   3    7.18    0.99
  -4   6   3    5.62    0.95
   4  -6  -3    8.88    1.23
   4  -6  -3    8.56    1.21
   4  -6  -3    9.54    1.10
   4  -6  -3    7.04    0.94
   4  -6  -3    7.88    1.25
  -4   6   4   11.52    1.24
  -4   6   4    7.79    1.06
   4  -6  -4   17.86    1.93
   4  -6  -4   14.67    1.48
   4  -6  -4   17.19    1.71
   4  -6  -4   14.84    1.49
   4  -6  -4   10.83    1.34
  -4   6   5   18.64    1.72
  -4   6   5   17.47    1.64
   4  -6  -5   33.57    2.27
   4  -6  -5   29.98    2.19
   4  -6  -5   24.70    1.82
   4  -6  -5   23.54    1.59
   4  -6  -5   23.86    1.99
  -4   6   6    2.71    0.97
  -4   6   6    1.83    0.89
   4  -6  -6    5.59    1.22
   4  -6  -6    5.72    1.24
   4  -6  -6    5.62    1.25
  -4   6   7    2.56    0.97
  -4   6   7    2.02    0.94
   4  -6  -7    5.30    1.33
   4  -6  -7    3.37    1.22
   4  -6  -7    4.73    1.26
  -4   6   8    5.55    1.12
  -4   6   8    3.26    1.09
   4  -6  -8    7.43    1.46
   4  -6  -8    8.90    1.48
   4  -6  -8    8.23    1.44
  -4   6   9    2.83    1.02
  -4   6   9    0.60    1.08
   4  -6  -9    2.90    1.40
   4  -6  -9    3.81    1.39
   4  -6  -9    2.94    1.30
  -4   6  10    0.48    0.97
  -4   6  10    0.11    1.14
   4  -6 -10   -0.43    1.41
   4  -6 -10   -0.47    1.34
   4  -6 -10   -0.09    1.24
  -3   6 -15   18.68    2.70
  -3   6 -15   21.02    2.35
  -3   6 -15   18.25    2.16
   3  -6  15   29.37    2.59
   3  -6  15   31.79    2.97
   3  -6  15   27.53    2.59
  -3   6 -14   28.86    2.10
  -3   6 -14   21.44    2.23
  -3   6 -14   27.49    2.63
   3  -6  14   32.76    2.45
   3  -6  14   33.13    2.55
   3  -6  14   40.93    2.95
   3  -6  14   33.88    2.44
  -3   6 -13   17.98    1.83
  -3   6 -13   15.43    1.89
  -3   6 -13   12.74    1.75
   3  -6  13   20.86    2.09
   3  -6  13   21.28    2.13
   3  -6  13   25.05    2.54
   3  -6  13   22.69    2.11
  -3   6 -12    8.83    1.26
  -3   6 -12    9.12    1.24
  -3   6 -12    6.43    1.32
   3  -6  12    8.42    1.15
   3  -6  12    9.60    1.27
   3  -6  12    8.66    1.35
   3  -6  12   10.47    1.30
  -3   6 -11    3.71    1.04
  -3   6 -11    4.33    0.96
  -3   6 -11    4.23    1.12
   3  -6  11    2.60    0.92
   3  -6  11    5.02    1.12
   3  -6  11    5.10    1.20
   3  -6  11    4.78    1.03
  -3   6 -10    0.93    0.88
  -3   6 -10    1.79    0.77
  -3   6 -10    0.27    0.86
   3  -6  10   -0.55    0.89
   3  -6  10    2.11    0.95
   3  -6  10    1.70    0.97
   3  -6  10    0.87    0.87
  -3   6  -9   15.09    1.69
  -3   6  -9   15.28    1.43
  -3   6  -9   14.01    1.56
   3  -6   9   16.46    1.74
   3  -6   9   15.70    1.87
   3  -6   9   14.62    1.71
  -3   6  -8   21.04    1.71
  -3   6  -8   18.00    1.42
  -3   6  -8   20.43    1.59
   3  -6   8   19.23    1.78
   3  -6   8   19.27    1.79
   3  -6   8   19.60    1.85
   3  -6   8   18.62    1.78
  -3   6  -7   48.36    1.99
  -3   6  -7   42.49    1.76
  -3   6  -7   44.92    1.93
   3  -6   7   55.64    2.22
   3  -6   7   48.05    2.10
   3  -6   7   50.62    2.17
   3  -6   7   47.49    2.16
  -3   6  -6   56.34    2.05
  -3   6  -6   50.06    1.84
  -3   6  -6   55.35    1.98
  -3   6  -6   55.32    1.62
   3  -6   6   66.26    2.28
   3  -6   6   57.62    2.15
   3  -6   6   60.57    2.29
   3  -6   6   59.58    2.24
  -3   6  -5  107.12    2.52
  -3   6  -5   98.43    2.42
  -3   6  -5  101.49    2.08
   3  -6   5  124.09    2.77
   3  -6   5  114.98    2.63
   3  -6   5  115.35    2.86
   3  -6   5  113.87    2.76
  -3   6  -4  111.86    2.52
  -3   6  -4  102.24    2.39
  -3   6  -4  103.13    2.14
   3  -6   4  130.33    2.79
   3  -6   4  122.75    2.65
   3  -6   4  124.03    2.84
   3  -6   4  117.06    2.72
  -3   6  -3   11.42    1.22
  -3   6  -3    9.95    1.13
  -3   6  -3   10.65    1.18
   3  -6   3   13.53    1.49
   3  -6   3    9.59    1.06
   3  -6   3   10.41    1.10
   3  -6   3    8.29    1.00
  -3   6  -2   17.80    1.31
  -3   6  -2   14.04    1.20
  -3   6  -2   16.10    1.31
   3  -6   2   17.72    1.56
   3  -6   2   15.42    1.51
   3  -6   2   18.72    1.60
   3  -6   2   18.19    1.52
  -3   6  -1   32.23    1.56
  -3   6  -1   27.21    1.41
  -3   6  -1   29.37    1.53
   3  -6   1   36.91    1.82
   3  -6   1   34.78    1.76
   3  -6   1   34.30    1.79
   3  -6   1   33.74    1.70
   3  -6   1   31.92    1.76
  -3   6   0   31.56    1.57
  -3   6   0   27.53    1.44
  -3   6   0   27.85    1.53
   3  -6   0   36.19    1.85
   3  -6   0   35.70    1.78
   3  -6   0   33.13    1.76
   3  -6   0   31.90    1.70
   3  -6   0   31.07    1.76
  -3   6   1   57.03    1.97
  -3   6   1   47.16    1.75
  -3   6   1   51.17    1.91
   3  -6  -1   69.88    2.34
   3  -6  -1   71.70    2.22
   3  -6  -1   61.07    2.12
   3  -6  -1   62.62    2.10
   3  -6  -1   61.79    2.11
  -3   6   2   15.23    1.41
  -3   6   2   12.93    1.40
   3  -6  -2   18.41    1.70
   3  -6  -2   18.02    1.65
   3  -6  -2   19.23    1.63
   3  -6  -2   16.72    1.51
   3  -6  -2   15.91    1.63
  -3   6   3   14.56    1.45
  -3   6   3   15.03    1.49
   3  -6  -3   23.21    1.77
   3  -6  -3   22.38    1.78
   3  -6  -3   22.39    1.67
   3  -6  -3   19.32    1.53
   3  -6  -3   18.61    1.67
  -3   6   4   19.10    1.57
  -3   6   4   17.87    1.60
   3  -6  -4   31.20    2.03
   3  -6  -4   27.87    1.92
   3  -6  -4   28.87    1.86
   3  -6  -4   26.02    1.62
   3  -6  -4   28.77    1.83
  -3   6   5   14.91    1.51
  -3   6   5    9.50    1.18
   3  -6  -5   22.70    1.95
   3  -6  -5   22.78    1.89
   3  -6  -5   21.15    1.78
   3  -6  -5   16.65    1.46
   3  -6  -5   19.64    1.78
  -3   6   6   12.43    1.48
  -3   6   6    7.42    1.11
   3  -6  -6   16.99    1.99
   3  -6  -6   17.44    1.89
   3  -6  -6   17.74    1.78
   3  -6  -6   12.57    1.40
   3  -6  -6   16.29    1.72
  -3   6   7    1.25    0.75
  -3   6   7    1.97    0.90
   3  -6  -7    0.60    1.02
   3  -6  -7    3.07    1.10
   3  -6  -7    2.21    0.99
  -3   6   8    0.45    0.74
  -3   6   8    1.04    0.95
   3  -6  -8    0.07    1.16
   3  -6  -8    0.87    1.12
   3  -6  -8    0.75    1.00
  -3   6   9    1.28    0.80
  -3   6   9    0.01    1.04
   3  -6  -9   -0.18    1.27
   3  -6  -9    0.01    1.23
   3  -6  -9    0.31    1.30
  -3   6  10    0.18    1.16
   3  -6 -10   -1.99    1.40
   3  -6 -10    0.58    1.27
  -3   6  11   -0.69    1.30
   3  -6 -11   -0.95    1.57
   3  -6 -11    2.00    1.48
  -2   6 -16    5.05    1.53
  -2   6 -16    7.22    1.89
   2  -6  16    9.60    1.65
   2  -6  16    7.77    1.52
  -2   6 -15    4.99    1.38
  -2   6 -15    5.31    1.71
   2  -6  15    6.11    1.37
   2  -6  15   10.46    1.51
   2  -6  15    8.53    1.26
  -2   6 -14   12.72    1.92
  -2   6 -14    9.24    1.36
  -2   6 -14   10.74    1.70
   2  -6  14   12.27    1.46
   2  -6  14   13.79    1.60
   2  -6  14   16.06    1.94
  -2   6 -13   15.71    1.93
  -2   6 -13   13.00    1.59
  -2   6 -13   11.51    1.37
  -2   6 -13   10.03    1.55
   2  -6  13    9.87    1.26
   2  -6  13   15.59    1.84
   2  -6  13   14.51    1.54
   2  -6  13   10.26    1.30
  -2   6 -12    3.60    1.04
  -2   6 -12    3.71    0.95
  -2   6 -12    2.80    1.18
   2  -6  12    3.09    1.02
   2  -6  12    2.51    0.96
   2  -6  12    3.25    1.11
   2  -6  12    1.87    0.89
  -2   6 -11    5.95    1.10
  -2   6 -11    5.89    0.93
  -2   6 -11    4.45    1.11
   2  -6  11    4.97    0.97
   2  -6  11    6.84    1.07
   2  -6  11    4.99    1.12
   2  -6  11    6.59    1.09
  -2   6 -10    1.19    0.91
  -2   6 -10    1.83    0.72
  -2   6 -10    2.57    0.97
   2  -6  10    1.26    0.77
   2  -6  10    1.98    0.89
   2  -6  10    2.48    0.98
   2  -6  10    2.02    0.89
  -2   6  -9   49.58    2.12
  -2   6  -9   44.72    1.80
  -2   6  -9   46.89    2.05
   2  -6   9   42.80    1.75
   2  -6   9   52.36    2.11
   2  -6   9   51.25    2.30
   2  -6   9   48.72    2.18
  -2   6  -8   94.66    2.56
  -2   6  -8   86.24    2.20
  -2   6  -8   86.68    2.44
   2  -6   8   80.88    1.96
   2  -6   8  104.42    2.54
   2  -6   8   98.42    2.75
   2  -6   8   94.04    2.65
  -2   6  -7   45.38    1.96
  -2   6  -7   37.80    1.58
  -2   6  -7   39.57    1.79
  -2   6  -7   41.30    1.45
   2  -6   7   44.47    1.91
   2  -6   7   41.41    1.84
   2  -6   7   41.19    2.11
   2  -6   7   41.90    2.02
  -2   6  -6   63.60    2.08
  -2   6  -6   54.97    1.73
  -2   6  -6   58.42    1.95
  -2   6  -6   62.09    1.69
   2  -6   6   73.50    2.16
   2  -6   6   65.28    2.04
   2  -6   6   67.54    2.31
   2  -6   6   65.40    2.20
  -2   6  -5   59.37    1.99
  -2   6  -5   52.26    1.79
  -2   6  -5   57.81    1.70
   2  -6   5   64.84    2.05
   2  -6   5   59.41    1.90
   2  -6   5   60.68    2.15
   2  -6   5   60.51    2.10
  -2   6  -4   94.85    2.31
  -2   6  -4   83.99    2.09
  -2   6  -4   87.07    2.00
   2  -6   4  104.98    2.41
   2  -6   4   97.99    2.22
   2  -6   4   97.43    2.45
   2  -6   4   94.28    2.39
  -2   6  -3   76.84    2.08
  -2   6  -3   70.77    1.89
  -2   6  -3   73.07    1.93
   2  -6   3   90.05    2.26
   2  -6   3   85.04    2.08
   2  -6   3   81.21    2.24
   2  -6   3   80.91    2.20
  -2   6  -2   21.73    1.37
  -2   6  -2   18.99    1.17
  -2   6  -2   19.94    1.34
   2  -6   2   23.85    1.50
   2  -6   2   22.12    1.41
   2  -6   2   23.50    1.50
   2  -6   2   24.49    1.54
  -2   6  -1   26.14    1.43
  -2   6  -1   24.32    1.28
  -2   6  -1   26.76    1.47
   2  -6   1   34.39    1.68
   2  -6   1   29.74    1.53
   2  -6   1   29.84    1.59
   2  -6   1   29.49    1.57
  -2   6   0   24.90    1.44
  -2   6   0   23.44    1.27
  -2   6   0   26.53    1.54
   2  -6   0   32.37    1.73
   2  -6   0   31.35    1.60
   2  -6   0   30.62    1.66
   2  -6   0   29.57    1.57
   2  -6   0   25.64    1.58
  -2   6   1   63.46    2.00
  -2   6   1   57.40    1.71
  -2   6   1   59.33    2.02
   2  -6  -1   84.53    2.38
   2  -6  -1   79.05    2.13
   2  -6  -1   72.90    2.15
   2  -6  -1   70.74    2.09
   2  -6  -1   72.53    2.07
  -2   6   2   91.38    2.31
  -2   6   2   75.64    1.94
  -2   6   2   80.41    2.30
   2  -6  -2  111.89    2.72
   2  -6  -2  116.25    2.55
   2  -6  -2  103.51    2.50
   2  -6  -2   96.70    2.37
   2  -6  -2  104.78    2.35
  -2   6   3   14.32    1.35
  -2   6   3   15.85    1.50
   2  -6  -3   21.28    1.78
   2  -6  -3   23.55    1.66
   2  -6  -3   19.24    1.58
   2  -6  -3   17.53    1.56
   2  -6  -3   21.09    1.51
  -2   6   4    6.02    0.90
  -2   6   4    4.65    0.92
   2  -6  -4    8.29    1.13
   2  -6  -4    7.77    1.08
   2  -6  -4    7.26    0.99
   2  -6  -4    6.33    0.94
   2  -6  -4    7.80    1.01
  -2   6   5   10.60    1.30
  -2   6   5    6.40    1.01
   2  -6  -5   10.52    1.28
   2  -6  -5   11.57    1.22
   2  -6  -5    9.49    1.13
   2  -6  -5    8.35    1.02
   2  -6  -5   13.52    1.46
  -2   6   6    0.77    0.66
  -2   6   6    0.59    0.79
   2  -6  -6    1.35    0.92
   2  -6  -6    0.65    0.90
   2  -6  -6    1.06    0.87
   2  -6  -6    0.26    0.72
   2  -6  -6    1.38    0.85
  -2   6   7    0.25    0.66
  -2   6   7    0.20    0.86
   2  -6  -7   -0.50    0.96
   2  -6  -7    0.45    0.94
   2  -6  -7   -0.55    0.80
   2  -6  -7    0.57    0.74
   2  -6  -7    1.09    1.02
  -2   6   8    4.16    0.90
  -2   6   8    2.69    1.07
   2  -6  -8    3.49    1.25
   2  -6  -8    3.75    1.25
  -2   6   9    3.68    1.23
   2  -6  -9    3.13    1.40
   2  -6  -9    4.31    1.37
  -2   6  10    3.34    1.37
   2  -6 -10    1.56    1.43
   2  -6 -10    1.96    1.37
  -2   6  11   -0.58    1.39
   2  -6 -11    2.53    1.68
   2  -6 -11    3.06    1.56
  -1   6 -16    2.35    1.38
  -1   6 -16    0.72    1.55
   1  -6  16    3.69    1.43
  -1   6 -15    1.61    1.14
  -1   6 -15    1.15    1.17
  -1   6 -15   -0.36    1.38
   1  -6  15    1.69    1.29
   1  -6  15    2.34    1.11
  -1   6 -14    1.15    1.08
  -1   6 -14    0.69    0.97
  -1   6 -14    1.04    1.29
   1  -6  14    0.20    1.05
   1  -6  14    0.42    1.01
   1  -6  14    1.40    0.89
  -1   6 -13    4.12    1.14
  -1   6 -13    2.57    0.95
  -1   6 -13    3.05    1.25
   1  -6  13    1.24    1.06
   1  -6  13    3.07    1.09
   1  -6  13    1.44    0.88
  -1   6 -12    9.57    1.26
  -1   6 -12    6.95    1.05
  -1   6 -12   10.19    1.47
   1  -6  12    6.36    1.13
   1  -6  12    6.47    1.19
   1  -6  12    6.26    1.08
  -1   6 -11   23.23    1.87
  -1   6 -11   20.78    1.56
  -1   6 -11   21.86    1.96
   1  -6  11   12.71    1.23
   1  -6  11   19.55    1.61
   1  -6  11   18.10    2.00
   1  -6  11   19.83    1.83
  -1   6 -10   15.60    1.69
  -1   6 -10   13.54    1.34
  -1   6 -10   14.45    1.71
   1  -6  10   11.30    1.12
   1  -6  10   12.67    1.49
   1  -6  10   13.94    1.34
   1  -6  10   13.18    1.28
  -1   6  -9   22.85    1.79
  -1   6  -9   21.71    1.39
  -1   6  -9   23.23    1.71
   1  -6   9   22.49    1.54
   1  -6   9   23.08    1.60
   1  -6   9   25.57    1.98
   1  -6   9   27.82    1.82
  -1   6  -8  105.25    2.63
  -1   6  -8   97.42    2.17
  -1   6  -8   96.98    2.51
  -1   6  -8  105.13    2.08
   1  -6   8   95.92    2.13
   1  -6   8  120.94    2.46
   1  -6   8  111.14    2.74
   1  -6   8  112.91    2.72
  -1   6  -7  161.40    3.05
  -1   6  -7  136.05    2.38
  -1   6  -7  146.99    2.83
  -1   6  -7  147.63    2.41
   1  -6   7  172.75    2.78
   1  -6   7  159.57    3.05
   1  -6   7  159.25    3.03
  -1   6  -6   88.55    2.36
  -1   6  -6   73.02    1.76
  -1   6  -6   83.74    2.16
  -1   6  -6   83.32    1.93
   1  -6   6   96.18    2.20
   1  -6   6   84.88    2.01
   1  -6   6   88.51    2.39
   1  -6   6   86.80    2.34
  -1   6  -5   88.12    2.28
  -1   6  -5   71.41    1.69
  -1   6  -5   82.89    2.05
  -1   6  -5   84.01    1.98
   1  -6   5   93.53    2.19
   1  -6   5   84.74    1.94
   1  -6   5   85.04    2.29
   1  -6   5   86.54    2.28
  -1   6  -4  151.71    2.77
  -1   6  -4  146.54    2.52
  -1   6  -4  147.38    2.51
   1  -6   4  169.97    2.76
   1  -6   4  161.38    2.43
   1  -6   4  146.70    2.79
   1  -6   4  147.02    2.81
  -1   6  -3   21.17    1.36
  -1   6  -3   20.04    1.14
  -1   6  -3   22.46    1.35
   1  -6   3   23.41    1.48
   1  -6   3   23.07    1.27
   1  -6   3   18.90    1.47
   1  -6   3   18.80    1.45
  -1   6  -2    6.77    0.90
  -1   6  -2    4.84    0.64
  -1   6  -2    5.44    0.81
   1  -6   2    6.13    0.84
   1  -6   2    5.75    0.74
   1  -6   2    5.84    0.84
   1  -6   2    5.53    0.79
  -1   6  -1   39.19    1.59
  -1   6  -1   33.00    1.28
  -1   6  -1   34.82    1.60
   1  -6   1   42.14    1.71
   1  -6   1   43.33    1.49
   1  -6   1   38.32    1.65
   1  -6   1   38.95    1.69
  -1   6   0   19.58    1.31
  -1   6   0   19.40    1.09
  -1   6   0   18.80    1.44
   1  -6   0   25.13    1.56
   1  -6   0   25.54    1.32
   1  -6   0   22.15    1.44
   1  -6   0   23.38    1.49
  -1   6   1   16.44    1.31
  -1   6   1   15.78    1.01
  -1   6   1   14.01    1.40
   1  -6  -1   20.37    1.59
   1  -6  -1   22.04    1.34
   1  -6  -1   18.38    1.46
   1  -6  -1   18.09    1.43
   1  -6  -1   18.97    1.29
  -1   6   2   39.91    1.65
  -1   6   2   32.72    1.26
  -1   6   2   34.16    1.77
   1  -6  -2   45.13    1.99
   1  -6  -2   49.90    1.77
   1  -6  -2   39.64    1.87
   1  -6  -2   41.53    1.82
   1  -6  -2   40.03    1.55
  -1   6   3   51.99    1.80
  -1   6   3   40.31    1.41
  -1   6   3   43.49    1.89
   1  -6  -3   58.20    2.22
   1  -6  -3   59.93    1.97
   1  -6  -3   50.30    2.02
   1  -6  -3   47.84    1.93
   1  -6  -3   53.28    1.69
  -1   6   4   20.85    1.41
  -1   6   4   21.48    1.63
   1  -6  -4   23.63    1.80
   1  -6  -4   23.16    1.63
   1  -6  -4   20.71    1.75
   1  -6  -4   17.88    1.59
   1  -6  -4   22.76    1.41
  -1   6   5   14.72    1.37
  -1   6   5   13.80    1.61
   1  -6  -5   12.76    1.35
   1  -6  -5   14.58    1.62
   1  -6  -5   11.65    1.26
   1  -6  -5    9.61    1.14
  -1   6   6   30.98    1.65
  -1   6   6   22.34    1.82
   1  -6  -6   26.97    2.09
   1  -6  -6   31.09    2.01
   1  -6  -6   25.76    1.98
   1  -6  -6   26.04    1.79
  -1   6   7    1.14    0.69
  -1   6   7    0.84    0.94
   1  -6  -7    0.69    1.02
   1  -6  -7    1.28    1.00
   1  -6  -7    1.43    0.94
   1  -6  -7   -0.24    0.76
  -1   6   8   -0.57    1.00
   1  -6  -8   -0.97    0.98
   1  -6  -8   -1.49    0.98
   1  -6  -8   -0.82    0.89
   1  -6  -8   -1.70    0.74
  -1   6   9    5.05    1.37
   1  -6  -9    7.54    1.49
   1  -6  -9    8.58    1.49
  -1   6  10    5.48    1.53
   1  -6 -10    9.79    1.64
   1  -6 -10   11.22    1.63
  -1   6  11    1.13    1.51
   1  -6 -11    2.27    1.51
   1  -6 -11    5.09    1.48
   0   6 -16    0.44    1.16
   0   6 -16   -1.06    1.13
   0   6 -16   -0.69    1.32
   0  -6  16   -1.62    1.34
   0   6 -15    2.51    1.19
   0   6 -15   -1.72    0.97
   0   6 -15   -0.97    1.28
   0  -6  15   -1.59    1.16
   0   6 -14    5.88    1.24
   0   6 -14    3.39    1.08
   0   6 -14    5.11    1.37
   0  -6  14    2.56    1.18
   0  -6  14    4.62    1.48
   0   6 -13   38.41    2.31
   0   6 -13   26.89    1.89
   0   6 -13   28.50    2.31
   0  -6  13   24.56    2.22
   0  -6  13   31.62    2.19
   0  -6  13   30.83    1.99
   0   6 -12   32.86    2.19
   0   6 -12   24.48    1.76
   0   6 -12   27.04    2.19
   0  -6  12   21.87    2.04
   0  -6  12   25.55    2.11
   0  -6  12   25.93    1.90
   0   6 -11   79.88    2.65
   0   6 -11   69.19    2.15
   0   6 -11   66.98    2.57
   0  -6  11   69.38    2.45
   0  -6  11   74.24    2.57
   0  -6  11   72.63    2.45
   0   6 -10   92.05    2.67
   0   6 -10   81.14    2.12
   0   6 -10   84.42    2.67
   0   6 -10   85.37    2.19
   0  -6  10   80.64    2.37
   0  -6  10   92.38    2.67
   0  -6  10   87.84    2.52
   0   6  -9   52.95    2.15
   0   6  -9   50.33    1.66
   0   6  -9   48.28    2.14
   0   6  -9   50.84    1.70
   0  -6   9   49.97    1.89
   0  -6   9   56.21    1.73
   0  -6   9   54.68    2.16
   0  -6   9   53.69    2.09
   0   6  -8   47.99    2.02
   0   6  -8   44.25    1.45
   0   6  -8   43.59    1.92
   0   6  -8   45.89    1.63
   0  -6   8   45.19    1.66
   0  -6   8   55.36    1.67
   0  -6   8   50.99    2.01
   0  -6   8   48.95    1.98
   0   6  -7   30.14    1.73
   0   6  -7   26.37    1.15
   0   6  -7   28.18    1.58
   0   6  -7   28.13    1.39
   0  -6   7   26.51    1.32
   0  -6   7   33.29    1.42
   0  -6   7   29.15    1.66
   0  -6   7   28.01    1.64
   0   6  -6   29.77    1.64
   0   6  -6   26.78    1.07
   0   6  -6   28.22    1.48
   0   6  -6   28.53    1.42
   0  -6   6   25.70    1.20
   0  -6   6   33.85    1.44
   0  -6   6   30.63    1.62
   0  -6   6   33.49    1.68
   0   6  -5   -0.29    0.67
   0   6  -5    0.84    0.41
   0   6  -5    1.15    0.59
   0   6  -5   -0.13    0.58
   0  -6   5   -0.06    0.43
   0  -6   5   -0.09    0.59
   0  -6   5    0.03    0.61
   0  -6   5    0.33    0.65
   0   6  -4   88.44    2.24
   0   6  -4   83.45    1.89
   0   6  -4   84.29    2.05
   0  -6   4   93.54    2.08
   0  -6   4   82.35    1.71
   0  -6   4   81.60    2.17
   0  -6   4   82.97    2.19
   0   6  -3  347.67    3.97
   0   6  -3  322.47    3.32
   0   6  -3  332.75    3.78
   0  -6   3  385.51    3.82
   0  -6   3  363.99    3.09
   0  -6   3  325.88    3.88
   0  -6   3  328.06    3.91
   0   6  -2   42.62    1.68
   0   6  -2   39.97    1.30
   0   6  -2   39.38    1.65
   0  -6   2   44.88    1.70
   0  -6   2   44.71    1.35
   0  -6   2   37.35    1.69
   0  -6   2   38.99    1.71
   0   6  -1   15.58    1.27
   0   6  -1   14.31    0.92
   0   6  -1   13.26    1.30
   0  -6   1   18.35    1.40
   0  -6   1   16.99    1.08
   0  -6   1   15.21    1.42
   0  -6   1   14.25    1.35
   0   6   0   48.56    1.72
   0   6   0   43.45    1.24
   0   6   0   43.29    1.81
   0  -6   0   54.84    1.88
   0  -6   0   55.95    1.51
   0  -6   0   49.10    1.91
   0  -6   0   45.64    1.78
   0   6   1   15.35    1.25
   0   6   1   12.54    0.85
   0   6   1   12.93    1.40
   0  -6  -1   15.60    1.46
   0  -6  -1   17.76    1.19
   0  -6  -1   13.75    1.47
   0  -6  -1   12.94    1.37
   0   6   2   17.29    1.30
   0   6   2   12.37    0.85
   0   6   2   14.52    1.44
   0  -6  -2   16.19    1.52
   0  -6  -2   16.89    1.26
   0  -6  -2   15.62    1.55
   0  -6  -2   15.01    1.40
   0   6   3   14.81    1.30
   0   6   3   12.36    1.48
   0  -6  -3   14.62    1.59
   0  -6  -3   17.55    1.37
   0  -6  -3   13.07    1.57
   0  -6  -3   12.45    1.42
   0   6   4   30.50    1.55
   0   6   4   27.14    1.80
   0  -6  -4   30.16    1.93
   0  -6  -4   34.41    1.72
   0  -6  -4   26.44    1.85
   0  -6  -4   25.56    1.70
   0   6   5   14.05    1.62
   0   6   5    8.47    0.94
   0   6   5   10.40    1.22
   0  -6  -5   10.46    1.33
   0  -6  -5   10.61    1.15
   0  -6  -5    8.81    1.19
   0  -6  -5    9.71    1.15
   0   6   6   16.27    1.51
   0   6   6   15.71    1.78
   0  -6  -6   16.17    1.97
   0  -6  -6   16.53    1.81
   0  -6  -6   12.79    1.34
   0  -6  -6   11.64    1.22
   0   6   7   39.92    2.27
   0  -6  -7   53.99    2.60
   0  -6  -7   57.15    2.38
   0  -6  -7   47.36    2.33
   0  -6  -7   42.21    2.12
   0   6   8    9.42    1.46
   0  -6  -8   12.09    1.52
   0  -6  -8   16.83    1.89
   0  -6  -8   10.31    1.33
   0  -6  -8    6.89    1.09
   0   6   9    1.77    1.30
   0  -6  -9    3.89    1.28
   0  -6  -9    4.53    1.19
   0  -6  -9    1.55    1.03
   0  -6  -9    1.96    0.94
   0   6  10   -0.23    1.32
   0  -6 -10    5.59    1.48
   0  -6 -10    6.38    1.39
   0  -6 -10    3.62    1.34
   0   6  11   -0.75    1.36
   0  -6 -11    4.03    1.53
   0  -6 -11    5.21    1.44
   1   6 -16    5.00    1.41
   1   6 -16    2.84    1.48
  -1  -6  16    1.40    1.52
   1   6 -15    0.55    1.17
   1   6 -15    1.27    1.37
  -1  -6  15   -0.23    1.17
   1   6 -14    0.76    1.15
   1   6 -14   -0.78    1.61
   1   6 -14    2.21    1.24
  -1  -6  14   -1.43    1.07
   1   6 -13   24.53    2.23
   1   6 -13   16.39    1.77
   1   6 -13   18.55    2.14
  -1  -6  13   18.58    2.18
   1   6 -12   85.98    2.91
   1   6 -12   65.41    2.81
   1   6 -12   67.68    2.71
  -1  -6  12   74.64    2.71
  -1  -6  12   89.39    2.73
  -1  -6  12   77.00    2.44
   1   6 -11   61.37    2.56
   1   6 -11   50.85    2.47
   1   6 -11   50.02    2.39
   1   6 -11   54.59    1.95
  -1  -6  11   58.12    2.33
  -1  -6  11   68.99    2.46
  -1  -6  11   61.48    2.20
   1   6 -10   89.47    2.73
   1   6 -10   78.97    2.84
   1   6 -10   76.26    2.58
   1   6 -10   79.03    2.17
  -1  -6  10   82.27    2.41
  -1  -6  10   93.50    2.56
  -1  -6  10   90.59    2.46
   1   6  -9   87.75    2.62
   1   6  -9   80.24    2.47
   1   6  -9   82.18    2.13
  -1  -6   9   70.29    2.15
  -1  -6   9   85.40    2.38
  -1  -6   9   84.63    2.38
   1   6  -8   43.68    2.00
   1   6  -8   41.07    1.89
   1   6  -8   42.89    1.72
  -1  -6   8   35.29    1.59
  -1  -6   8   45.60    1.94
  -1  -6   8   43.81    1.89
   1   6  -7   24.93    1.66
   1   6  -7   26.21    1.57
   1   6  -7   24.72    1.44
  -1  -6   7   20.30    1.32
  -1  -6   7   27.64    1.22
  -1  -6   7   24.80    1.64
  -1  -6   7   23.43    1.60
   1   6  -6   25.57    1.60
   1   6  -6   27.18    1.46
   1   6  -6   24.93    1.39
  -1  -6   6   18.70    1.20
  -1  -6   6   28.20    1.28
  -1  -6   6   26.61    1.60
  -1  -6   6   27.22    1.57
   1   6  -5    3.59    0.84
   1   6  -5    3.30    0.67
   1   6  -5    3.20    0.75
  -1  -6   5    1.82    0.54
  -1  -6   5    3.11    0.63
  -1  -6   5    2.32    0.71
  -1  -6   5    3.13    0.74
   1   6  -4   10.66    1.03
   1   6  -4    9.12    0.84
   1   6  -4    8.29    0.94
  -1  -6   4    6.40    0.72
  -1  -6   4   12.55    1.17
  -1  -6   4    8.75    0.94
  -1  -6   4    8.62    0.96
   1   6  -3   33.53    1.66
   1   6  -3   31.91    1.24
   1   6  -3   28.83    1.53
  -1  -6   3   19.32    1.18
  -1  -6   3   36.72    1.52
  -1  -6   3   33.20    1.72
  -1  -6   3   31.53    1.65
   1   6  -2  217.82    2.73
   1   6  -2  187.64    2.99
   1   6  -2  174.31    2.25
   1   6  -2  170.56    2.93
  -1  -6   2  117.29    2.07
  -1  -6   2  203.59    2.87
  -1  -6   2  181.32    3.11
  -1  -6   2  169.12    2.95
   1   6  -1   72.39    1.75
   1   6  -1   63.18    1.92
   1   6  -1   55.91    1.32
   1   6  -1   54.37    1.91
  -1  -6   1   67.42    1.95
  -1  -6   1   59.21    2.11
  -1  -6   1   55.76    1.95
   1   6   0   86.63    1.89
   1   6   0   76.25    2.03
   1   6   0   67.34    2.10
  -1  -6   0   77.69    2.11
  -1  -6   0   81.24    1.79
  -1  -6   0   74.76    2.28
  -1  -6   0   66.35    2.08
   1   6   1  109.89    2.11
   1   6   1   88.78    2.14
   1   6   1   85.64    2.34
  -1  -6  -1   96.19    2.37
  -1  -6  -1   99.60    1.84
  -1  -6  -1   87.62    2.42
  -1  -6  -1   83.00    2.30
   1   6   2   48.72    1.61
   1   6   2   39.69    1.63
   1   6   2   34.94    1.80
  -1  -6  -2   41.91    1.93
  -1  -6  -2   45.00    1.51
  -1  -6  -2   35.16    1.88
  -1  -6  -2   36.25    1.80
   1   6   3   20.59    1.40
   1   6   3   18.71    1.38
   1   6   3   18.04    1.61
  -1  -6  -3   18.09    1.70
  -1  -6  -3   19.48    1.34
  -1  -6  -3   15.10    1.65
  -1  -6  -3   12.97    1.52
   1   6   4   32.50    1.67
   1   6   4   27.44    1.52
   1   6   4   23.98    1.78
  -1  -6  -4   30.21    1.96
  -1  -6  -4   32.11    1.64
  -1  -6  -4   26.41    1.90
  -1  -6  -4   23.00    1.75
   1   6   5   43.85    1.93
   1   6   5   34.55    2.02
  -1  -6  -5   42.63    2.25
  -1  -6  -5   43.85    1.90
  -1  -6  -5   32.22    2.09
  -1  -6  -5   31.55    1.96
   1   6   6    8.82    1.06
   1   6   6    8.10    1.28
  -1  -6  -6    8.77    1.28
  -1  -6  -6    8.99    1.12
  -1  -6  -6    7.93    1.23
  -1  -6  -6    4.80    1.05
   1   6   7    7.27    1.07
   1   6   7    5.05    1.22
  -1  -6  -7    6.71    1.28
  -1  -6  -7    7.89    1.14
  -1  -6  -7    5.79    1.16
  -1  -6  -7    4.70    1.04
   1   6   8    8.86    1.21
   1   6   8    5.57    1.32
  -1  -6  -8    7.71    1.38
  -1  -6  -8    9.82    1.24
  -1  -6  -8    7.23    1.25
  -1  -6  -8    6.08    1.10
   1   6   9    4.36    1.08
   1   6   9    2.14    1.29
  -1  -6  -9    6.12    1.37
  -1  -6  -9    6.69    1.22
  -1  -6  -9    3.44    1.14
  -1  -6  -9    4.45    1.09
   1   6  10    1.98    1.12
   1   6  10   -1.31    1.21
  -1  -6 -10    1.96    1.37
  -1  -6 -10    3.28    1.22
  -1  -6 -10    1.38    1.14
  -1  -6 -10    0.88    0.96
   2   6 -16   11.92    1.76
   2   6 -16   13.27    1.92
  -2  -6  16   11.72    1.94
   2   6 -15   39.02    2.72
   2   6 -15   31.66    2.66
  -2  -6  15   28.15    2.81
   2   6 -14   27.18    2.45
   2   6 -14   18.84    2.32
  -2  -6  14   21.72    2.46
   2   6 -13   12.12    1.61
   2   6 -13   10.06    1.55
  -2  -6  13   10.28    1.40
   2   6 -12   20.84    2.21
   2   6 -12   17.37    1.74
   2   6 -12   18.29    1.68
  -2  -6  12   23.71    2.02
   2   6 -11   29.76    2.19
   2   6 -11   24.64    2.06
   2   6 -11   27.99    1.75
  -2  -6  11   30.46    1.97
  -2  -6  11   34.75    1.93
  -2  -6  11   34.17    1.79
   2   6 -10    3.00    1.00
   2   6 -10    3.40    1.07
   2   6 -10    4.29    0.91
  -2  -6  10    3.40    0.87
  -2  -6  10    4.99    0.89
  -2  -6  10    4.85    0.88
   2   6  -9   10.55    1.25
   2   6  -9   10.52    1.23
   2   6  -9    9.52    1.06
  -2  -6   9    8.57    1.00
  -2  -6   9   10.21    1.08
  -2  -6   9   10.31    1.09
   2   6  -8   37.98    1.97
   2   6  -8   35.66    1.79
   2   6  -8   38.63    1.71
  -2  -6   8   30.55    1.63
  -2  -6   8   40.07    1.91
  -2  -6   8   38.21    1.83
   2   6  -7    8.20    1.04
   2   6  -7    8.11    1.00
   2   6  -7    8.83    1.00
  -2  -6   7    5.01    0.80
  -2  -6   7    7.83    1.00
  -2  -6   7    7.98    0.97
   2   6  -6   24.34    1.66
   2   6  -6   23.05    1.45
   2   6  -6   23.29    1.48
  -2  -6   6   15.24    1.28
  -2  -6   6   25.12    1.65
  -2  -6   6   25.59    1.62
   2   6  -5   57.61    2.02
   2   6  -5   53.49    1.68
   2   6  -5   55.43    1.90
  -2  -6   5   39.11    1.59
  -2  -6   5   63.16    1.55
  -2  -6   5   57.52    2.00
  -2  -6   5   55.27    1.97
   2   6  -4   44.80    1.86
   2   6  -4   40.19    1.44
   2   6  -4   43.67    1.78
  -2  -6   4   26.78    1.40
  -2  -6   4   50.41    1.53
  -2  -6   4   42.75    1.90
  -2  -6   4   40.59    1.79
   2   6  -3   71.38    2.00
   2   6  -3   62.17    2.04
   2   6  -3   52.39    1.46
   2   6  -3   57.79    1.94
  -2  -6   3   40.39    1.57
  -2  -6   3   67.06    1.77
  -2  -6   3   61.90    2.14
  -2  -6   3   58.54    2.02
   2   6  -2   72.46    1.98
   2   6  -2   63.51    2.02
   2   6  -2   55.55    1.97
  -2  -6   2   41.87    1.61
  -2  -6   2   66.02    1.85
  -2  -6   2   60.71    2.13
  -2  -6   2   55.70    1.98
   2   6  -1   85.76    2.10
   2   6  -1   74.33    2.11
   2   6  -1   66.80    2.10
  -2  -6   1   77.47    2.02
  -2  -6   1   66.82    2.20
  -2  -6   1   64.77    2.10
   2   6   0   52.98    1.79
   2   6   0   44.28    1.78
   2   6   0   39.43    1.83
  -2  -6   0   45.64    1.80
  -2  -6   0   39.71    1.92
  -2  -6   0   38.16    1.83
   2   6   1   36.87    1.68
   2   6   1   33.80    1.64
   2   6   1   28.97    1.72
  -2  -6  -1   35.08    1.81
  -2  -6  -1   28.26    1.86
  -2  -6  -1   28.07    1.75
   2   6   2   92.65    2.31
   2   6   2   79.22    2.07
   2   6   2   74.23    2.35
  -2  -6  -2   86.43    2.48
  -2  -6  -2   74.44    2.43
  -2  -6  -2   69.76    2.33
   2   6   3   39.31    1.89
   2   6   3   32.22    1.59
   2   6   3   30.17    1.86
  -2  -6  -3   35.28    2.02
  -2  -6  -3   32.82    1.99
  -2  -6  -3   25.85    1.82
   2   6   4    7.30    1.06
   2   6   4    6.67    1.11
  -2  -6  -4    9.27    1.22
  -2  -6  -4    6.51    1.08
  -2  -6  -4    7.07    1.10
   2   6   5   31.24    1.98
   2   6   5   24.16    1.87
  -2  -6  -5   30.92    2.14
  -2  -6  -5   26.25    2.01
  -2  -6  -5   26.84    1.95
   2   6   6   19.20    1.85
   2   6   6   12.62    1.42
  -2  -6  -6   20.03    2.06
  -2  -6  -6   12.28    1.40
  -2  -6  -6   10.83    1.28
   2   6   7   16.46    1.85
   2   6   7    9.15    1.36
  -2  -6  -7   12.12    1.50
  -2  -6  -7   11.26    1.39
  -2  -6  -7    8.52    1.25
   2   6   8    1.82    0.97
   2   6   8    0.44    1.08
  -2  -6  -8    1.75    1.20
  -2  -6  -8    2.60    1.15
  -2  -6  -8    1.52    0.99
   2   6   9    2.25    1.07
   2   6   9   -0.42    1.12
  -2  -6  -9   -0.26    1.29
  -2  -6  -9   -0.82    1.06
  -2  -6  -9   -0.47    0.93
   2   6  10    3.23    1.15
   2   6  10    1.20    1.24
  -2  -6 -10   -0.27    1.36
  -2  -6 -10    0.94    1.23
  -2  -6 -10    0.75    1.07
   3   6 -16    9.02    1.84
   3   6 -16    9.45    1.88
  -3  -6  16    7.89    1.83
   3   6 -15   27.23    2.77
   3   6 -15   21.65    2.60
  -3  -6  15   25.63    2.77
   3   6 -14   20.55    2.53
   3   6 -14   16.57    1.87
  -3  -6  14   22.34    2.43
   3   6 -13   11.05    1.61
   3   6 -13   11.96    1.59
   3   6 -13   11.07    1.30
  -3  -6  13   11.42    1.46
   3   6 -12    7.54    1.40
   3   6 -12    9.05    1.47
   3   6 -12    8.53    1.18
  -3  -6  12    8.80    1.28
   3   6 -11    7.27    1.29
   3   6 -11    7.24    1.23
   3   6 -11    7.86    1.11
  -3  -6  11    6.19    1.12
   3   6 -10    4.49    1.12
   3   6 -10    3.87    1.03
   3   6 -10    4.32    0.95
  -3  -6  10    2.34    0.87
  -3  -6  10    4.05    0.90
  -3  -6  10    3.15    0.84
   3   6  -9   -0.14    0.77
   3   6  -9   -0.20    0.76
   3   6  -9    0.07    0.76
  -3  -6   9   -0.51    0.70
  -3  -6   9   -0.64    0.75
  -3  -6   9   -0.35    0.68
   3   6  -8    5.60    1.02
   3   6  -8    4.98    0.95
   3   6  -8    6.29    0.99
  -3  -6   8    2.05    0.80
  -3  -6   8    4.21    0.96
  -3  -6   8    4.65    0.91
   3   6  -7   47.91    2.11
   3   6  -7   38.50    1.74
   3   6  -7   43.80    1.90
  -3  -6   7   29.22    1.70
  -3  -6   7   40.97    1.97
  -3  -6   7   44.28    1.92
   3   6  -6   40.57    1.98
   3   6  -6   34.21    1.56
   3   6  -6   38.90    1.82
  -3  -6   6   25.64    1.61
  -3  -6   6   40.00    1.98
  -3  -6   6   37.97    1.87
   3   6  -5   67.14    2.24
   3   6  -5   52.80    1.65
   3   6  -5   59.41    2.08
  -3  -6   5   39.68    1.78
  -3  -6   5   61.07    2.20
  -3  -6   5   62.20    2.15
   3   6  -4   54.61    2.10
   3   6  -4   51.04    2.02
   3   6  -4   39.87    1.63
   3   6  -4   43.78    1.88
  -3  -6   4   30.90    1.67
  -3  -6   4   49.01    2.04
  -3  -6   4   47.13    1.97
   3   6  -3   74.66    2.25
   3   6  -3   65.68    2.15
   3   6  -3   60.69    2.11
  -3  -6   3   45.23    1.85
  -3  -6   3   72.35    1.80
  -3  -6   3   63.25    2.22
  -3  -6   3   58.58    2.10
   3   6  -2  144.94    2.84
   3   6  -2  131.14    2.71
   3   6  -2  118.47    2.74
  -3  -6   2  137.19    2.41
  -3  -6   2  116.66    2.77
  -3  -6   2  112.40    2.69
   3   6  -1   89.48    2.40
   3   6  -1   77.69    2.18
   3   6  -1   72.33    2.27
  -3  -6   1   82.29    2.14
  -3  -6   1   73.39    2.42
  -3  -6   1   70.13    2.33
   3   6   0   69.11    2.21
   3   6   0   60.90    1.99
   3   6   0   55.71    2.11
  -3  -6   0   65.75    2.10
  -3  -6   0   54.46    2.22
  -3  -6   0   52.90    2.18
   3   6   1   28.50    1.80
   3   6   1   27.21    1.59
   3   6   1   25.42    1.73
  -3  -6  -1   28.91    1.84
  -3  -6  -1   25.82    1.90
  -3  -6  -1   22.33    1.81
   3   6   2   10.59    1.12
   3   6   2    7.57    0.90
   3   6   2   10.53    1.21
  -3  -6  -2    8.79    1.15
  -3  -6  -2    7.94    1.12
  -3  -6  -2    8.59    1.08
   3   6   3   22.37    1.75
   3   6   3   18.33    1.72
  -3  -6  -3   23.59    1.89
  -3  -6  -3   17.67    1.83
  -3  -6  -3   17.11    1.72
   3   6   4    5.78    1.02
   3   6   4    3.39    1.05
  -3  -6  -4    5.28    1.12
  -3  -6  -4    4.80    1.07
  -3  -6  -4    4.37    1.00
   3   6   5   10.73    1.25
   3   6   5    7.63    1.25
  -3  -6  -5    7.16    1.22
  -3  -6  -5    6.96    1.21
  -3  -6  -5    5.62    1.10
   3   6   6    6.50    1.14
   3   6   6    4.33    1.14
  -3  -6  -6    6.56    1.33
  -3  -6  -6    4.10    1.14
  -3  -6  -6    4.24    1.06
   3   6   7    7.37    1.20
   3   6   7    4.33    1.22
  -3  -6  -7    4.35    1.32
  -3  -6  -7    5.26    1.31
  -3  -6  -7    2.52    1.03
   3   6   8   11.47    1.45
   3   6   8    6.07    1.35
  -3  -6  -8    8.20    1.58
  -3  -6  -8    7.43    1.47
  -3  -6  -8    3.32    1.15
   3   6   9    5.79    1.34
   3   6   9    3.02    1.24
  -3  -6  -9    3.89    1.55
  -3  -6  -9    1.19    1.33
   4   6 -15    7.30    1.76
   4   6 -15    7.42    1.74
   4   6 -15    3.88    1.49
  -4  -6  15    7.96    1.73
   4   6 -14    3.94    1.56
   4   6 -14    3.89    1.50
   4   6 -14    3.25    1.19
  -4  -6  14    4.13    1.43
   4   6 -13    0.33    1.20
   4   6 -13    0.61    1.23
   4   6 -13    2.56    1.04
  -4  -6  13   -0.98    1.01
   4   6 -12   -0.87    1.05
   4   6 -12   -1.65    0.95
   4   6 -12   -0.63    0.87
  -4  -6  12    0.47    1.00
   4   6 -11    2.17    1.03
   4   6 -11    3.66    1.08
   4   6 -11    2.75    1.01
  -4  -6  11    0.70    0.97
   4   6 -10    6.11    1.14
   4   6 -10    5.64    1.08
   4   6 -10    4.69    1.06
  -4  -6  10    2.62    0.98
   4   6  -9   11.36    1.31
   4   6  -9    9.76    1.15
   4   6  -9   13.39    1.58
  -4  -6   9    7.34    1.12
  -4  -6   9   11.93    1.23
  -4  -6   9    9.95    1.19
   4   6  -8   29.85    2.02
   4   6  -8   27.11    1.67
   4   6  -8   25.86    1.82
  -4  -6   8   17.15    1.74
  -4  -6   8   27.41    1.94
  -4  -6   8   25.81    1.76
   4   6  -7   42.56    2.17
   4   6  -7   37.31    1.70
   4   6  -7   37.11    1.97
  -4  -6   7   25.04    1.85
  -4  -6   7   43.32    2.15
  -4  -6   7   40.25    1.96
   4   6  -6   78.00    2.54
   4   6  -6   71.52    1.97
   4   6  -6   67.29    2.36
  -4  -6   6   48.95    2.11
  -4  -6   6   76.76    2.48
  -4  -6   6   71.32    2.34
   4   6  -5  115.46    2.90
   4   6  -5   95.76    2.67
   4   6  -5   84.83    2.55
  -4  -6   5   63.99    2.26
  -4  -6   5   92.03    2.63
  -4  -6   5   89.37    2.52
   4   6  -4   76.15    2.49
   4   6  -4   64.56    2.30
   4   6  -4   62.64    2.28
  -4  -6   4   41.56    1.98
  -4  -6   4   66.16    2.37
  -4  -6   4   61.28    2.22
   4   6  -3   36.24    2.00
   4   6  -3   27.87    1.81
   4   6  -3   30.49    1.79
  -4  -6   3   18.48    1.71
  -4  -6   3   30.49    1.95
  -4  -6   3   26.84    1.80
   4   6  -2   17.77    1.76
   4   6  -2   19.62    1.61
   4   6  -2   15.73    1.56
  -4  -6   2   18.52    1.48
  -4  -6   2   16.36    1.75
  -4  -6   2   14.67    1.66
   4   6  -1   26.28    1.90
   4   6  -1   23.87    1.62
   4   6  -1   24.96    1.70
  -4  -6   1   27.67    1.65
  -4  -6   1   24.22    1.90
  -4  -6   1   21.17    1.78
   4   6   0   22.02    1.80
   4   6   0   19.45    1.48
   4   6   0   20.36    1.62
  -4  -6   0   21.70    1.66
  -4  -6   0   19.20    1.81
  -4  -6   0   19.01    1.72
   4   6   1   19.37    1.80
   4   6   1   14.93    1.45
   4   6   1   16.66    1.67
  -4  -6  -1   15.65    1.65
  -4  -6  -1   15.17    1.83
  -4  -6  -1   10.83    1.27
   4   6   2   30.45    1.97
   4   6   2   23.57    1.78
  -4  -6  -2   23.55    1.87
  -4  -6  -2   20.38    1.95
  -4  -6  -2   18.67    1.80
   4   6   3   17.12    1.81
   4   6   3   13.09    1.61
  -4  -6  -3   12.30    1.33
  -4  -6  -3    9.67    1.28
  -4  -6  -3    8.88    1.19
   4   6   4    3.70    1.00
   4   6   4    0.62    0.96
  -4  -6  -4    2.22    1.04
  -4  -6  -4    1.66    1.01
  -4  -6  -4    1.66    0.92
   4   6   5    9.25    1.29
   4   6   5    7.11    1.24
  -4  -6  -5    7.88    1.38
  -4  -6  -5    6.68    1.28
  -4  -6  -5    5.19    1.13
   4   6   6   15.28    1.63
   4   6   6    9.68    1.38
  -4  -6  -6   10.81    1.57
  -4  -6  -6   10.45    1.53
  -4  -6  -6    5.74    1.20
   4   6   7   10.80    1.51
   4   6   7    7.32    1.33
  -4  -6  -7    7.04    1.62
  -4  -6  -7    6.86    1.52
  -4  -6  -7    2.59    1.33
   4   6   8   15.82    1.77
   4   6   8    8.75    1.40
  -4  -6  -8    8.56    1.73
  -4  -6  -8    8.08    1.71
   5   6 -14    1.16    1.43
   5   6 -14    2.40    1.42
   5   6 -14    0.10    1.18
  -5  -6  14   -0.80    1.36
   5   6 -13    0.90    1.29
   5   6 -13    1.07    1.23
   5   6 -13    1.11    1.15
  -5  -6  13   -0.65    1.24
   5   6 -12    0.11    1.18
   5   6 -12    0.87    1.08
   5   6 -12    0.97    1.09
  -5  -6  12   -2.09    1.01
   5   6 -11    5.16    1.22
   5   6 -11    4.51    1.11
   5   6 -11    4.53    1.23
  -5  -6  11    2.80    1.17
   5   6 -10   18.10    2.08
   5   6 -10   17.73    1.73
   5   6 -10   17.04    1.87
  -5  -6  10   10.85    1.41
   5   6  -9   18.59    2.08
   5   6  -9   19.33    1.67
   5   6  -9   17.76    1.88
  -5  -6   9   12.59    1.44
   5   6  -8   33.51    2.30
   5   6  -8   33.84    1.85
   5   6  -8   28.37    2.06
  -5  -6   8   24.99    2.07
  -5  -6   8   35.58    2.46
   5   6  -7   67.94    2.66
   5   6  -7   63.71    2.51
  -5  -6   7   53.41    2.39
  -5  -6   7   72.33    2.56
  -5  -6   7   65.75    2.37
   5   6  -6   47.16    2.33
   5   6  -6   40.54    2.15
  -5  -6   6   32.74    2.07
  -5  -6   6   48.90    2.35
  -5  -6   6   44.47    2.13
   5   6  -5   37.69    2.21
   5   6  -5   28.41    1.98
   5   6  -5   27.10    1.83
  -5  -6   5   17.05    1.79
  -5  -6   5   26.78    2.03
  -5  -6   5   29.00    1.91
   5   6  -4   32.19    2.10
   5   6  -4   28.20    1.86
   5   6  -4   26.68    1.84
  -5  -6   4   16.38    1.82
  -5  -6   4   25.19    2.05
  -5  -6   4   21.50    1.87
   5   6  -3   16.55    1.80
   5   6  -3   14.01    1.57
   5   6  -3   14.32    1.54
  -5  -6   3    5.10    1.11
  -5  -6   3   12.06    1.36
  -5  -6   3   11.02    1.25
   5   6  -2    4.92    1.07
   5   6  -2    4.83    0.89
   5   6  -2    5.63    1.06
  -5  -6   2    3.99    1.05
  -5  -6   2    4.81    1.06
   5   6  -1    4.99    1.07
   5   6  -1    4.01    0.84
   5   6  -1    5.08    1.06
  -5  -6   1    4.73    1.07
  -5  -6   1    3.82    0.99
   5   6   0   10.27    1.24
   5   6   0   12.57    1.57
  -5  -6   0   10.43    1.13
  -5  -6   0    8.49    1.25
  -5  -6   0    8.23    1.16
   5   6   1    9.98    1.26
   5   6   1    8.29    1.25
  -5  -6  -1    7.51    1.10
  -5  -6  -1    6.64    1.22
  -5  -6  -1    6.31    1.12
   5   6   2   23.59    2.12
   5   6   2   14.47    1.77
  -5  -6  -2   17.37    1.91
  -5  -6  -2   12.48    1.48
  -5  -6  -2    9.28    1.30
   5   6   3   42.69    2.47
   5   6   3   28.52    1.97
  -5  -6  -3   38.75    2.36
  -5  -6  -3   32.57    2.44
  -5  -6  -3   25.84    2.16
   5   6   4   23.94    2.30
   5   6   4   17.39    1.80
  -5  -6  -4   18.74    2.28
  -5  -6  -4   12.30    1.55
  -5  -6  -4    9.37    1.30
   5   6   5    9.86    1.47
   5   6   5    6.28    1.28
  -5  -6  -5    6.92    1.49
  -5  -6  -5    5.72    1.38
  -5  -6  -5    3.10    1.16
   5   6   6   13.66    1.74
   5   6   6    8.20    1.40
  -5  -6  -6    8.52    1.72
  -5  -6  -6    6.78    1.55
   5   6   7    9.92    1.70
   5   6   7    8.68    1.43
  -5  -6  -7    7.16    1.73
  -5  -6  -7    6.29    1.71
   6   6 -13    3.26    1.65
   6   6 -13    5.20    1.42
   6   6 -13    3.47    1.38
  -6  -6  13    1.98    1.44
   6   6 -12    6.48    1.64
   6   6 -12    4.93    1.31
   6   6 -12    3.91    1.40
  -6  -6  12    5.56    1.47
   6   6 -11   13.53    1.87
   6   6 -11   11.70    1.45
   6   6 -11    9.98    1.58
  -6  -6  11   10.29    1.58
   6   6 -10   29.91    2.57
   6   6 -10   24.53    2.06
   6   6 -10   25.28    2.22
  -6  -6  10   26.19    2.39
   6   6  -9   32.21    2.51
   6   6  -9   25.40    2.17
  -6  -6   9   24.48    2.22
   6   6  -8    9.78    1.49
   6   6  -8   11.55    1.51
  -6  -6   8    8.53    1.34
   6   6  -7   11.84    1.55
   6   6  -7   10.82    1.41
  -6  -6   7    8.03    1.26
   6   6  -6   22.09    2.05
   6   6  -6   19.50    1.84
  -6  -6   6   12.50    1.43
  -6  -6   6   21.44    2.05
  -6  -6   6   19.07    1.84
   6   6  -5    9.73    1.33
   6   6  -5    9.11    1.28
   6   6  -5   10.71    1.37
  -6  -6   5    6.11    1.23
  -6  -6   5   10.48    1.36
  -6  -6   5    8.15    1.16
   6   6  -4    4.70    1.13
   6   6  -4    3.11    0.97
   6   6  -4    5.14    1.10
  -6  -6   4    1.57    1.09
  -6  -6   4    1.73    1.04
  -6  -6   4    2.03    0.94
   6   6  -3    4.31    1.10
   6   6  -3    6.24    1.06
   6   6  -3    5.91    1.16
  -6  -6   3    1.33    1.07
  -6  -6   3    4.98    1.21
  -6  -6   3    5.36    1.10
   6   6  -2    4.25    1.14
   6   6  -2    5.59    0.97
   6   6  -2    4.79    1.14
  -6  -6   2    3.83    1.15
  -6  -6   2    3.98    1.04
   6   6  -1    3.85    1.13
   6   6  -1    3.51    1.09
  -6  -6   1    2.69    1.14
  -6  -6   1    1.62    0.98
   6   6   0   12.51    1.48
   6   6   0    8.25    1.31
  -6  -6   0    7.89    1.36
  -6  -6   0    5.39    1.15
   6   6   1   24.34    2.30
   6   6   1   16.60    1.95
  -6  -6  -1   20.56    2.32
  -6  -6  -1   13.13    1.44
   6   6   2   32.85    2.55
   6   6   2   21.25    2.07
  -6  -6  -2   26.29    2.22
  -6  -6  -2   24.20    2.51
  -6  -6  -2   18.91    2.16
   6   6   3   38.73    2.75
   6   6   3   27.15    2.21
  -6  -6  -3   33.65    2.52
  -6  -6  -3   29.07    2.70
  -6  -6  -3   23.95    2.46
   6   6   4   41.04    2.91
   6   6   4   30.07    2.29
  -6  -6  -4   29.53    2.68
  -6  -6  -4   31.10    2.89
   6   6   5   19.71    2.05
   6   6   5   14.90    1.69
  -6  -6  -5   12.25    1.83
  -6  -6  -5   13.25    1.99
   7   6 -11   11.10    1.87
   7   6 -11    8.80    1.72
  -7  -6  11   11.91    1.81
   7   6 -10   10.49    1.79
   7   6 -10    9.80    1.70
  -7  -6  10    7.73    1.58
   7   6  -9   12.16    1.72
   7   6  -9   12.12    1.67
  -7  -6   9    8.22    1.52
   7   6  -8    4.59    1.39
   7   6  -8    5.80    1.36
  -7  -6   8    4.06    1.32
   7   6  -7    0.27    1.10
   7   6  -7    0.36    1.05
  -7  -6   7    0.19    1.07
   7   6  -6    0.27    1.05
   7   6  -6    0.30    1.05
  -7  -6   6    0.75    1.14
   7   6  -5    2.44    1.26
   7   6  -5    2.85    1.10
   7   6  -5    2.74    1.14
  -7  -6   5   -0.76    1.10
  -7  -6   5    2.86    1.18
   7   6  -4    2.95    1.29
   7   6  -4    4.35    1.14
   7   6  -4    4.89    1.23
  -7  -6   4    3.50    1.30
  -7  -6   4    4.72    1.27
  -7  -6   4    3.87    1.09
   7   6  -3    9.88    1.49
   7   6  -3    9.79    1.32
   7   6  -3    9.63    1.45
  -7  -6   3    6.38    1.36
  -7  -6   3    9.77    1.54
  -7  -6   3    8.41    1.28
   7   6  -2   25.83    2.49
   7   6  -2   20.71    2.02
  -7  -6   2   23.77    2.48
  -7  -6   2   19.95    2.08
   7   6  -1   30.62    2.59
   7   6  -1   20.99    2.10
  -7  -6   1   28.53    2.67
  -7  -6   1   21.27    2.18
   7   6   0   22.36    2.56
   7   6   0   13.19    1.70
  -7  -6   0   14.27    1.79
  -7  -6   0   10.56    1.45
   7   6   1   15.21    1.80
   7   6   1   10.77    1.62
  -7  -6  -1   11.20    1.74
   7   6   2   15.25    1.91
   7   6   2   11.79    1.63
  -7  -6  -2   14.33    1.91
   7   6   3   14.11    1.96
  -7  -6  -3   12.21    2.03
   8   6  -7    2.07    1.32
   8   6  -7    1.49    1.31
  -8  -6   7    0.09    1.36
   8   6  -6    0.15    1.14
   8   6  -6    0.51    1.25
  -8  -6   6   -1.44    1.25
   8   6  -5    2.93    1.46
   8   6  -5    3.94    1.28
   8   6  -5    2.97    1.38
  -8  -6   5    0.54    1.30
   8   6  -4    7.89    1.70
   8   6  -4    7.03    1.49
   8   6  -4    8.00    1.59
  -8  -6   4    3.43    1.50
  -8  -6   4    7.67    1.53
   8   6  -3   12.25    1.86
   8   6  -3    8.91    1.67
  -8  -6   3   10.80    1.77
  -8  -6   3   13.87    1.78
  -8  -6   3    8.24    1.39
   8   6  -2   27.56    2.83
   8   6  -2   17.24    1.91
  -8  -6   2   26.37    2.55
  -8  -6   2   27.76    2.83
  -7   7  -8   25.80    2.42
  -7   7  -8   20.41    2.36
  -7   7  -8   23.12    2.53
   7  -7   8   32.83    3.24
   7  -7   8   25.38    2.97
   7  -7   8   43.18    3.48
  -7   7  -7   35.76    2.59
  -7   7  -7   28.31    2.44
  -7   7  -7   34.15    2.60
   7  -7   7   47.48    3.42
   7  -7   7   38.32    3.06
   7  -7   7   46.74    3.37
  -7   7  -6   37.98    2.56
  -7   7  -6   33.97    2.52
  -7   7  -6   33.08    2.47
   7  -7   6   50.33    3.23
   7  -7   6   44.01    3.14
   7  -7   6   47.09    3.26
  -7   7  -5   35.78    2.53
  -7   7  -5   28.80    2.29
   7  -7   5   46.03    3.13
   7  -7   5   39.17    2.85
   7  -7   5   49.44    3.24
  -7   7  -4   12.81    1.60
  -7   7  -4   13.14    1.60
   7  -7   4   24.62    2.68
   7  -7   4   14.30    1.91
   7  -7   4   16.92    1.97
   7  -7   4   10.35    1.40
  -7   7  -3    0.94    1.08
  -7   7  -3    0.21    0.97
   7  -7   3    1.02    1.42
   7  -7   3   -2.01    1.32
   7  -7   3    1.16    1.24
   7  -7   3    0.75    0.95
  -7   7  -2   -0.82    1.00
  -7   7  -2    0.26    0.97
   7  -7   2   -1.30    1.27
   7  -7   2   -2.51    1.29
   7  -7   2   -1.74    1.13
   7  -7   2   -1.24    0.86
  -7   7  -1   -0.84    0.97
  -7   7  -1    0.05    0.95
  -7   7  -1   -1.20    0.84
   7  -7   1    0.16    1.30
   7  -7   1    0.09    1.09
   7  -7   1    0.22    0.91
   7  -7   1   -1.48    1.31
  -7   7   0   -1.33    0.94
  -7   7   0   -0.83    0.93
  -7   7   0   -1.11    0.89
   7  -7   0   -1.28    1.27
   7  -7   0   -0.65    1.03
   7  -7   0   -1.08    0.85
   7  -7   0   -2.16    1.33
  -7   7   1    0.49    1.24
  -7   7   1    0.80    1.04
  -7   7   1   -0.75    0.97
   7  -7  -1    1.01    1.44
   7  -7  -1   -0.42    1.45
   7  -7  -1   -0.36    1.04
   7  -7  -1    1.01    1.44
  -7   7   2    9.51    1.61
  -7   7   2    8.58    1.43
  -7   7   2    5.20    1.26
   7  -7  -2    9.12    1.85
   7  -7  -2   10.13    1.84
   7  -7  -2    9.85    1.82
  -7   7   3    9.91    1.56
  -7   7   3    7.92    1.43
  -7   7   3    5.33    1.33
   7  -7  -3   11.84    2.00
   7  -7  -3    9.29    1.79
   7  -7  -3   10.91    1.91
  -7   7   4    7.13    1.48
  -7   7   4    3.03    1.27
   7  -7  -4   11.50    2.02
   7  -7  -4    7.21    1.73
   7  -7  -4    7.52    1.87
  -6   7 -10   49.73    2.79
  -6   7 -10   49.48    2.92
   6  -7  10   59.85    3.42
   6  -7  10   63.92    3.69
  -6   7  -9   36.62    2.50
  -6   7  -9   34.58    2.43
  -6   7  -9   33.75    2.53
   6  -7   9   44.17    3.16
   6  -7   9   48.90    3.42
  -6   7  -8   27.53    2.31
  -6   7  -8   24.94    2.16
  -6   7  -8   27.96    2.31
   6  -7   8   40.00    3.05
   6  -7   8   34.02    2.90
   6  -7   8   37.92    3.01
  -6   7  -7   28.84    2.27
  -6   7  -7   25.71    2.16
  -6   7  -7   26.29    2.17
   6  -7   7   41.40    2.88
   6  -7   7   35.35    2.74
   6  -7   7   37.17    2.94
   6  -7   7   33.68    2.47
  -6   7  -6    7.58    1.31
  -6   7  -6    5.87    1.32
  -6   7  -6    8.62    1.34
   6  -7   6   12.50    1.72
   6  -7   6    9.74    1.60
   6  -7   6    9.95    1.59
   6  -7   6    7.48    1.24
  -6   7  -5    0.69    0.98
  -6   7  -5   -0.07    0.82
   6  -7   5    1.17    1.25
   6  -7   5    0.20    1.23
   6  -7   5    0.96    1.13
   6  -7   5    0.21    0.86
  -6   7  -4   -0.99    0.91
  -6   7  -4    0.63    0.83
   6  -7   4    0.75    1.20
   6  -7   4   -1.48    1.20
   6  -7   4    0.25    1.08
   6  -7   4   -0.28    0.81
  -6   7  -3   -0.47    0.86
  -6   7  -3   -0.15    0.85
   6  -7   3   -1.23    1.10
   6  -7   3   -2.00    1.17
   6  -7   3   -1.47    1.00
   6  -7   3   -1.10    0.83
  -6   7  -2    0.63    0.90
  -6   7  -2    1.83    0.96
  -6   7  -2    0.00    0.87
   6  -7   2   -0.70    1.14
   6  -7   2   -0.55    1.20
   6  -7   2   -1.39    1.07
   6  -7   2    0.21    0.86
  -6   7  -1    6.60    1.28
  -6   7  -1    6.73    1.25
  -6   7  -1    4.56    1.09
   6  -7   1    8.56    1.55
   6  -7   1    6.98    1.49
   6  -7   1    8.31    1.43
   6  -7   1    6.40    1.18
   6  -7   1    8.48    1.56
  -6   7   0   14.92    1.66
  -6   7   0   10.87    1.43
  -6   7   0    8.69    1.26
   6  -7   0   14.27    1.75
   6  -7   0   14.56    1.75
   6  -7   0   11.21    1.51
   6  -7   0    9.84    1.31
   6  -7   0   13.71    1.74
  -6   7   1    6.03    1.20
  -6   7   1    5.05    1.17
  -6   7   1    4.73    1.18
   6  -7  -1    8.90    1.57
   6  -7  -1    7.85    1.53
   6  -7  -1    8.09    1.37
   6  -7  -1    5.83    1.11
   6  -7  -1    6.50    1.58
  -6   7   2    7.24    1.28
  -6   7   2    7.94    1.42
  -6   7   2    6.64    1.29
   6  -7  -2   12.39    1.73
   6  -7  -2    9.95    1.59
   6  -7  -2    8.19    1.30
   6  -7  -2    8.75    1.92
   6  -7  -2    9.76    1.73
  -6   7   3   20.57    2.23
  -6   7   3   11.13    1.40
  -6   7   3    9.37    1.41
   6  -7  -3   26.45    2.64
   6  -7  -3   25.02    2.53
   6  -7  -3   20.63    2.41
  -6   7   4   10.98    1.57
  -6   7   4    6.60    1.29
   6  -7  -4   15.27    1.96
   6  -7  -4   12.48    1.74
   6  -7  -4   11.52    1.82
  -6   7   5    1.83    1.19
  -6   7   5    2.68    1.17
   6  -7  -5    5.00    1.57
   6  -7  -5    4.84    1.50
   6  -7  -5    3.35    1.56
  -6   7   6    2.50    1.29
  -6   7   6    1.47    1.17
   6  -7  -6    3.74    1.68
   6  -7  -6    1.78    1.42
   6  -7  -6   -0.40    1.47
  -5   7 -12   20.19    2.38
  -5   7 -12   14.69    2.02
   5  -7  12   24.48    2.83
   5  -7  12   28.06    3.19
  -5   7 -11   38.75    3.22
  -5   7 -11   38.61    2.62
  -5   7 -11   39.96    2.87
   5  -7  11   45.08    3.08
   5  -7  11   56.51    3.47
  -5   7 -10  103.59    3.26
  -5   7 -10   94.92    3.26
  -5   7 -10   89.43    3.28
   5  -7  10  119.23    3.84
   5  -7  10  120.33    4.02
  -5   7  -9   79.64    2.92
  -5   7  -9   72.39    2.80
  -5   7  -9   74.91    2.95
   5  -7   9  105.00    3.54
   5  -7   9   94.51    3.54
   5  -7   9   84.87    3.14
  -5   7  -8   10.46    1.41
  -5   7  -8    7.65    1.19
  -5   7  -8    9.30    1.35
   5  -7   8   12.24    1.59
   5  -7   8   11.23    1.60
   5  -7   8   11.88    1.55
   5  -7   8    9.14    1.34
  -5   7  -7    0.25    0.91
  -5   7  -7   -0.38    0.79
  -5   7  -7   -0.23    0.79
   5  -7   7    0.49    1.08
   5  -7   7    0.60    1.17
   5  -7   7    0.68    1.01
   5  -7   7    0.66    0.91
  -5   7  -6   -0.43    0.83
  -5   7  -6   -0.69    0.77
  -5   7  -6    0.15    0.79
   5  -7   6   -1.12    1.03
   5  -7   6    0.38    1.14
   5  -7   6   -1.18    0.91
   5  -7   6    0.92    0.92
  -5   7  -5    0.74    0.83
  -5   7  -5    1.48    0.85
   5  -7   5    1.01    1.05
   5  -7   5   -1.13    1.09
   5  -7   5   -1.01    0.89
   5  -7   5    1.68    0.89
  -5   7  -4    0.17    0.82
  -5   7  -4   -0.16    0.71
   5  -7   4   -1.74    0.96
   5  -7   4   -0.13    0.97
   5  -7   4   -1.45    0.82
  -5   7  -3    8.23    1.23
  -5   7  -3    7.05    1.14
  -5   7  -3    5.32    1.03
   5  -7   3    6.35    1.33
   5  -7   3    5.63    1.36
   5  -7   3    7.81    1.37
   5  -7   3    6.01    1.16
  -5   7  -2   22.06    1.89
  -5   7  -2   18.20    1.72
  -5   7  -2   19.47    1.70
   5  -7   2   22.82    2.30
   5  -7   2   24.74    2.34
   5  -7   2   24.70    2.38
   5  -7   2   24.19    2.20
  -5   7  -1   32.76    2.08
  -5   7  -1   25.12    1.86
  -5   7  -1   25.48    1.87
   5  -7   1   35.28    2.53
   5  -7   1   39.20    2.48
   5  -7   1   35.83    2.62
   5  -7   1   36.17    2.37
   5  -7   1   32.97    2.39
  -5   7   0   58.04    2.49
  -5   7   0   49.45    2.28
  -5   7   0   48.18    2.25
   5  -7   0   75.22    2.94
   5  -7   0   75.93    2.90
   5  -7   0   74.00    2.99
   5  -7   0   71.14    2.76
   5  -7   0   62.70    2.76
  -5   7   1   55.39    2.49
  -5   7   1   40.12    2.15
  -5   7   1   40.15    2.21
   5  -7  -1   69.61    2.96
   5  -7  -1   64.38    2.77
   5  -7  -1   63.12    2.75
   5  -7  -1   58.56    2.53
   5  -7  -1   55.65    2.68
  -5   7   2   19.83    1.95
  -5   7   2   14.89    1.59
  -5   7   2   15.64    1.88
   5  -7  -2   28.80    2.35
   5  -7  -2   26.86    2.21
   5  -7  -2   28.90    2.21
   5  -7  -2   25.00    1.97
   5  -7  -2   23.00    2.24
  -5   7   3    5.07    1.11
  -5   7   3    3.78    1.14
  -5   7   3    2.57    1.03
   5  -7  -3    7.39    1.34
   5  -7  -3    7.66    1.37
   5  -7  -3    7.34    1.18
   5  -7  -3    4.79    1.00
   5  -7  -3    5.01    1.38
  -5   7   4    0.97    0.93
  -5   7   4    0.46    0.94
   5  -7  -4    2.93    1.31
   5  -7  -4    2.53    1.22
   5  -7  -4   -0.16    1.21
  -5   7   5    0.71    1.04
  -5   7   5   -0.23    0.96
   5  -7  -5   -1.03    1.20
   5  -7  -5    0.88    1.23
   5  -7  -5   -2.41    1.20
  -5   7   6   -2.07    0.93
  -5   7   6   -1.33    0.95
   5  -7  -6   -1.17    1.36
   5  -7  -6   -0.45    1.30
   5  -7  -6   -0.55    1.28
  -5   7   7   -0.94    1.01
  -5   7   7    0.04    1.07
   5  -7  -7   -0.80    1.48
   5  -7  -7    0.96    1.42
   5  -7  -7   -0.25    1.28
  -4   7 -13   41.84    2.64
  -4   7 -13   38.44    3.05
   4  -7  13   44.37    2.97
   4  -7  13   59.76    3.61
  -4   7 -12   42.05    2.60
  -4   7 -12   37.98    2.48
  -4   7 -12   39.64    2.78
   4  -7  12   48.17    2.89
   4  -7  12   55.05    3.40
  -4   7 -11   12.60    1.55
  -4   7 -11   12.48    1.44
  -4   7 -11   10.24    1.61
   4  -7  11   13.00    1.59
   4  -7  11   17.53    1.90
   4  -7  11   17.68    2.17
  -4   7 -10    1.35    1.16
  -4   7 -10    2.98    0.93
  -4   7 -10    1.79    1.05
   4  -7  10    2.56    1.17
   4  -7  10    3.46    1.25
   4  -7  10    1.80    1.01
  -4   7  -9    4.01    1.15
  -4   7  -9    4.19    0.97
  -4   7  -9    4.66    1.13
   4  -7   9    7.84    1.38
   4  -7   9    7.65    1.34
   4  -7   9    3.77    1.02
  -4   7  -8    2.05    1.04
  -4   7  -8    2.78    0.86
  -4   7  -8    1.93    0.93
   4  -7   8    4.16    1.19
   4  -7   8    3.01    1.14
   4  -7   8    2.78    1.10
   4  -7   8    1.95    0.96
  -4   7  -7   -0.39    0.79
  -4   7  -7    0.14    0.67
  -4   7  -7    0.14    0.73
   4  -7   7   -0.53    1.00
   4  -7   7   -0.53    0.99
   4  -7   7   -0.71    0.88
   4  -7   7    0.02    0.85
  -4   7  -6    1.56    0.87
  -4   7  -6    0.90    0.74
  -4   7  -6    1.50    0.81
   4  -7   6    1.35    1.04
   4  -7   6    0.05    1.05
   4  -7   6    1.18    0.94
   4  -7   6    0.73    0.87
  -4   7  -5   11.06    1.24
  -4   7  -5   10.83    1.24
  -4   7  -5    8.66    1.35
   4  -7   5   12.85    1.48
   4  -7   5   10.66    1.38
   4  -7   5   11.35    1.39
   4  -7   5   12.12    1.39
  -4   7  -4   22.78    1.75
  -4   7  -4   19.69    1.61
  -4   7  -4   22.44    1.60
   4  -7   4   24.38    2.15
   4  -7   4   20.03    2.02
   4  -7   4   23.14    2.23
   4  -7   4   25.20    2.09
  -4   7  -3   40.99    2.11
  -4   7  -3   35.56    1.91
  -4   7  -3   38.55    1.94
   4  -7   3   48.13    2.47
   4  -7   3   47.02    2.38
   4  -7   3   47.44    2.55
   4  -7   3   44.83    2.37
  -4   7  -2   89.87    2.71
  -4   7  -2   71.89    2.43
  -4   7  -2   76.82    2.42
   4  -7   2  103.44    3.05
   4  -7   2  107.95    2.99
   4  -7   2  107.37    3.14
   4  -7   2   92.23    2.85
  -4   7  -1   89.71    2.72
  -4   7  -1   82.40    2.55
  -4   7  -1   80.53    2.53
   4  -7   1  118.11    3.23
   4  -7   1  122.02    3.09
   4  -7   1  115.67    3.16
   4  -7   1  107.17    2.95
   4  -7   1  100.54    2.96
  -4   7   0   31.12    1.92
  -4   7   0   27.54    1.77
  -4   7   0   27.25    1.87
   4  -7   0   43.80    2.34
   4  -7   0   45.66    2.29
   4  -7   0   43.92    2.32
   4  -7   0   37.21    2.10
   4  -7   0   36.53    2.22
  -4   7   1   16.71    1.69
  -4   7   1   12.91    1.45
  -4   7   1   12.19    1.36
   4  -7  -1   17.95    1.95
   4  -7  -1   24.50    1.97
   4  -7  -1   20.34    2.08
   4  -7  -1   19.54    1.81
   4  -7  -1   15.84    1.96
  -4   7   2    6.01    1.05
  -4   7   2    5.32    1.01
  -4   7   2    4.99    1.05
   4  -7  -2    7.43    1.19
   4  -7  -2    9.08    1.27
   4  -7  -2    8.84    1.25
   4  -7  -2    5.88    1.02
   4  -7  -2    7.25    1.32
  -4   7   3    0.57    0.84
  -4   7   3   -0.60    0.78
  -4   7   3    0.40    0.86
   4  -7  -3    1.63    1.01
   4  -7  -3    1.18    1.03
   4  -7  -3    0.68    0.93
   4  -7  -3    0.18    0.75
   4  -7  -3    0.11    1.01
  -4   7   4    1.21    0.94
  -4   7   4    0.55    0.90
   4  -7  -4   -0.09    1.08
   4  -7  -4    0.08    1.02
   4  -7  -4    0.07    0.92
   4  -7  -4    0.17    0.73
   4  -7  -4    1.76    1.11
  -4   7   5   -1.36    0.82
  -4   7   5   -0.66    0.85
   4  -7  -5   -0.57    1.12
   4  -7  -5   -0.81    1.08
   4  -7  -5   -1.00    1.00
   4  -7  -5   -0.59    1.06
  -4   7   6   -1.11    0.89
  -4   7   6   -0.44    0.93
   4  -7  -6   -1.28    1.28
   4  -7  -6    0.57    1.26
   4  -7  -6   -0.69    1.11
  -4   7   7   -0.05    0.99
  -4   7   7   -0.62    1.01
   4  -7  -7    1.07    1.48
   4  -7  -7    1.45    1.39
   4  -7  -7    1.51    1.24
  -4   7   8    2.01    1.14
  -4   7   8   -0.48    1.18
   4  -7  -8    1.20    1.52
   4  -7  -8    1.95    1.54
   4  -7  -8    2.39    1.33
  -3   7 -14   35.67    2.56
  -3   7 -14   28.95    2.95
   3  -7  14   50.00    3.41
  -3   7 -13   19.42    2.36
  -3   7 -13   22.25    2.14
  -3   7 -13   17.84    2.01
   3  -7  13   30.86    2.45
   3  -7  13   34.39    3.00
   3  -7  13   25.90    2.38
  -3   7 -12    6.67    1.38
  -3   7 -12    8.83    1.23
  -3   7 -12    7.96    1.57
   3  -7  12    9.21    1.36
   3  -7  12   10.48    1.62
   3  -7  12    8.67    1.30
  -3   7 -11    2.99    1.17
  -3   7 -11    3.29    0.94
  -3   7 -11    3.33    1.17
   3  -7  11    2.41    1.07
   3  -7  11    3.42    1.22
   3  -7  11    3.34    1.04
  -3   7 -10   -0.29    0.94
  -3   7 -10    0.04    0.66
  -3   7 -10    0.43    0.91
   3  -7  10   -1.53    0.87
   3  -7  10   -1.32    0.95
   3  -7  10    0.19    0.87
  -3   7  -9    3.58    1.12
  -3   7  -9    2.47    0.78
  -3   7  -9    2.45    0.94
   3  -7   9    2.04    1.04
   3  -7   9    1.83    1.06
   3  -7   9    0.92    0.87
  -3   7  -8    2.71    0.99
  -3   7  -8    1.91    0.75
  -3   7  -8    2.14    0.88
   3  -7   8    2.38    1.01
   3  -7   8    2.27    1.02
   3  -7   8    0.41    0.96
   3  -7   8    1.56    0.94
  -3   7  -7    5.57    1.12
  -3   7  -7    3.83    0.83
  -3   7  -7    5.46    1.01
   3  -7   7    3.49    1.04
   3  -7   7    4.24    1.11
   3  -7   7    4.63    1.12
   3  -7   7    5.26    1.12
  -3   7  -6   30.31    1.92
  -3   7  -6   23.81    1.57
  -3   7  -6   25.17    1.75
  -3   7  -6   27.06    1.57
   3  -7   6   27.54    2.12
   3  -7   6   21.82    1.98
   3  -7   6   26.59    2.28
   3  -7   6   23.81    2.02
  -3   7  -5  107.57    2.86
  -3   7  -5   96.21    2.63
  -3   7  -5  100.88    2.37
   3  -7   5  120.99    3.09
   3  -7   5  115.13    2.89
   3  -7   5  116.10    3.21
   3  -7   5  110.24    3.00
  -3   7  -4  126.29    2.98
  -3   7  -4  113.40    2.76
  -3   7  -4  115.27    2.58
   3  -7   4  152.67    3.34
   3  -7   4  138.18    3.06
   3  -7   4  144.01    3.42
   3  -7   4  139.01    3.24
  -3   7  -3  117.72    2.88
  -3   7  -3  108.12    2.68
  -3   7  -3  111.14    2.63
   3  -7   3  145.40    3.24
   3  -7   3  136.67    3.01
   3  -7   3  136.17    3.28
   3  -7   3  128.61    3.10
  -3   7  -2   66.09    2.32
  -3   7  -2   56.54    2.04
  -3   7  -2   54.99    2.10
   3  -7   2   76.88    2.60
   3  -7   2   74.72    2.46
   3  -7   2   75.21    2.63
   3  -7   2   65.28    2.40
  -3   7  -1   34.10    1.88
  -3   7  -1   31.38    1.68
  -3   7  -1   32.90    1.91
   3  -7   1   43.30    2.17
   3  -7   1   42.96    2.02
   3  -7   1   41.24    2.18
   3  -7   1   39.30    2.06
  -3   7   0   25.30    1.72
  -3   7   0   23.37    1.52
  -3   7   0   24.43    1.76
   3  -7   0   33.54    2.06
   3  -7   0   33.82    1.90
   3  -7   0   33.70    2.10
   3  -7   0   28.89    1.86
   3  -7   0   28.87    1.92
  -3   7   1    0.60    0.68
  -3   7   1    0.98    0.69
  -3   7   1    0.83    0.84
   3  -7  -1    1.11    0.88
   3  -7  -1    1.87    0.90
   3  -7  -1    0.62    0.89
   3  -7  -1    0.20    0.77
   3  -7  -1    0.98    0.91
  -3   7   2   -0.15    0.66
  -3   7   2    0.04    0.62
  -3   7   2   -0.28    0.78
   3  -7  -2    0.06    0.86
   3  -7  -2    0.92    0.87
   3  -7  -2   -0.83    0.86
   3  -7  -2   -1.09    0.71
   3  -7  -2   -1.05    0.88
  -3   7   3   -0.87    0.69
  -3   7   3    0.83    0.70
  -3   7   3   -0.28    0.79
   3  -7  -3   -0.66    0.91
   3  -7  -3    0.27    0.95
   3  -7  -3   -1.13    0.89
   3  -7  -3   -1.74    0.72
   3  -7  -3   -0.19    0.91
  -3   7   4    0.02    0.75
  -3   7   4   -0.12    0.84
   3  -7  -4   -0.68    0.99
   3  -7  -4    0.68    1.02
   3  -7  -4   -1.47    0.90
   3  -7  -4   -0.65    0.75
   3  -7  -4    0.48    0.93
  -3   7   5    3.81    1.01
  -3   7   5    1.46    0.97
   3  -7  -5    2.36    1.20
   3  -7  -5    3.67    1.25
   3  -7  -5    2.92    1.10
   3  -7  -5    2.61    0.86
   3  -7  -5    4.69    1.14
  -3   7   6    6.81    1.20
  -3   7   6    3.71    1.13
   3  -7  -6    7.86    1.54
   3  -7  -6    7.28    1.50
   3  -7  -6    6.89    1.31
   3  -7  -6    6.64    1.28
  -3   7   7   10.18    1.31
  -3   7   7    6.05    1.33
   3  -7  -7   12.60    1.77
   3  -7  -7   11.20    1.70
  -3   7   8    8.94    1.31
  -3   7   8    5.40    1.45
   3  -7  -8   11.58    1.84
   3  -7  -8    9.99    1.72
  -3   7   9    3.82    1.48
   3  -7  -9    5.97    1.78
   3  -7  -9    5.45    1.64
  -2   7 -15    5.40    1.42
  -2   7 -15    7.64    1.87
   2  -7  15    7.63    1.47
   2  -7  15   11.67    1.76
   2  -7  15    8.24    1.44
  -2   7 -14    8.18    1.54
  -2   7 -14    8.03    1.42
  -2   7 -14    7.09    1.74
   2  -7  14    8.02    1.47
   2  -7  14    8.86    1.57
   2  -7  14    7.82    1.32
  -2   7 -13    4.40    1.33
  -2   7 -13    3.54    1.06
  -2   7 -13    2.75    1.37
   2  -7  13    1.42    1.39
   2  -7  13    3.37    1.30
   2  -7  13    2.61    1.02
  -2   7 -12   -0.54    1.02
  -2   7 -12    0.91    0.80
  -2   7 -12   -0.55    1.09
   2  -7  12    0.70    1.55
   2  -7  12   -1.54    1.05
   2  -7  12   -1.33    0.83
  -2   7 -11    1.92    1.03
  -2   7 -11    1.44    0.75
  -2   7 -11    2.45    1.09
   2  -7  11    1.94    0.98
   2  -7  11    1.33    1.13
   2  -7  11    1.30    0.92
  -2   7 -10    1.78    1.01
  -2   7 -10   -0.64    0.63
  -2   7 -10   -0.60    0.87
   2  -7  10   -1.31    0.79
   2  -7  10   -2.24    0.93
   2  -7  10   -0.42    0.85
  -2   7  -9    7.00    1.17
  -2   7  -9    6.44    0.94
  -2   7  -9    6.20    1.08
   2  -7   9    6.93    1.13
   2  -7   9    6.86    1.24
   2  -7   9    5.79    1.13
  -2   7  -8   60.74    2.45
  -2   7  -8   51.14    1.96
  -2   7  -8   54.39    2.24
   2  -7   8   67.57    2.46
   2  -7   8   66.83    2.76
   2  -7   8   62.18    2.55
  -2   7  -7  116.76    3.00
  -2   7  -7  100.60    2.45
  -2   7  -7  108.43    2.80
  -2   7  -7  113.20    2.42
   2  -7   7  128.25    2.97
   2  -7   7  114.44    2.78
   2  -7   7  128.15    3.31
   2  -7   7  123.35    3.16
  -2   7  -6  172.35    3.44
  -2   7  -6  142.94    2.77
  -2   7  -6  155.33    3.17
  -2   7  -6  158.57    2.83
   2  -7   6  196.47    3.49
   2  -7   6  174.12    3.19
   2  -7   6  182.86    3.69
   2  -7   6  177.90    3.57
  -2   7  -5  144.29    3.15
  -2   7  -5  131.19    2.87
  -2   7  -5  135.81    2.71
   2  -7   5  170.14    3.29
   2  -7   5  150.47    2.92
   2  -7   5  156.73    3.39
   2  -7   5  151.47    3.30
  -2   7  -4   85.64    2.55
  -2   7  -4   79.26    2.27
  -2   7  -4   81.62    2.29
   2  -7   4   94.13    2.41
   2  -7   4   94.17    2.74
   2  -7   4   92.12    2.68
  -2   7  -3   47.98    2.02
  -2   7  -3   46.71    1.79
  -2   7  -3   46.31    1.94
   2  -7   3   57.79    2.24
   2  -7   3   57.89    2.04
   2  -7   3   51.77    2.20
   2  -7   3   57.92    2.28
  -2   7  -2    5.81    0.92
  -2   7  -2    5.81    0.86
  -2   7  -2    5.25    0.95
   2  -7   2    7.13    1.03
   2  -7   2    7.24    0.96
   2  -7   2    5.63    0.97
   2  -7   2    5.58    1.04
  -2   7  -1    1.85    0.69
  -2   7  -1    1.66    0.63
  -2   7  -1    0.56    0.80
   2  -7   1    1.54    0.81
   2  -7   1    1.65    0.79
   2  -7   1    2.59    0.84
   2  -7   1    2.03    0.82
  -2   7   0    1.44    0.74
  -2   7   0    0.96    0.61
  -2   7   0    0.74    0.79
   2  -7   0    0.48    0.82
   2  -7   0    0.54    0.74
   2  -7   0    1.46    0.83
   2  -7   0    0.06    0.72
  -2   7   1    0.06    0.65
  -2   7   1    0.76    0.59
  -2   7   1    0.49    0.78
   2  -7  -1   -0.69    0.81
   2  -7  -1   -0.12    0.77
   2  -7  -1    0.12    0.80
   2  -7  -1   -0.76    0.73
   2  -7  -1   -0.02    0.80
  -2   7   2    1.54    0.78
  -2   7   2    2.77    0.67
  -2   7   2    1.33    0.87
   2  -7  -2    1.80    1.01
   2  -7  -2    2.86    0.94
   2  -7  -2    0.59    0.89
   2  -7  -2    0.80    0.80
   2  -7  -2    2.12    0.90
  -2   7   3    5.00    0.97
  -2   7   3    5.70    0.86
  -2   7   3    2.83    0.95
   2  -7  -3    3.47    1.14
   2  -7  -3    3.92    1.09
   2  -7  -3    3.28    1.09
   2  -7  -3    3.63    0.97
   2  -7  -3    3.76    0.98
  -2   7   4   28.69    1.90
  -2   7   4   24.83    1.52
  -2   7   4   24.90    1.96
   2  -7  -4   30.56    2.42
   2  -7  -4   34.60    2.21
   2  -7  -4   27.96    2.24
   2  -7  -4   25.24    2.03
   2  -7  -4   29.20    1.86
  -2   7   5   23.29    1.83
  -2   7   5   16.58    1.87
   2  -7  -5   26.53    2.36
   2  -7  -5   27.93    2.21
   2  -7  -5   23.56    2.15
   2  -7  -5   19.56    1.96
  -2   7   6   10.16    1.26
  -2   7   6    6.42    1.27
   2  -7  -6   10.38    1.48
   2  -7  -6   17.86    2.14
   2  -7  -6   11.59    1.41
   2  -7  -6    7.91    1.18
  -2   7   7    8.51    1.19
  -2   7   7    5.34    1.30
   2  -7  -7   12.45    1.68
   2  -7  -7   11.57    1.58
   2  -7  -7   11.65    1.42
  -2   7   8    5.40    1.49
   2  -7  -8    7.51    1.63
   2  -7  -8   12.95    1.69
  -2   7   9    1.67    1.47
   2  -7  -9    3.45    1.59
   2  -7  -9    3.94    1.43
  -1   7 -15   -0.99    1.27
  -1   7 -15   -1.61    1.04
  -1   7 -15   -0.91    1.53
   1  -7  15   -1.23    1.21
   1  -7  15    0.05    1.15
  -1   7 -14   -0.17    1.21
  -1   7 -14   -1.96    0.86
  -1   7 -14   -0.31    1.38
   1  -7  14   -0.34    1.05
   1  -7  14    0.04    1.11
   1  -7  14    0.14    0.91
  -1   7 -13   -0.56    1.09
  -1   7 -13   -1.06    0.80
  -1   7 -13    0.83    1.30
   1  -7  13   -0.72    0.96
   1  -7  13   -0.53    1.08
   1  -7  13    0.36    0.88
  -1   7 -12    2.97    1.16
  -1   7 -12    1.77    0.86
  -1   7 -12    4.21    1.30
   1  -7  12    1.06    0.96
   1  -7  12    0.68    1.16
   1  -7  12    0.82    0.91
  -1   7 -11   10.92    1.38
  -1   7 -11    7.04    0.99
  -1   7 -11    8.27    1.40
   1  -7  11    7.32    1.10
   1  -7  11    8.54    1.38
   1  -7  11    8.49    1.22
  -1   7 -10   45.28    2.35
  -1   7 -10   43.17    1.84
  -1   7 -10   41.48    2.25
   1  -7  10   38.17    1.97
   1  -7  10   45.29    2.14
   1  -7  10   46.15    2.53
   1  -7  10   45.98    2.38
  -1   7  -9   48.96    2.36
  -1   7  -9   44.69    1.82
  -1   7  -9   44.77    2.22
   1  -7   9   42.33    1.90
   1  -7   9   52.26    2.11
   1  -7   9   54.52    2.63
   1  -7   9   51.20    2.44
  -1   7  -8  122.54    3.11
  -1   7  -8  110.73    2.42
  -1   7  -8  112.67    2.94
  -1   7  -8  120.80    2.54
   1  -7   8  139.99    2.90
   1  -7   8  140.26    3.34
   1  -7   8  132.12    3.21
  -1   7  -7  140.52    3.27
  -1   7  -7  122.64    2.45
  -1   7  -7  131.46    2.97
  -1   7  -7  128.44    2.63
   1  -7   7  161.76    3.03
   1  -7   7  153.22    3.37
   1  -7   7  145.83    3.26
  -1   7  -6   81.28    2.61
  -1   7  -6   64.55    1.86
  -1   7  -6   75.87    2.29
  -1   7  -6   76.46    2.19
   1  -7   6   96.72    2.53
   1  -7   6   82.24    2.20
   1  -7   6   84.29    2.68
   1  -7   6   84.84    2.67
  -1   7  -5  118.64    2.90
  -1   7  -5   97.16    2.13
  -1   7  -5  110.63    2.53
  -1   7  -5  113.77    2.56
   1  -7   5  137.62    2.84
   1  -7   5  122.03    2.41
   1  -7   5  119.04    2.89
   1  -7   5  126.83    3.06
  -1   7  -4    8.62    1.04
  -1   7  -4   11.69    1.23
  -1   7  -4   10.05    1.08
   1  -7   4   15.24    1.65
   1  -7   4   12.77    1.32
   1  -7   4    9.66    1.12
   1  -7   4   10.77    1.21
  -1   7  -3    0.25    0.73
  -1   7  -3   -0.06    0.51
  -1   7  -3    0.38    0.70
   1  -7   3    0.88    0.76
   1  -7   3   -0.03    0.64
   1  -7   3    0.22    0.72
   1  -7   3    0.14    0.77
  -1   7  -2    0.95    0.73
  -1   7  -2    1.22    0.57
  -1   7  -2    2.08    0.81
   1  -7   2    1.09    0.79
   1  -7   2    1.52    0.71
   1  -7   2    1.06    0.78
   1  -7   2    0.45    0.75
  -1   7  -1    2.13    0.76
  -1   7  -1    2.12    0.63
  -1   7  -1    2.48    0.87
   1  -7   1    2.37    0.87
   1  -7   1    2.96    0.79
   1  -7   1    1.86    0.83
   1  -7   1    2.14    0.83
  -1   7   0   12.81    1.45
  -1   7   0    9.00    1.06
  -1   7   0    8.36    1.12
   1  -7   0   10.24    1.25
   1  -7   0    9.59    0.99
   1  -7   0    7.73    1.05
   1  -7   0   10.16    1.19
  -1   7   1   15.14    1.53
  -1   7   1   11.90    1.14
  -1   7   1   10.42    1.20
   1  -7  -1   12.64    1.35
   1  -7  -1   12.57    1.45
   1  -7  -1   10.48    1.23
   1  -7  -1   14.40    1.79
  -1   7   2   45.04    2.01
  -1   7   2   35.65    1.51
  -1   7   2   36.27    2.03
   1  -7  -2   48.23    2.44
   1  -7  -2   44.32    2.00
   1  -7  -2   41.20    2.27
   1  -7  -2   37.57    2.16
  -1   7   3   50.14    2.12
  -1   7   3   41.27    2.19
   1  -7  -3   53.89    2.53
   1  -7  -3   54.18    2.23
   1  -7  -3   49.08    2.43
   1  -7  -3   45.88    2.32
  -1   7   4   44.31    2.10
  -1   7   4   35.88    2.18
   1  -7  -4   50.07    2.60
   1  -7  -4   49.45    2.32
   1  -7  -4   43.93    2.45
   1  -7  -4   42.54    2.30
  -1   7   5   41.60    2.05
  -1   7   5   34.39    2.23
   1  -7  -5   48.13    2.63
   1  -7  -5   45.54    2.33
   1  -7  -5   42.08    2.42
   1  -7  -5   39.43    2.27
  -1   7   6    6.22    1.03
  -1   7   6    5.76    1.27
   1  -7  -6   10.93    1.52
   1  -7  -6   10.81    1.32
   1  -7  -6    8.41    1.34
   1  -7  -6    6.76    1.16
  -1   7   7   -0.74    1.11
   1  -7  -7    1.72    1.23
   1  -7  -7    1.46    1.06
   1  -7  -7    0.20    1.04
   1  -7  -7   -1.82    0.83
  -1   7   8    2.35    1.39
   1  -7  -8    1.64    1.29
   1  -7  -8    3.29    1.24
   1  -7  -8   -1.02    1.07
  -1   7   9   -0.14    1.38
   1  -7  -9    1.54    1.40
   1  -7  -9    2.24    1.27
   0   7 -15    0.55    1.30
   0   7 -15    1.07    1.47
   0  -7  15   -1.19    1.18
   0   7 -14    1.30    1.25
   0   7 -14   -0.08    1.32
   0  -7  14   -1.76    1.06
   0  -7  14    0.59    1.06
   0   7 -13    9.88    1.53
   0   7 -13    7.51    1.52
   0  -7  13    3.42    1.16
   0  -7  13    6.14    1.36
   0  -7  13    4.57    1.08
   0   7 -12   29.97    2.38
   0   7 -12   23.22    2.32
   0  -7  12   20.00    2.11
   0  -7  12   28.41    2.44
   0  -7  12   23.51    2.07
   0   7 -11   57.62    2.67
   0   7 -11   48.25    2.54
   0  -7  11   44.11    2.29
   0  -7  11   56.13    2.75
   0  -7  11   54.06    2.46
   0   7 -10  102.58    3.06
   0   7 -10   95.04    2.97
   0  -7  10   91.34    2.62
   0  -7  10  115.66    3.25
   0  -7  10  107.32    3.04
   0   7  -9  121.63    3.18
   0   7  -9  108.93    2.96
   0   7  -9  116.04    2.59
   0  -7   9  109.75    2.61
   0  -7   9  133.23    3.25
   0  -7   9  126.04    3.15
   0   7  -8   72.49    2.62
   0   7  -8   69.59    2.43
   0   7  -8   68.30    2.13
   0  -7   8   69.09    2.05
   0  -7   8   88.44    2.29
   0  -7   8   83.71    2.68
   0  -7   8   82.32    2.64
   0   7  -7   53.97    2.34
   0   7  -7   48.74    2.05
   0   7  -7   51.30    1.96
   0  -7   7   49.44    1.74
   0  -7   7   66.01    2.01
   0  -7   7   57.85    2.32
   0  -7   7   57.23    2.35
   0   7  -6    6.95    1.05
   0   7  -6    8.85    1.05
   0   7  -6    8.34    1.04
   0  -7   6    6.73    0.77
   0  -7   6    8.66    0.97
   0  -7   6    8.91    1.10
   0  -7   6    8.62    1.18
   0   7  -5    1.27    0.84
   0   7  -5    1.51    0.68
   0   7  -5    0.42    0.70
   0  -7   5    0.11    0.73
   0  -7   5   -0.56    0.74
   0  -7   5    0.36    0.80
   0   7  -4    0.51    0.72
   0   7  -4    0.46    0.57
   0   7  -4   -0.30    0.65
   0  -7   4   -1.11    0.68
   0  -7   4   -0.54    0.71
   0  -7   4   -1.17    0.68
   0   7  -3    1.10    0.74
   0   7  -3    0.34    0.52
   0   7  -3   -0.35    0.70
   0  -7   3   -0.88    0.66
   0  -7   3   -1.30    0.72
   0   7  -2    0.11    0.76
   0   7  -2    0.24    0.50
   0   7  -2    0.09    0.72
   0  -7   2   -1.22    0.68
   0  -7   2   -1.63    0.74
   0   7  -1   13.29    1.51
   0   7  -1   10.64    1.03
   0   7  -1    9.68    1.14
   0  -7   1   10.11    1.19
   0  -7   1    8.83    1.14
   0  -7   1    9.60    1.15
   0   7   0   58.21    2.16
   0   7   0   49.01    2.41
   0   7   0   49.18    2.12
   0  -7   0   62.67    2.39
   0  -7   0   59.78    2.07
   0  -7   0   51.88    2.35
   0  -7   0   52.70    2.27
   0   7   1   78.99    2.43
   0   7   1   71.41    2.45
   0  -7  -1   89.31    2.74
   0  -7  -1   85.95    2.17
   0  -7  -1   81.76    2.70
   0  -7  -1   75.65    2.56
   0   7   2  108.76    2.74
   0   7   2   87.46    2.67
   0  -7  -2  121.96    3.11
   0  -7  -2  122.16    2.57
   0  -7  -2  106.66    3.01
   0  -7  -2  100.51    2.87
   0   7   3   67.68    2.33
   0   7   3   52.21    2.35
   0  -7  -3   76.20    2.72
   0  -7  -3   77.55    2.31
   0  -7  -3   71.37    2.75
   0  -7  -3   65.46    2.50
   0   7   4   39.39    2.04
   0   7   4   31.42    2.14
   0  -7  -4   49.13    2.50
   0  -7  -4   47.45    2.06
   0  -7  -4   43.31    2.39
   0  -7  -4   39.70    2.14
   0   7   5   19.97    1.77
   0   7   5   17.02    1.94
   0  -7  -5   27.54    2.27
   0  -7  -5   27.51    1.91
   0  -7  -5   22.79    2.17
   0  -7  -5   21.75    1.89
   0   7   6    2.37    1.12
   0  -7  -6    3.86    1.24
   0  -7  -6    3.78    1.05
   0  -7  -6    3.47    1.12
   0  -7  -6    2.60    0.94
   0   7   7    0.43    1.14
   0  -7  -7   -0.80    1.11
   0  -7  -7    0.57    0.96
   0  -7  -7    0.43    1.03
   0  -7  -7   -1.13    0.80
   0   7   8   -2.70    1.13
   0  -7  -8    1.23    1.32
   0  -7  -8    2.28    1.07
   0  -7  -8    0.16    1.07
   0  -7  -8    0.22    0.91
   0   7   9   -1.43    1.31
   0  -7  -9   -0.67    1.27
   0  -7  -9    0.34    1.12
   0  -7  -9   -1.21    1.09
   1   7 -15    5.19    1.61
   1   7 -15    4.48    1.66
  -1  -7  15    3.93    1.42
   1   7 -14    9.18    1.68
   1   7 -14    7.06    1.56
  -1  -7  14    3.80    1.33
   1   7 -13   46.79    2.83
   1   7 -13   36.16    2.64
  -1  -7  13   33.48    2.53
  -1  -7  13   39.51    2.61
   1   7 -12   69.60    3.01
   1   7 -12   52.19    2.68
  -1  -7  12   60.76    2.69
  -1  -7  12   73.28    2.92
  -1  -7  12   67.77    2.60
   1   7 -11   63.25    2.80
   1   7 -11   49.63    2.62
   1   7 -11   54.23    2.12
  -1  -7  11   57.58    2.44
  -1  -7  11   73.86    2.81
  -1  -7  11   61.75    2.52
   1   7 -10   59.77    2.67
   1   7 -10   51.09    2.45
   1   7 -10   58.35    2.16
  -1  -7  10   58.00    2.26
  -1  -7  10   64.21    2.57
  -1  -7  10   63.98    2.49
   1   7  -9   30.92    2.16
   1   7  -9   25.01    1.99
   1   7  -9   26.77    1.75
  -1  -7   9   24.85    1.68
  -1  -7   9   31.69    2.16
  -1  -7   9   28.31    2.00
   1   7  -8    3.59    1.02
   1   7  -8    3.95    1.02
   1   7  -8    3.81    0.90
  -1  -7   8    2.67    0.73
  -1  -7   8    2.98    0.93
  -1  -7   8    3.29    0.99
   1   7  -7    0.03    0.80
   1   7  -7    0.87    0.80
   1   7  -7    0.17    0.72
  -1  -7   7   -0.08    0.60
  -1  -7   7   -0.21    0.79
  -1  -7   7   -0.77    0.76
   1   7  -6    9.03    1.10
   1   7  -6    8.82    1.03
   1   7  -6    8.53    1.05
  -1  -7   6    6.14    0.83
  -1  -7   6    9.32    0.97
  -1  -7   6    8.58    1.11
  -1  -7   6    5.43    1.05
   1   7  -5    2.93    0.85
   1   7  -5    2.60    0.75
   1   7  -5    2.82    0.82
  -1  -7   5    0.18    0.58
  -1  -7   5    0.86    0.73
  -1  -7   5    0.78    0.80
  -1  -7   5    1.06    0.84
   1   7  -4   16.58    1.65
   1   7  -4   11.84    1.22
   1   7  -4   14.10    1.47
  -1  -7   4    5.99    0.85
  -1  -7   4   12.28    1.51
  -1  -7   4   10.64    1.18
  -1  -7   4   10.96    1.26
   1   7  -3   63.04    2.28
   1   7  -3   53.40    1.67
   1   7  -3   55.29    2.12
  -1  -7   3   35.37    1.56
  -1  -7   3   62.21    2.14
  -1  -7   3   55.30    2.32
  -1  -7   3   53.62    2.28
   1   7  -2  137.69    2.56
   1   7  -2  122.41    2.85
   1   7  -2  106.45    2.73
  -1  -7   2   79.51    2.00
  -1  -7   2  133.57    2.84
  -1  -7   2  111.90    2.95
  -1  -7   2  109.99    2.92
   1   7  -1   91.24    2.21
   1   7  -1   76.40    2.41
   1   7  -1   67.10    2.33
  -1  -7   1   49.73    1.76
  -1  -7   1   83.24    2.53
  -1  -7   1   78.74    2.71
  -1  -7   1   71.67    2.55
   1   7   0  174.06    2.79
   1   7   0  142.14    3.00
   1   7   0  127.46    3.05
  -1  -7   0  165.75    3.27
  -1  -7   0  142.53    3.31
  -1  -7   0  138.46    3.18
   1   7   1   79.07    2.10
   1   7   1   61.84    2.24
   1   7   1   52.63    2.30
  -1  -7  -1   74.42    2.54
  -1  -7  -1   66.53    2.60
  -1  -7  -1   62.01    2.39
   1   7   2   28.21    1.92
   1   7   2   23.50    1.75
   1   7   2   25.27    1.92
  -1  -7  -2   32.38    2.06
  -1  -7  -2   30.41    2.16
  -1  -7  -2   27.13    1.92
   1   7   3   13.49    1.60
   1   7   3   12.70    1.38
  -1  -7  -3   20.00    1.96
  -1  -7  -3   18.90    1.99
  -1  -7  -3   16.45    1.74
   1   7   4    0.09    0.93
   1   7   4   -0.49    0.91
  -1  -7  -4    1.02    1.00
  -1  -7  -4    0.63    0.97
  -1  -7  -4    0.39    0.82
   1   7   5    1.49    1.05
  -1  -7  -5    2.22    1.06
  -1  -7  -5    1.74    1.08
  -1  -7  -5    1.53    0.92
   1   7   6    1.91    1.15
  -1  -7  -6    2.87    1.25
  -1  -7  -6    1.08    1.12
  -1  -7  -6    1.09    0.89
   1   7   7   -0.87    1.14
  -1  -7  -7    0.41    1.17
  -1  -7  -7    1.95    1.15
  -1  -7  -7    0.37    0.90
   1   7   8   -1.02    1.20
  -1  -7  -8    0.12    1.31
  -1  -7  -8   -0.40    1.13
  -1  -7  -8   -1.07    0.88
   1   7   9    0.04    1.33
  -1  -7  -9    3.36    1.55
  -1  -7  -9    2.03    1.32
  -1  -7  -9    0.09    1.31
   2   7 -15   14.48    1.94
   2   7 -15   11.77    1.90
  -2  -7  15   11.66    1.79
   2   7 -14   24.02    2.66
   2   7 -14   13.03    1.81
  -2  -7  14   16.64    1.84
   2   7 -13   24.07    2.58
   2   7 -13   23.61    2.50
  -2  -7  13   24.65    2.37
   2   7 -12   35.22    2.60
   2   7 -12   33.39    2.48
   2   7 -12   31.73    1.91
  -2  -7  12   32.56    2.32
  -2  -7  12   39.06    3.70
   2   7 -11   26.66    2.34
   2   7 -11   22.85    2.14
   2   7 -11   24.18    1.81
  -2  -7  11   24.00    1.98
  -2  -7  11   29.74    2.11
  -2  -7  11   29.20    2.01
   2   7 -10    6.63    1.24
   2   7 -10    5.23    1.20
   2   7 -10    6.90    1.07
  -2  -7  10    4.93    1.01
  -2  -7  10    6.23    1.14
  -2  -7  10    5.82    1.06
   2   7  -9    4.10    1.07
   2   7  -9    2.70    1.00
   2   7  -9    3.75    0.95
  -2  -7   9    3.08    0.87
  -2  -7   9    2.91    0.99
  -2  -7   9    2.52    0.96
   2   7  -8    0.71    0.86
   2   7  -8    0.60    0.84
   2   7  -8   -0.10    0.75
  -2  -7   8   -1.39    0.63
  -2  -7   8   -1.09    0.83
  -2  -7   8   -2.04    0.76
   2   7  -7   -0.43    0.82
   2   7  -7   -0.09    0.79
   2   7  -7   -1.13    0.68
  -2  -7   7   -1.11    0.62
  -2  -7   7   -2.17    0.76
  -2  -7   7   -2.02    0.72
   2   7  -6    0.62    0.79
   2   7  -6   -0.58    0.73
   2   7  -6    0.95    0.78
  -2  -7   6   -1.54    0.63
  -2  -7   6   -0.88    0.78
  -2  -7   6   -0.67    0.81
   2   7  -5    8.05    1.14
   2   7  -5    8.04    1.00
   2   7  -5    8.29    1.11
  -2  -7   5    2.13    0.85
  -2  -7   5    7.51    1.18
  -2  -7   5    6.84    1.11
   2   7  -4   82.28    2.58
   2   7  -4   70.77    2.37
  -2  -7   4   46.36    1.93
  -2  -7   4   87.91    2.22
  -2  -7   4   76.89    2.67
  -2  -7   4   73.40    2.57
   2   7  -3  147.70    2.94
   2   7  -3  129.55    3.00
   2   7  -3  121.36    2.93
  -2  -7   3   81.61    2.28
  -2  -7   3  147.11    2.81
  -2  -7   3  128.10    3.22
  -2  -7   3  124.59    3.11
   2   7  -2  199.01    3.24
   2   7  -2  169.10    3.33
   2   7  -2  145.59    3.16
  -2  -7   2  110.47    2.52
  -2  -7   2  189.75    3.20
  -2  -7   2  168.81    3.57
  -2  -7   2  159.11    3.42
   2   7  -1  149.01    2.88
   2   7  -1  123.48    2.94
   2   7  -1  109.68    2.91
  -2  -7   1  145.62    2.98
  -2  -7   1  133.33    3.27
  -2  -7   1  118.70    3.04
   2   7   0  109.95    2.58
   2   7   0   87.31    2.57
   2   7   0   76.87    2.59
  -2  -7   0  101.22    2.66
  -2  -7   0   92.19    2.88
  -2  -7   0   85.40    2.67
   2   7   1   44.41    1.89
   2   7   1   33.35    1.93
   2   7   1   34.78    2.04
  -2  -7  -1   42.29    2.11
  -2  -7  -1   38.68    2.20
  -2  -7  -1   36.42    2.04
   2   7   2    0.46    0.71
   2   7   2   -0.59    0.77
   2   7   2    1.07    0.92
  -2  -7  -2    1.74    0.93
  -2  -7  -2    0.87    0.89
  -2  -7  -2    0.93    0.86
   2   7   3   -0.57    0.67
   2   7   3   -0.65    0.88
  -2  -7  -3    0.12    0.91
  -2  -7  -3    0.29    0.92
  -2  -7  -3   -0.12    0.78
   2   7   4    1.75    0.79
   2   7   4    0.91    1.04
  -2  -7  -4    2.79    1.10
  -2  -7  -4    0.07    0.98
  -2  -7  -4    1.19    0.88
   2   7   5   -0.24    0.77
   2   7   5    0.94    1.03
  -2  -7  -5    0.08    1.08
  -2  -7  -5   -0.06    1.02
  -2  -7  -5   -0.29    0.82
   2   7   6    3.90    1.03
   2   7   6    1.89    1.20
  -2  -7  -6    3.07    1.33
  -2  -7  -6    3.22    1.26
  -2  -7  -6    0.89    0.93
   2   7   7    9.36    1.43
   2   7   7    5.13    1.37
  -2  -7  -7    8.76    1.69
  -2  -7  -7    7.22    1.53
  -2  -7  -7    5.19    1.22
   2   7   8    4.14    1.41
  -2  -7  -8    9.23    1.73
  -2  -7  -8    7.25    1.59
   3   7 -15   11.50    1.92
   3   7 -15   10.65    1.88
  -3  -7  15   11.22    1.77
   3   7 -14   11.81    1.81
   3   7 -14   11.71    1.80
  -3  -7  14   11.30    1.63
   3   7 -13    6.99    1.58
   3   7 -13    5.90    1.47
   3   7 -13    3.75    1.16
  -3  -7  13    6.02    1.35
   3   7 -12   -0.73    1.18
   3   7 -12    2.42    1.23
   3   7 -12    1.36    1.01
  -3  -7  12    1.10    1.05
   3   7 -11   -0.14    1.07
   3   7 -11    0.41    1.02
   3   7 -11   -0.24    0.90
  -3  -7  11   -0.85    0.86
   3   7 -10    0.19    0.97
   3   7 -10   -0.90    0.89
   3   7 -10    0.39    0.87
  -3  -7  10   -0.81    0.81
  -3  -7  10   -1.11    0.89
  -3  -7  10   -2.18    0.78
   3   7  -9    1.14    0.96
   3   7  -9    0.56    0.86
   3   7  -9   -0.92    0.80
  -3  -7   9   -1.26    0.76
  -3  -7   9   -1.47    0.89
  -3  -7   9   -0.31    0.84
   3   7  -8   10.49    1.33
   3   7  -8   14.70    1.67
   3   7  -8   12.77    1.33
  -3  -7   8    7.74    1.14
  -3  -7   8   12.10    1.38
  -3  -7   8    9.16    1.22
   3   7  -7   50.13    2.40
   3   7  -7   39.81    1.88
   3   7  -7   42.33    2.06
  -3  -7   7   29.41    1.89
  -3  -7   7   45.67    2.40
  -3  -7   7   39.76    2.21
   3   7  -6   56.93    2.45
   3   7  -6   50.96    2.21
  -3  -7   6   35.10    1.98
  -3  -7   6   51.89    2.52
  -3  -7   6   51.22    2.38
   3   7  -5   86.59    2.74
   3   7  -5   78.21    2.55
  -3  -7   5   52.89    2.18
  -3  -7   5   87.08    2.88
  -3  -7   5   88.15    2.77
   3   7  -4  134.15    3.04
   3   7  -4  116.89    3.00
   3   7  -4  102.36    2.84
  -3  -7   4   73.16    2.41
  -3  -7   4  123.20    3.25
  -3  -7   4  115.10    3.06
   3   7  -3  146.43    3.08
   3   7  -3  119.78    3.01
   3   7  -3  102.18    2.83
  -3  -7   3   78.33    2.43
  -3  -7   3  124.98    3.23
  -3  -7   3  111.17    2.99
   3   7  -2   80.22    2.44
   3   7  -2   60.15    2.38
   3   7  -2   56.13    2.32
  -3  -7   2   42.94    2.07
  -3  -7   2   73.87    2.24
  -3  -7   2   69.52    2.68
  -3  -7   2   64.44    2.48
   3   7  -1    7.03    1.00
   3   7  -1    2.94    0.98
   3   7  -1    4.83    1.05
  -3  -7   1    6.69    0.97
  -3  -7   1    5.69    1.13
  -3  -7   1    4.55    0.99
   3   7   0    1.13    0.79
   3   7   0   -0.43    0.81
   3   7   0    1.23    0.91
  -3  -7   0    1.27    0.85
  -3  -7   0    0.64    0.92
  -3  -7   0    0.81    0.84
   3   7   1    0.84    0.78
   3   7   1    0.22    0.79
   3   7   1    1.05    0.88
  -3  -7  -1    0.89    0.89
  -3  -7  -1    1.10    0.96
  -3  -7  -1    0.33    0.84
   3   7   2   -0.74    0.72
   3   7   2    0.27    0.89
  -3  -7  -2   -0.65    0.88
  -3  -7  -2    0.44    0.94
  -3  -7  -2   -0.57    0.83
   3   7   3    0.54    0.78
   3   7   3    0.61    0.98
  -3  -7  -3    1.07    1.05
  -3  -7  -3    0.58    0.97
  -3  -7  -3    0.00    0.84
   3   7   4    1.82    0.91
   3   7   4    1.36    1.07
  -3  -7  -4    2.35    1.19
  -3  -7  -4    1.57    1.09
  -3  -7  -4    1.07    0.95
   3   7   5    9.47    1.23
   3   7   5    7.32    1.36
  -3  -7  -5    8.15    1.53
  -3  -7  -5    6.06    1.39
  -3  -7  -5    5.00    1.19
   3   7   6   29.08    2.37
   3   7   6   17.18    2.10
  -3  -7  -6   27.67    2.82
  -3  -7  -6   17.12    1.87
  -3  -7  -6   13.43    1.74
   3   7   7   38.07    2.68
   3   7   7   23.77    2.40
  -3  -7  -7   33.04    3.06
  -3  -7  -7   25.35    2.88
   4   7 -14    1.26    1.45
   4   7 -14    1.40    1.39
   4   7 -14    0.67    1.14
  -4  -7  14    0.05    1.31
   4   7 -13   -0.25    1.28
   4   7 -13    0.10    1.21
   4   7 -13   -0.29    1.12
  -4  -7  13   -0.58    1.15
   4   7 -12    0.42    1.22
   4   7 -12    1.38    1.15
   4   7 -12    0.21    1.09
  -4  -7  12   -1.14    1.07
   4   7 -11    1.70    1.24
   4   7 -11    1.37    1.05
   4   7 -11    0.58    1.01
  -4  -7  11   -0.95    0.98
   4   7 -10    1.52    1.18
   4   7 -10    1.91    0.97
   4   7 -10    1.95    1.02
  -4  -7  10    2.01    1.08
   4   7  -9   18.70    2.15
   4   7  -9   15.69    1.68
   4   7  -9   16.13    1.79
  -4  -7   9   10.70    1.39
  -4  -7   9   13.17    1.48
  -4  -7   9   10.60    1.35
   4   7  -8   43.36    2.51
   4   7  -8   38.11    2.18
  -4  -7   8   26.60    2.13
  -4  -7   8   44.22    2.51
  -4  -7   8   38.57    2.28
   4   7  -7   82.76    2.92
   4   7  -7   71.72    2.65
  -4  -7   7   54.41    2.44
  -4  -7   7   85.95    3.02
  -4  -7   7   74.27    2.69
   4   7  -6  104.22    3.09
   4   7  -6   93.80    2.88
  -4  -7   6   70.58    2.57
  -4  -7   6  104.91    3.13
  -4  -7   6  100.66    2.96
   4   7  -5   61.04    2.54
   4   7  -5   53.76    2.36
  -4  -7   5   37.40    2.12
  -4  -7   5   65.59    2.70
  -4  -7   5   59.40    2.51
   4   7  -4   29.92    2.08
   4   7  -4   22.38    2.00
   4   7  -4   22.92    1.87
  -4  -7   4   10.57    1.28
  -4  -7   4   26.69    2.21
  -4  -7   4   21.20    1.95
   4   7  -3   14.76    1.82
   4   7  -3   12.67    1.37
   4   7  -3   13.46    1.63
  -4  -7   3    6.36    1.20
  -4  -7   3   11.06    1.37
  -4  -7   3   16.48    1.80
   4   7  -2    7.69    1.11
   4   7  -2    7.41    1.11
   4   7  -2    6.49    1.12
  -4  -7   2    3.04    1.11
  -4  -7   2    8.47    1.24
  -4  -7   2    5.94    1.09
   4   7  -1   -0.04    0.83
   4   7  -1    0.09    0.76
   4   7  -1    0.76    0.86
  -4  -7   1   -0.26    0.86
  -4  -7   1    0.01    0.94
  -4  -7   1   -0.30    0.80
   4   7   0    0.21    0.83
   4   7   0    1.28    0.76
   4   7   0    0.42    0.87
  -4  -7   0    0.21    0.85
  -4  -7   0   -0.27    0.96
  -4  -7   0    0.34    0.85
   4   7   1    2.86    0.96
   4   7   1    4.04    1.09
  -4  -7  -1    3.81    1.07
  -4  -7  -1    3.43    1.13
  -4  -7  -1    2.09    1.01
   4   7   2    7.98    1.20
   4   7   2    4.47    1.16
  -4  -7  -2    4.52    1.24
  -4  -7  -2    4.65    1.24
  -4  -7  -2    4.27    1.14
   4   7   3   10.87    1.39
   4   7   3   10.52    1.42
  -4  -7  -3    7.31    1.45
  -4  -7  -3    7.33    1.39
  -4  -7  -3    5.84    1.22
   4   7   4   29.66    2.38
   4   7   4   18.69    2.12
  -4  -7  -4   24.25    2.62
  -4  -7  -4   24.72    2.63
  -4  -7  -4   11.59    1.48
   4   7   5   34.89    2.61
   4   7   5   25.84    2.23
  -4  -7  -5   29.90    2.83
  -4  -7  -5   29.42    2.80
   4   7   6   27.82    2.66
   4   7   6   19.26    2.19
  -4  -7  -6   25.02    2.99
  -4  -7  -6   19.08    2.11
   5   7 -13    0.18    1.43
   5   7 -13   -0.59    1.19
   5   7 -13   -0.64    1.25
  -5  -7  13   -0.67    1.30
   5   7 -12    3.13    1.48
   5   7 -12    2.86    1.22
   5   7 -12    1.44    1.26
  -5  -7  12    2.05    1.35
   5   7 -11    8.64    1.66
   5   7 -11    6.14    1.29
   5   7 -11    6.38    1.40
  -5  -7  11    7.20    1.49
   5   7 -10   11.28    1.63
   5   7 -10   11.90    1.58
  -5  -7  10    8.77    1.45
   5   7  -9   30.79    2.51
   5   7  -9   28.42    2.17
  -5  -7   9   22.02    2.27
   5   7  -8   61.32    2.90
   5   7  -8   52.10    2.54
  -5  -7   8   43.84    2.52
  -5  -7   8   61.26    2.78
   5   7  -7   54.13    2.71
   5   7  -7   46.31    2.43
  -5  -7   7   39.05    2.38
  -5  -7   7   63.38    2.84
  -5  -7   7   48.77    2.46
   5   7  -6   35.92    2.36
   5   7  -6   29.66    2.11
  -5  -7   6   23.55    2.07
  -5  -7   6   33.01    2.38
  -5  -7   6   29.02    2.20
   5   7  -5   17.54    2.08
   5   7  -5   16.80    1.98
   5   7  -5   15.58    1.80
  -5  -7   5    8.22    1.28
  -5  -7   5   13.53    1.51
  -5  -7   5   15.32    1.90
   5   7  -4    0.41    0.96
   5   7  -4    1.35    0.92
   5   7  -4    0.79    0.92
  -5  -7   4   -1.09    1.00
  -5  -7   4    0.21    1.02
  -5  -7   4    0.51    0.90
   5   7  -3    1.87    1.03
   5   7  -3    1.59    0.91
   5   7  -3    3.16    1.04
  -5  -7   3   -1.46    1.04
  -5  -7   3    1.72    1.11
  -5  -7   3    2.12    0.97
   5   7  -2   -0.11    0.94
   5   7  -2    0.69    0.78
   5   7  -2    0.88    0.92
  -5  -7   2   -2.51    0.94
  -5  -7   2    0.51    1.06
  -5  -7   2    0.15    0.89
   5   7  -1   -1.65    0.92
   5   7  -1    0.00    0.77
   5   7  -1   -0.14    0.86
  -5  -7   1   -0.04    1.05
  -5  -7   1    0.06    0.93
   5   7   0    0.43    1.06
   5   7   0    1.18    1.03
  -5  -7   0    0.14    1.13
  -5  -7   0    1.56    0.98
   5   7   1   24.45    2.41
   5   7   1   23.10    2.09
  -5  -7  -1   27.71    2.35
  -5  -7  -1   22.31    2.53
  -5  -7  -1   20.66    2.22
   5   7   2   95.25    3.41
   5   7   2   64.96    2.79
  -5  -7  -2   83.75    3.15
  -5  -7  -2   76.62    3.42
  -5  -7  -2   64.11    2.94
   5   7   3   78.06    3.33
   5   7   3   51.43    2.67
  -5  -7  -3   68.68    3.19
  -5  -7  -3   63.14    3.35
   5   7   4   35.20    2.85
   5   7   4   20.61    2.36
  -5  -7  -4   28.95    2.78
  -5  -7  -4   26.91    2.90
   5   7   5   24.58    2.72
   5   7   5   12.62    1.77
  -5  -7  -5   11.36    1.85
  -5  -7  -5   14.16    1.99
   6   7 -11   25.13    2.82
   6   7 -11   21.87    2.28
  -6  -7  11   23.14    2.62
   6   7 -10   21.11    2.63
   6   7 -10   17.21    2.14
  -6  -7  10   14.47    1.79
   6   7  -9    6.43    1.48
   6   7  -9    4.78    1.36
  -6  -7   9    2.94    1.29
   6   7  -8    6.52    1.45
   6   7  -8    4.50    1.32
  -6  -7   8    3.59    1.30
   6   7  -7    5.99    1.39
   6   7  -7    8.41    1.44
  -6  -7   7    6.03    1.37
  -6  -7   7    6.85    1.42
   6   7  -6    3.39    1.26
   6   7  -6    2.82    1.16
  -6  -7   6    1.61    1.13
  -6  -7   6    3.23    1.17
  -6  -7   6    2.38    1.04
   6   7  -5   -1.71    1.05
   6   7  -5   -0.68    0.94
   6   7  -5   -0.25    0.95
  -6  -7   5   -1.74    1.02
  -6  -7   5   -0.59    1.03
  -6  -7   5   -1.30    0.86
   6   7  -4   -0.97    1.10
   6   7  -4    0.48    0.97
   6   7  -4    0.84    1.02
  -6  -7   4   -0.49    1.10
  -6  -7   4    0.12    1.11
  -6  -7   4   -0.96    0.88
   6   7  -3   -1.64    1.11
   6   7  -3    1.34    0.93
   6   7  -3    1.08    1.07
  -6  -7   3   -0.62    1.10
  -6  -7   3    2.43    1.30
  -6  -7   3    1.92    1.04
   6   7  -2    5.31    1.38
   6   7  -2    4.27    1.27
  -6  -7   2    5.29    1.31
  -6  -7   2    7.36    1.56
  -6  -7   2    4.82    1.23
   6   7  -1   27.01    2.56
   6   7  -1   22.91    2.26
  -6  -7   1   27.07    2.75
  -6  -7   1   18.83    2.26
   6   7   0   35.77    2.82
   6   7   0   26.49    2.40
  -6  -7   0   37.64    3.04
  -6  -7   0   20.01    2.90
   6   7   1   26.75    2.77
   6   7   1   18.93    2.23
  -6  -7  -1   29.09    2.93
   6   7   2   36.20    2.93
   6   7   2   26.33    2.53
  -6  -7  -2   35.35    3.24
   6   7   3   48.72    3.18
   6   7   3   33.28    2.61
  -6  -7  -3   36.36    3.10
  -6  -7  -3   35.28    3.27
   7   7  -8    0.32    1.32
   7   7  -8   -0.09    1.18
  -7  -7   8   -0.70    1.22
   7   7  -7   -0.06    1.20
   7   7  -7   -0.54    1.16
  -7  -7   7   -0.10    1.28
   7   7  -6    0.28    1.18
   7   7  -6    0.09    1.15
   7   7  -5   -0.16    1.08
   7   7  -5    0.71    1.21
  -7  -7   5   -0.27    1.35
  -7  -7   5    0.70    1.27
   7   7  -4    1.25    1.46
   7   7  -4    4.43    1.27
   7   7  -4    5.72    1.45
  -7  -7   4    1.92    1.46
  -7  -7   4    3.91    1.51
  -7  -7   4    4.29    1.26
   7   7  -3   19.56    2.08
   7   7  -3   21.13    2.38
  -7  -7   3   15.90    1.87
  -7  -7   3   19.81    2.16
  -7  -7   3   13.35    1.98
   7   7  -2   39.07    2.96
   7   7  -2   27.09    2.43
  -7  -7   2   26.59    2.52
  -7  -7   2   39.73    3.28
   7   7  -1   42.06    3.05
   7   7  -1   28.20    2.45
  -7  -7   1   43.03    3.41
  -6   8  -8   15.30    1.86
  -6   8  -8   13.19    1.65
  -6   8  -8   14.23    1.89
   6  -8   8   17.61    2.28
   6  -8   8   14.74    2.12
   6  -8   8   17.07    2.22
  -6   8  -7   11.30    1.76
  -6   8  -7   10.32    1.64
  -6   8  -7   10.56    1.59
   6  -8   7   18.07    2.17
   6  -8   7   15.59    2.08
   6  -8   7   13.46    2.03
  -6   8  -6   10.55    1.63
  -6   8  -6    8.47    1.56
  -6   8  -6   10.86    1.59
   6  -8   6   14.99    2.04
   6  -8   6   13.00    1.88
   6  -8   6   11.65    1.90
  -6   8  -5    7.53    1.56
  -6   8  -5    7.39    1.41
   6  -8   5    8.53    1.85
   6  -8   5    5.26    1.60
   6  -8   5    6.15    1.65
  -6   8  -4    1.56    1.21
  -6   8  -4    2.12    1.06
   6  -8   4    2.81    1.48
   6  -8   4    0.35    1.48
   6  -8   4    1.38    1.44
   6  -8   4    0.66    1.72
  -6   8  -3   -1.05    1.09
  -6   8  -3   -0.46    0.90
   6  -8   3    0.83    1.41
   6  -8   3    1.05    1.42
   6  -8   3    0.82    1.34
   6  -8   3   -0.86    0.92
  -6   8  -2    2.64    1.19
  -6   8  -2    1.74    1.07
  -6   8  -2    0.83    1.14
   6  -8   2    2.91    1.46
   6  -8   2    2.28    1.47
   6  -8   2    2.92    1.34
   6  -8   2    2.97    1.14
  -6   8  -1    2.29    1.22
  -6   8  -1    1.33    1.07
  -6   8  -1   -0.04    1.07
   6  -8   1    5.02    1.61
   6  -8   1    2.55    1.51
   6  -8   1    4.06    1.41
   6  -8   1    3.58    1.12
  -6   8   0    1.99    1.35
  -6   8   0    0.38    1.07
  -6   8   0   -0.70    1.07
   6  -8   0   -0.68    1.32
   6  -8   0   -1.19    1.43
   6  -8   0    1.95    1.31
   6  -8   0    0.91    0.98
   6  -8   0   -0.59    1.48
  -6   8   1    3.98    1.47
  -6   8   1    1.53    1.07
  -6   8   1    2.85    1.32
   6  -8  -1    5.83    1.70
   6  -8  -1    4.33    1.63
   6  -8  -1    4.28    1.35
   6  -8  -1    4.85    1.20
   6  -8  -1    3.72    1.73
  -6   8   2   12.70    1.84
  -6   8   2    8.61    1.47
  -6   8   2    5.54    1.53
   6  -8  -2   16.24    2.10
   6  -8  -2   14.97    1.97
   6  -8  -2   12.76    1.65
   6  -8  -2   12.14    1.97
  -6   8   3   11.58    1.88
  -6   8   3    7.46    1.39
  -6   8   3    5.37    1.51
   6  -8  -3   12.23    2.04
   6  -8  -3   10.83    1.82
   6  -8  -3    9.88    1.98
  -5   8 -10   22.27    2.61
  -5   8 -10   21.91    2.29
  -5   8 -10   20.73    2.48
   5  -8  10   24.74    2.97
   5  -8  10   29.42    3.28
  -5   8  -9   13.06    1.75
  -5   8  -9   10.86    1.47
  -5   8  -9   13.35    1.69
   5  -8   9   13.71    2.01
   5  -8   9   14.98    2.01
   5  -8   9   13.55    2.04
  -5   8  -8   10.73    1.60
  -5   8  -8    9.52    1.38
  -5   8  -8    8.93    1.48
   5  -8   8   14.77    1.99
   5  -8   8   11.27    1.77
   5  -8   8   10.08    1.79
  -5   8  -7    8.99    1.52
  -5   8  -7    7.57    1.31
  -5   8  -7    7.29    1.33
   5  -8   7   14.14    1.91
   5  -8   7    7.21    1.55
   5  -8   7    9.10    1.69
   5  -8   7    8.30    1.71
  -5   8  -6    3.33    1.25
  -5   8  -6   -0.23    0.94
  -5   8  -6    1.93    1.05
   5  -8   6    4.40    1.43
   5  -8   6    0.62    1.33
   5  -8   6    1.98    1.30
   5  -8   6    2.82    1.07
  -5   8  -5    0.46    1.04
  -5   8  -5    1.14    0.90
   5  -8   5    0.94    1.29
   5  -8   5   -1.08    1.21
   5  -8   5    0.49    1.22
   5  -8   5    0.49    0.97
  -5   8  -4    4.71    1.29
  -5   8  -4    2.98    1.07
   5  -8   4    4.25    1.35
   5  -8   4    3.00    1.35
   5  -8   4    7.83    1.52
   5  -8   4    3.70    1.11
  -5   8  -3    5.18    1.34
  -5   8  -3    4.81    1.11
  -5   8  -3    2.22    1.02
   5  -8   3    5.35    1.43
   5  -8   3    2.82    1.38
   5  -8   3    6.04    1.45
   5  -8   3    5.02    1.22
  -5   8  -2   12.29    1.55
  -5   8  -2   10.06    1.40
  -5   8  -2    8.11    1.30
   5  -8   2   14.33    1.83
   5  -8   2   13.34    1.72
   5  -8   2   14.02    1.74
   5  -8   2   12.13    1.51
  -5   8  -1   33.31    2.44
  -5   8  -1   22.61    2.04
  -5   8  -1   24.92    2.17
   5  -8   1   42.60    2.85
   5  -8   1   39.61    2.59
   5  -8   1   39.47    2.97
   5  -8   1   37.86    2.51
  -5   8   0   17.71    2.20
  -5   8   0   16.29    1.86
  -5   8   0   12.59    1.55
   5  -8   0   27.45    2.55
   5  -8   0   27.76    2.49
   5  -8   0   28.53    2.71
   5  -8   0   22.00    2.24
   5  -8   0   16.00    1.86
  -5   8   1    3.24    1.27
  -5   8   1    2.06    0.99
  -5   8   1    0.32    1.19
   5  -8  -1    7.67    1.59
   5  -8  -1    5.25    1.47
   5  -8  -1    5.11    1.34
   5  -8  -1    4.05    1.17
   5  -8  -1    2.73    1.44
  -5   8   2    4.86    1.34
  -5   8   2    3.81    1.09
  -5   8   2    3.01    1.29
   5  -8  -2    5.97    1.52
   5  -8  -2    7.07    1.51
   5  -8  -2    5.59    1.30
   5  -8  -2    4.88    1.17
   5  -8  -2    5.03    1.54
  -5   8   3    2.95    1.35
  -5   8   3    5.12    1.15
  -5   8   3    2.93    1.37
   5  -8  -3    7.49    1.67
   5  -8  -3    7.85    1.54
   5  -8  -3    5.26    1.33
   5  -8  -3    5.43    1.56
  -5   8   4    1.08    1.20
  -5   8   4    1.33    0.96
  -5   8   4   -0.16    1.20
   5  -8  -4    2.87    1.61
   5  -8  -4    1.53    1.40
   5  -8  -4    2.06    1.46
  -5   8   5    0.82    1.26
  -5   8   5    1.11    0.99
  -5   8   5   -0.48    1.23
   5  -8  -5   -1.77    1.39
   5  -8  -5   -2.17    1.30
   5  -8  -5   -1.15    1.32
  -4   8 -11   14.30    1.77
  -4   8 -11   14.14    1.66
  -4   8 -11   14.31    1.88
   4  -8  11   19.97    2.04
   4  -8  11   21.15    2.32
  -4   8 -10   30.14    2.61
  -4   8 -10   29.24    2.19
  -4   8 -10   30.94    2.43
   4  -8  10   41.11    2.91
   4  -8  10   38.01    3.15
  -4   8  -9   19.41    2.30
  -4   8  -9   16.78    1.83
  -4   8  -9   16.81    2.02
   4  -8   9   26.70    2.61
   4  -8   9   18.67    1.97
   4  -8   9   17.88    2.19
  -4   8  -8    2.66    1.22
  -4   8  -8    2.87    0.95
  -4   8  -8    2.45    1.06
   4  -8   8    5.73    1.40
   4  -8   8    4.08    1.33
   4  -8   8    4.21    1.38
   4  -8   8    2.61    1.07
  -4   8  -7    3.03    1.13
  -4   8  -7    4.59    0.97
  -4   8  -7    4.45    1.12
   4  -8   7    6.22    1.40
   4  -8   7    4.36    1.28
   4  -8   7    4.06    1.29
   4  -8   7    2.77    1.05
  -4   8  -6    4.34    1.13
  -4   8  -6    5.44    1.02
  -4   8  -6    4.01    1.07
   4  -8   6    4.60    1.31
   4  -8   6    3.69    1.28
   4  -8   6    4.05    1.22
   4  -8   6    3.33    1.07
  -4   8  -5    2.01    1.06
  -4   8  -5    2.47    0.94
   4  -8   5    3.28    1.23
   4  -8   5    1.94    1.18
   4  -8   5    3.05    1.24
   4  -8   5    2.08    1.03
  -4   8  -4    7.09    1.21
  -4   8  -4    6.25    1.17
  -4   8  -4    8.74    1.16
   4  -8   4    8.99    1.46
   4  -8   4    8.50    1.44
   4  -8   4    8.84    1.54
   4  -8   4    8.21    1.30
  -4   8  -3   20.88    2.06
  -4   8  -3   18.69    1.77
  -4   8  -3   19.94    1.85
   4  -8   3   28.12    2.45
   4  -8   3   22.97    2.20
   4  -8   3   30.31    2.57
   4  -8   3   25.29    2.22
  -4   8  -2   27.67    2.31
  -4   8  -2   22.35    1.89
  -4   8  -2   22.72    1.95
   4  -8   2   36.03    2.56
   4  -8   2   34.94    2.39
   4  -8   2   39.19    2.72
   4  -8   2   30.90    2.36
  -4   8  -1   23.67    2.25
  -4   8  -1   24.08    1.91
  -4   8  -1   21.75    2.09
   4  -8   1   35.65    2.65
   4  -8   1   41.69    2.45
   4  -8   1   37.31    2.67
   4  -8   1   33.87    2.36
  -4   8   0   28.02    2.29
  -4   8   0   26.19    1.89
  -4   8   0   21.58    2.16
   4  -8   0   39.26    2.65
   4  -8   0   39.42    2.41
   4  -8   0   40.47    2.78
   4  -8   0   32.28    2.23
  -4   8   1   10.80    1.40
  -4   8   1   10.03    1.25
  -4   8   1    9.47    1.45
   4  -8  -1   13.13    1.57
   4  -8  -1   14.67    1.60
   4  -8  -1   14.00    1.65
   4  -8  -1    9.77    1.28
   4  -8  -1   10.89    1.52
  -4   8   2    0.08    0.98
  -4   8   2    0.68    0.75
  -4   8   2   -0.01    1.07
   4  -8  -2    0.13    1.10
   4  -8  -2    0.72    1.11
   4  -8  -2    0.51    1.13
   4  -8  -2   -0.14    0.83
   4  -8  -2    1.33    1.14
  -4   8   3    1.20    1.07
  -4   8   3    0.86    0.82
  -4   8   3    0.21    1.08
   4  -8  -3   -0.96    1.15
   4  -8  -3   -0.18    1.14
   4  -8  -3   -0.25    1.13
   4  -8  -3   -0.71    0.80
   4  -8  -3    0.89    1.17
  -4   8   4   -0.54    1.04
  -4   8   4    0.07    0.77
  -4   8   4   -1.73    1.02
   4  -8  -4   -1.17    1.33
   4  -8  -4   -0.04    1.22
   4  -8  -4   -0.13    1.15
   4  -8  -4   -0.66    1.16
  -4   8   5   -1.16    1.01
  -4   8   5   -1.05    0.88
  -4   8   5   -0.75    1.13
   4  -8  -5   -3.73    1.25
   4  -8  -5    0.13    1.37
   4  -8  -5   -0.95    1.22
  -4   8   6   -1.34    1.09
  -4   8   6   -1.14    1.15
   4  -8  -6   -2.37    1.39
   4  -8  -6    0.05    1.47
  -3   8 -13    9.11    1.67
  -3   8 -13    6.68    1.34
  -3   8 -13    8.59    1.91
   3  -8  13   10.60    1.95
  -3   8 -12    7.56    1.62
  -3   8 -12    6.18    1.21
  -3   8 -12    7.69    1.67
   3  -8  12    7.62    1.48
   3  -8  12   12.13    1.94
  -3   8 -11    4.40    1.42
  -3   8 -11    3.71    1.07
  -3   8 -11    3.81    1.35
   3  -8  11    7.59    1.39
   3  -8  11    6.97    1.67
   3  -8  11    4.22    1.26
  -3   8 -10    8.45    1.49
  -3   8 -10    6.41    1.12
  -3   8 -10    7.06    1.38
   3  -8  10    7.35    1.38
   3  -8  10    8.87    1.65
   3  -8  10    7.37    1.27
  -3   8  -9   10.68    1.49
  -3   8  -9    8.43    1.13
  -3   8  -9    9.22    1.37
   3  -8   9   14.05    1.58
   3  -8   9   11.06    1.62
   3  -8   9    7.72    1.30
  -3   8  -8    6.19    1.31
  -3   8  -8    6.28    1.01
  -3   8  -8    4.25    1.11
   3  -8   8    6.75    1.31
   3  -8   8    7.85    1.30
   3  -8   8    5.81    1.36
   3  -8   8    8.11    1.28
  -3   8  -7   11.81    1.41
  -3   8  -7   10.11    1.15
  -3   8  -7   12.63    1.43
   3  -8   7   14.34    1.53
   3  -8   7   10.87    1.38
   3  -8   7   14.45    1.72
   3  -8   7   11.72    1.40
  -3   8  -6   29.47    2.18
  -3   8  -6   28.38    1.74
  -3   8  -6   27.35    1.93
   3  -8   6   35.71    2.45
   3  -8   6   30.84    2.12
   3  -8   6   36.80    2.61
   3  -8   6   33.32    2.30
  -3   8  -5   34.13    2.27
  -3   8  -5   30.19    1.91
  -3   8  -5   32.27    1.87
   3  -8   5   46.51    2.57
   3  -8   5   39.07    2.18
   3  -8   5   41.28    2.67
   3  -8   5   40.11    2.42
  -3   8  -4   20.66    2.05
  -3   8  -4   15.62    1.66
  -3   8  -4   21.00    1.77
   3  -8   4   28.58    2.28
   3  -8   4   22.00    1.91
   3  -8   4   28.25    2.42
   3  -8   4   23.95    2.14
  -3   8  -3   20.44    2.02
  -3   8  -3   17.55    1.62
  -3   8  -3   19.30    1.83
   3  -8   3   28.68    2.28
   3  -8   3   25.53    2.00
   3  -8   3   29.43    2.44
   3  -8   3   25.92    2.12
  -3   8  -2   21.56    2.01
  -3   8  -2   18.92    1.63
  -3   8  -2   20.37    1.86
   3  -8   2   31.04    2.35
   3  -8   2   33.01    2.15
   3  -8   2   30.63    2.43
   3  -8   2   23.49    2.07
  -3   8  -1   14.65    1.81
  -3   8  -1   15.05    1.52
  -3   8  -1   14.44    1.47
   3  -8   1   22.80    2.21
   3  -8   1   22.29    1.99
   3  -8   1   20.91    2.43
   3  -8   1   21.49    2.02
  -3   8   0    8.13    1.34
  -3   8   0    8.02    1.09
  -3   8   0    7.95    1.30
   3  -8   0    8.47    1.39
   3  -8   0    9.60    1.31
   3  -8   0    7.90    1.38
   3  -8   0    7.37    1.22
  -3   8   1    1.87    1.00
  -3   8   1    0.99    0.76
  -3   8   1   -0.11    0.97
   3  -8  -1    0.59    1.09
   3  -8  -1    2.03    1.02
   3  -8  -1    0.27    1.09
   3  -8  -1    0.34    0.91
  -3   8   2    0.59    0.91
  -3   8   2    0.63    0.69
  -3   8   2   -0.92    0.94
   3  -8  -2    0.15    1.14
   3  -8  -2   -2.02    0.91
   3  -8  -2   -2.08    1.03
   3  -8  -2   -1.80    0.83
   3  -8  -2    0.90    1.05
  -3   8   3   -0.50    0.96
  -3   8   3    0.85    0.71
  -3   8   3   -0.19    0.99
   3  -8  -3   -0.46    1.21
   3  -8  -3   -0.92    1.04
   3  -8  -3   -1.49    1.13
   3  -8  -3   -1.07    0.85
   3  -8  -3   -1.57    0.94
  -3   8   4    1.84    1.12
  -3   8   4    2.33    1.18
   3  -8  -4    2.44    1.35
   3  -8  -4    3.71    1.31
   3  -8  -4    2.39    1.30
   3  -8  -4    1.47    0.97
  -3   8   5    3.28    1.25
  -3   8   5    3.08    1.28
   3  -8  -5    3.63    1.54
   3  -8  -5    3.80    1.42
   3  -8  -5    4.01    1.38
   3  -8  -5    2.85    1.60
  -3   8   6    2.53    1.25
  -3   8   6    1.45    1.29
   3  -8  -6    3.71    1.67
   3  -8  -6    2.85    1.53
  -2   8 -13   14.04    1.85
  -2   8 -13    7.01    1.28
  -2   8 -13    9.70    1.82
   2  -8  13   14.39    1.96
  -2   8 -12    6.61    1.49
  -2   8 -12    4.53    1.04
  -2   8 -12    5.78    1.54
   2  -8  12    7.78    1.66
   2  -8  12    6.63    1.24
  -2   8 -11    4.27    1.33
  -2   8 -11    3.23    0.93
  -2   8 -11    3.28    1.29
   2  -8  11    4.91    1.48
   2  -8  11    3.68    1.10
  -2   8 -10    9.47    1.46
  -2   8 -10    7.66    1.07
  -2   8 -10    8.04    1.41
   2  -8  10   10.29    1.33
   2  -8  10   11.69    1.65
   2  -8  10    8.61    1.28
  -2   8  -9   21.44    2.26
  -2   8  -9   19.17    1.54
  -2   8  -9   16.50    1.92
   2  -8   9   23.70    2.04
   2  -8   9   21.48    2.61
   2  -8   9   20.05    2.09
  -2   8  -8    8.31    1.38
  -2   8  -8    6.48    0.94
  -2   8  -8    6.80    1.22
   2  -8   8    9.02    1.26
   2  -8   8    7.81    1.42
   2  -8   8    8.20    1.31
  -2   8  -7   17.84    2.10
  -2   8  -7   17.52    1.44
  -2   8  -7   18.03    1.78
  -2   8  -7   19.55    1.61
   2  -8   7   23.20    2.11
   2  -8   7   16.67    1.83
   2  -8   7   18.73    1.78
   2  -8   7   19.42    2.20
  -2   8  -6   27.04    2.19
  -2   8  -6   25.15    1.59
  -2   8  -6   24.91    1.80
  -2   8  -6   29.85    1.85
   2  -8   6   33.31    2.27
   2  -8   6   29.65    1.99
   2  -8   6   31.80    2.52
   2  -8   6   30.24    2.34
  -2   8  -5   49.92    2.45
  -2   8  -5   46.11    2.12
  -2   8  -5   46.58    2.09
   2  -8   5   62.72    2.63
   2  -8   5   53.87    2.19
   2  -8   5   53.72    2.71
   2  -8   5   55.02    2.65
  -2   8  -4   37.42    2.22
  -2   8  -4   34.16    1.83
  -2   8  -4   34.80    1.98
   2  -8   4   48.74    2.47
   2  -8   4   44.21    2.03
   2  -8   4   43.38    2.48
   2  -8   4   43.77    2.40
  -2   8  -3   12.39    1.43
  -2   8  -3    9.90    1.12
  -2   8  -3    8.18    1.19
   2  -8   3   16.02    1.99
   2  -8   3   10.38    1.18
   2  -8   3    9.30    1.26
   2  -8   3   10.66    1.37
  -2   8  -2    6.34    1.12
  -2   8  -2    7.07    0.95
  -2   8  -2    6.87    1.16
   2  -8   2    8.25    1.26
   2  -8   2    8.32    1.13
   2  -8   2    7.97    1.24
   2  -8   2    7.86    1.29
  -2   8  -1    0.60    0.85
  -2   8  -1    2.05    0.74
  -2   8  -1    1.13    0.95
   2  -8   1    0.66    0.94
   2  -8   1    1.53    0.91
   2  -8   1    0.53    0.95
   2  -8   1    1.24    1.01
  -2   8   0    6.74    1.16
  -2   8   0    6.47    0.92
  -2   8   0    4.71    1.08
   2  -8   0    6.61    1.31
   2  -8   0    5.17    1.09
   2  -8   0    4.59    1.19
   2  -8   0    6.25    1.17
  -2   8   1   10.05    1.32
  -2   8   1    9.25    1.06
  -2   8   1   10.25    1.33
   2  -8  -1   11.20    1.53
   2  -8  -1   10.62    1.28
   2  -8  -1    9.39    1.44
   2  -8  -1    7.96    1.24
  -2   8   2    3.18    1.01
  -2   8   2    2.77    1.08
   2  -8  -2    1.37    1.26
   2  -8  -2    1.01    1.02
   2  -8  -2    2.28    1.22
   2  -8  -2    1.89    1.03
  -2   8   3    4.46    1.19
  -2   8   3    3.41    1.13
   2  -8  -3    2.74    1.29
   2  -8  -3    4.91    1.21
   2  -8  -3    1.54    1.24
   2  -8  -3    2.27    1.01
  -2   8   4    9.74    1.41
  -2   8   4    7.63    1.37
   2  -8  -4   11.25    1.68
   2  -8  -4    7.91    1.39
   2  -8  -4   10.18    1.56
   2  -8  -4    6.31    1.17
  -2   8   5    4.70    1.22
  -2   8   5    5.36    1.39
   2  -8  -5    8.11    1.58
   2  -8  -5    8.46    1.47
   2  -8  -5    7.49    1.47
   2  -8  -5    4.06    1.05
  -2   8   6    3.30    1.23
  -2   8   6    5.09    1.44
   2  -8  -6    7.53    1.71
   2  -8  -6    8.83    1.59
   2  -8  -6    7.23    1.40
   2  -8  -6    4.94    1.30
  -2   8   7    0.78    1.43
   2  -8  -7    7.36    1.76
   2  -8  -7    8.06    1.60
  -1   8 -14    9.25    1.82
  -1   8 -14    8.01    1.91
   1  -8  14    9.44    1.73
   1  -8  14    6.09    1.31
  -1   8 -13   12.62    1.84
  -1   8 -13    8.98    1.77
   1  -8  13   11.27    1.78
   1  -8  13    7.04    1.28
  -1   8 -12    8.98    1.64
  -1   8 -12    6.72    1.60
   1  -8  12    8.77    1.67
   1  -8  12    7.56    1.26
  -1   8 -11    4.14    1.29
  -1   8 -11    2.40    1.29
   1  -8  11    4.21    1.43
   1  -8  11    3.06    1.12
  -1   8 -10    3.65    1.30
  -1   8 -10    2.15    1.20
   1  -8  10    4.95    1.38
   1  -8  10    3.46    1.11
  -1   8  -9   26.37    2.27
  -1   8  -9   26.16    2.08
   1  -8   9   28.07    2.53
   1  -8   9   31.46    2.33
  -1   8  -8   37.20    2.37
  -1   8  -8   38.74    2.16
  -1   8  -8   39.46    1.93
   1  -8   8   44.77    2.18
   1  -8   8   42.03    2.65
   1  -8   8   43.17    2.53
  -1   8  -7   30.45    2.35
  -1   8  -7   28.06    1.94
  -1   8  -7   28.64    1.80
   1  -8   7   33.88    2.10
   1  -8   7   34.51    2.49
   1  -8   7   33.88    2.36
  -1   8  -6   33.10    2.31
  -1   8  -6   34.36    1.93
  -1   8  -6   33.49    1.91
   1  -8   6   36.53    2.21
   1  -8   6   40.28    2.48
   1  -8   6   37.63    2.46
  -1   8  -5   40.70    2.32
  -1   8  -5   38.58    1.88
  -1   8  -5   40.18    1.99
   1  -8   5   48.82    2.38
   1  -8   5   41.73    2.41
   1  -8   5   43.94    2.58
  -1   8  -4    9.88    1.29
  -1   8  -4   11.28    1.36
  -1   8  -4    9.04    1.20
   1  -8   4   12.05    1.38
   1  -8   4    8.39    1.22
   1  -8   4    9.28    1.38
  -1   8  -3    0.53    0.81
  -1   8  -3    0.70    0.66
  -1   8  -3    0.85    0.88
   1  -8   3    0.55    0.91
   1  -8   3   -0.34    0.86
   1  -8   3    0.03    0.96
  -1   8  -2    4.85    1.03
  -1   8  -2    4.01    0.79
  -1   8  -2    5.35    1.07
   1  -8   2    5.75    1.15
   1  -8   2    3.42    1.00
   1  -8   2    4.11    1.05
  -1   8  -1    2.72    0.94
  -1   8  -1    1.74    0.72
  -1   8  -1    1.32    0.93
   1  -8   1    1.67    1.02
   1  -8   1    1.01    0.96
   1  -8   1    0.64    0.89
  -1   8   0    4.60    1.07
  -1   8   0    4.03    1.07
   1  -8   0    3.92    1.14
   1  -8   0    2.21    1.05
   1  -8   0    1.79    0.93
  -1   8   1   19.81    1.98
  -1   8   1   17.27    1.90
   1  -8  -1   18.74    2.23
   1  -8  -1   19.01    2.23
   1  -8  -1   17.01    2.07
  -1   8   2   37.19    2.27
  -1   8   2   30.44    2.17
   1  -8  -2   40.63    2.61
   1  -8  -2   34.64    2.59
   1  -8  -2   36.90    2.52
   1  -8  -2   33.13    2.35
  -1   8   3   21.87    2.13
  -1   8   3   20.15    2.10
   1  -8  -3   27.76    2.48
   1  -8  -3   23.86    2.49
   1  -8  -3   28.39    2.57
   1  -8  -3   23.46    2.25
  -1   8   4   16.89    2.10
  -1   8   4   18.30    2.17
   1  -8  -4   30.07    2.64
   1  -8  -4   23.33    2.27
   1  -8  -4   24.31    2.54
   1  -8  -4   19.99    2.27
  -1   8   5   13.81    1.55
  -1   8   5    8.71    1.52
   1  -8  -5   25.56    2.63
   1  -8  -5   21.07    2.33
   1  -8  -5   21.65    2.51
   1  -8  -5   11.26    1.42
  -1   8   6    0.26    1.31
   1  -8  -6    0.34    1.37
   1  -8  -6    0.37    1.21
   1  -8  -6    1.47    1.26
   1  -8  -6    1.10    1.05
  -1   8   7   -1.45    1.31
   1  -8  -7   -0.56    1.37
   1  -8  -7    0.28    1.49
   1  -8  -7   -0.12    1.27
   1  -8  -7   -0.61    1.14
   0   8 -14   14.26    2.07
   0   8 -14    7.03    1.82
   0  -8  14    6.84    1.40
   0  -8  14   12.35    1.71
   0   8 -13    8.78    1.68
   0   8 -13    6.93    1.75
   0  -8  13    6.94    1.36
   0  -8  13    8.83    1.62
   0  -8  13    7.02    1.26
   0   8 -12   11.42    1.69
   0   8 -12    9.67    1.67
   0  -8  12    6.51    1.22
   0  -8  12   10.84    1.68
   0  -8  12   11.02    1.46
   0   8 -11   19.54    2.31
   0   8 -11   13.13    1.67
   0  -8  11   10.92    1.73
   0  -8  11   15.77    1.78
   0  -8  11   11.69    1.47
   0   8 -10    7.27    1.36
   0   8 -10    6.10    1.38
   0  -8  10    9.63    1.54
   0  -8  10    7.19    1.29
   0   8  -9   10.09    1.40
   0   8  -9    9.61    1.39
   0   8  -9   10.24    1.19
   0  -8   9   10.08    1.46
   0  -8   9   10.38    1.40
   0   8  -8   12.14    1.54
   0   8  -8   12.42    1.40
   0   8  -8   14.82    1.56
   0  -8   8   16.53    1.67
   0  -8   8   17.22    2.10
   0   8  -7   12.09    1.44
   0   8  -7   12.02    1.32
   0   8  -7   13.40    1.58
   0  -8   7   18.41    1.99
   0  -8   7   15.45    1.56
   0  -8   7   13.42    1.54
   0   8  -6    3.26    1.06
   0   8  -6    3.29    0.96
   0   8  -6    3.56    1.01
   0  -8   6    3.55    0.98
   0  -8   6    2.61    1.02
   0  -8   6    3.30    1.14
   0   8  -5   26.19    2.16
   0   8  -5   24.66    1.73
   0   8  -5   22.30    1.75
   0  -8   5   26.29    2.01
   0  -8   5   25.60    2.15
   0  -8   5   25.67    2.22
   0   8  -4   78.75    2.74
   0   8  -4   67.29    2.13
   0   8  -4   66.44    2.38
   0  -8   4   81.79    2.58
   0  -8   4   71.33    2.69
   0  -8   4   70.50    2.71
   0   8  -3    5.93    1.09
   0   8  -3    8.68    0.99
   0   8  -3    6.99    1.14
   0  -8   3    8.08    1.19
   0  -8   3    5.38    1.11
   0  -8   3    7.14    1.24
   0   8  -2   11.05    1.31
   0   8  -2    9.10    1.24
   0  -8   2   11.33    1.34
   0  -8   2    8.18    1.19
   0  -8   2    8.90    1.31
   0   8  -1   24.82    2.02
   0   8  -1   19.83    1.83
   0  -8   1   23.28    2.09
   0  -8   1   21.37    2.03
   0  -8   1   19.11    2.04
   0   8   0   19.85    1.96
   0   8   0   17.39    1.85
   0  -8   0   24.28    2.19
   0  -8   0   19.51    2.13
   0  -8   0   17.74    2.06
   0   8   1   17.96    1.98
   0   8   1   15.82    1.87
   0  -8  -1   24.92    2.24
   0  -8  -1   21.60    2.21
   0  -8  -1   22.13    2.12
   0   8   2   16.44    2.00
   0   8   2   11.81    1.45
   0  -8  -2   27.64    2.36
   0  -8  -2   23.97    2.37
   0  -8  -2   21.02    2.15
   0   8   3   16.11    1.56
   0   8   3   13.53    1.56
   0  -8  -3   23.77    2.44
   0  -8  -3   24.44    2.45
   0  -8  -3   20.25    2.11
   0   8   4    1.55    1.06
   0   8   4    1.37    1.18
   0  -8  -4    5.14    1.35
   0  -8  -4    4.62    1.36
   0  -8  -4    2.50    1.07
   0   8   5    1.29    1.26
   0  -8  -5    3.82    1.47
   0  -8  -5    4.58    1.42
   0  -8  -5    1.66    1.09
   0   8   6    2.62    1.36
   0  -8  -6    4.75    1.51
   0  -8  -6    4.61    1.51
   0  -8  -6    1.43    1.08
   0   8   7    0.67    1.38
   0  -8  -7   -0.09    1.50
   0  -8  -7    0.81    1.35
   0  -8  -7   -1.85    1.35
   1   8 -14    1.81    1.55
   1   8 -14   -0.12    1.52
  -1  -8  14    0.80    1.26
   1   8 -13    9.09    1.71
   1   8 -13    7.62    1.67
  -1  -8  13    5.51    1.36
  -1  -8  13    7.81    1.53
   1   8 -12    8.94    1.66
   1   8 -12    4.98    1.49
  -1  -8  12    4.36    1.20
  -1  -8  12    7.29    1.50
  -1  -8  12    7.20    1.31
   1   8 -11   19.01    2.37
   1   8 -11   14.33    1.71
  -1  -8  11   11.30    1.35
  -1  -8  11   14.71    1.67
  -1  -8  11   17.22    2.13
   1   8 -10   30.43    2.47
   1   8 -10   25.34    2.22
   1   8 -10   26.16    1.81
  -1  -8  10   19.51    1.89
  -1  -8  10   27.38    2.46
  -1  -8  10   27.45    2.29
   1   8  -9   20.97    2.21
   1   8  -9   14.56    1.55
   1   8  -9   20.06    1.79
  -1  -8   9   14.94    1.72
  -1  -8   9   16.84    1.68
  -1  -8   9   16.05    1.63
   1   8  -8   15.08    1.62
   1   8  -8   14.15    1.47
   1   8  -8   17.45    1.69
  -1  -8   8   14.05    1.57
  -1  -8   8   17.31    1.67
  -1  -8   8   15.17    1.57
   1   8  -7   21.78    2.08
   1   8  -7   16.18    1.76
   1   8  -7   18.72    1.74
  -1  -8   7   16.17    1.53
  -1  -8   7   21.11    2.30
  -1  -8   7   21.12    2.13
   1   8  -6    4.97    1.14
   1   8  -6    2.90    1.01
   1   8  -6    4.15    1.04
  -1  -8   6    3.57    0.96
  -1  -8   6    6.01    1.18
  -1  -8   6    4.81    1.13
   1   8  -5   -0.12    0.89
   1   8  -5   -1.10    0.76
   1   8  -5   -0.66    0.82
  -1  -8   5   -1.17    0.81
  -1  -8   5   -0.83    0.90
  -1  -8   5   -0.70    0.90
   1   8  -4   23.21    2.07
   1   8  -4   19.69    1.77
  -1  -8   4   24.47    1.87
  -1  -8   4   22.68    2.09
  -1  -8   4   20.28    2.05
   1   8  -3   55.20    2.48
   1   8  -3   49.35    2.24
  -1  -8   3   56.14    2.30
  -1  -8   3   48.59    2.51
  -1  -8   3   51.73    2.51
   1   8  -2   36.96    2.29
   1   8  -2   36.80    2.12
  -1  -8   2   40.54    2.21
  -1  -8   2   34.47    2.37
  -1  -8   2   38.10    2.38
   1   8  -1   35.64    2.24
   1   8  -1   31.48    2.09
  -1  -8   1   42.53    2.32
  -1  -8   1   35.94    2.44
  -1  -8   1   33.74    2.31
   1   8   0   41.73    2.31
   1   8   0   36.68    2.22
  -1  -8   0   51.33    2.47
  -1  -8   0   45.30    2.60
  -1  -8   0   43.04    2.45
   1   8   1   17.18    1.97
   1   8   1   15.47    1.91
  -1  -8  -1   26.10    2.26
  -1  -8  -1   22.58    2.37
  -1  -8  -1   19.96    2.10
   1   8   2    0.14    0.95
   1   8   2    2.50    1.10
  -1  -8  -2    4.43    1.27
  -1  -8  -2    4.34    1.31
  -1  -8  -2    3.28    1.07
   1   8   3    4.38    1.10
   1   8   3    3.70    1.22
  -1  -8  -3    8.94    1.49
  -1  -8  -3    6.14    1.39
  -1  -8  -3    4.33    1.12
   1   8   4    1.09    1.17
  -1  -8  -4    2.35    1.30
  -1  -8  -4    3.29    1.30
  -1  -8  -4   -0.02    0.97
   1   8   5   -0.41    1.11
  -1  -8  -5   -1.66    1.20
  -1  -8  -5   -1.15    1.20
  -1  -8  -5    0.47    0.97
   1   8   6    0.03    1.27
  -1  -8  -6    0.85    1.47
  -1  -8  -6    0.38    1.35
   2   8 -14    0.91    1.53
   2   8 -14    0.07    1.46
  -2  -8  14   -1.82    1.25
   2   8 -13    4.39    1.57
   2   8 -13    2.71    1.45
  -2  -8  13    1.59    1.26
   2   8 -12    8.13    1.63
   2   8 -12    6.80    1.57
   2   8 -12    6.12    1.28
  -2  -8  12    4.30    1.21
  -2  -8  12    6.20    1.36
   2   8 -11    6.22    1.46
   2   8 -11    6.23    1.41
   2   8 -11    6.32    1.18
  -2  -8  11    4.26    1.12
  -2  -8  11    3.61    1.21
  -2  -8  11    3.85    1.12
   2   8 -10   13.68    1.65
   2   8 -10   10.21    1.43
   2   8 -10   12.11    1.39
  -2  -8  10   10.37    1.29
  -2  -8  10   12.85    1.55
  -2  -8  10   12.34    1.46
   2   8  -9   28.11    2.35
   2   8  -9   21.64    2.00
   2   8  -9   24.30    1.86
  -2  -8   9   22.65    1.90
  -2  -8   9   26.94    2.44
  -2  -8   9   23.91    2.19
   2   8  -8   12.22    1.48
   2   8  -8    9.42    1.31
   2   8  -8   13.50    1.66
  -2  -8   8   10.41    1.20
  -2  -8   8   12.84    1.56
  -2  -8   8   12.45    1.41
   2   8  -7   19.90    2.17
   2   8  -7   14.14    1.75
   2   8  -7   19.09    1.86
  -2  -8   7   15.24    1.59
  -2  -8   7   19.09    2.24
  -2  -8   7   16.51    1.99
   2   8  -6   30.55    2.26
   2   8  -6   30.90    1.99
  -2  -8   6   22.85    1.66
  -2  -8   6   36.10    2.46
  -2  -8   6   32.38    2.24
   2   8  -5   22.32    2.14
   2   8  -5   21.08    1.92
  -2  -8   5   14.68    1.55
  -2  -8   5   22.17    2.19
  -2  -8   5   23.19    2.15
   2   8  -4   28.09    2.22
   2   8  -4   25.00    1.92
  -2  -8   4   15.37    1.54
  -2  -8   4   26.72    2.34
  -2  -8   4   29.21    2.24
   2   8  -3   27.70    2.19
   2   8  -3   26.33    1.97
  -2  -8   3   18.20    1.60
  -2  -8   3   31.03    1.98
  -2  -8   3   30.10    2.40
  -2  -8   3   29.93    2.29
   2   8  -2   32.75    1.98
   2   8  -2   24.98    2.13
   2   8  -2   23.24    1.95
  -2  -8   2   16.73    1.59
  -2  -8   2   31.45    2.06
  -2  -8   2   29.34    2.43
  -2  -8   2   28.93    2.26
   2   8  -1   12.88    1.40
   2   8  -1    8.72    1.28
   2   8  -1   10.17    1.38
  -2  -8   1    7.29    1.16
  -2  -8   1   12.53    1.35
  -2  -8   1   12.92    1.57
  -2  -8   1   10.97    1.38
   2   8   0    4.35    1.13
   2   8   0    4.93    1.22
  -2  -8   0    6.48    1.22
  -2  -8   0    6.14    1.33
  -2  -8   0    5.16    1.13
   2   8   1   10.03    1.31
   2   8   1    8.83    1.36
  -2  -8  -1   17.48    2.08
  -2  -8  -1   12.87    1.56
  -2  -8  -1   10.53    1.34
   2   8   2    1.50    1.11
  -2  -8  -2    1.87    1.14
  -2  -8  -2    1.70    1.19
  -2  -8  -2   -0.31    0.88
   2   8   3   -0.38    1.07
  -2  -8  -3   -1.12    1.16
  -2  -8  -3   -0.40    1.12
  -2  -8  -3   -1.36    0.86
   2   8   4    2.20    1.25
  -2  -8  -4    2.43    1.43
  -2  -8  -4    0.67    1.30
  -2  -8  -4   -0.07    0.98
   2   8   5    5.12    1.48
  -2  -8  -5    8.00    1.77
  -2  -8  -5    3.99    1.57
   2   8   6    5.95    1.61
  -2  -8  -6    6.37    1.79
  -2  -8  -6    4.93    1.68
   3   8 -13    9.00    1.75
   3   8 -13    8.00    1.63
   3   8 -13    4.81    1.28
  -3  -8  13    5.50    1.42
   3   8 -12   13.62    1.94
   3   8 -12    8.83    1.59
   3   8 -12   11.64    1.53
  -3  -8  12   12.14    1.68
   3   8 -11   12.41    1.76
   3   8 -11    6.86    1.43
   3   8 -11    8.54    1.38
  -3  -8  11    9.15    1.39
  -3  -8  11    9.80    1.66
   3   8 -10    6.43    1.47
   3   8 -10    6.09    1.31
   3   8 -10    6.43    1.32
  -3  -8  10    6.18    1.22
  -3  -8  10    8.31    1.43
  -3  -8  10    6.09    1.22
   3   8  -9   13.01    1.68
   3   8  -9    8.91    1.34
   3   8  -9    9.90    1.43
  -3  -8   9    8.74    1.24
  -3  -8   9   13.60    1.60
  -3  -8   9   10.46    1.40
   3   8  -8   20.88    2.36
   3   8  -8   17.42    1.86
  -3  -8   8   15.71    1.81
  -3  -8   8   25.06    2.39
  -3  -8   8   19.05    2.06
   3   8  -7   19.96    2.25
   3   8  -7   17.02    1.84
  -3  -8   7   10.02    1.20
  -3  -8   7   21.49    2.33
  -3  -8   7   12.43    1.45
   3   8  -6   12.70    1.53
   3   8  -6   15.82    1.79
  -3  -8   6    8.72    1.17
  -3  -8   6   13.89    1.61
  -3  -8   6   11.45    1.43
   3   8  -5   12.57    1.49
   3   8  -5   14.29    1.76
  -3  -8   5    7.12    1.11
  -3  -8   5   13.30    1.58
  -3  -8   5   10.61    1.40
   3   8  -4   17.36    2.04
   3   8  -4   14.21    1.75
  -3  -8   4    8.24    1.12
  -3  -8   4   18.76    2.29
  -3  -8   4   13.51    1.50
   3   8  -3   25.86    1.97
   3   8  -3   19.44    2.05
   3   8  -3   18.95    1.87
  -3  -8   3   11.03    1.22
  -3  -8   3   20.59    2.46
  -3  -8   3   20.85    2.17
   3   8  -2   22.97    1.94
   3   8  -2   18.35    1.98
   3   8  -2   12.73    1.46
  -3  -8   2   10.41    1.21
  -3  -8   2   22.31    2.41
  -3  -8   2   13.27    1.51
   3   8  -1   10.08    1.21
   3   8  -1    9.28    1.27
   3   8  -1    7.80    1.28
  -3  -8   1    8.02    1.13
  -3  -8   1   15.32    1.91
  -3  -8   1   10.85    1.53
  -3  -8   1    6.81    1.25
   3   8   0    3.86    0.99
   3   8   0    2.32    0.99
   3   8   0    3.13    1.10
  -3  -8   0    2.56    1.08
  -3  -8   0    2.73    1.23
  -3  -8   0    3.48    1.13
   3   8   1    3.83    1.00
   3   8   1    3.20    1.18
  -3  -8  -1    2.89    1.15
  -3  -8  -1    3.28    1.30
  -3  -8  -1    1.99    1.07
   3   8   2    1.76    0.93
   3   8   2    3.54    1.23
  -3  -8  -2    0.85    1.16
  -3  -8  -2    0.93    1.23
  -3  -8  -2    0.09    1.01
   3   8   3    4.38    1.09
   3   8   3    3.77    1.34
  -3  -8  -3    3.20    1.44
  -3  -8  -3    2.03    1.37
   3   8   4    6.41    1.50
  -3  -8  -4    8.22    1.68
  -3  -8  -4    4.82    1.62
   3   8   5    7.50    1.66
  -3  -8  -5    8.42    1.81
  -3  -8  -5    7.21    1.82
   4   8 -12    9.58    1.87
   4   8 -12    7.06    1.47
   4   8 -12    6.75    1.47
  -4  -8  12    6.80    1.46
   4   8 -11   10.37    1.90
   4   8 -11    8.42    1.63
   4   8 -11    7.96    1.52
  -4  -8  11    8.61    1.48
   4   8 -10    7.67    1.63
   4   8 -10    6.82    1.41
  -4  -8  10    7.64    1.36
   4   8  -9    9.78    1.70
   4   8  -9    9.78    1.46
  -4  -8   9    4.96    1.23
  -4  -8   9    8.47    1.45
  -4  -8   9    9.02    1.37
   4   8  -8   10.63    1.60
   4   8  -8   11.00    1.45
  -4  -8   8    7.41    1.26
  -4  -8   8   10.98    1.56
  -4  -8   8    8.86    1.36
   4   8  -7   12.53    1.66
   4   8  -7   11.36    1.48
  -4  -8   7    6.74    1.23
  -4  -8   7   10.99    1.61
  -4  -8   7    9.36    1.34
   4   8  -6   13.19    1.59
   4   8  -6   16.98    1.88
  -4  -8   6    8.57    1.25
  -4  -8   6   15.07    1.75
  -4  -8   6   12.84    1.49
   4   8  -5   10.63    1.51
   4   8  -5    8.68    1.34
  -4  -8   5    5.28    1.14
  -4  -8   5   11.48    1.65
  -4  -8   5    6.28    1.27
   4   8  -4    3.44    1.08
   4   8  -4    4.51    1.25
   4   8  -4    3.15    1.12
  -4  -8   4    2.13    1.01
  -4  -8   4    4.53    1.37
  -4  -8   4    1.86    1.12
   4   8  -3    3.58    1.08
   4   8  -3    4.24    1.13
   4   8  -3    2.50    1.10
  -4  -8   3    2.03    1.01
  -4  -8   3    3.73    1.38
  -4  -8   3    1.95    1.10
   4   8  -2    5.55    1.16
   4   8  -2    4.51    1.11
   4   8  -2    4.11    1.19
  -4  -8   2    4.30    1.13
  -4  -8   2    6.58    1.46
  -4  -8   2    3.54    1.16
   4   8  -1    6.56    1.24
   4   8  -1    3.96    1.04
   4   8  -1    5.08    1.27
  -4  -8   1    5.15    1.11
  -4  -8   1    5.64    1.46
  -4  -8   1    3.03    1.15
   4   8   0   11.86    1.44
   4   8   0    8.87    1.48
  -4  -8   0    9.13    1.65
  -4  -8   0    6.15    1.30
   4   8   1   20.55    2.25
   4   8   1   18.81    2.22
  -4  -8  -1   14.28    1.61
  -4  -8  -1   14.63    1.93
   4   8   2   12.68    1.52
   4   8   2   10.92    1.64
  -4  -8  -2   11.95    1.70
  -4  -8  -2    6.90    1.74
   4   8   3    7.12    1.39
   4   8   3    6.04    1.47
  -4  -8  -3    7.88    1.64
  -4  -8  -3    8.26    1.76
   5   8 -10    2.54    1.45
   5   8 -10    2.05    1.24
  -5  -8  10    1.35    1.22
   5   8  -9    5.67    1.52
   5   8  -9    4.11    1.33
  -5  -8   9    1.63    1.28
   5   8  -8    7.65    1.55
   5   8  -8    5.18    1.34
  -5  -8   8    4.18    1.28
  -5  -8   8    6.15    1.50
   5   8  -7    7.56    1.55
   5   8  -7    8.28    1.41
  -5  -8   7    3.57    1.24
  -5  -8   7    5.71    1.51
  -5  -8   7    3.60    1.23
   5   8  -6    5.44    1.43
   5   8  -6    4.86    1.26
  -5  -8   6    2.90    1.17
  -5  -8   6    3.74    1.42
  -5  -8   6    2.82    1.19
   5   8  -5    5.43    1.26
   5   8  -5    7.13    1.39
  -5  -8   5    6.82    1.40
  -5  -8   5    6.17    1.53
  -5  -8   5    3.97    1.29
   5   8  -4    5.05    1.37
   5   8  -4    6.66    1.28
   5   8  -4    4.58    1.28
  -5  -8   4    5.47    1.30
  -5  -8   4    8.43    1.61
  -5  -8   4    4.90    1.25
   5   8  -3    2.77    1.28
   5   8  -3    4.63    1.15
   5   8  -3    3.42    1.23
  -5  -8   3    5.25    1.32
  -5  -8   3    4.52    1.47
  -5  -8   3    4.40    1.25
   5   8  -2    6.56    1.44
   5   8  -2    7.06    1.25
   5   8  -2    6.43    1.42
  -5  -8   2    7.80    1.37
  -5  -8   2    7.18    1.69
  -5  -8   2    5.00    1.34
   5   8  -1   10.82    1.62
   5   8  -1   12.46    1.67
  -5  -8   1   10.48    1.47
  -5  -8   1   10.95    1.82
   5   8   0   12.18    1.71
   5   8   0   11.03    1.67
  -5  -8   0   12.21    2.02
   5   8   1   17.81    1.89
   5   8   1   18.85    2.29
  -5  -8  -1   16.32    2.20
   6   8  -7    9.94    1.75
   6   8  -7    5.86    1.47
  -6  -8   7    3.18    1.42
  -6  -8   7    6.84    1.63
   6   8  -6    8.20    1.63
   6   8  -6    5.87    1.46
  -6  -8   6    4.23    1.47
  -6  -8   6    6.98    1.69
  -6  -8   6    4.31    1.33
   6   8  -5    7.28    1.50
   6   8  -5    6.46    1.49
  -6  -8   5    4.53    1.48
  -6  -8   5    7.47    1.73
  -6  -8   5    5.37    1.70
   6   8  -4   10.48    1.74
   6   8  -4    9.41    1.50
   6   8  -4    8.68    1.65
  -6  -8   4    6.43    1.56
  -6  -8   4   11.48    1.95
   6   8  -3    9.12    1.66
   6   8  -3    8.13    1.62
  -6  -8   3    7.59    1.57
  -6  -8   3    7.05    1.86
   6   8  -2    6.72    1.64
   6   8  -2    6.91    1.60
  -6  -8   2    7.44    1.57
  -6  -8   2    4.90    1.81
  -5   9  -7   28.67    2.89
  -5   9  -7   21.49    2.26
  -5   9  -7   21.73    2.40
   5  -9   7   41.09    3.29
   5  -9   7   23.43    2.90
   5  -9   7   37.00    3.44
  -5   9  -6   21.73    2.67
  -5   9  -6   18.17    2.15
  -5   9  -6   12.58    1.68
   5  -9   6   29.47    3.05
   5  -9   6   17.76    2.03
   5  -9   6   26.42    3.19
  -5   9  -5   11.26    1.82
  -5   9  -5    9.38    1.54
   5  -9   5   14.35    2.03
   5  -9   5   12.27    1.80
   5  -9   5   14.10    1.99
  -5   9  -4    7.33    1.68
  -5   9  -4    7.67    1.40
   5  -9   4   10.89    1.81
   5  -9   4   11.47    1.77
   5  -9   4   11.06    1.86
  -5   9  -3    3.82    1.57
  -5   9  -3    2.43    1.10
  -5   9  -3    3.56    1.52
   5  -9   3    3.06    1.59
   5  -9   3    2.99    1.45
   5  -9   3    1.39    1.51
  -5   9  -2   -0.89    1.27
  -5   9  -2   -1.07    0.89
  -5   9  -2    0.01    1.15
   5  -9   2    0.46    1.50
   5  -9   2    2.67    1.47
   5  -9   2    0.53    1.49
  -5   9  -1   -0.65    1.29
  -5   9  -1   -0.18    0.94
  -5   9  -1   -0.35    1.21
   5  -9   1    0.12    1.50
   5  -9   1   -1.02    1.37
   5  -9   1   -0.12    1.47
  -5   9   0   -0.38    1.36
  -5   9   0   -0.73    0.94
  -5   9   0   -1.05    1.30
   5  -9   0   -0.42    1.51
   5  -9   0   -0.95    1.45
   5  -9   0   -0.41    1.43
  -4   9  -9   42.70    3.09
  -4   9  -9   36.37    2.49
  -4   9  -9   35.69    2.70
   4  -9   9   58.45    3.36
   4  -9   9   58.59    3.77
  -4   9  -8   33.36    2.89
  -4   9  -8   28.09    2.21
  -4   9  -8   28.93    2.43
   4  -9   8   46.00    3.24
   4  -9   8   34.10    2.80
   4  -9   8   41.55    3.42
  -4   9  -7   23.93    2.64
  -4   9  -7   19.76    2.00
  -4   9  -7   23.32    2.23
   4  -9   7   38.64    2.93
   4  -9   7   30.69    2.66
   4  -9   7   38.02    3.18
  -4   9  -6   13.94    1.90
  -4   9  -6   11.51    1.47
  -4   9  -6   12.70    1.57
   4  -9   6   25.84    2.67
   4  -9   6   14.21    1.72
   4  -9   6   16.41    1.99
  -4   9  -5    2.53    1.34
  -4   9  -5    1.67    1.10
   4  -9   5    2.97    1.46
   4  -9   5    0.37    1.21
   4  -9   5    2.70    1.49
  -4   9  -4   -0.91    1.13
  -4   9  -4   -0.54    0.86
  -4   9  -4    0.27    1.02
   4  -9   4   -1.07    1.36
   4  -9   4   -2.32    1.13
   4  -9   4   -0.66    1.37
  -4   9  -3   -0.62    1.13
  -4   9  -3    0.57    0.88
  -4   9  -3    2.30    1.16
   4  -9   3   -0.05    1.42
   4  -9   3   -2.10    1.13
   4  -9   3   -0.79    1.36
   4  -9   3    1.13    1.18
  -4   9  -2    0.42    1.15
  -4   9  -2    0.58    0.90
  -4   9  -2    1.46    1.14
   4  -9   2   -0.44    1.38
   4  -9   2   -1.66    1.17
   4  -9   2   -0.97    1.39
   4  -9   2   -0.89    1.04
  -4   9  -1   -1.33    1.18
  -4   9  -1   -0.56    0.84
  -4   9  -1   -0.36    1.15
   4  -9   1   -1.31    1.45
   4  -9   1   -2.49    1.19
   4  -9   1   -1.06    1.43
   4  -9   1   -1.63    1.02
  -4   9   0    0.02    1.35
  -4   9   0    0.72    0.95
  -4   9   0   -0.40    1.23
   4  -9   0    1.25    1.51
   4  -9   0    2.23    1.35
   4  -9   0   -0.32    1.44
   4  -9   0    0.16    1.00
  -4   9   1    5.98    1.53
  -4   9   1    5.50    1.16
  -4   9   1    4.40    1.46
   4  -9  -1    6.15    1.66
   4  -9  -1    4.83    1.48
   4  -9  -1    8.40    1.81
   4  -9  -1    2.71    1.14
  -4   9   2    7.63    1.62
  -4   9   2    5.31    1.14
  -4   9   2    4.60    1.54
   4  -9  -2    8.72    1.79
   4  -9  -2    9.00    1.68
   4  -9  -2    8.77    1.71
   4  -9  -2    5.90    1.44
  -3   9 -10   27.91    2.93
  -3   9 -10   26.25    2.14
  -3   9 -10   28.26    2.64
   3  -9  10   40.12    2.85
   3  -9  10   45.88    3.64
  -3   9  -9   29.71    2.84
  -3   9  -9   25.88    2.02
  -3   9  -9   23.14    2.34
   3  -9   9   39.89    2.74
   3  -9   9   39.82    3.24
  -3   9  -8   12.89    1.80
  -3   9  -8   13.96    1.67
  -3   9  -8   10.77    1.54
   3  -9   8   19.68    2.41
   3  -9   8   10.98    1.51
   3  -9   8   16.68    2.07
  -3   9  -7    1.23    1.31
  -3   9  -7    1.30    0.82
  -3   9  -7    1.31    1.03
   3  -9   7    3.51    1.34
   3  -9   7    2.77    1.21
   3  -9   7    1.51    1.48
   3  -9   7    2.48    1.44
  -3   9  -6    1.46    1.22
  -3   9  -6    0.35    0.77
  -3   9  -6    0.82    0.97
   3  -9   6    1.45    1.22
   3  -9   6   -1.25    1.07
   3  -9   6   -1.21    1.26
   3  -9   6    0.43    1.04
  -3   9  -5   -0.30    1.11
  -3   9  -5   -0.58    0.83
  -3   9  -5    1.06    0.97
   3  -9   5   -0.37    1.20
   3  -9   5   -2.26    1.02
   3  -9   5   -0.06    1.33
   3  -9   5   -0.47    1.02
  -3   9  -4   -2.13    0.99
  -3   9  -4   -0.94    0.77
  -3   9  -4   -0.80    0.92
   3  -9   4   -2.94    1.22
   3  -9   4   -2.28    0.93
  -3   9  -3   -1.34    1.07
  -3   9  -3   -0.64    0.78
  -3   9  -3    0.10    1.03
   3  -9   3   -1.66    1.27
   3  -9   3   -1.95    1.11
   3  -9   3   -0.41    1.37
   3  -9   3   -1.37    0.98
  -3   9  -2    6.59    1.42
  -3   9  -2    7.58    1.17
  -3   9  -2    6.42    1.35
   3  -9   2    8.31    1.74
   3  -9   2    6.53    1.41
   3  -9   2    8.20    1.73
   3  -9   2    6.63    1.32
  -3   9  -1   18.21    1.97
  -3   9  -1   17.61    1.73
  -3   9  -1   12.59    1.61
   3  -9   1   23.69    2.71
   3  -9   1   18.77    2.25
   3  -9   1   24.61    2.88
   3  -9   1   18.94    2.30
  -3   9   0   15.40    1.87
  -3   9   0   10.44    1.29
  -3   9   0   11.17    1.57
   3  -9   0   16.62    1.93
   3  -9   0   18.19    2.22
   3  -9   0   24.22    3.00
   3  -9   0   18.04    2.18
  -3   9   1   10.29    1.59
  -3   9   1    6.07    1.17
  -3   9   1    6.23    1.46
   3  -9  -1   12.63    1.85
   3  -9  -1    9.88    1.51
   3  -9  -1    9.98    1.78
   3  -9  -1    8.03    1.36
  -3   9   2    8.80    1.57
  -3   9   2    7.05    1.54
   3  -9  -2   11.97    1.79
   3  -9  -2    8.43    1.47
   3  -9  -2   12.05    1.79
   3  -9  -2    7.37    1.35
  -3   9   3    5.48    1.54
  -3   9   3    2.81    1.39
   3  -9  -3    8.66    1.71
   3  -9  -3    4.43    1.37
   3  -9  -3    7.01    1.64
   3  -9  -3    3.74    1.19
  -2   9 -11   16.19    2.06
  -2   9 -11   13.75    1.97
   2  -9  11   26.68    3.22
  -2   9 -10   12.51    1.88
  -2   9 -10   10.60    1.66
   2  -9  10   15.14    2.00
  -2   9  -9    5.19    1.57
  -2   9  -9    5.64    1.40
   2  -9   9    5.65    1.30
   2  -9   9    6.99    1.78
   2  -9   9    3.19    1.60
  -2   9  -8    1.34    1.28
  -2   9  -8    1.61    1.11
   2  -9   8    2.02    1.17
   2  -9   8    1.61    1.41
   2  -9   8    0.40    1.11
  -2   9  -7   -0.35    1.13
  -2   9  -7   -0.13    0.91
   2  -9   7   -1.53    1.05
   2  -9   7   -3.38    1.26
   2  -9   7   -1.19    1.02
  -2   9  -6   -0.61    1.10
  -2   9  -6    0.13    0.87
  -2   9  -6   -0.39    0.85
   2  -9   6   -1.38    1.11
   2  -9   6   -1.51    1.02
  -2   9  -5    0.34    1.12
  -2   9  -5   -0.34    0.81
  -2   9  -5    1.26    0.98
   2  -9   5   -1.49    1.15
   2  -9   5   -0.96    1.26
   2  -9   5   -0.26    1.12
  -2   9  -4    5.90    1.32
  -2   9  -4    5.52    1.07
  -2   9  -4    7.14    1.25
   2  -9   4    6.22    1.46
   2  -9   4    6.81    1.51
   2  -9   4    4.05    1.34
  -2   9  -3   12.22    1.56
  -2   9  -3   13.34    1.60
  -2   9  -3   12.38    1.50
   2  -9   3   16.58    1.88
   2  -9   3   12.80    1.72
   2  -9   3    9.97    1.48
  -2   9  -2   23.74    2.46
  -2   9  -2   20.03    1.71
  -2   9  -2   21.58    2.13
   2  -9   2   29.15    2.64
   2  -9   2   30.51    2.77
   2  -9   2   26.84    2.58
  -2   9  -1   30.34    2.56
  -2   9  -1   23.96    1.84
  -2   9  -1   26.10    2.35
   2  -9   1   38.18    2.79
   2  -9   1   38.47    2.88
   2  -9   1   35.92    2.60
  -2   9   0   27.76    2.52
  -2   9   0   20.90    2.26
   2  -9   0   37.16    2.79
   2  -9   0   35.28    2.87
   2  -9   0   29.82    2.48
  -2   9   1   10.18    1.58
  -2   9   1    8.36    1.46
   2  -9  -1   20.83    2.58
   2  -9  -1   12.95    1.79
   2  -9  -1   10.79    1.47
  -2   9   2    4.29    1.35
  -2   9   2    3.31    1.33
   2  -9  -2    7.18    1.63
   2  -9  -2    7.21    1.57
   2  -9  -2    2.85    1.09
  -2   9   3    2.54    1.37
  -2   9   3    2.78    1.32
   2  -9  -3    5.72    1.60
   2  -9  -3    1.59    1.44
   2  -9  -3    2.54    1.11
  -2   9   4   -1.48    1.22
  -2   9   4    0.44    1.28
   2  -9  -4   -0.24    1.41
   2  -9  -4    1.60    1.48
  -1   9 -12    9.00    1.91
  -1   9 -12    7.66    1.82
   1  -9  12   13.08    1.97
  -1   9 -11    1.31    1.51
  -1   9 -11    2.84    1.48
   1  -9  11    4.58    1.71
  -1   9 -10   -0.84    1.24
  -1   9 -10   -0.81    1.18
   1  -9  10   -1.51    1.44
   1  -9  10   -0.86    1.06
  -1   9  -9   -0.41    1.27
  -1   9  -9    0.87    1.15
   1  -9   9   -2.55    1.27
   1  -9   9   -1.32    1.04
  -1   9  -8   -0.14    1.17
  -1   9  -8   -0.87    0.97
  -1   9  -8    0.23    0.90
   1  -9   8   -3.55    1.24
   1  -9   8   -1.52    1.06
  -1   9  -7   -0.21    1.23
  -1   9  -7    0.04    0.96
  -1   9  -7    1.70    0.97
   1  -9   7   -0.61    1.05
   1  -9   7   -2.13    1.27
   1  -9   7   -0.73    1.19
  -1   9  -6   22.54    2.47
  -1   9  -6   13.91    1.47
  -1   9  -6   19.83    1.88
   1  -9   6   16.13    1.69
   1  -9   6   14.55    1.82
   1  -9   6   10.93    1.67
  -1   9  -5   31.33    2.60
  -1   9  -5   24.45    1.87
  -1   9  -5   29.16    2.12
   1  -9   5   31.75    2.48
   1  -9   5   32.64    2.91
   1  -9   5   29.39    2.60
  -1   9  -4   36.71    2.68
  -1   9  -4   29.10    1.90
  -1   9  -4   30.66    2.13
   1  -9   4   42.18    2.61
   1  -9   4   37.94    2.75
   1  -9   4   36.85    2.73
  -1   9  -3   39.88    2.68
  -1   9  -3   28.11    2.01
  -1   9  -3   35.20    2.37
   1  -9   3   47.72    2.68
   1  -9   3   45.43    2.85
   1  -9   3   41.66    2.79
  -1   9  -2   32.64    2.57
  -1   9  -2   24.89    2.26
   1  -9   2   45.37    2.66
   1  -9   2   39.90    2.73
   1  -9   2   33.36    2.52
  -1   9  -1   27.09    2.46
  -1   9  -1   21.92    2.24
   1  -9   1   34.17    2.56
   1  -9   1   30.33    2.62
   1  -9   1   24.57    2.30
  -1   9   0   10.24    1.58
  -1   9   0    8.20    1.45
   1  -9   0   19.42    2.37
   1  -9   0   10.86    1.59
   1  -9   0    8.88    1.37
  -1   9   1    4.40    1.33
  -1   9   1    2.51    1.21
   1  -9  -1    4.81    1.35
   1  -9  -1    4.78    1.40
   1  -9  -1    2.19    1.11
  -1   9   2   -0.75    1.15
  -1   9   2   -0.32    1.11
   1  -9  -2    0.10    1.34
   1  -9  -2   -0.90    1.22
   1  -9  -2   -0.48    1.05
  -1   9   3    0.10    1.22
   1  -9  -3   -2.61    1.27
   1  -9  -3   -0.80    1.30
   1  -9  -3    0.34    1.34
  -1   9   4   -1.83    1.19
  -1   9   4   -1.03    1.25
   1  -9  -4   -0.30    1.51
   1  -9  -4    1.47    1.45
   0   9 -12    0.05    1.57
   0   9 -12   -0.24    1.48
   0  -9  12   -0.69    1.54
   0   9 -11    0.66    1.36
   0   9 -11   -1.31    1.32
   0  -9  11   -3.76    1.33
   0  -9  11   -0.99    1.09
   0   9 -10    0.41    1.29
   0   9 -10    1.06    1.31
   0  -9  10   -1.49    1.42
   0  -9  10   -1.61    1.05
   0   9  -9    2.14    1.37
   0   9  -9    0.69    1.21
   0   9  -9    2.47    0.98
   0  -9   9   -1.10    1.35
   0  -9   9    0.56    1.14
   0   9  -8   10.00    1.59
   0   9  -8    6.36    1.32
   0   9  -8    8.12    1.23
   0  -9   8    9.36    1.72
   0  -9   8    6.80    1.47
   0   9  -7   25.28    2.55
   0   9  -7   18.49    2.06
   0   9  -7   21.47    1.98
   0  -9   7   24.68    2.91
   0  -9   7   21.81    2.59
   0   9  -6   51.51    2.90
   0   9  -6   40.97    2.28
   0   9  -6   41.83    2.31
   0  -9   6   57.73    3.21
   0  -9   6   51.25    3.05
   0   9  -5   63.09    3.02
   0   9  -5   52.82    3.01
   0   9  -5   60.79    2.68
   0  -9   5   76.36    2.90
   0  -9   5   74.50    3.27
   0  -9   5   70.32    3.14
   0   9  -4   52.99    2.91
   0   9  -4   41.35    2.38
   0  -9   4   62.79    2.72
   0  -9   4   55.58    2.95
   0  -9   4   54.49    2.87
   0   9  -3   21.07    2.41
   0   9  -3   19.05    2.01
   0  -9   3   28.44    2.25
   0  -9   3   27.69    2.47
   0  -9   3   24.50    2.31
   0   9  -2    7.17    1.46
   0   9  -2    7.72    1.39
   0  -9   2    7.56    1.32
   0  -9   2    7.12    1.36
   0  -9   2    5.55    1.24
   0   9  -1    2.75    1.20
   0   9  -1    2.22    1.20
   0  -9   1    4.03    1.24
   0  -9   1    2.90    1.21
   0  -9   1    1.92    1.10
   0   9   0    0.25    1.14
   0   9   0   -0.18    1.05
   0  -9   0    0.94    1.20
   0  -9   0    0.05    1.14
   0  -9   0   -0.60    1.01
   0   9   1   -1.09    1.13
   0   9   1    0.98    1.11
   0  -9  -1    0.06    1.26
   0  -9  -1   -0.01    1.25
   0  -9  -1   -0.86    1.06
   0   9   2    0.16    1.10
   0   9   2    0.79    1.15
   0  -9  -2   -0.77    1.26
   0  -9  -2    0.32    1.35
   0  -9  -2   -0.87    1.07
   0   9   3    0.34    1.20
   0   9   3    1.76    1.27
   0  -9  -3    0.01    1.47
   0  -9  -3    0.34    1.43
   0   9   4    2.46    1.35
   0  -9  -4    5.71    1.68
   0  -9  -4    3.43    1.65
   1   9 -12    1.08    1.52
   1   9 -12   -0.63    1.38
  -1  -9  12   -3.40    1.35
  -1  -9  12   -2.21    1.09
   1   9 -11    2.10    1.51
   1   9 -11    1.57    1.38
  -1  -9  11   -0.99    1.49
  -1  -9  11   -1.49    1.14
   1   9 -10    8.76    1.61
   1   9 -10    5.78    1.52
   1   9 -10    5.93    1.23
  -1  -9  10    7.35    1.75
  -1  -9  10    5.22    1.48
   1   9  -9   21.93    2.63
   1   9  -9   12.91    1.65
   1   9  -9   18.38    1.93
  -1  -9   9   17.07    1.97
  -1  -9   9   14.47    1.71
   1   9  -8   30.57    2.72
   1   9  -8   18.64    2.25
   1   9  -8   27.53    2.16
  -1  -9   8   42.07    3.09
  -1  -9   8   31.10    2.75
   1   9  -7   38.20    2.84
   1   9  -7   33.30    2.34
  -1  -9   7   50.42    3.06
  -1  -9   7   48.80    2.91
   1   9  -6   48.16    2.94
   1   9  -6   43.64    2.55
  -1  -9   6   63.38    3.12
  -1  -9   6   57.57    2.93
   1   9  -5   41.91    2.84
   1   9  -5   37.80    2.47
  -1  -9   5   48.58    2.84
  -1  -9   5   46.31    2.63
   1   9  -4   23.36    2.51
   1   9  -4   22.98    2.11
  -1  -9   4   27.91    2.80
  -1  -9   4   31.03    2.56
  -1  -9   4   30.22    2.43
   1   9  -3    4.48    1.33
   1   9  -3    4.08    1.20
  -1  -9   3    7.42    1.20
  -1  -9   3    5.21    1.27
  -1  -9   3    4.74    1.24
   1   9  -2    0.57    1.10
   1   9  -2    0.80    1.08
  -1  -9   2    1.39    1.06
  -1  -9   2   -0.92    1.06
  -1  -9   2   -0.92    1.01
   1   9  -1   -1.03    1.02
   1   9  -1   -0.80    1.02
  -1  -9   1   -1.10    1.03
  -1  -9   1   -0.19    1.17
  -1  -9   1   -1.26    0.97
   1   9   0   -1.03    1.06
   1   9   0    0.77    1.12
  -1  -9   0   -1.57    1.17
  -1  -9   0   -0.98    1.15
  -1  -9   0   -1.18    1.00
   1   9   1    0.27    1.11
   1   9   1   -0.70    1.14
  -1  -9  -1   -0.32    1.30
  -1  -9  -1   -1.62    1.25
  -1  -9  -1   -0.80    1.26
   1   9   2    0.93    1.18
   1   9   2    2.59    1.32
  -1  -9  -2    2.45    1.48
  -1  -9  -2    1.91    1.49
   1   9   3    4.72    1.51
  -1  -9  -3    3.37    1.71
  -1  -9  -3    4.54    1.71
   1   9   4    8.78    1.70
  -1  -9  -4   11.59    2.07
  -1  -9  -4    8.25    1.91
   2   9 -11   23.47    2.89
   2   9 -11   14.58    1.79
   2   9 -11   19.45    2.04
  -2  -9  11   12.40    1.58
  -2  -9  11   17.24    1.97
  -2  -9  11   13.56    1.69
   2   9 -10   45.25    3.15
   2   9 -10   29.79    2.49
   2   9 -10   33.19    2.34
  -2  -9  10   30.82    2.53
  -2  -9  10   51.08    3.24
  -2  -9  10   41.21    2.81
   2   9  -9   50.58    3.18
   2   9  -9   40.28    2.42
  -2  -9   9   64.10    3.43
  -2  -9   9   53.38    2.93
   2   9  -8   37.34    2.94
   2   9  -8   30.44    2.27
  -2  -9   8   44.94    3.14
  -2  -9   8   41.85    2.67
   2   9  -7   12.36    1.73
   2   9  -7    9.86    1.51
  -2  -9   7   25.46    2.70
  -2  -9   7   11.89    1.48
   2   9  -6    2.63    1.43
   2   9  -6    3.58    1.26
  -2  -9   6    5.64    1.47
  -2  -9   6    4.56    1.21
   2   9  -5    1.26    1.32
   2   9  -5    1.11    1.12
  -2  -9   5   -0.12    1.17
  -2  -9   5    1.39    1.08
   2   9  -4   -0.31    1.18
   2   9  -4    1.75    1.09
  -2  -9   4   -0.93    1.10
  -2  -9   4   -0.37    1.02
   2   9  -3   -0.17    1.10
   2   9  -3    0.19    1.04
  -2  -9   3   -0.74    1.17
  -2  -9   3   -2.39    0.89
   2   9  -2    0.62    1.13
   2   9  -2    0.83    1.05
  -2  -9   2   -2.08    0.98
  -2  -9   2   -1.40    1.23
  -2  -9   2   -0.22    1.12
   2   9  -1    5.97    1.33
   2   9  -1    5.87    1.33
  -2  -9   1    4.44    1.31
  -2  -9   1    2.92    1.41
  -2  -9   1    2.13    1.24
   2   9   0    7.56    1.37
   2   9   0    9.28    1.52
  -2  -9   0    8.37    1.54
  -2  -9   0    7.27    1.72
   2   9   1    8.17    1.86
   2   9   1   10.74    1.65
  -2  -9  -1   11.93    1.72
  -2  -9  -1    9.68    1.86
   2   9   2    8.23    1.67
  -2  -9  -2   10.05    1.80
  -2  -9  -2   10.86    1.98
   2   9   3    9.52    1.78
  -2  -9  -3   10.55    1.95
  -2  -9  -3    9.17    1.98
   3   9 -10   26.71    3.00
   3   9 -10   22.07    2.32
  -3  -9  10   24.70    2.39
  -3  -9  10   32.22    2.96
  -3  -9  10   29.77    2.72
   3   9  -9   26.26    2.95
   3   9  -9   18.63    2.23
  -3  -9   9   22.27    2.19
  -3  -9   9   29.75    2.96
  -3  -9   9   25.31    2.43
   3   9  -8   10.89    1.74
   3   9  -8   10.13    1.58
  -3  -9   8    9.71    1.30
  -3  -9   8   13.72    1.80
  -3  -9   8   11.79    1.47
   3   9  -7    1.72    1.33
   3   9  -7    2.03    1.21
  -3  -9   7    1.27    0.93
  -3  -9   7    2.28    1.44
  -3  -9   7    1.33    1.17
   3   9  -6   -1.46    1.12
   3   9  -6    0.20    1.10
  -3  -9   6   -0.74    0.82
  -3  -9   6   -0.56    1.30
  -3  -9   6   -1.33    1.01
   3   9  -5    0.49    1.20
   3   9  -5   -1.17    0.96
  -3  -9   5   -1.21    0.83
  -3  -9   5   -2.62    1.20
  -3  -9   5   -0.83    1.07
   3   9  -4    0.46    1.13
   3   9  -4    0.80    1.07
  -3  -9   4   -1.75    1.29
  -3  -9   4    0.19    1.38
  -3  -9   4    0.54    1.13
   3   9  -3    2.14    1.19
   3   9  -3    2.52    1.19
  -3  -9   3   -0.62    1.40
  -3  -9   3   -0.51    1.42
   3   9  -2    3.73    1.29
   3   9  -2    3.03    1.28
  -3  -9   2    2.54    1.63
   3   9  -1   19.11    2.32
   3   9  -1   18.08    2.18
  -3  -9   1   14.74    2.10
   3   9   0   25.45    2.41
  -3  -9   0   30.47    2.95
  -3  -9   0   30.64    3.32
   3   9   1   22.28    2.41
  -3  -9  -1   30.02    2.85
  -3  -9  -1   28.69    3.25
   4   9  -9    2.60    1.62
   4   9  -9    0.80    1.26
  -4  -9   9    1.30    1.10
  -4  -9   9    1.29    1.36
   4   9  -8    1.61    1.45
   4   9  -8    1.07    1.18
  -4  -9   8   -0.15    1.06
  -4  -9   8   -0.22    1.38
  -4  -9   8   -1.16    1.08
   4   9  -7    0.44    1.32
   4   9  -7    1.04    1.15
  -4  -9   7   -1.24    1.00
  -4  -9   7   -0.91    1.40
  -4  -9   7   -0.70    1.19
   4   9  -6    0.23    1.25
   4   9  -6    0.42    1.13
  -4  -9   6   -2.63    0.98
  -4  -9   6   -2.17    1.38
   4   9  -5    1.28    1.26
   4   9  -5    0.50    1.18
  -4  -9   5   -2.56    1.01
  -4  -9   5   -1.95    1.47
   4   9  -4    8.33    1.53
   4   9  -4    5.20    1.41
  -4  -9   4    3.09    1.27
  -4  -9   4    9.20    1.92
   4   9  -3   32.05    2.60
   4   9  -3   28.64    2.57
   4   9  -3   23.49    2.32
  -4  -9   3   13.01    1.55
  -4  -9   3   27.80    3.29
   4   9  -2   30.58    2.61
   4   9  -2   30.56    2.53
   4   9  -2   22.85    2.42
  -4  -9   2   20.01    2.23
  -4  -9   2   36.14    3.43
   4   9  -1   27.22    2.51
   4   9  -1   21.12    2.48
  -4  -9   1   24.38    2.27
  -4  -9   1   31.66    3.36
  -3  10  -5   -2.59    1.34
  -3  10  -5   -1.40    0.92
  -3  10  -5    0.25    1.12
   3 -10   5   -1.41    1.36
   3 -10   5   -1.80    1.56
  -3  10  -4   -2.56    1.34
  -3  10  -4   -1.98    0.91
  -3  10  -4   -0.06    1.17
   3 -10   4   -2.20    1.48
   3 -10   4   -0.61    1.61
  -3  10  -3    0.71    1.45
  -3  10  -3    0.27    0.99
  -3  10  -3    2.91    1.31
   3 -10   3    0.29    1.60
   3 -10   3   -1.96    1.66
  -2  10  -7    0.86    1.46
  -2  10  -7   -0.42    1.12
   2 -10   7    1.32    1.31
   2 -10   7   -3.88    1.55
  -2  10  -6    1.70    1.57
  -2  10  -6   -0.46    1.03
  -2  10  -6    2.99    1.13
   2 -10   6    0.92    1.38
   2 -10   6    0.29    1.67
  -2  10  -5    3.50    1.64
  -2  10  -5    0.26    1.03
  -2  10  -5    3.88    1.23
   2 -10   5    0.32    1.40
   2 -10   5    2.78    1.73
  -2  10  -4    2.91    1.59
  -2  10  -4    1.51    1.05
  -2  10  -4    4.78    1.34
   2 -10   4    6.17    1.68
   2 -10   4    4.77    1.75
  -2  10  -3    8.19    1.90
  -2  10  -3    6.99    1.50
   2 -10   3   10.31    1.86
   2 -10   3   11.32    2.06
  -2  10  -2   11.25    1.98
  -2  10  -2   10.82    1.73
   2 -10   2   18.48    2.16
   2 -10   2   29.30    3.26
  -2  10  -1   16.36    2.09
  -2  10  -1   12.37    1.81
   2 -10   1   29.48    3.05
   2 -10   1   32.48    3.45
  -1  10  -8    1.65    1.58
  -1  10  -8    0.43    1.26
   1 -10   8   -0.86    1.62
  -1  10  -7    2.50    1.50
  -1  10  -7    1.11    1.22
  -1  10  -7    6.00    1.28
   1 -10   7    3.80    1.82
  -1  10  -6    9.95    1.84
  -1  10  -6    7.64    1.43
  -1  10  -6    9.27    1.46
   1 -10   6   13.04    1.86
   1 -10   6   11.69    2.06
  -1  10  -5   13.17    1.97
  -1  10  -5   10.95    1.54
   1 -10   5   14.25    1.83
   1 -10   5   15.36    2.14
  -1  10  -4   12.66    1.94
  -1  10  -4   10.83    1.60
   1 -10   4   21.82    2.72
   1 -10   4   16.40    2.15
  -1  10  -3   14.96    2.14
  -1  10  -3   13.09    1.77
   1 -10   3   27.02    2.80
   1 -10   3   18.14    2.14
  -1  10  -2   11.14    1.92
  -1  10  -2    7.67    1.64
   1 -10   2   21.85    2.65
   1 -10   2   11.25    1.91
  -1  10  -1    2.50    1.59
  -1  10  -1    3.88    1.51
   1 -10   1    7.65    1.66
   1 -10   1    5.35    1.67
  -1  10   0    0.34    1.48
  -1  10   0    3.83    1.53
   1 -10   0    3.58    1.57
   1 -10   0    4.11    1.64
   0  10  -9    3.10    1.66
   0  10  -9   -0.84    1.35
   0 -10   9    1.91    1.72
   0  10  -8    4.89    1.65
   0  10  -8    1.34    1.49
   0  10  -8    5.84    1.32
   0 -10   8    6.03    1.92
   0  10  -7    6.34    1.72
   0  10  -7    7.17    1.40
   0 -10   7   10.71    2.03
   0  10  -6   32.24    3.12
   0  10  -6   29.09    2.43
   0 -10   6   46.80    3.46
   0  10  -5   40.25    3.19
   0  10  -5   34.09    2.60
   0 -10   5   54.40    3.57
   0  10  -4   15.30    2.12
   0  10  -4   11.50    1.67
   0 -10   4   26.38    2.61
   0 -10   4   27.24    3.13
   0  10  -3    4.79    1.65
   0  10  -3    5.47    1.48
   0 -10   3    8.33    1.53
   0 -10   3    5.65    1.67
   0  10  -2    1.06    1.42
   0  10  -2    2.76    1.41
   0 -10   2    3.61    1.40
   0 -10   2    4.21    1.63
   0  10  -1   -0.93    1.29
   0  10  -1   -0.95    1.23
   0 -10   1   -0.91    1.24
   0 -10   1   -1.76    1.36
   0  10   0   -1.97    1.23
   0  10   0   -1.54    1.29
   0 -10   0   -1.57    1.31
   0 -10   0   -2.77    1.42
   1  10  -8   18.08    2.27
   1  10  -8   14.35    1.75
  -1 -10   8   29.11    3.40
   1  10  -7   11.37    1.98
   1  10  -7    8.97    1.56
  -1 -10   7   15.29    2.12
   1  10  -6    5.03    1.78
   1  10  -6    3.55    1.40
  -1 -10   6    6.87    1.84
   1  10  -5    6.36    1.76
   1  10  -5    6.71    1.54
  -1 -10   5   10.81    1.89
   1  10  -4    6.07    1.77
   1  10  -4    5.29    1.46
  -1 -10   4    6.35    1.72
   1  10  -3   -0.44    1.38
   1  10  -3    1.66    1.24
  -1 -10   3   -0.71    1.44
   1  10  -2   -1.10    1.31
   1  10  -2    0.91    1.23
  -1 -10   2   -1.17    1.19
  -1 -10   2   -2.98    1.38
   1  10  -1    0.13    1.35
   1  10  -1    0.25    1.27
  -1 -10   1   -0.47    1.30
  -1 -10   1   -1.43    1.47
   2  10  -7    8.32    1.87
   2  10  -7    9.05    1.59
  -2 -10   7   12.22    2.05
   2  10  -6    2.23    1.59
   2  10  -6    2.41    1.32
  -2 -10   6    4.12    1.73
   2  10  -5   -1.15    1.40
   2  10  -5    1.55    1.24
  -2 -10   5   -1.05    1.48
   2  10  -4    1.05    1.41
   2  10  -4   -0.14    1.24
  -2 -10   4   -0.39    1.55
   2  10  -3   -0.25    1.33
   2  10  -3    1.76    1.27
  -2 -10   3   -1.58    1.61
   0   0   0    0.00    0.00
;
_shelx_hkl_checksum              82954
loop_
_space_group_symop_operation_xyz
'x, y, z'
'-x, -y, -z'
loop_
_atom_site_label
_atom_site_type_symbol
_atom_site_fract_x
_atom_site_fract_y
_atom_site_fract_z
_atom_site_U_iso_or_equiv
_atom_site_adp_type
_atom_site_occupancy
_atom_site_site_symmetry_order
_atom_site_calc_flag
_atom_site_refinement_flags_posn
_atom_site_refinement_flags_adp
_atom_site_refinement_flags_occupancy
_atom_site_disorder_assembly
_atom_site_disorder_group
Ru1 Ru 1.0000 0.5000 0.0000 0.04263(13) Uani 1 2 d S U P . .
N1 N 0.8527(3) 0.5661(3) 0.12615(19) 0.0468(5) Uani 1 1 d . U . . .
Cl1 Cl 1.18386(10) 0.75568(10) 0.07863(6) 0.0566(2) Uani 1 1 d . U . . .
Cl2 Cl 1.16913(9) 0.33560(10) 0.09192(6) 0.0547(2) Uani 1 1 d . U . . .
N3 N 0.5920(5) 0.0457(4) 0.0967(2) 0.0674(8) Uani 1 1 d . U . . .
H3 H 0.539(11) 0.027(11) 0.036(6) 0.08(2) Uiso 0.5 1 d . . P . .
C11 C 0.6787(4) 0.5617(5) 0.1111(3) 0.0581(8) Uani 1 1 d . U . . .
H11 H 0.6259 0.5277 0.0431 0.070 Uiso 1 1 calc R U . . .
C12 C 0.5763(4) 0.6046(5) 0.1903(3) 0.0616(8) Uani 1 1 d . U . . .
H12 H 0.4567 0.5995 0.1761 0.074 Uiso 1 1 calc R U . . .
C13 C 0.6513(4) 0.6552(4) 0.2911(3) 0.0577(7) Uani 1 1 d . U . . .
C31 C 0.7615(6) 0.0296(5) 0.1041(3) 0.0768(10) Uani 1 1 d . U . . .
H31 H 0.8141 -0.0162 0.0438 0.092 Uiso 1 1 calc R U . . .
C16 C 0.5399(6) 0.7015(7) 0.3792(3) 0.0820(11) Uani 1 1 d . U . . .
C15 C 0.9251(4) 0.6165(4) 0.2254(2) 0.0538(7) Uani 1 1 d . U . . .
H15 H 1.0449 0.6211 0.2381 0.065 Uiso 1 1 calc R U . . .
C14 C 0.8295(5) 0.6612(4) 0.3085(3) 0.0595(8) Uani 1 1 d . U . . .
H14 H 0.8840 0.6953 0.3762 0.071 Uiso 1 1 calc R U . . .
C32 C 0.8610(5) 0.0786(5) 0.1979(3) 0.0698(9) Uani 1 1 d . U . . .
H32 H 0.9795 0.0662 0.2019 0.084 Uiso 1 1 calc R U . . .
C33 C 0.7819(5) 0.1461(4) 0.2852(3) 0.0622(8) Uani 1 1 d . U . . .
C34 C 0.6053(6) 0.1597(6) 0.2775(3) 0.0771(10) Uani 1 1 d . U . . .
H34 H 0.5492 0.2034 0.3367 0.093 Uiso 1 1 calc R U . . .
C35 C 0.5153(5) 0.1079(5) 0.1816(3) 0.0759(10) Uani 1 1 d . U . . .
H35 H 0.3962 0.1166 0.1757 0.091 Uiso 1 1 calc R U . . .
C36 C 0.8871(8) 0.2023(8) 0.3902(4) 0.1044(15) Uani 1 1 d . U . . .
F11 F 0.6228(7) 0.7414(14) 0.4717(3) 0.144(3) Uani 0.761(9) 1 d . U P A 1
F12 F 0.4411(10) 0.8322(9) 0.3741(5) 0.136(2) Uani 0.761(9) 1 d . U P A 1
F13 F 0.4293(9) 0.5643(7) 0.3778(5) 0.129(2) Uani 0.761(9) 1 d . U P A 1
F11A F 0.564(3) 0.601(3) 0.4381(13) 0.114(5) Uani 0.239(9) 1 d . U P A 2
F12A F 0.594(3) 0.863(2) 0.4357(14) 0.116(5) Uani 0.239(9) 1 d . U P A 2
F13A F 0.3839(19) 0.698(4) 0.3502(11) 0.121(6) Uani 0.239(9) 1 d . U P A 2
F31 F 0.933(2) 0.0877(12) 0.4266(8) 0.159(5) Uani 0.539(10) 1 d . U P B 1
F32 F 0.8123(12) 0.3350(12) 0.4567(5) 0.132(3) Uani 0.539(10) 1 d . U P B 1
F33 F 1.0365(11) 0.3008(15) 0.3828(8) 0.139(4) Uani 0.539(10) 1 d . U P B 1
F31A F 1.0366(14) 0.105(2) 0.3859(10) 0.150(5) Uani 0.461(10) 1 d . U P B 2
F32A F 0.8114(15) 0.1258(17) 0.4596(7) 0.137(4) Uani 0.461(10) 1 d . U P B 2
F33A F 0.937(2) 0.3513(14) 0.4191(11) 0.169(6) Uani 0.461(10) 1 d . U P B 2
loop_
_atom_site_aniso_label
_atom_site_aniso_U_11
_atom_site_aniso_U_22
_atom_site_aniso_U_33
_atom_site_aniso_U_23
_atom_site_aniso_U_13
_atom_site_aniso_U_12
Ru1 0.03254(18) 0.04441(19) 0.0519(2) 0.02007(14) -0.01066(13) -0.00250(13)
N1 0.0361(12) 0.0493(13) 0.0553(13) 0.0206(11) -0.0109(10) -0.0031(10)
Cl1 0.0467(4) 0.0490(4) 0.0717(5) 0.0200(4) -0.0125(4) -0.0111(3)
Cl2 0.0470(4) 0.0558(4) 0.0652(5) 0.0282(4) -0.0113(3) 0.0068(3)
N3 0.093(2) 0.0547(15) 0.0508(16) 0.0199(13) -0.0230(15) -0.0097(15)
C11 0.0402(15) 0.078(2) 0.0522(17) 0.0172(15) -0.0114(12) -0.0036(14)
C12 0.0401(16) 0.080(2) 0.0633(19) 0.0203(16) -0.0022(14) -0.0004(15)
C13 0.0593(18) 0.0556(17) 0.0595(17) 0.0194(14) 0.0017(14) 0.0023(14)
C31 0.101(3) 0.079(2) 0.0515(19) 0.0212(17) 0.0040(19) -0.002(2)
C16 0.082(3) 0.098(3) 0.065(2) 0.0181(19) 0.0116(19) 0.011(2)
C15 0.0451(16) 0.0585(17) 0.0559(16) 0.0192(14) -0.0152(13) -0.0007(13)
C14 0.0620(19) 0.0643(19) 0.0494(17) 0.0155(14) -0.0107(14) 0.0021(15)
C32 0.062(2) 0.083(2) 0.069(2) 0.0285(18) -0.0001(16) 0.0011(18)
C33 0.077(2) 0.0535(17) 0.0530(17) 0.0153(14) -0.0123(15) 0.0010(15)
C34 0.081(2) 0.083(2) 0.063(2) 0.0107(18) 0.0024(18) 0.021(2)
C35 0.069(2) 0.077(2) 0.082(2) 0.0252(19) -0.0123(19) 0.0109(19)
C36 0.126(4) 0.105(3) 0.069(3) 0.017(2) -0.036(2) -0.006(3)
F11 0.114(4) 0.246(8) 0.058(2) 0.014(3) 0.012(2) 0.013(4)
F12 0.161(5) 0.136(4) 0.134(4) 0.047(4) 0.072(4) 0.082(4)
F13 0.133(4) 0.129(4) 0.127(4) 0.021(3) 0.071(4) -0.016(3)
F11A 0.143(13) 0.136(10) 0.079(8) 0.046(7) 0.040(7) 0.023(8)
F12A 0.137(11) 0.110(7) 0.090(8) -0.005(5) 0.041(7) 0.011(6)
F13A 0.080(5) 0.197(16) 0.080(7) 0.019(9) 0.020(5) 0.023(6)
F31 0.227(13) 0.131(5) 0.107(8) 0.050(5) -0.092(8) -0.003(7)
F32 0.147(6) 0.154(6) 0.062(3) -0.024(3) -0.008(3) -0.009(4)
F33 0.104(5) 0.171(8) 0.112(6) 0.007(5) -0.043(4) -0.030(5)
F31A 0.113(6) 0.198(10) 0.129(8) 0.045(6) -0.053(5) 0.016(6)
F32A 0.148(7) 0.204(10) 0.066(4) 0.054(5) -0.015(4) 0.013(6)
F33A 0.232(15) 0.105(5) 0.130(10) 0.007(5) -0.099(9) -0.035(6)
loop_
_atom_type_symbol
_atom_type_description
_atom_type_scat_dispersion_real
_atom_type_scat_dispersion_imag
_atom_type_scat_source
C C 0.0033 0.0016 'International Tables Vol C Tables 4.2.6.8 and 6.1.1.4'
H H 0.0000 0.0000 'International Tables Vol C Tables 4.2.6.8 and 6.1.1.4'
N N 0.0061 0.0033 'International Tables Vol C Tables 4.2.6.8 and 6.1.1.4'
F F 0.0171 0.0103 'International Tables Vol C Tables 4.2.6.8 and 6.1.1.4'
Cl Cl 0.1484 0.1585 'International Tables Vol C Tables 4.2.6.8 and 6.1.1.4'
Ru Ru -1.2594 0.8363 'International Tables Vol C Tables 4.2.6.8 and 6.1.1.4'
loop_
_geom_angle_atom_site_label_1
_geom_angle_atom_site_label_2
_geom_angle_atom_site_label_3
_geom_angle
_geom_angle_site_symmetry_1
_geom_angle_site_symmetry_3
N1 Ru1 N1 180.0 2_765 .
N1 Ru1 Cl1 88.70(7) 2_765 2_765
N1 Ru1 Cl1 91.30(7) . 2_765
N1 Ru1 Cl1 91.30(7) 2_765 .
N1 Ru1 Cl1 88.70(7) . .
Cl1 Ru1 Cl1 180.0 2_765 .
N1 Ru1 Cl2 88.52(6) 2_765 2_765
N1 Ru1 Cl2 91.48(6) . 2_765
Cl1 Ru1 Cl2 89.71(3) 2_765 2_765
Cl1 Ru1 Cl2 90.29(3) . 2_765
N1 Ru1 Cl2 91.48(6) 2_765 .
N1 Ru1 Cl2 88.52(6) . .
Cl1 Ru1 Cl2 90.29(3) 2_765 .
Cl1 Ru1 Cl2 89.71(3) . .
Cl2 Ru1 Cl2 180.0 2_765 .
C15 N1 C11 116.8(3) . .
C15 N1 Ru1 122.3(2) . .
C11 N1 Ru1 120.9(2) . .
C35 N3 C31 119.8(3) . .
C35 N3 H3 122(6) . .
C31 N3 H3 118(6) . .
N1 C11 C12 123.4(3) . .
N1 C11 H11 118.3 . .
C12 C11 H11 118.3 . .
C11 C12 C13 119.3(3) . .
C11 C12 H12 120.4 . .
C13 C12 H12 120.4 . .
C12 C13 C14 118.4(3) . .
C12 C13 C16 119.8(3) . .
C14 C13 C16 121.8(3) . .
N3 C31 C32 121.8(4) . .
N3 C31 H31 119.1 . .
C32 C31 H31 119.1 . .
F13A C16 F11A 110.2(14) . .
F11 C16 F12 107.5(6) . .
F13A C16 F12A 109.7(14) . .
F11A C16 F12A 105.8(13) . .
F11 C16 F13 104.4(5) . .
F12 C16 F13 104.6(5) . .
F13A C16 C13 113.6(7) . .
F11A C16 C13 110.2(8) . .
F11 C16 C13 115.1(4) . .
F12 C16 C13 113.2(4) . .
F12A C16 C13 107.0(8) . .
F13 C16 C13 111.1(4) . .
N1 C15 C14 122.6(3) . .
N1 C15 H15 118.7 . .
C14 C15 H15 118.7 . .
C15 C14 C13 119.4(3) . .
C15 C14 H14 120.3 . .
C13 C14 H14 120.3 . .
C33 C32 C31 118.3(4) . .
C33 C32 H32 120.9 . .
C31 C32 H32 120.9 . .
C32 C33 C34 119.8(3) . .
C32 C33 C36 119.9(4) . .
C34 C33 C36 120.3(4) . .
C35 C34 C33 118.5(4) . .
C35 C34 H34 120.8 . .
C33 C34 H34 120.8 . .
N3 C35 C34 121.9(4) . .
N3 C35 H35 119.1 . .
C34 C35 H35 119.1 . .
F31 C36 F32 114.5(9) . .
F33A C36 F32A 117.9(11) . .
F31 C36 F33 105.9(9) . .
F32 C36 F33 97.6(7) . .
F33A C36 F31A 105.6(11) . .
F32A C36 F31A 95.9(8) . .
F33A C36 C33 116.4(7) . .
F31 C36 C33 116.7(6) . .
F32 C36 C33 110.8(6) . .
F32A C36 C33 109.7(6) . .
F33 C36 C33 109.5(6) . .
F31A C36 C33 108.7(7) . .
loop_
_geom_bond_atom_site_label_1
_geom_bond_atom_site_label_2
_geom_bond_distance
_geom_bond_site_symmetry_2
Ru1 N1 2.087(3) 2_765
Ru1 N1 2.088(3) .
Ru1 Cl1 2.3512(7) 2_765
Ru1 Cl1 2.3512(7) .
Ru1 Cl2 2.3545(6) 2_765
Ru1 Cl2 2.3545(6) .
N1 C15 1.345(4) .
N1 C11 1.348(4) .
N3 C35 1.318(5) .
N3 C31 1.328(5) .
N3 H3 0.85(7) .
C11 C12 1.361(5) .
C11 H11 0.9300 .
C12 C13 1.369(5) .
C12 H12 0.9300 .
C13 C14 1.382(5) .
C13 C16 1.501(5) .
C31 C32 1.368(5) .
C31 H31 0.9300 .
C16 F13A 1.237(15) .
C16 F11A 1.252(14) .
C16 F11 1.297(6) .
C16 F12 1.313(6) .
C16 F12A 1.317(15) .
C16 F13 1.338(7) .
C15 C14 1.369(5) .
C15 H15 0.9300 .
C14 H14 0.9300 .
C32 C33 1.361(5) .
C32 H32 0.9300 .
C33 C34 1.379(5) .
C33 C36 1.508(5) .
C34 C35 1.358(5) .
C34 H34 0.9300 .
C35 H35 0.9300 .
C36 F33A 1.162(11) .
C36 F31 1.176(9) .
C36 F32 1.366(9) .
C36 F32A 1.382(11) .
C36 F33 1.390(11) .
C36 F31A 1.414(12) .
