#------------------------------------------------------------------------------
#$Date: 2019-11-23 07:00:53 +0200 (Sat, 23 Nov 2019) $
#$Revision: 232378 $
#$URL: file:///home/coder/svn-repositories/cod/cif/4/34/75/4347554.cif $
#------------------------------------------------------------------------------
#
# This file is available in the Crystallography Open Database (COD),
# http://www.crystallography.net/
#
# All data on this site have been placed in the public domain by the
# contributors.
#
data_4347554
loop_
_publ_author_name
'Wla\'zlak, Ewelina'
'Macyk, Wojciech'
'Nitek, Wojciech'
'Szaci\/lowski, Konrad'
_publ_section_title
;
 Influence of \p-Iodide Intermolecular Interactions on Electronic
 Properties of Tin(IV) Iodide Semiconducting Complexes.
;
_journal_issue                   12
_journal_name_full               'Inorganic chemistry'
_journal_page_first              5935
_journal_page_last               5945
_journal_paper_doi               10.1021/acs.inorgchem.6b00336
_journal_volume                  55
_journal_year                    2016
_chemical_formula_moiety         'C10 H10 I4 N2 O2 Sn'
_chemical_formula_sum            'C10 H10 I4 N2 O2 Sn'
_chemical_formula_weight         816.49
_space_group_IT_number           2
_space_group_name_Hall           '-P 1'
_space_group_name_H-M_alt        'P -1'
_symmetry_cell_setting           triclinic
_symmetry_Int_Tables_number      2
_symmetry_space_group_name_Hall  '-P 1'
_symmetry_space_group_name_H-M   'P -1'
_atom_sites_solution_hydrogens   geom
_audit_creation_date             2014-11-24T11:27:16-00:00
_audit_creation_method           'WinGX routine CIF_UPDATE'
_cell_angle_alpha                97.297(5)
_cell_angle_beta                 94.306(5)
_cell_angle_gamma                117.289(5)
_cell_formula_units_Z            2
_cell_length_a                   7.393(5)
_cell_length_b                   7.960(5)
_cell_length_c                   17.606(5)
_cell_measurement_reflns_used    5424
_cell_measurement_temperature    120(2)
_cell_measurement_theta_max      28.5983
_cell_measurement_theta_min      2.9286
_cell_volume                     902.8(9)
_computing_cell_refinement
;
        CrysAlisPro, Agilent Technologies,
        Version 1.171.37.33 (release 27-03-2014 CrysAlis171 .NET)
        (compiled Mar 27 2014,17:12:48)
;
_computing_data_collection
;
        CrysAlisPro, Agilent Technologies,
        Version 1.171.37.33 (release 27-03-2014 CrysAlis171 .NET)
        (compiled Mar 27 2014,17:12:48)
;
_computing_data_reduction
;
        CrysAlisPro, Agilent Technologies,
        Version 1.171.37.33 (release 27-03-2014 CrysAlis171 .NET)
        (compiled Mar 27 2014,17:12:48)
;
_computing_structure_refinement  'SHELXL-2012 (Sheldrick, 2012)'
_diffrn_ambient_temperature      120(2)
_diffrn_detector                 'CCD plate'
_diffrn_detector_area_resol_mean 10.3756
_diffrn_measured_fraction_theta_full 0.998
_diffrn_measured_fraction_theta_max 0.909
_diffrn_measurement_device       'four-circle diffractometer'
_diffrn_measurement_device_type  'SuperNova, Dual, Cu at zero, Atlas'
_diffrn_measurement_method       '\w scans'
_diffrn_orient_matrix_UB_11      -0.031384
_diffrn_orient_matrix_UB_12      -0.0812827
_diffrn_orient_matrix_UB_13      -0.0296372
_diffrn_orient_matrix_UB_21      -0.0350676
_diffrn_orient_matrix_UB_22      0.0438855
_diffrn_orient_matrix_UB_23      -0.025911
_diffrn_orient_matrix_UB_31      0.0985547
_diffrn_orient_matrix_UB_32      0.0432035
_diffrn_orient_matrix_UB_33      -0.0117712
_diffrn_radiation_monochromator  mirror
_diffrn_radiation_probe          x-ray
_diffrn_radiation_type           MoK\a
_diffrn_radiation_wavelength     0.71069
_diffrn_reflns_av_R_equivalents  0.0423
_diffrn_reflns_av_unetI/netI     0.0608
_diffrn_reflns_Laue_measured_fraction_full 0.998
_diffrn_reflns_Laue_measured_fraction_max 0.909
_diffrn_reflns_limit_h_max       9
_diffrn_reflns_limit_h_min       -9
_diffrn_reflns_limit_k_max       10
_diffrn_reflns_limit_k_min       -10
_diffrn_reflns_limit_l_max       23
_diffrn_reflns_limit_l_min       -22
_diffrn_reflns_number            12113
_diffrn_reflns_point_group_measured_fraction_full 0.998
_diffrn_reflns_point_group_measured_fraction_max 0.909
_diffrn_reflns_theta_full        25.24
_diffrn_reflns_theta_max         28.596
_diffrn_reflns_theta_min         2.928
_diffrn_source                   'SuperNova (Mo) X-ray Source'
_exptl_absorpt_coefficient_mu    8.253
_exptl_absorpt_correction_T_max  0.755
_exptl_absorpt_correction_T_min  0.225
_exptl_absorpt_correction_type   gaussian
_exptl_absorpt_process_details
;
        CrysAlisPro, Agilent Technologies,
        Version 1.171.37.33 (release 27-03-2014 CrysAlis171 .NET)
        (compiled Mar 27 2014,17:12:48)
Numerical absorption correction based on gaussian integration over
                        a multifaceted crystal model
        Empirical absorption correction using spherical harmonics,
 implemented in SCALE3 ABSPACK scaling algorithm.
;
_exptl_crystal_colour            orange
_exptl_crystal_density_diffrn    3.004
_exptl_crystal_description       plate
_exptl_crystal_F_000             724
_exptl_crystal_size_max          0.424
_exptl_crystal_size_mid          0.192
_exptl_crystal_size_min          0.035
_refine_diff_density_max         1.006
_refine_diff_density_min         -1.128
_refine_diff_density_rms         0.212
_refine_ls_extinction_method     none
_refine_ls_goodness_of_fit_ref   1.023
_refine_ls_hydrogen_treatment    constr
_refine_ls_matrix_type           full
_refine_ls_number_parameters     172
_refine_ls_number_reflns         4189
_refine_ls_number_restraints     0
_refine_ls_restrained_S_all      1.023
_refine_ls_R_factor_all          0.044
_refine_ls_R_factor_gt           0.0301
_refine_ls_shift/su_max          0.002
_refine_ls_shift/su_mean         0
_refine_ls_structure_factor_coef Fsqd
_refine_ls_weighting_details
;
 w=1/[\s^2^(Fo^2^)+(0.0151P)^2^]
 where P=(Fo^2^+2Fc^2^)/3
;
_refine_ls_weighting_scheme      calc
_refine_ls_wR_factor_gt          0.0513
_refine_ls_wR_factor_ref         0.058
_reflns_number_gt                3424
_reflns_number_total             4189
_reflns_threshold_expression     'I > 2\s(I)'
_cod_data_source_file            ic6b00336_si_004.cif
_cod_data_source_block           ew_nor_120
_cod_database_code               4347554
_shelx_estimated_absorpt_t_min   0.128
_shelx_estimated_absorpt_t_max   0.761
_shelxl_version_number           2012-9
_shelx_res_file
;
TITL ew_nor_120 in P-1
CELL  0.71069   7.3930   7.9600  17.6060   97.297   94.306  117.289
ZERR     2.00   0.0050   0.0050   0.0050    0.005    0.005    0.005
LATT   1
SFAC  C    H    N    O    SN   I
UNIT  20   20   4    4    2    8
MERG   2
FMAP   2
PLAN   15
SIZE     0.035   0.192   0.424
ACTA
BOND   $H
CONF
LIST   4
L.S.   9
TEMP  -153.00
WGHT    0.015100
FVAR       2.49804
SN4   5    0.683896    0.390754    0.749155    11.00000    0.01538    0.01523 =
         0.01472    0.00035    0.00191    0.00646
I1    6    0.365805    0.092658    0.802181    11.00000    0.01885    0.02019 =
         0.02213    0.00293    0.00328    0.00294
I2    6    0.917798    0.527153    0.898256    11.00000    0.01806    0.02122 =
         0.01767   -0.00026   -0.00213    0.00881
I3    6    0.459420    0.319530    0.603000    11.00000    0.02558    0.02310 =
         0.01690   -0.00071   -0.00233    0.00995
I4    6    0.881225    0.181968    0.695548    11.00000    0.03180    0.02754 =
         0.02701    0.00495    0.00997    0.02040
N1    3    0.597239    0.696826    0.839636    11.00000    0.02078    0.01569 =
         0.02031   -0.00183    0.00318    0.01015
O1    4    0.546310    0.576884    0.770856    11.00000    0.02180    0.02321 =
         0.01905   -0.00348   -0.00391    0.01536
C2    1    0.477507    0.639441    0.894171    11.00000    0.01575    0.01444 =
         0.03976    0.00097    0.00775    0.00598
AFIX  43
H2    2    0.358528    0.516908    0.884223    11.00000   -1.20000
AFIX   0
C3    1    0.527291    0.758955    0.965150    11.00000    0.02888    0.03875 =
         0.02791    0.00884    0.01335    0.02216
AFIX  43
H3    2    0.443505    0.718892    1.004417    11.00000   -1.20000
AFIX   0
C4    1    0.699538    0.936706    0.978424    11.00000    0.02388    0.02650 =
         0.02640   -0.00128    0.00239    0.01445
AFIX  43
H4    2    0.736358    1.020079    1.027051    11.00000   -1.20000
AFIX   0
C5    1    0.818696    0.992660    0.919984    11.00000    0.02367    0.01968 =
         0.02802    0.00516    0.00349    0.00981
AFIX  43
H5    2    0.936262    1.115907    0.927905    11.00000   -1.20000
AFIX   0
C6    1    0.765507    0.868649    0.850616    11.00000    0.02251    0.01989 =
         0.03228    0.01133    0.01137    0.01293
AFIX  43
H6    2    0.847694    0.904614    0.810636    11.00000   -1.20000
AFIX   0
N7    3    1.014067    0.678672    0.662377    11.00000    0.01917    0.01325 =
         0.01631   -0.00053    0.00341    0.00195
O7    4    0.939772    0.651473    0.729933    11.00000    0.02987    0.01882 =
         0.01930   -0.00282    0.01369   -0.00159
C8    1    0.928983    0.743037    0.610167    11.00000    0.01955    0.01146 =
         0.03972    0.00262   -0.00005    0.00761
AFIX  43
H8    2    0.813659    0.760849    0.619837    11.00000   -1.20000
AFIX   0
C9    1    1.010015    0.782025    0.543703    11.00000    0.03022    0.02223 =
         0.03306    0.01122   -0.00626    0.00586
AFIX  43
H9    2    0.948624    0.824207    0.506338    11.00000   -1.20000
AFIX   0
C10   1    1.179320    0.761040    0.530135    11.00000    0.03996    0.01788 =
         0.01799    0.00725    0.01044    0.00730
AFIX  43
H10   2    1.236680    0.789353    0.483950    11.00000   -1.20000
AFIX   0
C11   1    1.265344    0.697545    0.585268    11.00000    0.02878    0.02759 =
         0.03135    0.00989    0.01650    0.01627
AFIX  43
H11   2    1.383450    0.683109    0.577166    11.00000   -1.20000
AFIX   0
C12   1    1.179900    0.655621    0.651459    11.00000    0.01881    0.02289 =
         0.02678    0.01132    0.00372    0.00926
AFIX  43
H12   2    1.237294    0.610853    0.689094    11.00000   -1.20000
AFIX   0
HKLF    4

REM  ew_nor_120 in P-1
REM R1 =  0.0301 for    3424 Fo > 4sig(Fo)  and  0.0440 for all    4189 data
REM    172 parameters refined using      0 restraints

END

WGHT      0.0151      0.0000

REM Highest difference peak  1.006,  deepest hole -1.128,  1-sigma level  0.212
Q1    1   0.7783  0.4351  0.8506  11.00000  0.05    1.01
Q2    1   1.0026  0.6620  0.8236  11.00000  0.05    0.89
Q3    1   0.7548  0.2783  0.7511  11.00000  0.05    0.83
Q4    1   0.8307  1.0747  1.0353  11.00000  0.05    0.79
Q5    1   1.2991  1.0135  0.6039  11.00000  0.05    0.78
Q6    1   0.6250  0.3024  0.7640  11.00000  0.05    0.77
Q7    1   0.8001  0.4405  0.7897  11.00000  0.05    0.77
Q8    1   0.5899  0.2680  0.6139  11.00000  0.05    0.73
Q9    1   0.6851  0.8950  0.5438  11.00000  0.05    0.72
Q10   1   0.9949  0.3279  0.6804  11.00000  0.05    0.72
Q11   1   0.8693  0.7952  0.3790  11.00000  0.05    0.71
Q12   1   1.5081  0.8174  0.6074  11.00000  0.05    0.71
Q13   1   1.0061  0.4801  0.8608  11.00000  0.05    0.71
Q14   1   0.8039  0.6636  0.9468  11.00000  0.05    0.71
Q15   1   0.7756  0.2190  0.6902  11.00000  0.05    0.71
;
_shelx_res_checksum              24960
_shelx_hkl_file
;
   0   0  -3 532.749 245.936   1
   0   0   3 335.405 322.608   5
   0   0   4 5095.12 746.378   5
   0   0  -4 5065.88 781.063   1
   0   0   5 207.291 304.151   5
   0   0  -5 116.290 275.091   1
   0   0  -6 111750. 4095.84   1
   0   0   6 114835. 3976.38   5
   0   0   7 508.086 397.743   5
   0   0  -7 1436.07 484.736   1
   0   0  -8 2543.48 718.678   1
   0   0   8 1820.63 646.416   5
   0   0   9 746.358 390.583   5
   0   0  -9 212.884 214.497   1
   0   0 -10 205133. 6669.23   1
   0   0  10 200648. 6308.60   5
   0   0 -11 559.163 407.965   1
   0   0  11 245.660 366.307   5
   0   0 -12-32.0160 249.466   1
   0   0  12 542.571 350.819   5
   0   0  13-169.567 480.148   5
   0   0 -13 177.487 285.437   1
   0   0  14 139294. 6020.60   5
   0   0 -14 128472. 6001.95   1
   0   0  15-96.3592 343.928   5
   0   0 -15 711.079 602.807   1
   0   0  16 1268.00 740.364   5
   0   0 -16 863.485 555.826   1
   0   0 -17 2213.74 984.116   1
   0   0  17 2281.70 880.062   5
   0   0 -18 20308.1 2328.88   3
   0   0  18 20828.7 2619.09   5
   0   0 -18 19974.9 2660.92   1
   0   0 -19-352.961 659.619   3
   0   0  19 35.7147 674.197   5
   0   0 -19 749.327 530.811   1
   0   0  20 130884. 7586.31   7
   0   0  20 116554. 6548.56   5
   0   0 -20 124640. 6099.15   3
   0   0 -20 118889. 6893.67   1
   0   0  21 515.501 562.550   7
   0   0  21 5.00395 519.823   5
   0   0 -21 459.566 639.785   1
   0   0 -21 1486.34 709.000   3
   0   0 -22 15245.6 2249.98   3
   0   0  22 18226.7 2968.23   7
   0  -1  22 11560.3 2224.87   5
   0   1 -22 13797.9 2154.70   3
   0  -1  21 30435.3 3513.13   5
   0   1 -21 33141.8 3296.68   3
   0   1 -20 5989.05 1375.13   3
   0  -1  20 6803.02 1699.41   5
   0  -1  19 14495.5 2355.97   5
   0   1 -19 18790.6 2292.82   3
   0  -1  18 28322.7 3106.79   5
   0   1 -18 34105.6 3053.57   3
   0   1 -17 28305.3 2697.16   3
   0  -1  17 28229.5 2990.37   5
   0  -1  16 1010.29 761.074   5
   0   1 -16 1108.52 653.523   3
   0   1 -15 85424.6 4440.90   3
   0   1 -15 72829.5 2762.26   4
   0   1 -15 73707.1 4688.39   1
   0  -1  15 78573.3 4674.92   5
   0   1 -14 67664.3 2644.05   4
   0  -1  14 77402.3 4526.06   5
   0   1 -14 73668.6 4021.52   3
   0   1 -14 65797.5 4248.55   1
   0   1 -13 5411.93 1061.62   3
   0   1 -13 5234.08 738.639   4
   0  -1  13 6482.42 1259.09   5
   0   1 -13 5769.40 1238.26   1
   0  -1  12 2584.91 882.809   5
   0   1 -12 3093.39 584.548   4
   0   1 -12 2848.81 852.783   1
   0   1 -12 2785.98 755.649   3
   0   1 -11 36519.2 2613.09   3
   0   1 -11 45996.8 1983.64   4
   0  -1  11 44718.0 3151.11   5
   0   1 -11 43508.3 3096.39   1
   0   1 -10 9572.46 1379.02   1
   0  -1  10 8332.65 1355.24   5
   0   1 -10 11096.5 933.244   4
   0   1 -10 8955.30 1239.40   3
   0   1  -9 29084.3 1393.87   4
   0  -1   9 24482.4 2179.45   5
   0   1  -9 28238.5 2208.92   1
   0   1  -9 24571.6 1983.28   3
   0   1  -8 376478. 7074.85   3
   0   1  -8 430929. 7816.83   1
   0  -1   8 344192. 7646.48   5
   0   1  -8 402598. 4727.39   4
   0  -1   7 2985.56 672.764   5
   0   1  -7 3868.60 442.408   4
   0   1  -7 3813.21 692.725   3
   0   1  -6 167987. 3882.70   3
   0  -1   6 159643. 4437.31   5
   0   1  -6 166320. 2522.16   4
   0  -1   5 26891.3 1607.97   5
   0  -1   5 24511.7 920.353   4
   0   1  -5 25396.5 1339.77   3
   0   1  -5 25866.0 911.092   4
   0  -1   4 37441.1 1045.38   4
   0  -1   4 42258.4 1740.69   5
   0   1  -4 40639.2 1039.11   4
   0   1  -4 40866.0 1467.11   3
   0  -1   3 45507.2 1523.47   5
   0   1  -3 44913.6 1301.14   3
   0   1  -3 45600.7 1042.30   4
   0  -1   3 44687.1 1035.62   4
   0  -1   2 46107.3 1239.93   5
   0  -1   2 44625.3 1471.42   7
   0   1  -2 43981.1 1092.56   3
   0  -1   1 178850. 1911.78   5
   0  -1   0 71221.2 1492.02   2
   0  -1  -1 139207. 1978.38   2
   0   1   1 148745. 2298.35   4
   0  -1  -2 97885.0 1868.01   2
   0   1   2 103334. 1952.00   5
   0  -1  -2 96497.1 1909.61   5
   0  -1  -2 102279. 2389.33   7
   0  -1  -2 101675. 2448.34   1
   0  -1  -3 85820.8 2050.46   2
   0  -1  -3 81754.0 2151.59   5
   0  -1  -3 84921.4 2456.15   7
   0   1   3 89893.0 2323.10   5
   0  -1  -3 84182.7 2490.19   1
   0  -1  -4 23113.5 1363.18   5
   0  -1  -4 22690.1 1235.55   2
   0  -1  -4 22658.4 1485.16   1
   0   1   4 24897.4 1518.93   5
   0  -1  -5 81394.8 2667.92   2
   0   1   5 80012.9 2647.99   2
   0  -1  -5 72257.5 2758.39   5
   0  -1  -5 88977.4 3292.34   1
   0   1   5 80958.2 3139.20   5
   0  -1  -6 345782. 6208.87   2
   0   1   6 344173. 7292.93   5
   0  -1  -6 341980. 7275.50   1
   0  -1  -7 13700.3 1656.20   1
   0  -1  -7 15839.4 1457.23   2
   0   1   7 16651.9 1753.01   5
   0   1   8 78534.3 3918.69   5
   0  -1  -8 66726.0 3778.37   1
   0   1   9 100712. 4519.74   5
   0   1   9 84390.3 4279.87   7
   0  -1  -9 96217.3 4863.45   1
   0   1  10 8090.59 1327.85   5
   0   1  10 6488.86 1222.46   7
   0  -1 -10 7696.16 1497.19   1
   0   1  11 17707.9 2156.60   7
   0  -1 -11 18441.3 2297.45   1
   0   1  11 19347.4 2047.47   5
   0   1  12 202643. 6830.90   5
   0   1  12 193524. 7338.23   7
   0  -1 -12 210899. 7917.45   1
   0  -1 -13 6881.39 1476.09   1
   0   1  13 5054.41 1296.07   7
   0   1  13 7622.81 1369.61   5
   0  -1 -14 67290.1 4686.22   1
   0   1  14 57523.9 4250.72   7
   0   1  14 59987.5 3968.90   5
   0  -1 -15 662.477 593.003   1
   0   1  15 2211.29 779.412   5
   0   1  15 3148.67 1187.45   7
   0  -1 -16 32741.4 3458.28   1
   0   1  16 34258.3 3528.96   7
   0   1  16 30735.3 3027.88   5
   0   1  17 5621.24 1613.10   7
   0   1  17 6752.23 1502.55   5
   0   1  18 3409.53 1068.90   5
   0  -1 -18 1966.85 1011.93   1
   0   1  18 1076.75 701.599   7
   0  -1 -19 41334.8 4132.32   1
   0   1  19 42504.5 3819.97   5
   0   1  19 37403.5 4056.91   7
   0  -1 -20 10928.5 1833.16   3
   0  -1 -20 10749.4 2084.16   1
   0   1  20 9273.07 1810.42   5
   0   1  20 8754.73 2060.52   7
   0   1  21 14659.6 2535.72   5
   0  -1 -21 15850.5 2697.93   1
   0  -1 -21 18806.2 2366.90   3
   0   1  21 17105.9 2893.58   7
   0  -1 -22 8130.23 1623.49   3
   0  -2  22 5966.61 1738.31   5
   0   2 -22 6751.64 1549.05   3
   0  -2  21 12107.5 2269.11   5
   0   2 -21 19243.8 2511.41   3
   0   2 -20-828.835 947.939   3
   0  -2  20-466.891 644.475   5
   0  -2  19 17235.7 2595.68   5
   0   2 -19 15121.9 2094.71   3
   0  -2  18 10160.7 1942.21   5
   0   2 -18 7804.61 1488.83   3
   0   2 -17 13209.4 1924.89   3
   0  -2  17 14793.3 2233.85   5
   0   2 -16 6652.54 1317.73   3
   0  -2  16 7182.47 1541.84   5
   0  -2  15 27786.7 2918.62   5
   0   2 -15 21222.0 2351.18   3
   0  -2  14 874.436 666.038   5
   0   2 -14 1116.51 303.326   4
   0   2 -14 525.376 451.623   3
   0   2 -13 936.382 538.093   3
   0  -2  13 254.953 441.948   5
   0   2 -13 466.261 201.684   4
   0   2 -12 10621.1 889.124   4
   0   2 -12 9270.18 1391.96   3
   0  -2  12 7405.06 1404.23   5
   0   2 -11 609.868 252.043   4
   0  -2  11 325.140 475.196   5
   0   2 -11 952.637 565.651   3
   0   2 -10 1917.53 354.759   4
   0   2 -10 1159.03 513.476   3
   0  -2  10 1963.39 651.135   5
   0   2  -9 463690. 5161.77   4
   0   2  -9 461607. 7744.76   3
   0   2  -8 118771. 3636.48   3
   0   2  -8 119268. 2512.87   4
   0  -2   8 107049. 2542.00   4
   0  -2   8 116238. 4160.23   5
   0   2  -7 412939. 6248.96   3
   0  -2   7 402792. 4688.50   4
   0   2  -7 420633. 4641.53   4
   0  -2   6 2763.48 548.251   5
   0  -2   6 3061.16 399.838   4
   0   2  -6 2816.67 393.595   4
   0   2  -6 2810.57 460.111   3
   0   2  -5 8667.28 761.783   3
   0  -2   5 8203.12 851.054   5
   0  -2   5 8427.99 640.905   4
   0   2  -5 9203.82 709.355   4
   0   2  -5 9112.26 920.983   5
   0  -2   4 10382.1 843.556   5
   0   2  -4 11056.5 793.757   3
   0   2  -4 11634.5 780.534   4
   0   2  -4 11378.4 905.832   5
   0  -2   4 11230.8 1078.66   7
   0  -2   4 12884.3 791.213   4
   0  -2   3 39241.7 1448.53   5
   0  -2   3 43694.9 1467.58   4
   0   2  -3 39075.3 1394.45   3
   0  -2   3 39239.2 1898.41   7
   0   2  -3 41804.4 1512.07   5
   0   2  -3 41936.8 1462.71   4
   0  -2   2 50817.1 1471.09   5
   0   2  -2 55226.7 1709.39   4
   0   2  -2 52169.6 1527.12   3
   0   2  -2 51497.2 1468.44   5
   0  -2   2 52589.5 2327.41   1
   0  -2   2 50629.6 2096.73   7
   0   2  -1 70986.7 1557.59   5
   0  -2   1 72550.7 2475.01   7
   0  -2   1 72266.2 1628.37   5
   0  -2   1 76034.8 2716.28   1
   0  -2   1 76822.9 1560.57   6
   0   2  -1 76355.3 2088.58   4
   0   2  -1 73556.0 1821.70   3
   0  -2   0 5203.57 483.731   3
   0   2   0 3962.73 377.822   5
   0  -2   0 3077.04 576.825   1
   0  -2   0 4144.01 620.018   7
   0  -2   0 4190.42 540.298   2
   0   2   0 3902.21 428.950   3
   0   2   0 4417.62 529.187   4
   0   2   1 399597. 4961.24   2
   0  -2  -1 397014. 4794.10   2
   0  -2  -1 411763. 4255.52   3
   0   2   1 406061. 3023.36   6
   0   2   1 413296. 5184.67   4
   0  -2  -1 398919. 6013.96   7
   0  -2  -1 393810. 6168.89   1
   0  -2  -2 39953.8 1952.50   7
   0   2   2 36850.0 1542.21   2
   0  -2  -2 35955.1 1421.49   2
   0  -2  -2 40717.9 2032.55   1
   0   2   2 39756.5 1333.11   5
   0  -2  -3 152115. 4057.59   1
   0   2   3 145729. 3162.45   2
   0  -2  -3 143503. 2974.25   2
   0   2   3 149982. 2954.02   5
   0  -2  -4 13603.5 986.113   2
   0  -2  -4 12785.9 1266.60   1
   0   2   4 13176.5 1029.72   2
   0   2   4 13953.0 1062.15   5
   0  -2  -5 100279. 3110.97   5
   0  -2  -5 102901. 3708.73   1
   0  -2  -5 108315. 3010.87   2
   0   2   5 113575. 3490.54   5
   0   2   5 103934. 3097.95   2
   0  -2  -6 56973.6 2406.55   2
   0  -2  -6 55003.8 2870.74   1
   0   2   6 58484.7 2878.75   5
   0  -2  -7 34550.4 2029.22   2
   0   2   7 32716.2 2387.79   5
   0  -2  -7 37604.5 2547.85   1
   0  -2  -8 21490.2 2091.35   1
   0   2   8 17674.9 1915.15   5
   0   2   8 18828.1 1979.10   7
   0  -2  -8 16441.9 1547.12   2
   0   2   9 14111.2 1786.15   7
   0  -2  -9 12349.7 1463.06   2
   0   2   9 14189.5 1759.98   5
   0  -2  -9 14308.9 1797.89   1
   0   2  10 3079.22 823.505   5
   0   2  10 3156.16 881.664   7
   0  -2 -10 2972.68 914.504   1
   0  -2 -11 200743. 7851.12   1
   0   2  11 180284. 7113.26   7
   0   2  12 41067.1 3162.84   5
   0  -2 -12 43918.2 3913.54   1
   0   2  12 37153.4 3414.31   7
   0   2  13 181936. 6771.85   5
   0  -2 -13 172760. 8032.90   1
   0   2  14-295.604 380.592   7
   0   2  14 40.7054 319.714   5
   0   2  15-237.948 514.869   7
   0   2  15-233.434 297.412   5
   0  -2 -15-1188.20 722.301   1
   0   2  16 7994.13 1555.55   5
   0   2  16 4553.02 1341.31   7
   0  -2 -16 7424.67 1782.64   1
   0  -2 -17 575.417 789.324   1
   0   2  17-129.439 323.903   5
   0   2  17 82.8821 256.637   7
   0  -2 -18 8252.22 1985.37   1
   0   2  18 7209.48 1812.48   7
   0   2  18 9022.59 1806.63   5
   0   2  19 7716.46 2017.22   7
   0   2  19 8959.54 1731.09   5
   0  -2 -19 8438.17 1910.93   1
   0  -2 -20 4886.35 1587.68   1
   0   2  20 2356.60 1199.14   7
   0   2  20 3068.21 1211.37   5
   0   2  21 4342.46 1354.67   5
   0  -3  21 14647.9 2486.52   5
   0   3 -21 11272.8 2027.13   3
   0   3 -20-250.349 391.628   3
   0  -3  20-531.892 787.072   5
   0  -3  19 70.3354 360.027   5
   0   3 -19 1037.44 643.127   3
   0  -3  18 6632.03 1606.03   5
   0   3 -18 7689.43 1690.73   3
   0  -3  17 37930.3 3707.36   5
   0   3 -17 30975.5 3138.19   3
   0   3 -16 19488.3 2362.62   3
   0  -3  16 19432.4 2529.37   5
   0  -3  15 98714.0 5620.20   5
   0   3 -15 114299. 5583.72   3
   0  -3  14 11197.1 1913.29   5
   0   3 -14 11727.6 1772.73   3
   0   3 -13 122.741 438.492   3
   0  -3  13-106.930 238.449   5
   0   3 -13 17.6530 89.7874   4
   0   3 -12 7245.27 1233.75   3
   0   3 -12 4750.03 725.539   4
   0  -3  12 7067.25 1299.70   5
   0  -3  11 479.750 410.971   5
   0   3 -11-110.402 281.544   3
   0  -3  11 87.0409 243.193   4
   0   3 -11 209.869 196.782   4
   0  -3  10 22850.3 2066.16   5
   0   3 -10 21892.9 1381.78   4
   0   3 -10 22191.2 1791.38   3
   0  -3  10 19565.4 1281.94   4
   0   3  -9 108425. 3680.62   3
   0  -3   9 103791. 2887.94   4
   0  -3   9 104139. 4128.63   5
   0   3  -9 108787. 3030.72   4
   0  -3   8 84018.2 2557.65   4
   0  -3   8 85890.6 3495.00   5
   0   3  -8 87140.7 2683.20   4
   0   3  -8 85904.0 3073.25   3
   0  -3   7 10933.8 1153.40   5
   0  -3   7 11070.6 919.410   4
   0   3  -7 12563.0 1022.59   4
   0   3  -7 12456.6 1106.57   3
   0   3  -6 164815. 3705.61   4
   0   3  -6 157678. 3723.49   3
   0  -3   6 163053. 3517.48   4
   0  -3   6 160448. 4087.59   5
   0   3  -5 81945.8 2539.78   3
   0  -3   5 83046.8 2703.89   5
   0   3  -5 88749.3 2870.31   5
   0   3  -5 91410.0 2715.04   4
   0   3  -4 69333.1 2250.62   3
   0  -3   4 72978.6 3455.39   1
   0   3  -4 71352.1 2306.25   5
   0  -3   4 68473.4 2283.32   5
   0   3  -4 74870.8 2466.49   4
   0   3  -3 129091. 2999.67   3
   0   3  -3 129541. 2842.35   5
   0  -3   3 138472. 4600.22   1
   0   3  -3 136214. 3367.28   4
   0  -3   3 122889. 2831.02   5
   0   3  -2-110.941 179.867   4
   0  -3   2 45.8449 110.552   5
   0  -3   2-226.711 176.413   3
   0  -3   2-175.317 299.540   1
   0   3  -2 60.6214 134.938   3
   0   3  -2 107.647 117.970   5
   0  -3   1 174366. 2676.42   6
   0   3  -1 166090. 2878.93   5
   0  -3   1 164236. 4050.24   2
   0   3  -1 183631. 4042.78   4
   0  -3   1 180117. 3335.91   3
   0   3  -1 175002. 3443.85   3
   0  -3   1 181579. 5167.74   1
   0  -3   0 259.190 225.224   2
   0  -3   0 563.173 303.813   1
   0   3   0 230.095 144.755   3
   0  -3   0 448.377 209.405   3
   0   3   0 360.269 233.452   4
   0   3   0 301.444 149.284   5
   0   3   1 1021.56 179.767   6
   0  -3  -1 596.057 318.715   1
   0  -3  -1 1569.48 320.603   3
   0  -3  -1 913.636 317.865   2
   0   3   1 1150.76 392.779   4
   0  -3  -2 10244.5 853.603   3
   0  -3  -2 9731.33 1234.86   1
   0   3   2 10203.5 1003.83   2
   0  -3  -2 9838.13 893.781   2
   0   3   2 9283.29 734.220   5
   0   3   2 10734.8 616.498   6
   0   3   3 53746.5 2325.55   2
   0  -3  -3 54578.2 2865.91   1
   0   3   3 55729.2 1929.93   5
   0  -3  -3 53706.6 2111.92   2
   0  -3  -4 66813.5 3231.63   1
   0   3   4 64814.2 2620.05   2
   0   3   4 66037.6 2358.33   5
   0  -3  -4 61560.0 2322.32   2
   0  -3  -5 294198. 5323.10   2
   0  -3  -5 298217. 7019.52   1
   0  -3  -6 788.558 383.384   1
   0   3   6 722.314 403.690   5
   0  -3  -6 674.301 332.717   2
   0   3   7 3909.06 874.401   5
   0  -3  -7 3645.78 682.305   2
   0  -3  -7 4099.13 882.562   1
   0   3   7 4346.76 944.708   7
   0  -3  -8 31854.9 2121.00   2
   0  -3  -8 35321.9 2778.55   1
   0   3   8 32995.6 2578.82   5
   0   3   8 31782.1 2709.98   7
   0   3   9 23467.7 2344.37   5
   0  -3  -9 22035.7 2356.74   1
   0  -3  -9 23481.1 1986.72   2
   0   3   9 22901.1 2360.72   7
   0  -3 -10 52841.9 3175.93   2
   0   3  10 59234.2 3744.14   5
   0   3  10 56520.0 3988.71   7
   0  -3 -10 55561.2 3923.75   1
   0  -3 -11 35337.2 3322.09   1
   0   3  11 35032.6 2893.54   5
   0   3  11 32467.7 3171.35   7
   0   3  12 41189.0 3728.42   7
   0  -3 -12 45657.9 4021.84   1
   0   3  12 48755.6 3531.75   5
   0   3  13-72.4938 467.009   5
   0   3  13-47.3525 239.773   7
   0  -3 -13 557.036 633.538   1
   0  -3 -14 40785.3 4201.42   1
   0   3  14 42572.7 3379.49   5
   0   3  14 34890.1 3759.79   7
   0   3  15 20243.1 3029.83   7
   0  -3 -15 19394.2 2931.43   1
   0   3  15 22867.7 2609.68   5
   0   3  16 7130.92 1519.66   5
   0   3  16 5220.59 1557.63   7
   0  -3 -16 8721.23 2028.50   1
   0   3  17 21655.4 3300.64   7
   0  -3 -17 29422.3 3766.70   1
   0   3  17 26559.7 2971.74   5
   0  -3 -18 2066.20 1344.17   1
   0   3  18-274.151 375.715   5
   0   3  18 1155.19 816.153   7
   0   3  19 54902.0 4353.25   5
   0  -3 -19 60360.2 5565.51   1
   0   3  19 61595.9 5707.55   7
   0   3  20 2084.68 991.367   5
   0   4 -21 1220.84 466.865   3
   0  -4  21-17.7805 657.440   5
   0   4 -20 218.778 610.332   3
   0  -4  20 974.932 1032.02   5
   0   4 -19 1515.27 829.757   3
   0  -4  19 974.099 791.132   5
   0  -4  18 17393.0 2722.82   5
   0   4 -18 16661.6 2474.04   3
   0  -4  17 33123.0 3595.81   5
   0   4 -17 43991.2 3730.02   3
   0   4 -16 90983.5 5080.66   3
   0  -4  16 75525.6 5272.93   5
   0   4 -15 22974.2 2412.45   3
   0  -4  15 19800.5 2536.33   5
   0   4 -14 28881.1 2563.68   3
   0  -4  14 27435.2 2859.92   5
   0   4 -13 1204.05 503.338   3
   0   4 -13 1428.01 539.765   4
   0  -4  12 15086.7 1950.69   5
   0   4 -12 16605.6 1716.08   3
   0  -4  11 21801.9 2145.36   5
   0   4 -11 22508.8 1939.90   3
   0  -4  10 24307.4 2155.67   5
   0   4 -10 26641.8 1968.01   3
   0   4 -10 25805.2 1842.87   4
   0   4  -9 44366.6 2345.48   4
   0  -4   9 43855.4 2689.57   5
   0   4  -9 44219.7 2442.35   3
   0   4  -8 6994.02 947.935   3
   0   4  -8 8344.98 1020.25   4
   0  -4   8 6387.39 972.897   5
   0   4  -7 50972.8 2388.98   3
   0  -4   7 51732.5 2551.19   5
   0   4  -6 69942.0 2850.42   4
   0  -4   6 64498.1 2692.44   5
   0   4  -6 65161.5 2614.38   3
   0  -4   6 66582.2 3890.98   1
   0   4  -5 29769.5 1718.92   3
   0  -4   5 29748.5 1726.81   5
   0  -4   5 34153.2 2719.96   1
   0   4  -4 2855.70 534.948   3
   0   4  -4 4415.65 658.927   5
   0  -4   4 3765.61 585.044   5
   0  -4   4 4027.88 947.209   1
   0  -4   4 4363.46 632.253   6
   0   4  -4 5123.71 806.437   4
   0   4  -3 78965.9 3038.89   4
   0  -4   3 73610.4 2398.86   6
   0   4  -3 75155.0 2368.52   5
   0  -4   3 74978.7 3894.30   1
   0   4  -3 78032.6 2703.78   3
   0  -4   2 45534.8 2519.36   2
   0   4  -2 47145.5 2371.54   4
   0   4  -2 44526.6 1731.21   5
   0  -4   2 45017.0 1651.57   6
   0  -4   2 46444.9 3043.26   1
   0   4  -2 43288.8 2000.47   3
   0  -4   1 2787.08 601.104   2
   0   4  -1 3927.20 704.112   4
   0   4  -1 2371.70 413.818   5
   0  -4   1 3282.78 871.354   1
   0  -4   1 2868.03 358.942   6
   0   4  -1 2636.32 528.685   3
   0   4   0 32659.3 2026.63   4
   0  -4   0 27730.8 2334.00   1
   0   4   0 29757.1 1363.39   5
   0  -4   0 28585.2 1895.62   2
   0   4   1 10525.9 868.346   5
   0  -4  -1 11880.9 1494.36   1
   0  -4  -1 9806.62 1079.16   2
   0   4   2 194659. 3671.78   5
   0   4   2 190812. 2412.50   6
   0  -4  -2 205817. 6319.76   1
   0  -4  -2 207875. 4763.08   2
   0   4   3 84510.9 1905.32   6
   0  -4  -3 86684.8 3034.95   2
   0   4   3 83491.1 2563.54   5
   0  -4  -3 83268.1 4050.07   1
   0  -4  -4 259377. 5322.73   2
   0   4   4 262036. 7296.32   7
   0   4   4 269787. 4973.21   5
   0  -4  -4 270348. 7386.44   1
   0   4   4 266903. 3905.38   6
   0   4   5 56812.9 3509.32   7
   0  -4  -5 47601.5 2339.62   2
   0   4   5 48526.1 2348.52   5
   0  -4  -5 49275.3 3197.85   1
   0   4   6 62460.9 2961.42   5
   0  -4  -6 63434.3 2750.68   2
   0  -4  -6 61977.0 3675.50   1
   0   4   6 65103.8 3879.87   7
   0   4   7 33158.7 2869.89   7
   0   4   7 34700.0 2486.92   5
   0  -4  -7 33519.1 2093.93   2
   0  -4  -7 34001.2 2808.42   1
   0   4   8 8144.16 1502.88   7
   0   4   8 7818.77 1345.28   5
   0  -4  -8 8805.82 1175.23   2
   0  -4  -8 9364.05 1483.52   1
   0   4   9 1596.34 800.895   7
   0  -4  -9 1166.57 569.728   1
   0   4   9 1312.64 595.343   5
   0  -4  -9 1387.84 520.906   2
   0   4  10 1721.12 759.982   5
   0  -4 -10 1470.85 614.518   2
   0  -4 -10 2044.63 859.906   1
   0   4  10 1309.37 703.580   7
   0  -4 -11 46913.9 3195.08   2
   0   4  11 51872.0 3559.39   5
   0   4  11 45879.6 4021.28   7
   0  -4 -11 49111.4 4058.18   1
   0  -4 -12 57.3636 560.638   1
   0   4  12-526.739 609.705   7
   0   4  12 22.5915 366.948   5
   0  -4 -13 8381.53 1856.21   1
   0   4  13 11291.7 1710.78   5
   0   4  13 11663.5 2177.96   7
   0  -4 -14 10453.8 2187.82   1
   0   4  14 8740.97 1521.30   5
   0   4  14 11152.9 2229.36   7
   0   4  15 17080.3 2906.39   7
   0  -4 -15 14829.5 2690.99   1
   0   4  15 13681.7 1981.74   5
   0   4  16 228.123 288.479   5
   0   4  16-601.646 915.836   7
   0   4  17 14273.2 2852.99   7
   0   4  17 19442.7 2446.98   5
   0  -4 -17 18937.1 3243.34   1
   0  -5  21 218.194 400.677   5
   0  -5  20 626.045 990.601   5
   0   5 -20-31.7958 794.291   3
   0   5 -19 2434.04 1240.30   3
   0  -5  19-193.245 838.770   5
   0  -5  18 8842.45 1968.12   5
   0   5 -18 14270.8 2190.43   3
   0   5 -17 837.911 535.624   3
   0  -5  17 708.027 542.888   5
   0   5 -16 13757.1 2008.03   3
   0  -5  16 12192.3 2257.29   5
   0  -5  15 47744.0 3959.01   5
   0   5 -15 49507.0 3570.10   3
   0   5 -14 9142.53 1537.12   3
   0  -5  14 14266.6 2068.08   5
   0   5 -13 77469.1 3503.37   4
   0   5 -13 92026.0 4381.34   3
   0  -5  13 88585.6 4845.43   5
   0  -5  12 86.7697 400.084   5
   0   5 -12 703.999 501.423   4
   0   5 -12-214.282 387.544   3
   0  -5  11 2743.42 795.111   5
   0   5 -11 2178.33 638.813   4
   0   5 -11 1702.97 670.870   3
   0   5 -10 71567.9 3397.55   3
   0  -5  10 75942.8 3820.41   5
   0   5  -9 4186.77 834.954   4
   0   5  -9 4096.84 814.969   3
   0  -5   9 4835.27 967.665   5
   0  -5   8 5317.10 1282.02   1
   0   5  -8 5847.55 1030.76   4
   0   5  -8 5449.37 895.564   3
   0  -5   8 6500.58 1047.83   5
   0  -5   7 370.762 635.801   1
   0   5  -7-307.850 590.190   7
   0   5  -7-1.70761 367.468   3
   0   5  -7-323.259 356.826   4
   0  -5   7 485.257 312.164   5
   0  -5   6 8706.20 1520.22   1
   0   5  -6 7677.19 1024.98   3
   0  -5   6 6814.13 955.597   5
   0   5  -6 7964.64 1150.64   4
   0   5  -6 8870.47 1495.77   7
   0  -5   5 50303.8 3649.87   1
   0   5  -5 47482.0 2445.29   3
   0   5  -5 49463.6 3403.05   7
   0  -5   5 47573.7 2325.35   5
   0   5  -5 54241.1 2911.83   4
   0   5  -4 170734. 6289.07   7
   0   5  -4 177898. 5240.40   4
   0  -5   4 167244. 6571.92   1
   0   5  -4 163760. 4463.10   3
   0  -5   4 160764. 3984.81   6
   0   5  -3 102323. 4017.13   4
   0   5  -3 105926. 4891.89   7
   0   5  -3 95696.9 3388.25   3
   0  -5   3 97348.8 2783.20   6
   0  -5   3 101557. 4330.95   2
   0  -5   3 106956. 5221.87   1
   0  -5   2 35431.5 2521.05   2
   0   5  -2 36320.7 1694.92   5
   0   5  -2 38153.6 2455.83   4
   0   5  -2 34566.2 2776.72   7
   0  -5   2 37231.3 1496.13   6
   0  -5   2 35771.2 2996.98   1
   0   5  -2 35599.8 2053.79   3
   0   5  -1 10772.3 1145.74   3
   0  -5   1 9106.37 1490.76   1
   0  -5   1 9914.15 1253.04   2
   0   5  -1 8340.19 1382.13   7
   0   5  -1 8921.65 836.265   5
   0   5   0 10711.6 914.201   5
   0   5   0 9713.83 1476.98   7
   0  -5   0 8871.40 1486.29   1
   0  -5   0 10768.8 1320.24   2
   0  -5  -1 47062.4 2584.06   2
   0   5   1 46551.2 3280.13   7
   0   5   1 47947.7 1913.84   5
   0  -5  -1 44951.9 3308.52   1
   0  -5  -2 10042.1 1172.91   2
   0   5   2 11352.1 967.433   5
   0   5   2 10058.3 1559.53   7
   0  -5  -2 11523.2 1649.87   1
   0  -5  -3 2666.05 785.387   1
   0   5   3 2747.97 531.146   5
   0  -5  -3 1858.01 515.931   2
   0   5   3 1659.02 675.667   7
   0  -5  -4 43398.7 3317.39   1
   0  -5  -4 39806.2 2274.01   2
   0   5   4 41741.4 2057.05   5
   0   5   4 42792.6 3297.95   7
   0   5   5 89521.8 3334.39   5
   0  -5  -5 83403.5 3343.94   2
   0   5   5 87261.4 4818.75   7
   0  -5  -5 89270.2 4780.29   1
   0  -5  -6 2832.23 867.454   1
   0  -5  -6 2503.73 604.053   2
   0   5   6 4497.14 874.483   5
   0   5   6 1749.83 721.128   7
   0   5   7 68295.2 3606.69   5
   0  -5  -7 72619.1 3277.55   2
   0   5   7 66185.3 4465.21   7
   0  -5  -7 72260.2 4534.56   1
   0  -5  -8 2589.04 916.892   1
   0   5   8 935.789 452.432   5
   0   5   8 803.112 520.749   7
   0  -5  -8 1909.24 605.814   2
   0   5   9 2526.84 843.356   5
   0   5   9 3926.31 1153.49   7
   0  -5  -9 1854.66 903.093   1
   0  -5  -9 3575.15 967.460   2
   0  -5 -10 79919.2 5226.14   1
   0   5  10 71982.2 5181.76   7
   0   5  10 77474.4 4268.02   5
   0  -5 -11 27977.5 3186.34   1
   0   5  11 19978.5 2869.02   7
   0  -5 -12 13644.2 2427.28   1
   0   5  12 16894.7 2679.02   7
   0  -5 -13-1606.74 923.422   1
   0   5  13 2245.27 1270.98   7
   0   5  14 3915.38 1845.69   7
   0  -5 -14 4010.06 1444.95   1
   0  -5 -15 2432.06 1343.93   1
   0   5  15 4888.76 1626.73   7
   0  -6  20 242.472 450.097   5
   0  -6  19 1842.01 1148.69   5
   0   6 -19 2119.42 1045.41   3
   0  -6  18 24531.0 3441.84   5
   0   6 -18 31618.7 3367.55   3
   0  -6  17-2060.01 987.113   5
   0   6 -17 305.226 435.710   3
   0   6 -16-51.3996 556.761   3
   0  -6  16-512.023 524.328   5
   0   6 -15 791.050 523.011   3
   0  -6  15 851.492 528.585   5
   0  -6  14 19456.3 2400.33   5
   0   6 -14 25714.5 2508.84   3
   0   6 -13 505.028 468.244   3
   0  -6  13 2078.52 793.528   5
   0  -6  12 315.945 431.695   5
   0  -6  12 446.893 510.943   1
   0   6 -12 144.960 358.535   4
   0   6 -12 904.172 597.096   3
   0  -6  11-298.216 351.725   5
   0   6 -11-635.375 470.337   4
   0  -6  11-449.768 761.109   1
   0   6 -11-200.752 288.174   3
   0   6 -10 8218.75 1429.85   4
   0  -6  10 13808.6 2297.61   1
   0   6 -10 12718.7 1532.49   3
   0  -6  10 12187.5 1572.80   5
   0  -6   9 7442.52 1205.12   5
   0   6  -9 8072.95 1190.73   3
   0  -6   9 7301.97 1672.04   1
   0   6  -9 7322.01 1346.26   4
   0  -6   8 3886.56 799.758   5
   0   6  -8 4174.72 839.165   3
   0  -6   8 3090.61 1188.23   1
   0   6  -8 3093.46 929.535   4
   0  -6   7 61859.4 4583.90   1
   0  -6   7 59865.1 3002.08   5
   0   6  -7 63827.1 3670.57   4
   0   6  -7 64726.1 3216.03   3
   0   6  -7 67533.6 4484.45   7
   0  -6   6 15321.3 2282.38   1
   0   6  -6 16268.3 1599.88   3
   0   6  -6 16870.6 1903.30   4
   0   6  -6 16031.3 2215.17   7
   0   6  -5 57309.6 4087.41   7
   0  -6   5 59694.8 4365.00   1
   0   6  -5 54658.8 3318.28   4
   0   6  -5 55144.7 2884.72   3
   0  -6   4 152360. 6905.44   1
   0   6  -4 146707. 4659.36   3
   0  -6   4 147993. 5870.46   2
   0   6  -4 150134. 6482.57   7
   0   6  -3 66973.6 3127.33   3
   0  -6   3 68526.4 4592.87   1
   0  -6   3 59950.8 3642.25   2
   0   6  -3 63603.9 4221.67   7
   0   6  -2 418.335 593.920   7
   0  -6   2 136.328 340.303   2
   0  -6   2-39.0916 358.486   1
   0   6  -2 341.273 304.645   3
   0   6  -1 48767.3 3679.28   7
   0  -6   1 51642.7 3951.43   1
   0  -6   1 51828.3 3183.03   2
   0  -6   0 5510.09 1062.85   2
   0   6   0 4763.28 1191.23   7
   0  -6   0 4585.80 1166.38   1
   0  -6  -1 2511.13 774.098   2
   0  -6  -1 3134.76 980.566   1
   0   6   1 3019.02 937.563   7
   0  -6  -2 36751.0 3357.88   1
   0  -6  -2 34892.1 2374.47   2
   0   6   2 30301.2 2966.87   7
   0   6   3 12098.7 1913.22   7
   0  -6  -3 16031.0 2174.01   1
   0  -6  -3 13600.0 1480.48   2
   0   6   4 6094.91 1360.66   7
   0  -6  -4 4254.48 876.504   2
   0  -6  -4 4911.86 1211.56   1
   0   6   5 8600.67 1740.33   7
   0  -6  -5 9768.56 1755.30   1
   0  -6  -6 34935.5 3379.28   1
   0   6   6 33868.0 3417.76   7
   0  -6  -7-440.792 602.720   1
   0   6   7-176.014 634.177   7
   0   6   8 3364.15 1161.19   7
   0  -6  -8 3773.05 1128.68   1
   0   6   9-156.126 769.295   7
   0  -6  -9-215.099 470.371   1
   0  -6 -10 30643.4 3473.78   1
   0   6  10 30586.3 3661.01   7
   0   6  11 14644.2 2643.00   7
   0  -6 -11 16110.9 2574.77   1
   0  -6 -12 2567.81 1123.69   1
   0   6  12 2511.07 1174.23   7
   0   6  13 34908.3 4361.71   7
   0  -6 -13 39078.0 4441.02   1
   0   7 -17 5270.40 1339.96   3
   0  -7  16-3026.20 1522.09   1
   0   7 -16 244.236 295.241   3
   0   7 -15 2743.52 1111.74   3
   0  -7  15 4224.74 1816.18   1
   0   7 -14 2921.75 970.662   3
   0  -7  14 1733.60 1041.52   1
   0  -7  13 15150.5 2866.83   1
   0   7 -13 19487.1 2268.30   3
   0   7 -12 90295.7 4577.11   3
   0  -7  12 85967.3 6475.63   1
   0  -7  11 30582.8 3789.27   1
   0   7 -11 30413.9 2639.38   3
   0  -7  10 5922.11 1660.88   1
   0   7 -10 6061.82 1145.55   3
   0  -7   9 786.008 691.298   1
   0   7  -9 1089.74 499.658   3
   0   7  -8 30569.0 2457.71   3
   0  -7   8 31022.3 3565.63   1
   0   7  -7 3793.67 859.248   3
   0  -7   7 2225.05 967.603   1
   0   7  -7 3200.15 1249.36   7
   0  -7   6 785.568 881.724   1
   0   7  -6 285.423 405.936   3
   0   7  -6-120.582 713.510   7
   0  -7   6 903.584 610.655   2
   0  -7   5 9097.69 1933.96   1
   0   7  -5 8208.67 1768.44   7
   0  -7   5 9605.63 1745.68   2
   0   7  -5 11257.1 1412.33   3
   0   7  -4 4903.65 962.375   3
   0  -7   4 1900.77 1156.67   1
   0  -7   4 5024.04 1222.10   2
   0   7  -4 3398.12 1103.60   7
   0   7  -3 5259.45 1006.94   3
   0  -7   3 4569.26 1450.58   1
   0   7  -3 3765.97 1153.59   7
   0  -7   3 3770.91 1022.84   2
   0  -7   2 87144.2 5639.41   1
   0   7  -2 93953.3 5624.60   7
   0  -7   2 90808.1 4604.05   2
   0  -7   1 2139.74 1149.38   1
   0   7  -1 2749.27 1038.97   7
   0  -7   0 10193.5 1893.63   1
   0   7   0 11735.7 1983.33   7
   0   7   1 15891.6 2359.74   7
   0  -7  -1 19283.9 2638.38   1
   0  -7  -2 39375.7 3772.56   1
   0   7   2 40036.8 3832.35   7
   0  -7  -3 17545.3 2522.32   1
   0   7   3 15062.5 2408.49   7
   0  -7  -4 408.425 497.399   1
   0   7   4 227.505 442.968   7
   0   7   5 4430.16 1395.60   7
   0  -7  -5 4083.95 1246.87   1
   0   7   6-1791.91 907.949   7
   0  -7  -6-364.458 506.202   1
   0  -7  -7 8918.06 1869.04   1
   0   7   7 10077.1 2057.15   7
   0  -7  -8 44662.9 4256.95   1
   0   7   8 41358.7 4363.37   7
   0  -7  -9 13093.4 2367.24   1
   0   7   9 12993.3 2435.04   7
   0   7  10 207.022 631.550   7
   0  -7 -10 2886.70 1118.26   1
   0  -7 -11 745.290 834.863   1
   0   8 -15 1548.00 742.222   3
   0  -8  15 2638.63 1307.42   1
   0   8 -14 9503.64 1764.84   3
   0  -8  14 8144.90 2319.46   1
   0  -8  13 31790.6 4186.07   1
   0   8 -13 26333.1 2774.01   3
   0   8 -12 816.837 558.623   3
   0  -8  12-487.833 662.959   1
   0  -8  11 22957.6 3505.14   1
   0   8 -11 22968.5 2343.07   3
   0  -8  10 23348.8 3430.85   1
   0   8 -10 24253.2 2451.57   3
   0  -8   9 1659.35 1152.24   2
   0  -8   9 164.095 811.985   1
   0   8  -9 1223.57 658.967   3
   0   8  -8 19127.6 2071.81   3
   0  -8   8 20706.9 3144.02   1
   0   8  -8 17666.0 2838.97   7
   0   8  -7 6405.41 1759.73   7
   0  -8   7 4104.62 1676.06   1
   0   8  -7 5794.54 1159.70   3
   0  -8   6 11055.9 2394.31   1
   0   8  -6 10700.8 1555.18   3
   0   8  -6 10297.5 2085.74   7
   0   8  -5 9057.53 1462.10   3
   0   8  -5 9083.02 1952.35   7
   0  -8   5 9365.40 2066.33   1
   0   8  -4 5602.02 1700.35   7
   0  -8   4 3757.54 1458.29   1
   0   8  -3 11704.1 2264.90   7
   0  -8   3 12617.6 2368.10   1
   0   8  -2 500.623 472.065   7
   0  -8   2 468.598 848.891   1
   0   8  -1 1652.93 863.045   7
   0  -8   1 806.842 657.498   1
   0   8   0 2986.86 1160.42   7
   0  -8   0 4714.76 1389.69   1
   0  -8  -1 14953.0 2569.43   1
   0   8   1 13178.5 2423.95   7
   0   8   2 753.934 1115.17   7
   0  -8  -2 178.729 567.219   1
   0  -8  -3 925.451 632.873   1
   0   8   3 3838.45 1549.99   7
   0  -8  -4 43880.8 4454.18   1
   0   8   4 48475.6 4706.24   7
   0   8   5 1802.20 1281.64   7
   0  -8  -5 941.310 1001.67   1
   0  -8  -6 34254.0 3919.12   1
   0  -8  -7 26123.1 3618.76   1
   0  -9  10 6464.02 1969.37   1
   0  -9   9 17320.3 3222.21   1
   0  -9   8 5697.49 1831.70   1
   0  -9   7 7735.51 2019.10   1
   0  -9   6 298.970 762.206   1
   0  -9   5 4065.14 1770.63   1
   0  -9   4 6223.24 1958.77   1
   0  -9   3-2062.99 1255.58   1
   0  -9   2 7112.96 1899.54   1
   0  -9   1 21331.6 3276.13   1
   0  -9   0-1012.18 1203.15   1
   0  -9  -1 26954.2 3658.65   1
   0  -9  -2-131.027 593.056   1
   1  -9  -6 2503.49 1160.44   1
   1  -9  -5 35886.3 4038.14   1
   1  -9  -4 3211.41 1194.74   1
   1  -9  -3 6490.68 1639.75   1
   1  -9  -2 830.227 813.194   1
  -1   9   2-335.131 591.216   7
  -1   9   1 5257.86 1544.41   7
   1  -9  -1 7881.47 1917.51   1
  -1   9   0 2106.45 1125.87   7
   1  -9   0 224.677 865.690   1
  -1   9  -1 27788.5 3502.65   7
   1  -9   1 31557.7 3698.10   1
  -1   9  -2 1110.65 1081.69   7
   1  -9   2-531.186 535.827   1
   1  -9   3-169.607 509.608   1
  -1   9  -3-406.347 512.535   7
   1  -9   4 19869.5 2993.38   1
  -1   9  -4 20975.0 3009.95   7
   1  -9   5 5430.71 1649.53   1
  -1   9  -5 11747.6 2297.77   7
   1  -9   6 26846.4 3454.21   1
  -1   9  -6 26459.4 3377.39   7
   1  -9   7 456.135 684.158   1
  -1   9  -7 1046.06 895.481   7
   1  -9   8 146.639 1060.17   1
   1  -9   9 2073.20 1509.93   1
   1  -9   9 5427.56 1557.52   2
   1  -9  10 8585.74 2166.89   1
   1  -9  10 7201.27 1855.48   2
   1  -9  11-305.544 1379.63   1
   1  -9  11 1247.54 901.330   2
   1  -9  12 6588.38 1885.14   1
   1  -9  13 5343.60 2101.56   1
   1  -8 -10 402.823 593.217   1
   1  -8  -9 12935.7 2403.68   1
   1  -8  -8-2479.42 1204.87   1
  -1   8   8 1799.88 961.006   7
   1  -8  -7 12121.3 2216.48   1
  -1   8   7 10303.2 2306.98   7
   1  -8  -6 2325.50 1041.15   1
  -1   8   6 3368.50 1232.05   7
  -1   8   5 14546.3 2522.98   7
   1  -8  -5 13888.6 2323.13   1
   1  -8  -4 41595.7 3819.99   1
  -1   8   4 36867.8 3910.47   7
   1  -8  -3 3763.58 1313.44   1
  -1   8   3 4101.08 1257.23   7
   1  -8  -2 59613.2 4625.98   1
  -1   8   2 60704.5 4884.77   7
  -1   8   1 5780.29 1464.69   7
   1  -8  -1 4496.38 1395.62   1
   1  -8   0 21741.1 2868.58   1
  -1   8   0 19849.3 2723.86   7
  -1   8  -1 42364.1 4002.07   7
   1  -8   1 48304.5 3705.78   2
   1  -8   1 42308.1 3884.94   1
   1  -8   2 11873.6 1897.75   2
   1  -8   2 9734.30 1900.18   1
  -1   8  -2 10484.8 2019.93   7
  -1   8  -3 4499.65 1387.80   7
  -1   8  -3 2121.16 842.996   4
   1  -8   3 1990.24 937.895   2
   1  -8   3 1432.66 869.873   1
  -1   8  -4 4462.69 1329.11   7
  -1   8  -4 4443.43 1196.40   4
   1  -8   4 4632.97 1393.92   2
   1  -8   4 2378.60 1111.31   1
   1  -8   5 4242.34 1273.51   2
  -1   8  -5 6547.13 1333.55   4
  -1   8  -5 7211.39 1636.80   7
   1  -8   5 4991.39 1445.30   1
  -1   8  -6 3109.63 1024.97   4
  -1   8  -6 2691.86 1061.80   7
   1  -8   6 3275.54 1247.49   2
   1  -8   6 531.212 583.384   1
   1  -8   7 15714.3 2465.32   2
  -1   8  -7 19081.6 1850.96   3
  -1   8  -7 19638.3 2325.06   4
  -1   8  -7 21513.3 2852.79   7
   1  -8   7 16769.9 2585.23   1
   1  -8   8 11932.3 2265.51   2
  -1   8  -8 13846.3 1625.09   3
  -1   8  -8 14775.9 2166.77   4
   1  -8   8 18198.9 2750.27   1
   1  -8   9 1519.49 1037.45   1
  -1   8  -9 839.713 658.447   3
   1  -8   9 977.587 721.843   2
  -1   8  -9 598.311 557.126   4
   1  -8  10 302.113 946.871   1
  -1   8 -10-439.721 494.348   4
  -1   8 -10-116.310 222.678   3
   1  -8  11 3723.56 1363.90   1
  -1   8 -11 8796.68 1478.13   3
  -1   8 -11 5276.39 1500.42   4
   1  -8  12 5911.05 1748.21   1
  -1   8 -12 5090.38 1111.34   3
  -1   8 -13 2143.24 733.325   3
   1  -8  13 3755.18 1563.94   1
  -1   8 -14 8156.63 1502.40   3
   1  -8  14 8520.52 2229.63   1
   1  -8  15 4944.35 1734.55   1
  -1   8 -15 5052.54 1330.77   3
  -1   8 -16 28223.6 3026.81   3
   1  -8  16 36278.0 4976.32   1
  -1   8 -17 4914.91 1259.44   3
   1  -8  17 5479.04 1979.76   1
   1  -7 -13 24155.1 3584.85   1
   1  -7 -12 9376.37 2195.77   1
  -1   7  12 9471.89 2355.20   7
   1  -7 -11 648.976 597.878   1
  -1   7  11 49.4298 315.646   7
  -1   7  10 10269.6 2255.77   7
   1  -7 -10 10419.1 2048.88   1
   1  -7  -9 1451.93 869.049   1
  -1   7   9-351.251 379.059   7
  -1   7   8 17154.8 2672.69   7
   1  -7  -8 19055.0 2615.38   1
  -1   7   7 34422.5 3644.54   7
   1  -7  -7 37691.5 3576.16   1
  -1   7   6 12590.4 2196.42   7
   1  -7  -6 12317.0 2020.44   1
   1  -7  -5 1652.51 838.594   1
   1  -7  -5 1856.05 699.607   2
  -1   7   5 2176.54 896.155   7
   1  -7  -4 230.976 595.051   1
   1  -7  -4 355.363 500.256   2
  -1   7   4 599.111 661.418   7
   1  -7  -3 91861.5 4494.88   2
   1  -7  -3 96142.0 5396.79   1
  -1   7   3 92170.8 5529.76   7
  -1   7   2 1069.56 824.148   7
   1  -7  -2 970.486 591.487   1
   1  -7  -2 687.488 676.771   2
  -1   7   1 9656.20 1776.67   7
   1  -7  -1 7591.97 1373.40   2
   1  -7  -1 10257.4 1729.29   1
   1  -7   0-67.9480 276.334   2
  -1   7   0 382.246 356.391   4
  -1   7   0 382.990 497.232   7
   1  -7   0-26.7982 459.739   1
  -1   7  -1 1072.83 597.284   4
   1  -7   1 2356.66 764.379   2
   1  -7   1 1239.06 622.956   1
  -1   7  -1 672.809 629.964   7
   1  -7   2-264.546 515.222   1
  -1   7  -2 492.396 477.754   4
   1  -7   2 358.472 535.291   2
  -1   7  -2-43.5767 356.414   7
   1  -7   3 57291.7 4234.74   1
  -1   7  -3 60352.1 3614.91   4
   1  -7   3 59445.5 4068.91   2
  -1   7  -3 63241.9 4419.76   7
  -1   7  -3 58425.4 2844.46   3
  -1   7  -4 12109.5 1963.17   7
   1  -7   4 8769.64 1733.94   1
  -1   7  -4 10767.0 1263.50   3
  -1   7  -4 10898.4 1539.86   4
   1  -7   4 9320.99 1748.90   2
   1  -7   5 392.840 730.381   2
  -1   7  -5 924.712 663.540   7
  -1   7  -5 752.564 576.784   4
   1  -7   5-1018.46 721.486   1
  -1   7  -5 64.8074 154.481   3
   1  -7   6 30303.0 3136.20   2
   1  -7   6 30823.4 3230.73   1
  -1   7  -6 32701.2 2717.85   4
  -1   7  -6 34565.5 3330.06   7
  -1   7  -6 34499.8 2273.08   3
  -1   7  -7 80730.1 4334.62   4
  -1   7  -7 84604.0 5268.89   7
   1  -7   7 82251.8 5324.15   1
  -1   7  -7 76425.8 3482.81   3
   1  -7   8 37003.4 3646.91   1
  -1   7  -8 38059.5 2537.70   3
  -1   7  -8 40998.9 3153.39   4
   1  -7   9 893.027 637.236   5
  -1   7  -9-37.9266 335.773   4
  -1   7  -9 629.174 385.532   3
   1  -7   9-645.290 665.701   1
   1  -7  10 9601.14 1556.30   5
  -1   7 -10 9305.97 1626.06   4
   1  -7  10 8337.40 1915.06   1
  -1   7 -10 8110.00 1239.42   3
   1  -7  11 4079.11 1073.57   5
  -1   7 -11 1966.94 774.266   4
   1  -7  11 4941.30 1416.85   1
  -1   7 -11 3676.41 870.468   3
   1  -7  12 16382.6 2143.21   5
  -1   7 -12 17945.6 1973.26   3
   1  -7  12 14855.8 2588.65   1
  -1   7 -12 10646.1 1735.68   4
   1  -7  13 10337.5 2190.46   1
   1  -7  13 12437.6 2006.69   5
  -1   7 -13 10433.0 1541.35   3
  -1   7 -14 5041.99 1265.92   3
   1  -7  14 6660.01 1541.70   5
  -1   7 -15 2616.66 1107.68   3
   1  -7  15 2345.82 960.594   5
  -1   7 -16 516.174 586.853   3
   1  -7  16 664.756 695.891   5
  -1   7 -17 53412.8 4094.47   3
   1  -7  17 60943.1 5130.14   5
  -1   7 -18 97.8891 384.963   3
   1  -7  18-623.969 558.620   5
   1  -7  19 5060.21 1579.40   5
  -1   6  15 2158.40 1507.87   7
   1  -6 -15 2650.53 1333.98   1
   1  -6 -14 16376.2 2977.62   1
  -1   6  14 14916.2 2941.87   7
   1  -6 -13 6358.98 1809.75   1
  -1   6  13 8222.50 2060.37   7
   1  -6 -12 1654.74 896.722   1
  -1   6  12 1203.49 836.482   7
   1  -6 -11 114704. 6671.87   1
  -1   6  11 108627. 6720.45   7
   1  -6 -10-599.406 579.609   2
  -1   6  10 1718.17 690.446   5
  -1   6  10-377.432 603.304   7
   1  -6 -10 1019.84 649.882   1
   1  -6  -9 42243.2 2995.80   2
  -1   6   9 46479.3 4109.19   7
   1  -6  -9 43873.4 3785.79   1
  -1   6   9 40575.1 3096.26   5
   1  -6  -8 54781.2 3350.33   2
   1  -6  -8 55193.0 4081.92   1
  -1   6   8 60462.4 3494.25   5
  -1   6   8 56743.7 4428.20   7
  -1   6   7 748.647 789.984   7
   1  -6  -7 1951.13 809.193   1
  -1   6   7 1352.69 483.711   5
   1  -6  -7 2907.31 800.682   2
  -1   6   6 7557.26 1108.15   5
   1  -6  -6 5669.01 1027.96   2
  -1   6   6 8249.27 1586.32   7
   1  -6  -6 5331.68 1305.14   1
  -1   6   5 43058.9 3538.11   7
   1  -6  -5 43646.9 2892.59   2
   1  -6  -5 43986.6 3418.11   1
  -1   6   5 40482.1 2441.69   5
   1  -6  -4 17985.0 2212.08   1
   1  -6  -4 17309.1 1852.65   2
  -1   6   4 16663.4 1536.53   5
  -1   6   4 16581.0 2153.85   7
   1  -6  -3 13535.1 1891.74   1
   1  -6  -3 13757.1 1679.76   2
  -1   6   3 13142.8 1897.43   7
  -1   6   3 14630.9 1373.76   5
  -1   6   2 3430.90 951.982   7
   1  -6  -2 4987.37 1099.70   1
   1  -6  -2 3798.54 954.617   2
  -1   6   2 4332.98 955.112   4
   1  -6  -1 81986.2 4466.26   1
  -1   6   1 83849.9 3892.36   4
   1  -6  -1 86636.6 4174.73   2
  -1   6   1 82542.9 4593.81   7
   1  -6   0 7460.41 1332.73   2
  -1   6   0 6265.60 1054.99   4
   1  -6   0 8108.62 1390.15   1
  -1   6   0 5983.23 1261.27   7
  -1   6  -1 6584.79 1258.96   7
   1  -6   1 6313.93 1258.10   2
   1  -6   1 5599.50 1192.97   1
  -1   6  -1 7991.64 1168.99   4
  -1   6  -2 17750.7 1406.00   3
   1  -6   2 17684.6 2052.66   2
  -1   6  -2 17827.4 2122.68   7
  -1   6  -2 16662.6 1712.86   4
   1  -6   2 15410.0 1994.17   1
  -1   6  -3 20476.6 2315.73   7
  -1   6  -3 19411.2 1471.87   3
   1  -6   3 18947.8 2169.66   2
  -1   6  -3 20821.7 1911.18   4
   1  -6   3 18739.9 2206.98   1
  -1   6  -4 105.904 345.959   4
  -1   6  -4 17.8961 53.4418   3
   1  -6   4-442.853 454.529   1
  -1   6  -4-257.859 452.545   7
  -1   6  -5 1269.42 700.964   7
   1  -6   5 982.388 637.762   1
  -1   6  -5 1345.05 579.384   4
  -1   6  -5 1429.93 543.304   3
  -1   6  -6 41772.9 3345.83   7
  -1   6  -6 41366.1 2732.62   4
   1  -6   6 41527.8 2646.24   5
  -1   6  -6 43360.0 2355.35   3
   1  -6   6 38368.3 3262.92   1
   1  -6   7 21661.4 1960.52   5
   1  -6   7 19595.2 2375.38   1
  -1   6  -7 21517.1 1691.56   3
  -1   6  -7 23063.1 2058.97   4
   1  -6   8 4470.48 1271.38   1
  -1   6  -8 4432.28 794.462   3
   1  -6   8 3816.87 910.310   5
  -1   6  -8 4477.48 903.873   4
  -1   6  -9 219505. 5756.50   3
   1  -6   9 224452. 6740.40   5
   1  -6   9 227572. 8595.06   1
  -1   6  -9 235053. 6804.57   4
   1  -6  10-326.001 406.239   1
   1  -6  10 769.840 412.229   5
  -1   6 -10 1200.90 534.151   4
  -1   6 -10 800.457 431.152   3
  -1   6 -11 71802.6 3560.08   3
  -1   6 -11 65732.0 3742.15   4
   1  -6  11 74640.4 4222.15   5
   1  -6  12 17244.7 2187.32   5
  -1   6 -12 12724.0 1747.98   4
  -1   6 -12 15666.4 1748.94   3
   1  -6  13 1727.41 810.787   5
  -1   6 -13 2690.65 848.063   3
  -1   6 -13 1240.21 595.664   4
  -1   6 -14 9250.15 1506.18   3
   1  -6  14 7814.08 1663.41   5
  -1   6 -15 6249.24 1302.63   3
   1  -6  15 3805.77 1286.46   5
   1  -6  16 3758.51 1220.95   5
  -1   6 -16 3556.81 944.030   3
   1  -6  17 2755.63 1003.71   5
  -1   6 -17 307.876 425.505   3
   1  -6  18 1276.41 1001.74   5
  -1   6 -18 525.199 602.112   3
  -1   6 -19 13069.7 2236.36   3
   1  -6  19 14259.2 2798.74   5
   1  -6  20 7253.93 2213.81   5
  -1   5  17 13345.9 2142.36   5
  -1   5  17 9718.66 2327.65   7
   1  -5 -17 13373.9 2738.81   1
   1  -5 -16 28409.2 3896.27   1
  -1   5  16 25823.8 3661.44   7
  -1   5  16 28513.0 3191.62   5
   1  -5 -15 1049.21 982.917   1
  -1   5  15-324.947 804.395   5
  -1   5  15-200.707 870.725   7
  -1   5  14 21325.0 2666.50   5
   1  -5 -14 19132.6 2542.39   2
   1  -5 -14 13722.5 2597.94   1
  -1   5  14 14452.0 2571.87   7
   1  -5 -13 8579.45 1633.92   2
   1  -5 -13 8042.91 1927.13   1
  -1   5  13 11381.4 2041.57   5
  -1   5  13 9604.02 1966.21   7
   1  -5 -12 50705.6 3576.69   2
   1  -5 -12 48748.9 4437.12   1
  -1   5  12 54444.3 4584.52   7
  -1   5  12 46693.3 3920.27   5
   1  -5 -11 18773.8 2625.59   1
  -1   5  11 20789.0 2693.67   7
  -1   5  11 15151.7 2096.97   5
   1  -5 -11 16735.5 2002.22   2
   1  -5 -10 49330.3 3234.79   2
  -1   5  10 46294.4 3910.73   7
  -1   5  10 45357.0 3436.49   5
   1  -5 -10 44618.1 3788.83   1
  -1   5   9 1424.93 680.401   7
   1  -5  -9 793.220 400.153   2
  -1   5   9 872.751 485.500   5
   1  -5  -9 465.801 497.031   1
   1  -5  -8 300.011 363.702   1
  -1   5   8-131.341 340.760   7
   1  -5  -8 27.9715 450.769   2
  -1   5   8-777.322 406.409   5
   1  -5  -7 206.007 293.081   1
   1  -5  -7-254.149 235.411   2
  -1   5   7-33.3286 215.878   5
  -1   5   6 77872.0 3355.59   5
   1  -5  -6 73071.4 4066.11   1
   1  -5  -6 75169.3 3565.79   2
  -1   5   6 76769.2 4347.40   7
  -1   5   5 64371.6 3866.13   7
   1  -5  -5 64694.0 3709.90   1
   1  -5  -5 62429.1 3244.10   2
  -1   5   5 57905.7 2803.17   5
  -1   5   4 26885.4 2430.79   7
  -1   5   4 27194.4 1873.36   5
  -1   5   4 30037.2 2167.99   4
   1  -5  -4 27632.8 2391.06   1
   1  -5  -4 30456.1 2247.70   2
  -1   5   3 29663.5 2516.83   7
   1  -5  -3 28693.7 2406.70   1
  -1   5   3 29494.1 2125.92   4
   1  -5  -3 32430.5 2334.79   2
   1  -5  -2 124748. 4556.14   2
  -1   5   2 123120. 5014.12   7
   1  -5  -2 116634. 4767.44   1
  -1   5   2 128679. 4327.72   4
   1  -5  -1 20979.2 2023.92   1
  -1   5   1 18025.7 1924.34   7
   1  -5  -1 22168.3 1990.59   2
  -1   5   1 22599.3 1830.41   4
  -1   5   0 99837.1 3753.48   4
  -1   5   0 95037.2 4352.40   7
   1  -5   0 93956.5 4251.39   1
   1  -5   0 95850.5 4185.31   2
  -1   5  -1 124450. 4963.84   7
   1  -5   1 117522. 4737.52   2
   1  -5   1 121855. 4882.30   1
  -1   5  -1 123779. 3210.27   3
  -1   5  -1 121367. 4100.13   4
   1  -5   2 6669.90 496.713   6
   1  -5   2 8070.10 1310.14   1
  -1   5  -2 7821.26 1268.19   7
  -1   5  -2 8251.11 856.001   3
  -1   5  -2 7042.73 1016.65   4
   1  -5   2 7131.52 1225.07   2
   1  -5   3 108313. 4690.26   2
  -1   5  -3 118682. 4052.09   4
  -1   5  -3 114762. 3192.15   3
  -1   5  -3 111328. 4761.98   7
   1  -5   3 118443. 4929.25   1
  -1   5  -4 16605.7 1531.85   4
  -1   5  -4 16511.5 1845.68   7
   1  -5   4 15922.8 1836.73   1
  -1   5  -4 14206.6 1154.75   3
  -1   5  -5 988.425 454.706   7
  -1   5  -5 1922.02 534.715   4
   1  -5   5 2476.98 867.409   1
   1  -5   5 1418.08 519.885   5
  -1   5  -5 1959.50 464.653   3
   1  -5   6 20683.6 2203.80   1
  -1   5  -6 20359.1 1448.52   3
  -1   5  -6 21354.9 1746.87   4
   1  -5   6 18756.1 1667.44   5
   1  -5   7 4899.06 938.256   5
  -1   5  -7 5458.36 812.587   3
   1  -5   7 6604.30 1254.42   1
  -1   5  -7 6008.23 936.375   4
  -1   5  -8 138846. 4159.29   3
   1  -5   8 134373. 4804.64   5
  -1   5  -8 149586. 4725.25   4
   1  -5   9 17661.1 1873.28   5
  -1   5  -9 16801.5 1536.25   3
  -1   5  -9 17038.7 1646.28   4
  -1   5 -10 79819.7 3582.23   4
  -1   5 -10 78967.5 3456.86   3
   1  -5  10 81604.8 4117.31   5
   1  -5  11 513.405 485.939   5
  -1   5 -11-189.154 359.754   3
  -1   5 -11-828.326 390.150   4
   1  -5  12-293.883 347.857   5
  -1   5 -12-514.457 454.853   4
  -1   5 -12 255.862 390.795   3
  -1   5 -13 580.456 450.932   4
  -1   5 -13 506.619 480.758   3
   1  -5  13 231.797 330.981   5
  -1   5 -14 7675.32 1205.66   4
   1  -5  14 10216.9 1875.39   5
  -1   5 -14 10792.0 1651.40   3
   1  -5  15 21592.3 2731.26   5
  -1   5 -15 22503.0 2376.64   3
  -1   5 -16 6607.86 1366.96   3
   1  -5  16 9254.84 2001.86   5
  -1   5 -17 20135.2 2593.25   3
   1  -5  17 20232.5 2900.98   5
  -1   5 -18 25153.3 3079.91   3
   1  -5  18 28801.3 3607.57   5
   1  -5  19 3130.96 1156.99   5
  -1   5 -19 1570.96 776.421   3
   1  -5  20 16495.8 2819.11   5
  -1   5 -20 15645.6 2537.66   3
  -1   4  20 32588.3 3517.37   5
  -1   4  19 7090.31 1680.84   5
  -1   4  19 7008.63 1968.80   7
  -1   4  18 47222.3 5051.37   7
  -1   4  18 50869.3 4270.70   5
   1  -4 -18 57713.6 5468.70   1
  -1   4  17 18192.6 2527.38   5
   1  -4 -17 17529.8 2926.70   1
  -1   4  17 13051.4 2545.55   7
  -1   4  16-35.4577 611.622   5
  -1   4  16-388.978 548.608   7
   1  -4 -16-438.628 835.320   1
   1  -4 -15 17275.2 2882.02   1
  -1   4  15 16474.4 2749.69   7
  -1   4  15 21193.4 2729.04   5
   1  -4 -14 13423.2 1954.00   2
  -1   4  14 11549.0 2279.17   7
  -1   4  14 15460.4 2272.96   5
   1  -4 -14 16026.4 2771.35   1
  -1   4  13 1315.52 786.309   7
   1  -4 -13 2048.65 742.445   2
   1  -4 -13 1354.46 760.480   1
  -1   4  13 1318.68 664.631   5
  -1   4  12 56323.4 4381.17   7
  -1   4  12 58523.6 4318.87   5
   1  -4 -12 58537.5 4682.27   1
   1  -4 -12 59361.7 3785.47   2
  -1   4  11 2593.40 973.889   7
   1  -4 -11 2385.17 876.709   1
   1  -4 -11 1696.33 604.575   2
  -1   4  11 888.765 786.210   5
   1  -4 -10 38417.5 3396.76   1
  -1   4  10 38697.9 3017.54   5
  -1   4  10 34754.1 3125.64   7
   1  -4 -10 38381.9 2768.13   2
  -1   4   9 446.541 360.800   5
   1  -4  -9 343.331 434.903   2
   1  -4  -9 472.961 406.166   1
  -1   4   9 322.776 385.997   7
   1  -4  -8 86294.1 3768.40   2
   1  -4  -8 82359.2 4326.80   1
  -1   4   8 85945.8 3830.01   5
  -1   4   8 90038.0 4600.97   7
   1  -4  -7 755.648 519.445   1
   1  -4  -7 913.724 516.716   2
  -1   4   7 777.198 413.280   7
  -1   4   7 861.151 429.542   5
   1  -4  -6 27059.9 2237.86   1
  -1   4   6 25901.2 1846.56   5
  -1   4   6 27512.9 2341.04   7
   1  -4  -6 29898.3 2110.94   2
   1  -4  -5 1531.63 513.040   1
  -1   4   5 1684.04 512.776   4
  -1   4   5 896.012 413.728   5
  -1   4   5 760.787 389.489   7
   1  -4  -5 1303.08 437.113   2
  -1   4   4 6600.28 494.522   6
   1  -4  -4 6142.85 654.572   3
  -1   4   4 7163.64 1143.73   7
   1  -4  -4 7859.05 1046.55   2
  -1   4   4 8149.81 980.925   5
   1  -4  -4 8001.65 1158.41   1
  -1   4   4 5899.53 846.618   4
   1  -4  -3 22433.3 1852.74   1
  -1   4   3 21451.6 1884.54   7
   1  -4  -3 21445.1 1142.33   3
  -1   4   3 23301.0 1676.63   4
   1  -4  -3 19888.8 1622.90   2
   1  -4  -2 20103.7 1046.89   3
  -1   4   2 20636.3 1545.18   4
   1  -4  -2 20736.7 1763.13   1
   1  -4  -2 19139.3 1626.64   2
  -1   4   2 19468.1 1733.92   7
  -1   4   1 59814.2 2570.10   4
   1  -4  -1 62842.2 1772.10   3
  -1   4   1 59809.1 3013.61   7
   1  -4  -1 61187.4 2977.96   1
   1  -4  -1 61929.4 2966.32   2
   1  -4   0 285341. 3736.99   3
  -1   4   0 287742. 5577.84   4
  -1   4   0 295417. 4091.03   3
  -1   4   0 283181. 6521.57   7
   1  -4   0 280400. 6454.11   2
   1  -4   0 278444. 6343.78   1
   1  -4   1 85930.9 3654.26   2
   1  -4   1 88534.0 2111.26   3
   1  -4   1 91899.5 3667.24   1
  -1   4  -1 89941.0 2313.75   3
  -1   4  -1 93724.9 3171.41   4
   1  -4   2 475599. 5097.38   3
  -1   4  -2 464672. 7024.78   4
   1  -4   2 461113. 8356.27   1
  -1   4  -2 461814. 5411.59   3
   1  -4   2 465179. 8595.34   2
   1  -4   3 111327. 3415.12   5
   1  -4   3 110849. 2663.55   3
  -1   4  -3 117226. 3545.05   4
   1  -4   3 112673. 4174.00   1
  -1   4  -3 110628. 2674.49   3
   1  -4   4 1433.81 470.187   5
  -1   4  -4 1801.88 461.781   4
  -1   4  -4 1530.57 333.106   3
   1  -4   4 1340.19 575.251   1
   1  -4   5 24308.0 1705.04   5
  -1   4  -5 26163.6 1437.69   3
   1  -4   6 1611.62 505.385   5
  -1   4  -6 1133.89 322.533   3
  -1   4  -6 2008.10 502.957   4
   1  -4   7 4790.98 902.023   5
  -1   4  -7 6144.35 883.645   4
  -1   4  -7 5353.46 756.361   3
  -1   4  -8 65685.4 2745.94   3
   1  -4   8 63697.4 3185.55   5
  -1   4  -8 65167.6 2761.22   4
  -1   4  -9 1165.05 453.718   3
   1  -4   9 1289.31 590.153   5
  -1   4  -9 1536.43 487.754   4
   1  -4  10 53161.0 3252.03   5
  -1   4 -10 54410.0 2662.38   4
  -1   4 -10 59072.0 3033.49   3
  -1   4 -11 1001.14 468.912   4
  -1   4 -11 145.198 399.973   3
   1  -4  11 347.847 533.229   5
  -1   4 -12 117910. 4808.42   3
   1  -4  12 117013. 5327.57   5
  -1   4 -13 2238.58 721.020   3
   1  -4  13 2221.50 891.011   5
  -1   4 -13 1362.58 460.761   4
  -1   4 -14 22963.3 1891.56   4
   1  -4  14 31814.4 3136.48   5
  -1   4 -14 31618.2 2821.98   3
  -1   4 -15 1974.25 769.567   3
   1  -4  15 1511.77 877.270   5
   1  -4  16 30117.9 3287.58   5
  -1   4 -16 25538.7 2753.81   3
  -1   4 -17 3385.91 1084.06   3
   1  -4  17 2483.92 1140.49   5
   1  -4  18-560.551 893.580   5
  -1   4 -18-937.259 622.206   3
  -1   4 -19 5033.62 1325.80   3
   1  -4  19 2225.31 1024.88   5
   1  -4  20 23088.4 3402.67   5
  -1   4 -20 31189.4 3367.26   3
  -1   4 -21 5076.00 1421.90   3
   1  -4  21 3924.83 1512.91   5
   1  -3 -21 3.82173 778.444   3
  -1   3  20 36637.2 3763.54   5
  -1   3  20 42644.2 4618.14   7
   1  -3 -20 33722.9 3079.45   3
  -1   3  19 19020.5 2686.88   5
  -1   3  19 19324.9 3160.71   7
   1  -3 -19 20575.4 2344.57   3
   1  -3 -19 20730.9 3131.00   1
   1  -3 -18 3852.25 1337.11   1
  -1   3  18 2952.95 1163.10   7
  -1   3  18 3097.61 1044.86   5
  -1   3  17 2315.64 903.329   5
  -1   3  17 4208.40 1525.51   7
   1  -3 -17 4927.79 1501.26   1
   1  -3 -16 4851.00 1528.29   1
  -1   3  16 4031.81 1373.66   7
  -1   3  16 3006.17 1010.66   5
  -1   3  15 16783.9 2375.80   5
   1  -3 -15 15004.9 2438.66   1
  -1   3  15 14419.0 2377.95   7
  -1   3  14 54795.1 4265.79   5
   1  -3 -14 53498.1 4576.82   1
  -1   3  14 45064.0 3992.83   7
  -1   3  13 36481.8 3499.03   7
  -1   3  13 40040.0 3655.82   5
   1  -3 -13 44326.8 4084.01   1
   1  -3 -13 41443.3 3313.22   2
  -1   3  12 55855.6 4107.08   7
   1  -3 -12 66057.2 4826.57   1
  -1   3  12 55957.1 4136.00   5
   1  -3 -12 65909.2 3953.76   2
   1  -3 -11 12010.8 1570.05   2
   1  -3 -11 9654.21 1725.81   1
  -1   3  11 8810.46 1512.15   7
  -1   3  11 6944.28 1445.55   5
   1  -3 -10 7283.04 1190.48   2
  -1   3  10 7276.39 1329.68   7
  -1   3  10 6373.89 1183.65   5
   1  -3 -10 7529.10 1539.26   1
  -1   3   9 142957. 5222.91   5
   1  -3  -9 140720. 5937.93   1
   1  -3  -9 138307. 4829.99   2
  -1   3   9 133442. 5391.11   7
  -1   3   8 46330.3 2752.74   5
   1  -3  -8 49629.7 3278.88   1
  -1   3   8 47112.9 3049.35   7
   1  -3  -8 44564.8 2585.97   2
   1  -3  -7 47075.9 2557.84   2
  -1   3   7 52564.5 2697.18   5
   1  -3  -7 56280.1 3219.33   1
  -1   3   7 57778.8 3198.16   7
  -1   3   6 247013. 6233.30   7
  -1   3   6 241421. 5401.55   5
   1  -3  -6 257135. 6353.69   1
   1  -3  -6 234173. 5444.44   2
  -1   3   5 52548.2 2268.65   4
  -1   3   5 53358.5 2418.13   5
  -1   3   5 56208.7 2851.12   7
   1  -3  -5 50828.5 2442.35   2
   1  -3  -5 59728.4 2876.85   1
  -1   3   4 892.698 285.026   4
  -1   3   4 1364.57 458.130   7
   1  -3  -4 1054.47 438.065   1
  -1   3   4 1248.96 394.888   5
   1  -3  -4 1394.59 417.121   2
   1  -3  -3 55805.8 2487.35   1
  -1   3   3 51948.5 2489.06   7
  -1   3   3 53656.7 2136.68   4
  -1   3   3 51284.5 1363.79   6
   1  -3  -3 55122.5 2428.11   2
   1  -3  -2 5464.48 786.757   1
   1  -3  -2 5368.04 440.201   3
  -1   3   2 6932.79 890.474   1
  -1   3   2 5433.10 799.980   7
  -1   3   2 5264.24 656.561   4
   1  -3  -2 5522.59 780.357   2
  -1   3   2 5380.83 831.294   2
   1  -3  -1 33166.4 1915.08   2
  -1   3   1 32656.2 1878.98   1
   1  -3  -1 29615.8 1721.59   1
  -1   3   1 33181.9 1650.48   4
   1  -3  -1 30950.7 996.072   3
  -1   3   1 31796.0 1837.29   7
  -1   3   1 32509.3 1977.43   2
   1  -3   0 137391. 2051.60   3
  -1   3   0 143940. 3375.21   4
   1  -3   0 139667. 3683.91   1
   1  -3   0 143419. 4089.07   2
  -1   3   0 143930. 3827.72   1
  -1   3   0 145143. 2255.44   3
   1  -3   1 232278. 4825.07   1
  -1   3  -1 233268. 4922.29   1
  -1   3  -1 225233. 4106.17   5
  -1   3  -1 221539. 2947.26   3
   1  -3   1 225013. 2761.35   3
   1  -3   1 214048. 5061.64   2
  -1   3  -1 235607. 4310.71   4
  -1   3  -2 18770.6 876.675   3
   1  -3   2 18197.0 1224.28   5
  -1   3  -2 20650.1 1292.78   4
   1  -3   2 20043.4 1471.05   1
  -1   3  -2 19480.1 1253.51   5
   1  -3   2 20266.8 930.512   3
  -1   3  -3 34465.5 1282.84   3
  -1   3  -3 31447.1 1606.23   5
   1  -3   3 32272.1 1923.82   1
   1  -3   3 35143.1 1365.74   3
   1  -3   3 33875.6 1704.42   5
  -1   3  -3 37233.5 1719.52   4
  -1   3  -4 90126.2 2277.29   3
  -1   3  -4 94286.9 2774.21   4
   1  -3   5 2517.78 513.978   5
  -1   3  -5 2329.55 419.664   3
  -1   3  -5 3105.33 545.237   4
  -1   3  -6 64533.4 2383.11   4
   1  -3   6 62145.4 2689.10   5
  -1   3  -6 65013.8 2362.04   3
   1  -3   7 16366.5 1487.83   5
  -1   3  -7 19334.1 1424.24   3
  -1   3  -7 19409.5 1348.49   4
  -1   3  -8 144607. 3745.55   4
  -1   3  -8 149008. 4299.18   3
   1  -3   8 143069. 4628.74   5
  -1   3  -9 30385.2 1777.84   4
  -1   3  -9 27909.2 2030.10   3
   1  -3   9 31808.2 2339.48   5
  -1   3 -10 433.503 324.246   3
   1  -3  10 358.989 480.333   5
  -1   3 -10 450.501 273.281   4
  -1   3 -11 124462. 3836.54   4
   1  -3  11 124594. 5203.02   5
  -1   3 -12 6563.03 1264.08   3
  -1   3 -12 6938.67 957.805   4
   1  -3  13 28485.1 2809.57   5
  -1   3 -13 24364.5 2401.84   3
  -1   3 -13 23326.6 1778.06   4
  -1   3 -14 106664. 3872.37   4
  -1   3 -14 98877.1 4952.68   3
   1  -3  14 110979. 5828.93   5
  -1   3 -15 2112.13 620.246   4
   1  -3  15 3536.91 1171.55   5
  -1   3 -15 1707.64 856.381   3
   1  -3  16 8122.61 1747.64   5
  -1   3 -16 7415.99 1497.97   3
  -1   3 -17 1353.81 674.609   3
   1  -3  17 2553.87 966.123   5
   1  -3  18 12206.6 2182.51   5
  -1   3 -18 12333.1 1989.83   3
   1  -3  19 13590.0 2486.15   5
  -1   3 -19 10444.2 1883.12   3
   1  -3  20 22382.9 3273.92   5
  -1   3 -20 18212.7 2531.67   3
   1  -3  21 30396.9 3725.93   5
  -1   3 -21 32177.0 3357.84   3
   1  -2 -22 16400.2 2333.20   3
  -1   2  21 26712.8 3642.63   7
   1  -2 -21 19229.8 2401.77   3
  -1   2  21 20703.7 2979.96   5
  -1   2  20 15634.9 2696.24   7
   1  -2 -20 18870.9 2899.49   1
   1  -2 -20 17861.5 2209.91   3
  -1   2  20 15291.3 2465.93   5
  -1   2  19 968.149 656.713   5
   1  -2 -19 1569.29 920.026   1
   1  -2 -19 188.846 512.578   3
  -1   2  19 421.280 851.817   7
  -1   2  18 218.608 305.579   5
   1  -2 -18 951.057 749.338   1
  -1   2  18 1447.46 786.300   7
   1  -2 -18 1988.76 780.225   3
  -1   2  17 54723.7 4658.14   7
   1  -2 -17 54456.0 4578.80   1
   1  -2 -17 45656.0 3310.18   3
  -1   2  17 50256.7 4153.68   5
  -1   2  16 3970.80 1204.38   5
   1  -2 -16 5475.72 1472.20   1
  -1   2  16 5876.92 1526.05   7
  -1   2  15 863.981 770.429   5
   1  -2 -15 1068.70 797.518   1
  -1   2  15-382.761 367.007   7
  -1   2  14 13920.6 2131.76   5
  -1   2  14 13171.0 2099.16   7
   1  -2 -14 15049.4 2257.92   1
  -1   2  13 13057.4 1977.08   7
  -1   2  13 13563.7 2032.65   5
   1  -2 -13 16695.7 2360.42   1
   1  -2 -12 6332.09 1246.73   2
  -1   2  12 9556.22 1656.64   5
   1  -2 -12 11730.6 1849.76   1
  -1   2  12 7146.52 1443.73   7
   1  -2 -11 10705.6 1515.02   2
  -1   2  11 6019.51 1204.26   7
   1  -2 -11 13434.0 1994.20   1
  -1   2  11 8750.65 1530.86   5
   1  -2 -10 1508.69 663.763   1
  -1   2  10 2325.40 730.813   5
   1  -2 -10 1900.88 694.270   2
  -1   2  10 1317.17 554.425   7
   1  -2  -9 13717.2 1890.27   1
  -1   2   9 12947.1 1577.69   7
  -1   2   9 14524.9 1680.86   5
   1  -2  -9 15792.1 1634.13   2
  -1   2   8 143834. 4900.88   7
   1  -2  -8 138098. 5550.89   1
   1  -2  -8 148914. 4630.03   2
  -1   2   8 141672. 4763.98   5
   1  -2  -7 364358. 6846.22   2
  -1   2   7 365151. 7279.76   7
  -1   2   7 363486. 6966.39   5
   1  -2  -7 359241. 8329.40   1
   1  -2  -6 227275. 5019.16   2
  -1   2   6 222052. 5262.09   7
  -1   2   6 215702. 4943.08   5
   1  -2  -6 228460. 6058.98   1
   1  -2  -5 143249. 3394.75   4
   1  -2  -5 127600. 3555.47   2
   1  -2  -5 137226. 3764.21   7
  -1   2   5 127333. 2944.16   4
  -1   2   5 125026. 3524.60   5
  -1   2   5 132287. 3756.63   7
   1  -2  -5 145827. 4350.05   1
  -1   2   4 25559.1 1491.26   5
  -1   2   4 27147.1 1658.18   1
  -1   2   4 25410.6 1232.75   4
   1  -2  -4 26732.7 1541.33   7
   1  -2  -4 28691.7 1454.49   4
   1  -2  -4 25734.7 1631.77   1
  -1   2   4 24169.6 1496.59   7
   1  -2  -4 26148.1 1534.19   2
  -1   2   3 4344.82 606.053   7
  -1   2   3 4187.33 614.054   1
   1  -2  -3 5036.70 650.916   1
  -1   2   3 4819.47 526.146   4
   1  -2  -3 4753.80 629.125   2
   1  -2  -3 4451.30 590.826   7
  -1   2   2 43014.2 1731.80   1
   1  -2  -2 42201.6 1817.67   2
  -1   2   2 43896.0 1549.14   4
   1  -2  -2 43571.2 1753.35   7
   1  -2  -2 44506.9 1678.89   1
  -1   2   2 42317.5 1193.91   6
  -1   2   2 41573.3 1715.52   7
   1  -2  -1 193929. 3588.58   7
   1  -2  -1 180393. 2107.95   6
   1  -2  -1 188111. 3907.14   2
  -1   2   1 189998. 3308.25   1
  -1   2   1 187610. 2119.95   6
  -1   2   1 182062. 3471.68   7
  -1   2   1 198368. 3302.08   4
   1  -2  -1 188565. 3191.14   1
   1  -2   0 82407.2 2342.13   7
  -1   2   0 87657.4 2154.90   1
   1  -2   0 83901.4 2072.03   1
   1  -2   0 86745.8 1497.14   6
  -1   2   0 88774.0 2182.59   4
   1  -2   0 85980.9 2708.95   2
   1  -2   1 3689.17 498.726   7
  -1   2  -1 4062.60 286.529   3
   1  -2   1 3109.31 564.021   2
   1  -2   1 3300.95 440.141   1
  -1   2  -1 4136.52 488.127   4
   1  -2   2 86305.0 2512.43   7
  -1   2  -2 91011.3 1704.21   3
   1  -2   2 84421.4 2301.34   5
  -1   2  -2 88759.7 2250.54   4
  -1   2  -3 374805. 4730.50   4
  -1   2  -3 361548. 4157.62   3
   1  -2   3 362495. 5482.52   7
   1  -2   4 138261. 2828.39   1
  -1   2  -4 141702. 3052.81   4
   1  -2   4 135513. 3301.13   5
   1  -2   4 133199. 3006.69   4
   1  -2   5 15108.4 1199.86   5
   1  -2   5 14163.3 1042.45   4
   1  -2   5 15746.0 1105.26   1
  -1   2  -5 15667.4 1077.23   4
   1  -2   6 30158.2 1584.53   4
   1  -2   6 31208.9 1848.31   5
  -1   2  -6 29494.3 1539.05   4
   1  -2   6 34906.6 1882.82   1
  -1   2  -7 99303.5 2961.78   4
   1  -2   7 105872. 3670.50   5
   1  -2   7 97837.5 2971.64   4
   1  -2   8 40437.6 2445.74   5
  -1   2  -8 36055.3 1860.80   4
   1  -2   9 2894.79 806.796   5
  -1   2  -9 4057.63 663.391   4
   1  -2  10 396.347 371.853   5
  -1   2 -10 817.920 330.657   4
  -1   2 -11 20447.6 1601.44   4
   1  -2  11 19766.4 2109.41   5
  -1   2 -12 64052.8 2972.64   4
   1  -2  12 62771.9 3988.54   5
  -1   2 -13 221689. 5589.43   4
   1  -2  13 189702. 7342.02   5
   1  -2  14 50445.1 3924.99   5
  -1   2 -14 61612.1 3026.58   4
  -1   2 -15 24281.1 1901.49   4
   1  -2  15 19750.5 2588.61   5
  -1   2 -15 25854.5 2487.71   3
  -1   2 -16 694.943 546.283   3
   1  -2  16-147.487 616.540   5
  -1   2 -17 3246.20 1027.47   3
   1  -2  17 3287.50 1157.38   5
  -1   2 -18 1504.05 642.358   3
   1  -2  18 2018.67 1020.91   5
   1  -2  19 1252.71 835.616   5
  -1   2 -19 3010.73 1015.57   3
   1  -2  20 15510.2 2562.98   5
  -1   2 -20 13920.5 2063.82   3
  -1   2 -21 118.570 538.672   3
   1  -2  21 271.058 776.331   5
   1  -1 -22 4012.48 1122.89   3
  -1   1  22 128.056 933.384   7
  -1   1  21 52433.2 4812.95   7
   1  -1 -21 42685.4 4301.86   1
  -1   1  21 50458.6 4524.71   5
   1  -1 -21 47859.4 3800.52   3
  -1   1  20-1442.39 835.640   5
  -1   1  20 716.518 659.805   7
   1  -1 -20 562.916 634.144   3
   1  -1 -20-449.919 587.703   1
   1  -1 -19 4.89665 372.605   1
   1  -1 -19-45.5231 350.129   3
  -1   1  19-5.11089 202.408   7
  -1   1  18 15835.8 2421.02   7
  -1   1  18 10388.5 1912.53   5
   1  -1 -18 11159.1 2035.55   1
   1  -1 -18 13252.6 1845.30   3
  -1   1  17 2138.50 855.814   5
   1  -1 -17 3027.87 853.928   3
   1  -1 -17 4900.48 1395.52   1
  -1   1  17 4245.09 1217.46   7
  -1   1  16 54373.7 4178.51   5
  -1   1  16 57935.9 4386.60   7
   1  -1 -16 56582.8 4293.66   1
   1  -1 -16 52724.1 3476.73   3
  -1   1  15 82502.3 5088.41   7
   1  -1 -15 81970.3 4182.85   3
   1  -1 -15 83029.5 5013.15   1
  -1   1  15 87437.7 5116.68   5
  -1   1  14 91441.1 5175.73   5
   1  -1 -14 97180.6 5310.70   1
   1  -1 -14 89424.0 4251.47   3
   1  -1 -13 21325.0 2023.27   3
  -1   1  13 18370.4 2358.05   5
   1  -1 -13 24813.1 2625.66   1
   1  -1 -12 41394.7 2034.49   4
   1  -1 -12 47524.9 3487.00   1
  -1   1  12 42023.8 3405.28   5
  -1   1  11 30670.4 2916.84   5
   1  -1 -11 29340.7 1716.53   4
   1  -1 -11 32025.9 2784.96   1
   1  -1 -10 4719.04 692.008   4
  -1   1  10 5385.64 1187.99   5
   1  -1 -10 4564.22 1014.27   2
   1  -1 -10 6730.00 1212.11   1
  -1   1   9 77428.0 3992.38   5
   1  -1  -9 69298.7 2356.54   4
   1  -1  -9 81713.3 4146.35   1
   1  -1  -9 74949.8 3633.35   2
   1  -1  -8 37521.5 1603.30   4
   1  -1  -8 38204.2 2404.37   2
   1  -1  -8 39929.3 2795.54   1
  -1   1   8 41123.2 2703.15   5
   1  -1  -7 247496. 5688.77   2
   1  -1  -7 237270. 3688.33   4
   1  -1  -7 248591. 6617.56   1
  -1   1   7 253625. 6001.11   5
   1  -1  -6 104431. 3381.83   2
   1  -1  -6 102154. 3982.41   1
   1  -1  -6 95007.4 2157.84   4
  -1   1   6 97945.9 3319.15   5
  -1   1   5 28092.7 1632.64   5
   1  -1  -5 27592.5 1102.95   4
  -1   1   5 26455.3 957.719   4
  -1   1   5 26020.2 1554.05   7
   1  -1  -5 26923.0 1927.41   1
   1  -1  -5 28031.3 1614.38   2
   1  -1  -4 154956. 3409.81   2
   1  -1  -4 134841. 3909.68   1
  -1   1   4 136845. 2128.07   4
  -1   1   4 145933. 3326.07   5
  -1   1   4 149618. 3194.51   7
   1  -1  -4 144125. 2333.21   4
   1  -1  -4 151523. 2686.65   3
  -1   1   3 393.668 108.154   4
   1  -1  -3 305.674 121.402   3
   1  -1  -3 348.116 220.749   2
  -1   1   3 298.130 145.823   7
  -1   1   3 146.059 177.739   5
   1  -1  -3 446.640 236.557   1
   1  -1  -2 301.285 105.269   7
  -1   1   2 190.247 100.951   7
   1  -1  -2 439.072 226.901   1
  -1   1   2 222.585 102.741   4
  -1   1   2 384.529 164.815   6
   1  -1  -2 329.553 164.647   2
   1  -1  -2 300.322 88.4213   3
  -1   1   1 325797. 3210.31   4
  -1   1   1 332119. 3530.26   6
  -1   1   0 30759.6 1075.55   4
  -1   1  -2 40463.2 1454.64   4
  -1   1  -2 43820.8 1294.69   1
  -1   1  -3 760.122 262.192   4
  -1   1  -3 557.455 235.306   1
   1  -1   3 374.281 224.004   5
  -1   1  -4 264284. 4428.45   4
   1  -1   4 271230. 4379.08   5
  -1   1  -5 308455. 5104.36   4
   1  -1   5 324107. 5357.77   5
  -1   1  -6 114691. 3962.88   1
  -1   1  -6 113694. 3330.76   4
   1  -1   6 125734. 3690.69   5
  -1   1  -7 164008. 5025.95   1
  -1   1  -7 155776. 4130.28   4
   1  -1   7 172487. 4753.97   5
  -1   1  -8 11191.0 1405.27   1
   1  -1   8 11310.4 1317.65   5
  -1   1  -8 12328.9 1255.30   4
  -1   1  -9 27349.3 1908.56   4
   1  -1   9 30920.1 2351.34   5
  -1   1  -9 31307.3 2456.87   1
   1  -1  10 24799.8 2318.59   5
  -1   1 -10 22691.2 1801.55   4
  -1   1 -10 26194.6 2352.94   1
  -1   1 -11 14929.9 1839.04   1
  -1   1 -11 13357.8 1444.06   4
   1  -1  11 11866.5 1724.37   5
  -1   1 -12 26329.5 2058.75   4
  -1   1 -12 29517.2 2684.21   1
  -1   1 -13 146266. 6151.16   1
  -1   1 -13 126267. 4565.20   4
  -1   1 -14 44155.0 2742.63   4
  -1   1 -14 46040.2 3587.58   1
   1  -1  14 42026.0 3469.98   5
  -1   1 -15 414.912 423.230   1
  -1   1 -15 90.4921 271.598   4
   1  -1  15-34.9605 385.114   5
  -1   1 -16 23177.1 2044.37   4
   1  -1  16 22076.6 2722.35   5
  -1   1 -16 25562.6 2777.81   1
   1  -1  17 4267.85 1210.57   5
  -1   1 -17 4709.55 1242.96   1
   1  -1  18 1332.93 950.590   5
  -1   1 -18 1517.84 768.429   1
  -1   1 -19 66971.4 5029.08   1
   1  -1  19 62289.5 4864.55   5
   1  -1  20 12122.5 2273.24   5
  -1   1 -20 15473.7 2146.74   3
  -1   1 -20 12640.6 2375.45   1
  -1   1 -21 14225.6 2232.03   3
   1  -1  21 11920.9 2315.82   5
  -1   1 -21 16600.6 2574.02   1
   1   0 -22-624.985 508.038   3
  -1   0  22 1015.49 769.409   7
  -1   0  21 9825.38 1933.06   5
   1   0 -21 7088.15 1519.95   3
   1   0 -20-687.540 630.545   3
  -1   0  20 487.244 482.457   5
  -1   0  19 6263.04 1568.87   5
   1   0 -19 7059.32 1433.08   3
  -1   0  18 1018.37 788.406   5
   1   0 -18 625.102 418.155   3
   1   0 -17 13921.0 1884.76   3
  -1   0  17 13683.1 2046.53   5
   1   0 -16 25719.0 2897.76   1
   1   0 -16 28580.0 2674.24   3
  -1   0  16 30894.0 3070.59   5
   1   0 -15 161576. 6898.23   1
   1   0 -15 152777. 6006.17   3
  -1   0  15 175152. 7086.81   5
   1   0 -14 71609.2 4019.01   3
   1   0 -14 74576.7 4570.47   1
   1   0 -14 74506.4 2250.19   4
   1   0 -13 33279.0 2614.96   3
   1   0 -13 40740.5 1615.02   4
   1   0 -13 36054.0 3099.52   1
   1   0 -13 37693.8 1432.35   4
   1   0 -12 4674.91 500.509   4
  -1   0  12 7432.48 1346.43   5
   1   0 -12 4540.13 988.474   3
   1   0 -12 6137.90 1214.99   1
   1   0 -11 6.26184 86.8942   4
  -1   0  11-567.594 370.540   5
   1   0 -11 53.5819 337.873   3
   1   0 -10 5532.48 928.045   3
  -1   0  10 6990.63 1299.27   5
   1   0 -10 5506.77 474.636   4
   1   0 -10 5731.18 1103.45   1
   1   0  -9 148565. 5147.81   1
   1   0  -9 160660. 4603.67   3
  -1   0   9 157030. 5998.42   5
   1   0  -8 4083.01 302.885   4
   1   0  -8 5178.95 768.888   3
   1   0  -8 5352.53 973.463   1
   1   0  -7 13841.9 1139.75   3
  -1   0   7 12766.3 1477.05   5
   1   0  -7 16606.5 1468.82   1
   1   0  -6 60418.4 2840.85   2
  -1   0   6 64156.4 3002.51   5
   1   0  -6 61027.0 2071.95   3
  -1   0   5 347528. 5936.82   5
   1   0  -5 337584. 4335.50   3
   1   0  -4 117968. 2295.29   3
   1   0  -4 121671. 3191.67   2
  -1   0   4 123287. 3047.83   5
   1   0  -3 518.113 274.129   2
  -1   0   3 864.932 258.883   5
   1   0  -3 756.713 192.706   3
  -1   0   3 729.200 247.850   6
   1   0  -2 19552.4 787.777   3
  -1   0   2 16790.5 995.161   6
  -1   0   2 19278.8 712.209   7
   1   0  -2 21586.8 976.393   2
  -1   0   2 18827.4 865.949   5
  -1   0   0 5212.20 493.844   1
  -1   0   0 5337.94 374.574   7
  -1   0  -1 26605.4 1117.61   1
  -1   0  -1 28416.1 1083.48   7
   1   0   2 229.563 135.066   5
  -1   0  -2 178.096 140.748   1
   1   0   3 98267.0 2246.21   5
  -1   0  -3 101742. 2273.62   5
  -1   0  -3 104422. 2664.95   1
  -1   0  -4 262101. 4855.51   1
  -1   0  -4 268462. 4392.23   5
   1   0   4 263883. 4291.84   5
  -1   0  -5 847846. 9038.95   5
   1   0   5 799243. 8455.96   5
   1   0   6 200653. 4811.80   5
  -1   0  -6 194130. 5366.47   1
   1   0   7 94333.1 3655.42   5
  -1   0  -7 90639.5 4026.43   1
   1   0   8 16864.6 1721.00   5
  -1   0  -8 19429.7 2027.59   1
  -1   0  -9 7108.79 1324.98   1
   1   0   9 5099.14 1063.04   5
   1   0  10-128.968 197.374   5
  -1   0 -10-760.685 453.860   1
   1   0  11 65342.8 3843.24   5
  -1   0 -11 84845.1 4789.93   1
  -1   0 -12 626.800 598.800   1
   1   0  12 305.353 378.301   5
   1   0  13 16012.2 2051.41   5
  -1   0 -13 21156.3 2544.87   1
  -1   0 -14 31717.0 3258.74   1
   1   0  14 27001.2 2759.39   5
  -1   0 -15 35871.3 3529.06   1
   1   0  15 38881.5 3341.79   5
   1   0  16 9850.57 1828.19   5
  -1   0 -16 15678.6 2289.62   1
  -1   0 -17 258.775 533.560   1
   1   0  17-1080.44 636.641   5
   1   0  17 493.145 706.381   7
  -1   0 -18 5957.35 1463.21   1
   1   0  18 3866.63 1363.17   7
   1   0  18 3180.08 1045.38   5
   1   0  19 43702.4 4425.95   7
  -1   0 -19 43902.7 4162.26   1
   1   0  19 44707.0 3971.57   5
   1   0  20 6690.97 1785.57   7
   1   0  20 6206.75 1570.97   5
  -1   0 -20 10027.7 2001.48   1
   1   0  21 1540.31 912.215   7
   1   0  21 664.416 744.691   5
  -1   0 -21 1760.78 891.985   1
   1   1 -22 16349.4 2329.62   3
  -1  -1  22 13916.9 2490.48   5
   1   1 -21 22139.9 2733.05   3
  -1  -1  21 23222.9 3128.12   5
   1   1 -20 3335.33 1080.49   3
  -1  -1  20 4186.92 1323.84   5
  -1  -1  19-72.2772 344.151   5
   1   1 -19 570.369 671.906   3
   1   1 -18 153.377 393.151   3
  -1  -1  18-223.016 751.463   5
  -1  -1  17 842.956 617.091   5
   1   1 -17 152.074 450.369   3
   1   1 -16 70511.2 4403.20   3
  -1  -1  16 94013.1 5335.61   5
   1   1 -15 471.817 368.554   3
  -1  -1  15-850.853 728.718   5
   1   1 -14 15794.8 2007.53   3
  -1  -1  14 21407.1 2430.83   5
   1   1 -13 106145. 4848.79   3
  -1  -1  13 119674. 5527.66   5
   1   1 -12 725.626 374.922   3
  -1  -1  12 745.026 437.212   5
   1   1 -11 50084.2 2841.63   3
  -1  -1  11 47254.2 3197.10   5
   1   1 -10 106172. 3826.65   3
  -1  -1  10 110567. 4760.56   5
   1   1  -9 23630.5 1672.69   3
  -1  -1   9 27595.2 2290.16   5
  -1  -1   8 76060.9 3676.17   5
   1   1  -8 71629.2 2679.27   3
   1   1  -7 25159.4 1492.26   3
  -1  -1   7 23572.8 1951.72   5
   1   1  -6 7792.88 772.635   3
  -1  -1   6 6341.92 1006.46   5
  -1  -1   5 74946.7 2566.58   7
   1   1  -5 76930.8 2240.61   3
  -1  -1   5 70572.0 1255.74   4
   1   1  -5 72536.4 2913.03   5
  -1  -1   5 77332.2 3122.43   5
   1   1  -4 21913.7 1140.37   3
  -1  -1   4 19952.4 1500.44   5
  -1  -1   4 23263.7 1341.25   7
  -1  -1   4 23359.8 1560.10   2
   1   1  -4 23352.2 1458.31   5
  -1  -1   4 22908.6 780.592   4
  -1  -1   3 536111. 6433.27   6
  -1  -1   3 545948. 5979.15   7
   1   1  -3 531256. 5331.33   3
   1   1  -3 552088. 5767.02   5
  -1  -1   2 291658. 4421.57   6
  -1  -1   2 300066. 5423.31   1
  -1  -1   2 306406. 4366.86   7
   1   1  -2 297099. 3988.84   3
   1   1  -2 306102. 3207.29   5
  -1  -1   1 234783. 3861.47   7
   1   1  -1 228978. 3799.57   6
  -1  -1   1 244890. 4746.10   1
  -1  -1   1 228638. 3781.09   6
   1   1  -1 241543. 3574.62   3
  -1  -1   0 1192.14 279.563   6
  -1  -1   0 1352.75 315.469   7
  -1  -1   0 957.344 326.476   1
   1   1   0 1153.57 279.762   3
   1   1   0 1380.30 289.070   6
  -1  -1  -1 85543.7 2496.05   7
  -1  -1  -1 86820.2 2837.85   1
   1   1   1 82918.8 2220.60   6
  -1  -1  -2 33535.7 1664.42   7
   1   1   2 33024.8 1014.35   5
  -1  -1  -2 32095.5 1335.64   5
  -1  -1  -2 32314.7 1778.60   1
   1   1   3 1310.46 287.199   5
  -1  -1  -3 502.224 262.595   1
   1   1   3 1546.18 250.417   2
  -1  -1  -3 1525.35 408.472   7
  -1  -1  -3 1136.18 338.371   5
  -1  -1  -4 181326. 4517.92   1
   1   1   4 198689. 3913.22   5
   1   1   4 185942. 3238.05   2
  -1  -1  -4 199824. 4576.59   5
  -1  -1  -5 2076.99 545.137   1
   1   1   5 2823.17 583.332   5
  -1  -1  -5 3615.09 689.525   5
   1   1   5 2775.50 493.840   2
  -1  -1  -6 59516.2 2957.59   1
   1   1   6 57146.0 2379.78   2
  -1  -1  -7 119830. 4488.83   1
   1   1   7 110490. 3656.81   2
  -1  -1  -8 7510.47 1225.34   1
   1   1   8 5244.53 1008.40   5
   1   1   9 19828.4 1970.17   5
  -1  -1  -9 24129.0 2376.13   1
   1   1  10 31365.6 2930.99   7
  -1  -1 -10 34364.8 3028.45   1
   1   1  10 35244.0 2685.58   5
   1   1  11 85499.8 4994.37   7
   1   1  11 93495.5 4511.53   5
  -1  -1 -11 77471.2 4857.54   1
   1   1  12 73959.9 4134.90   5
  -1  -1 -12 65857.3 4659.62   1
   1   1  12 70234.9 4702.85   7
  -1  -1 -13 47822.3 4226.99   1
   1   1  13 48987.7 4071.70   7
   1   1  13 53751.9 3568.06   5
   1   1  14 1590.56 704.200   5
   1   1  14 1461.48 801.377   7
  -1  -1 -14 2093.97 1102.97   1
   1   1  15 10454.1 1692.71   5
   1   1  15 8621.47 1846.81   7
  -1  -1 -15 10586.3 2203.13   1
   1   1  16-647.572 570.323   7
  -1  -1 -16 175.973 413.860   1
   1   1  16-507.180 554.579   5
  -1  -1 -17 72992.4 5573.16   1
   1   1  17 62894.1 4493.62   5
   1   1  17 65243.4 5291.84   7
   1   1  18 45867.8 3946.92   5
   1   1  18 46349.0 4556.76   7
  -1  -1 -18 56569.2 4969.03   1
  -1  -1 -19 18161.8 3031.18   1
   1   1  19 17978.8 2889.11   7
   1   1  19 16992.3 2487.06   5
  -1  -1 -20 548.340 826.236   1
   1   1  20 1730.16 962.579   7
   1   1  20-975.742 615.287   5
   1   1  21 12111.5 2212.74   5
  -1  -2  22 55718.4 4927.10   5
   1   2 -22 53872.7 4508.66   3
  -1  -2  21 7572.68 1862.14   5
   1   2 -21 7293.60 1767.38   3
   1   2 -20-17.8475 573.765   3
  -1  -2  20 1091.49 811.534   5
  -1  -2  19 3407.27 1259.40   5
   1   2 -19 4258.96 1213.81   3
   1   2 -18 22108.4 2725.98   3
  -1  -2  18 36241.6 3550.72   5
  -1  -2  17-764.519 622.773   5
   1   2 -17 556.790 437.809   3
   1   2 -16 45630.3 3703.94   3
  -1  -2  16 63705.9 4418.25   5
   1   2 -15 5070.98 1147.05   3
  -1  -2  15 3592.22 1103.60   5
   1   2 -14 33250.8 2736.08   3
  -1  -2  14 31182.6 2918.82   5
   1   2 -13 6848.25 1181.41   3
  -1  -2  13 7065.42 1351.52   5
   1   2 -12 42695.8 2750.02   3
  -1  -2  12 36299.4 2922.70   5
  -1  -2  11 11445.8 1602.16   5
   1   2 -11 13679.9 1459.16   3
  -1  -2  10 68985.3 1561.74   4
   1   2 -10 72357.8 3143.98   3
  -1  -2   9 1886.32 746.827   5
  -1  -2   9 1726.83 256.399   4
   1   2  -9 1218.40 410.812   3
  -1  -2   8 25842.1 2059.56   5
  -1  -2   8 28601.3 1070.57   4
   1   2  -8 30181.0 1795.38   3
  -1  -2   7 17405.7 852.061   4
  -1  -2   7 15529.8 1462.53   5
   1   2  -7 17519.2 1307.59   3
  -1  -2   6 861.152 313.720   5
  -1  -2   6 1169.54 231.820   4
   1   2  -6 863.802 286.155   3
  -1  -2   5 40382.5 1877.79   5
   1   2  -5 37036.6 1745.99   3
  -1  -2   5 37505.7 1389.04   4
   1   2  -5 43025.7 2548.30   5
  -1  -2   4 505267. 7246.28   6
  -1  -2   4 527242. 5869.23   5
  -1  -2   4 525698. 5383.69   4
   1   2  -4 491109. 6170.90   3
  -1  -2   3 46733.1 2721.23   1
   1   2  -3 43331.5 1842.67   3
  -1  -2   3 47149.5 2062.66   6
  -1  -2   3 48145.0 1470.03   5
   1   2  -3 41643.6 1908.92   5
  -1  -2   3 49853.8 1771.04   4
  -1  -2   2 629189. 6717.99   4
   1   2  -2 621295. 6916.39   3
   1   2  -2 632207. 6932.53   6
  -1  -2   2 605037. 4033.45   5
  -1  -2   2 647097. 9660.39   1
  -1  -2   2 618195. 7096.70   6
   1   2  -1 26348.0 1382.89   6
  -1  -2   1 27492.0 2031.43   1
   1   2  -1 27203.8 1461.11   3
  -1  -2   1 28998.5 1479.30   6
   1   2   0 8371.29 780.266   6
  -1  -2   0 9330.00 634.546   2
  -1  -2   0 8379.73 1120.92   1
   1   2   0 8821.14 854.533   3
  -1  -2   0 9791.38 823.850   6
   1   2   1 54031.0 1968.65   6
  -1  -2  -1 50807.2 1231.26   2
   1   2   2 7400.67 749.808   6
  -1  -2  -2 7060.54 1055.75   1
  -1  -2  -2 6863.38 460.023   2
   1   2   2 6649.96 514.200   2
   1   2   2 7788.91 558.369   5
   1   2   3 2824.44 449.429   5
   1   2   3 2280.33 347.708   2
  -1  -2  -3 2634.07 354.927   2
  -1  -2  -3 1734.61 564.875   1
  -1  -2  -3 2467.89 347.614   5
   1   2   4 75055.3 2078.45   2
  -1  -2  -4 82082.0 2410.42   5
  -1  -2  -4 78453.1 2173.96   2
  -1  -2  -5 53608.6 2245.16   5
  -1  -2  -5 53966.5 2939.20   1
   1   2   5 54035.7 1985.42   2
  -1  -2  -5 55927.8 2142.27   2
   1   2   5 46116.4 2316.32   5
  -1  -2  -6 57507.5 3163.23   1
   1   2   6 55480.7 2240.60   2
   1   2   6 49038.2 2571.57   5
  -1  -2  -7 6161.87 1143.73   1
   1   2   7 6375.11 858.995   2
   1   2   7 6535.87 1009.61   5
  -1  -2  -8 88036.1 4294.54   1
   1   2   8 92519.0 3945.99   5
  -1  -2  -9 12259.8 1723.17   1
   1   2   9 10395.5 1385.75   5
   1   2   9 9445.38 1570.89   7
  -1  -2 -10 72708.7 4390.21   1
   1   2  10 80046.0 4008.94   5
   1   2  10 65696.8 4320.82   7
   1   2  11 1047.40 532.752   5
  -1  -2 -11 559.488 532.545   1
   1   2  11-557.869 428.242   7
  -1  -2 -12 29791.3 3247.19   1
   1   2  12 34399.3 2827.90   5
   1   2  12 29433.9 3181.59   7
   1   2  13 19244.6 2657.81   7
  -1  -2 -13 21231.0 2802.72   1
   1   2  13 23042.3 2336.48   5
   1   2  14 2678.89 738.881   5
  -1  -2 -14 453.585 781.893   1
   1   2  14 1685.02 854.489   7
   1   2  15 35648.8 3944.08   7
   1   2  15 39942.6 3341.81   5
  -1  -2 -15 37299.7 4127.87   1
   1   2  16 49987.7 4824.54   7
   1   2  16 59399.2 4183.02   5
  -1  -2 -16 50054.0 4904.84   1
   1   2  17 1820.25 822.344   5
   1   2  17 1795.27 1000.16   7
  -1  -2 -17 2638.71 1137.88   1
   1   2  18 66402.2 5767.00   7
  -1  -2 -18 76874.5 6249.43   1
   1   2  18 72110.0 4867.90   5
   1   2  19 731.051 546.623   5
  -1  -2 -19 1051.93 915.610   1
   1   2  19-20.2582 220.678   7
   1   2  20-550.664 680.520   5
   1   2  21 1520.23 1073.39   5
  -1  -3  21 1969.82 1063.47   5
   1   3 -21 1328.64 1045.42   3
  -1  -3  20 28437.4 3450.43   5
   1   3 -20 23662.9 2969.04   3
  -1  -3  19 10423.1 2185.40   5
   1   3 -19 8782.68 1875.14   3
  -1  -3  18 6202.45 1607.98   5
   1   3 -18 7594.02 1661.20   3
   1   3 -17 23366.7 2626.73   3
  -1  -3  17 20946.7 2768.68   5
   1   3 -16 27703.9 2839.86   3
  -1  -3  16 20210.2 2597.82   5
   1   3 -15 102.746 329.916   3
  -1  -3  15 1025.57 747.975   5
  -1  -3  14-90.4947 532.903   5
   1   3 -14-568.588 517.631   3
  -1  -3  13 497.739 555.700   5
   1   3 -13 1187.70 539.385   3
  -1  -3  12 106582. 5059.56   5
   1   3 -12 130466. 4811.64   3
  -1  -3  11 7387.84 1246.89   5
   1   3 -11 9073.92 1242.00   3
  -1  -3  11 8355.70 730.360   4
  -1  -3  10 351494. 4917.69   4
   1   3 -10 339475. 7054.58   3
  -1  -3  10 334832. 7976.28   5
  -1  -3   9 2296.81 743.175   5
   1   3  -9 1348.09 469.084   3
  -1  -3   9 1867.24 357.031   4
   1   3  -8 6595.44 931.090   3
  -1  -3   8 6814.20 695.516   4
  -1  -3   8 4434.01 774.538   5
   1   3  -7 381.459 228.180   3
  -1  -3   7 212.327 204.187   5
   1   3  -6 16715.4 1354.51   3
  -1  -3   6 18166.4 1324.46   5
   1   3  -5 33532.6 1874.12   3
  -1  -3   5 31669.8 2651.70   1
   1   3  -5 38808.1 2482.13   5
  -1  -3   5 35822.1 1664.24   5
   1   3  -4 32670.5 2092.25   5
   1   3  -4 31526.6 1806.07   3
  -1  -3   4 30042.6 1345.17   5
  -1  -3   4 32211.3 2575.12   1
   1   3  -3 51480.8 2274.52   3
   1   3  -3 54114.7 2299.84   5
  -1  -3   3 48075.6 1493.87   5
  -1  -3   3 51682.6 3180.99   1
  -1  -3   3 51610.1 2279.51   6
  -1  -3   2 43460.5 2003.16   6
   1   3  -2 46959.7 1746.44   5
   1   3  -2 44362.7 2117.38   3
  -1  -3   2 46348.0 3029.99   1
   1   3  -1 8735.34 856.204   6
   1   3  -1 8751.03 956.038   3
  -1  -3   1 9310.86 1337.15   1
  -1  -3   1 8731.41 868.773   6
   1   3   0 239309. 4329.55   6
  -1  -3   0 232430. 4063.10   2
  -1  -3  -1 18529.8 1023.58   2
  -1  -3  -1 19254.5 1892.77   1
   1   3   1 18706.8 1222.23   6
  -1  -3  -2 85020.1 4039.96   1
   1   3   2 82123.4 2623.38   6
   1   3   2 78550.7 2071.82   5
  -1  -3  -2 79704.9 2029.85   2
  -1  -3  -3 79067.7 3909.03   1
   1   3   3 80236.2 2688.33   6
   1   3   3 79242.0 2462.42   5
  -1  -3  -3 77019.2 2045.45   2
  -1  -3  -4 154720. 3144.33   2
   1   3   4 160392. 3944.67   5
   1   3   4 143655. 3406.30   2
  -1  -3  -4 144916. 5401.50   1
   1   3   5 7707.16 869.281   2
   1   3   5 7728.50 986.402   5
  -1  -3  -5 8324.64 816.924   2
  -1  -3  -5 6745.51 1170.87   1
  -1  -3  -6 4035.19 618.641   2
  -1  -3  -6 3768.01 953.337   1
   1   3   6 3981.76 692.131   2
   1   3   6 5147.62 881.009   5
  -1  -3  -7 842.304 318.243   1
   1   3   7 304.827 451.200   7
  -1  -3  -7 308.453 188.711   2
   1   3   7 979.988 407.822   5
  -1  -3  -8 53020.7 3582.45   1
   1   3   8 53498.9 3735.56   7
   1   3   8 54116.7 2993.26   5
   1   3   9 10821.7 1448.42   5
   1   3   9 11746.1 1839.75   7
  -1  -3  -9 10376.0 1689.85   1
   1   3  10 173479. 7415.15   7
  -1  -3 -10 169995. 7002.39   1
   1   3  11 9675.52 1448.34   5
  -1  -3 -11 7055.14 1541.79   1
   1   3  11 11102.8 1899.25   7
  -1  -3 -12 1252.88 806.338   1
   1   3  12 416.241 320.018   5
   1   3  12 63.0238 701.017   7
   1   3  13 2849.13 877.752   5
  -1  -3 -13 3554.87 1160.66   1
   1   3  13 1985.20 1030.47   7
  -1  -3 -14 42044.1 4334.46   1
   1   3  14 32092.5 3844.22   7
   1   3  14 43812.7 3387.78   5
   1   3  15 6577.06 1350.56   5
  -1  -3 -15 8919.66 2094.33   1
   1   3  15 6602.05 1903.93   7
   1   3  16 704.185 739.888   5
  -1  -3 -16 3054.70 1260.97   1
   1   3  16 2651.86 1189.45   7
  -1  -3 -17 18200.3 3144.72   1
   1   3  17 15436.9 2189.60   5
   1   3  17 14661.1 3049.48   7
  -1  -3 -18 1336.96 1288.74   1
   1   3  18 2186.05 1701.16   7
   1   3  18-529.560 450.948   5
  -1  -4  21 17384.6 2768.63   5
  -1  -4  20 739.449 869.858   5
   1   4 -20 1343.43 943.742   3
  -1  -4  19-846.306 787.117   5
   1   4 -19-38.2515 116.757   3
  -1  -4  18 16593.8 2616.96   5
   1   4 -18 23312.4 2881.47   3
  -1  -4  17 1120.09 713.212   5
   1   4 -17 3414.23 1137.69   3
  -1  -4  16-641.033 555.606   5
   1   4 -16-192.525 424.212   3
  -1  -4  15 535.786 534.093   5
   1   4 -15 520.651 407.164   3
  -1  -4  14 22452.9 2615.79   5
   1   4 -14 27672.0 2503.20   3
  -1  -4  13 33543.9 2933.37   5
   1   4 -13 38767.0 2826.21   3
   1   4 -12 290.731 433.799   3
  -1  -4  12 150.189 191.485   5
   1   4 -11 195186. 5798.46   3
  -1  -4  11 216141. 6600.92   5
   1   4 -10 92.7392 411.101   3
  -1  -4  10 903.297 615.032   5
  -1  -4   9 56978.5 2987.53   5
   1   4  -9 56309.1 2897.06   3
  -1  -4   8 42143.1 2377.12   5
   1   4  -8 38990.6 2351.93   3
  -1  -4   7 1755.00 444.460   5
   1   4  -7 1960.86 677.632   7
  -1  -4   7 1920.84 815.148   1
   1   4  -7 2402.59 617.191   3
  -1  -4   6 1017.83 705.811   1
   1   4  -6 924.045 497.247   7
   1   4  -6 682.142 395.095   3
  -1  -4   6 604.258 255.012   5
   1   4  -5 54969.5 3012.91   5
   1   4  -5 59109.0 3489.10   7
  -1  -4   5 54160.4 3802.25   1
   1   4  -5 51920.9 2590.43   3
  -1  -4   5 53440.7 2079.74   5
   1   4  -4 77494.9 3177.76   5
   1   4  -4 66577.7 2908.38   3
  -1  -4   4 69504.4 4187.13   1
  -1  -4   4 70111.9 2150.11   5
   1   4  -4 68422.1 3752.34   7
   1   4  -3 1373.02 489.265   3
  -1  -4   3 1761.00 456.174   6
   1   4  -3 1449.90 400.732   5
  -1  -4   3 1237.27 569.517   1
   1   4  -2 150.893 204.952   5
  -1  -4   2 426.034 204.613   6
   1   4  -2-203.133 323.935   3
  -1  -4   2-127.934 228.962   1
  -1  -4   2-240.226 169.471   2
  -1  -4   1 89632.3 3148.53   2
   1   4  -1 85212.3 3281.11   3
   1   4  -1 88013.2 1794.10   5
  -1  -4   1 87209.4 4630.04   1
  -1  -4   0-158.751 338.923   1
   1   4   0 278.876 223.974   6
  -1  -4  -1 1649.72 361.192   2
  -1  -4  -1 870.037 551.108   1
   1   4   1 1451.83 365.642   6
   1   4   1 2478.33 821.622   7
  -1  -4  -2 71698.1 2288.62   2
   1   4   2 74301.8 2521.89   6
   1   4   2 76177.1 4016.68   7
  -1  -4  -2 77055.1 4321.41   1
   1   4   2 65685.1 1455.64   5
   1   4   2 76767.7 2065.92   5
  -1  -4  -3 59109.8 3798.12   1
   1   4   3 58687.1 2359.37   6
  -1  -4  -3 60583.2 2090.17   2
   1   4   3 63462.2 2201.38   5
   1   4   3 55854.2 3538.36   7
  -1  -4  -4 1861.30 393.266   2
  -1  -4  -4 2237.79 781.341   1
   1   4   4 1691.41 639.849   7
   1   4   4 1728.94 471.311   6
   1   4   4 2463.99 549.672   5
  -1  -4  -5 9204.49 911.162   2
   1   4   5 12287.2 1183.46   5
   1   4   5 10659.6 1118.64   6
  -1  -4  -5 9456.23 1560.80   1
   1   4   5 9554.32 1616.92   7
  -1  -4  -6 124141. 3535.94   2
   1   4   6 126525. 5818.18   7
   1   4   6 133518. 4162.95   5
  -1  -4  -6 126096. 5698.82   1
  -1  -4  -7 42169.9 2238.16   2
  -1  -4  -7 49500.8 3667.69   1
   1   4   7 49717.3 3780.15   7
   1   4   7 55431.2 2839.38   5
   1   4   8 3213.98 846.020   5
   1   4   8 2527.83 942.547   7
  -1  -4  -8 2855.11 921.511   1
   1   4   9 220559. 6269.67   5
   1   4   9 207890. 8305.06   7
  -1  -4  -9 203751. 7862.38   1
   1   4  10 2322.53 680.922   5
  -1  -4 -10 2135.47 878.511   1
   1   4  10 644.692 486.663   7
  -1  -4 -11 30763.1 3366.07   1
   1   4  11 27181.8 2405.51   5
   1   4  11 30389.2 3493.10   7
  -1  -4 -12 20804.4 2823.02   1
   1   4  12 17614.5 2682.51   7
  -1  -4 -13 670.350 537.371   1
   1   4  13-17.6126 376.866   7
   1   4  14-38.0346 1030.53   7
  -1  -4 -14 337.821 480.228   1
  -1  -4 -15 7014.64 1954.22   1
   1   4  15 7598.19 1978.04   7
  -1  -4 -16 28450.9 4039.40   1
   1   4  16 20974.1 3506.11   7
  -1  -5  21 2587.41 1346.00   5
  -1  -5  20 194.022 1114.15   5
   1   5 -19 70489.4 5141.70   3
  -1  -5  19 51530.9 4828.02   5
  -1  -5  18 2638.83 1118.86   5
   1   5 -18 3230.18 1289.56   3
  -1  -5  17 22405.3 2945.36   5
   1   5 -17 30152.1 3009.12   3
   1   5 -16 220.873 421.872   3
  -1  -5  16 2210.89 956.323   5
   1   5 -15 1642.55 876.097   3
  -1  -5  15 3050.10 1076.09   5
  -1  -5  14 4997.82 1286.28   5
   1   5 -14 6151.06 1246.92   3
   1   5 -13 10894.9 1542.93   3
  -1  -5  13 10247.1 1619.79   5
   1   5 -12 5836.83 1136.05   3
  -1  -5  12 4729.86 1064.55   5
   1   5 -11-96.9699 377.957   3
  -1  -5  11-90.4654 358.478   5
   1   5 -10 19019.7 1887.37   3
  -1  -5  10 19710.8 2807.77   1
  -1  -5  10 18537.3 1812.12   5
   1   5  -9 106899. 4351.79   3
  -1  -5   9 104111. 6220.40   1
  -1  -5   9 114533. 4203.15   5
  -1  -5   8 62142.3 4680.69   1
  -1  -5   8 62019.3 2912.10   5
   1   5  -8 60236.1 3212.17   3
  -1  -5   7 4956.86 802.462   5
   1   5  -7 6202.64 1346.39   7
   1   5  -7 5792.32 982.458   3
  -1  -5   7 7403.73 1541.26   1
   1   5  -6 5737.40 1204.10   7
  -1  -5   6 5105.86 1356.39   1
   1   5  -6 5288.29 1009.65   3
  -1  -5   6 5607.91 753.480   5
   1   5  -5 102113. 3956.96   3
  -1  -5   5 96954.0 2916.50   5
  -1  -5   5 100686. 5633.67   1
   1   5  -5 105892. 5243.26   7
   1   5  -4-440.695 453.884   7
  -1  -5   4-943.356 618.655   1
   1   5  -4-269.552 310.006   3
   1   5  -3 27757.4 2655.18   7
   1   5  -3 27416.4 2059.48   3
  -1  -5   3 27617.4 2130.29   2
  -1  -5   3 28271.3 2939.59   1
  -1  -5   2 10069.3 1750.80   1
   1   5  -2 8490.31 1500.77   7
   1   5  -2 7293.20 1071.23   3
  -1  -5   2 8262.91 1150.31   2
  -1  -5   1 11066.8 1213.75   2
   1   5  -1 8038.14 1527.63   7
  -1  -5   1 10329.2 1759.23   1
  -1  -5   0-130.914 348.715   2
  -1  -5   0-401.722 434.413   1
   1   5   0-369.670 447.954   7
   1   5   1 200246. 7231.54   7
  -1  -5  -1 199419. 7746.47   1
  -1  -5  -1 189995. 4441.66   2
  -1  -5  -2 2628.53 535.186   2
   1   5   2 2910.73 529.897   6
   1   5   2 3165.35 962.300   7
  -1  -5  -2 4052.19 1089.89   1
   1   5   3 30657.6 2939.70   7
  -1  -5  -3 31836.3 3091.89   1
  -1  -5  -3 29332.0 1627.26   2
   1   5   4 6159.37 1419.23   7
  -1  -5  -4 6714.36 1398.73   1
  -1  -5  -5 22181.2 2612.25   1
   1   5   5 25076.7 2714.91   7
  -1  -5  -6 19430.6 2518.86   1
   1   5   6 23138.6 2785.09   7
   1   5   7-26.4038 99.5905   7
  -1  -5  -7 129.297 439.034   1
   1   5   8 722.675 767.395   7
  -1  -5  -8 1399.94 900.507   1
  -1  -5  -9 4658.91 1299.06   1
   1   5   9 5160.64 1436.90   7
   1   5  10 7963.10 1882.73   7
  -1  -5 -10 8670.18 1819.92   1
   1   5  11 21826.8 3134.16   7
  -1  -5 -11 22015.4 3064.29   1
   1   5  12 21400.0 3263.55   7
  -1  -5 -12 25996.8 3395.50   1
  -1  -5 -13 2049.82 1218.87   1
   1   5  13 1722.22 988.462   7
   1   5  14 42.9186 773.192   7
  -1  -5 -14 944.338 1159.14   1
  -1  -6  19 8344.13 1890.21   5
  -1  -6  18 32187.9 3723.88   5
   1   6 -18 29764.6 3272.80   3
  -1  -6  17 779.124 608.159   5
   1   6 -17 2453.84 969.181   3
  -1  -6  16 17134.6 2340.83   5
   1   6 -16 16500.6 2350.59   3
   1   6 -15 4644.46 1189.64   3
  -1  -6  15 7735.58 1563.78   5
  -1  -6  14 8038.98 2132.38   1
  -1  -6  14 9260.77 1653.44   5
   1   6 -14 9084.38 1629.36   3
   1   6 -13 32364.0 2834.74   3
  -1  -6  13 28186.5 3883.16   1
  -1  -6  12-595.072 791.813   1
   1   6 -12 416.962 439.233   3
  -1  -6  11 6576.58 1786.25   1
   1   6 -11 3388.36 928.109   3
   1   6 -10 603.488 587.464   3
  -1  -6  10 1217.59 890.090   1
   1   6  -9 12508.2 1602.49   3
  -1  -6   9 11943.1 2223.88   1
   1   6  -8 7398.80 1604.99   7
   1   6  -8 7547.56 1230.83   3
  -1  -6   8 5231.99 1500.73   1
  -1  -6   7 17096.2 2650.90   1
   1   6  -7 15515.5 1716.49   3
   1   6  -7 14657.9 2235.96   7
   1   6  -6 543.837 369.088   3
  -1  -6   6-74.3221 560.776   1
   1   6  -6 1478.72 728.515   7
   1   6  -5 25114.2 2772.99   7
   1   6  -5 24481.7 2119.64   3
  -1  -6   5 22919.6 3037.95   1
  -1  -6   5 24728.5 2397.65   2
   1   6  -4 9996.54 1836.22   7
  -1  -6   4 8116.11 1840.59   1
  -1  -6   4 8996.27 1360.88   2
   1   6  -4 9311.91 1301.67   3
   1   6  -3 37510.0 2609.36   3
  -1  -6   3 37712.4 3716.44   1
  -1  -6   3 30411.7 2479.96   2
   1   6  -3 37872.6 3433.25   7
  -1  -6   2 39795.1 3823.91   1
   1   6  -2 45036.1 3758.85   7
  -1  -6   1 8441.55 1855.57   1
   1   6  -1 13149.1 2006.66   7
  -1  -6   0 100104. 6030.60   1
   1   6   0 107048. 5819.66   7
   1   6   1 24414.1 2851.02   7
  -1  -6  -1 25528.0 3061.10   1
  -1  -6  -2 95054.3 5837.36   1
   1   6   2 91014.0 5492.28   7
  -1  -6  -3 4420.67 1236.86   1
   1   6   3 3933.25 1302.36   7
  -1  -6  -4 24390.8 2972.43   1
   1   6   4 24057.4 2959.20   7
   1   6   5 19912.6 2720.04   7
  -1  -6  -5 19846.8 2746.87   1
   1   6   6 749.594 594.079   7
  -1  -6  -6 1510.00 871.159   1
  -1  -6  -7 36073.3 3762.51   1
   1   6   7 40623.9 4054.65   7
   1   6   8 1840.27 1025.43   7
  -1  -6  -8 490.663 707.682   1
   1   6   9 18872.2 2911.05   7
  -1  -6  -9 18260.8 2794.79   1
   1   6  10 1066.26 768.124   7
  -1  -6 -10 1506.36 1040.64   1
  -1  -6 -11 8741.32 1969.58   1
   1   6  11 12506.2 2495.45   7
   1   7 -16 4961.79 1340.19   3
  -1  -7  15 8426.57 2429.47   1
   1   7 -15 7169.24 1584.26   3
   1   7 -14 7334.06 1559.33   3
  -1  -7  14 6197.89 1907.24   1
  -1  -7  13 2488.74 1358.31   1
   1   7 -13 1166.25 868.147   3
  -1  -7  12 16249.6 2937.41   1
   1   7 -12 13704.5 1957.85   3
  -1  -7  11 33.0718 1021.99   1
   1   7 -11 288.044 505.863   3
   1   7 -10 10823.0 1678.18   3
  -1  -7  10 10029.2 2378.05   1
   1   7  -9 920.892 494.331   3
  -1  -7   9 142.974 473.670   1
   1   7  -8 55252.8 4616.07   7
  -1  -7   8 54994.7 5103.38   1
   1   7  -8 52229.8 3422.72   3
   1   7  -7 22909.9 2904.68   7
  -1  -7   7 23149.8 3320.17   1
   1   7  -7 20983.5 2219.16   3
   1   7  -6 60124.5 3624.97   3
   1   7  -6 62263.3 4905.13   7
  -1  -7   6 62201.3 5305.01   1
  -1  -7   5 661.673 539.788   1
   1   7  -5 1043.96 523.043   3
  -1  -7   4 1603.18 822.946   1
   1   7  -4 1598.69 601.982   3
   1   7  -4 1732.40 847.534   7
  -1  -7   3 27048.1 3397.85   1
   1   7  -3 31693.1 3494.06   7
   1   7  -2 1220.06 903.045   7
  -1  -7   2 272.158 633.244   1
  -1  -7   1 129.869 725.219   1
   1   7  -1 447.129 478.844   7
  -1  -7   0 3260.76 1165.56   1
   1   7   0 2099.82 1022.07   7
   1   7   1-9.95362 298.256   7
  -1  -7  -1 1321.86 961.687   1
   1   7   2 1278.43 731.323   7
  -1  -7  -2 2124.59 933.607   1
  -1  -7  -3 37341.5 4045.18   1
   1   7   3 39448.0 4103.80   7
  -1  -7  -4 1850.84 1040.34   1
   1   7   4 1512.85 878.812   7
  -1  -7  -5 16700.4 2751.37   1
   1   7   5 15744.5 2645.24   7
   1   7   6 11490.9 2280.04   7
  -1  -7  -6 12862.4 2443.60   1
   1   7   7 5315.72 1680.62   7
  -1  -7  -7 4460.15 1434.06   1
  -1  -7  -8 24097.9 3345.80   1
   1   8 -13 1040.66 837.481   3
  -1  -8  12-719.591 1081.91   1
   1   8 -12-421.303 569.202   3
  -1  -8  11 18135.2 3269.06   1
   1   8 -11 14505.7 2133.34   3
   1   8 -10 5184.04 1371.69   3
  -1  -8  10 8761.83 2307.35   1
  -1  -8   9 18541.5 3330.91   1
   1   8  -9 17171.7 2189.76   3
   1   8  -8 9841.90 1663.81   3
  -1  -8   8 9781.93 2364.67   1
   1   8  -8 9121.72 2085.83   7
  -1  -8   7 20947.3 3337.96   1
   1   8  -7 17940.9 2153.65   3
   1   8  -7 20515.6 3126.03   7
   1   8  -6 4893.53 1501.88   7
  -1  -8   6 2676.24 1464.61   1
   1   8  -6 7014.60 1295.39   3
   1   8  -5 33755.1 3887.49   7
  -1  -8   5 35375.3 4306.24   1
   1   8  -4 3470.23 1553.56   7
  -1  -8   4 854.736 1055.91   1
  -1  -8   3 15550.6 2858.60   1
   1   8  -3 15709.1 2679.52   7
   1   8  -2 2909.83 1376.88   7
  -1  -8   2 1114.92 1009.09   1
  -1  -8   1-275.831 513.970   1
   1   8  -1 2988.81 1409.39   7
   1   8   0 26720.3 3562.29   7
  -1  -8   0 28338.7 3713.61   1
  -1  -8  -1 5465.34 1726.39   1
   1   8   1 3191.66 1241.33   7
  -1  -8  -2 407.972 926.651   1
  -1  -8  -3-1113.61 1064.95   1
  -2  10  -7 1080.96 773.368   4
  -2  10  -8 17666.2 2707.44   4
  -2  10  -9 6829.38 1738.71   4
   2  -9  -7-842.447 789.792   1
  -2   9   6 1484.40 1034.24   7
   2  -9  -6-119.688 365.149   1
   2  -9  -5 7699.57 1680.10   1
  -2   9   5 3635.01 1410.22   7
  -2   9   4 14825.4 2575.95   7
   2  -9  -4 11944.9 2118.10   1
  -2   9   3 14669.9 2488.75   7
   2  -9  -3 11442.9 1999.07   1
   2  -9  -2 3737.21 1194.61   1
  -2   9   2 1450.11 875.290   7
   2  -9  -1-571.552 461.267   1
  -2   9   1 920.366 684.458   7
  -2   9   0 80660.7 4921.33   4
   2  -9   0 74315.7 5099.95   1
  -2   9   0 79456.1 5721.01   7
  -2   9  -1 1182.68 595.547   4
   2  -9   1 1574.76 986.465   2
  -2   9  -1-1878.03 1020.15   7
   2  -9   1-579.484 730.527   1
   2  -9   2 20082.7 2701.99   1
  -2   9  -2 22626.0 2538.56   4
  -2   9  -2 21101.0 2967.99   7
   2  -9   2 18998.7 2681.38   2
   2  -9   3 12620.1 2294.27   1
  -2   9  -3 16864.6 2305.00   4
  -2   9  -3 17857.0 2754.63   7
   2  -9   3 16802.5 2502.23   2
   2  -9   4 3676.51 1381.75   1
  -2   9  -4 4768.16 1467.71   7
  -2   9  -4 3616.92 1090.31   4
   2  -9   4 4502.72 1350.65   2
  -2   9  -5 1637.88 711.617   4
   2  -9   5-850.859 1002.89   1
  -2   9  -5 543.803 943.370   7
   2  -9   5 1526.87 948.973   2
  -2   9  -6 29266.7 2949.56   4
   2  -9   6 29620.9 3430.64   1
  -2   9  -6 29519.6 3520.44   7
   2  -9   6 29540.1 3573.55   2
   2  -9   7-1452.40 1009.42   1
  -2   9  -7-622.528 617.038   4
   2  -9   7 336.117 700.383   2
  -2   9  -8 345.537 479.499   4
   2  -9   8 2110.48 1255.25   2
   2  -9   8 757.416 968.810   1
   2  -9   9 7088.08 1790.37   1
  -2   9  -9 6756.74 1593.01   4
   2  -9   9 8780.00 2171.89   2
   2  -9  10 26414.4 3532.49   1
   2  -9  10 27756.2 3865.70   2
  -2   9 -10 20807.4 2640.75   4
  -2   9 -11 8360.51 1769.20   4
   2  -9  11 10763.9 2503.80   2
   2  -9  12-822.131 1045.00   2
  -2   9 -12 501.028 796.975   4
   2  -8 -12 6031.28 1745.59   1
   2  -8 -11 2569.77 1357.89   1
  -2   8  11 232.632 932.071   7
   2  -8 -10 1586.24 1191.32   1
  -2   8  10 1772.81 1036.71   7
  -2   8   9 585.267 840.493   7
   2  -8  -9-211.638 953.247   1
  -2   8   8 30459.6 3675.74   7
   2  -8  -8 30781.5 3340.86   1
   2  -8  -7-349.614 671.457   1
  -2   8   7 1578.03 890.854   7
   2  -8  -6 4398.91 1280.13   1
  -2   8   6 5447.09 1442.28   7
   2  -8  -5 1752.38 753.365   1
   2  -8  -5 2567.12 1210.91   2
  -2   8   5 1084.14 732.743   7
   2  -8  -4 10062.1 1807.07   2
  -2   8   4 11032.0 1987.16   7
   2  -8  -4 9370.49 1724.82   1
  -2   8   3 3984.00 1249.76   7
   2  -8  -3 3026.92 1108.56   1
   2  -8  -3 3613.31 1092.40   2
  -2   8   3 3825.99 1081.86   4
  -2   8   2 17465.7 2463.23   7
  -2   8   2 12559.1 1862.70   4
   2  -8  -2 13016.7 2008.77   1
   2  -8  -2 13445.5 2070.01   2
  -2   8   1 14437.0 1871.59   4
   2  -8  -1 14735.1 2106.57   2
   2  -8  -1 9880.82 1728.84   1
  -2   8   1 12961.9 2162.29   7
   2  -8   0 3838.34 1083.15   2
  -2   8   0 3684.99 1008.86   4
   2  -8   0 3804.86 1044.40   1
  -2   8   0 5852.67 1405.28   7
  -2   8  -1 30821.7 2762.63   4
   2  -8   1 28993.8 3044.55   2
  -2   8  -1 26682.9 3069.47   7
   2  -8   1 23910.6 2708.35   1
  -2   8  -2 53081.4 3605.64   4
  -2   8  -2 53825.7 4359.62   7
   2  -8   2 58004.3 4337.01   2
   2  -8   2 53455.9 4034.93   1
   2  -8   3 41361.9 3604.64   1
  -2   8  -3 45541.9 3975.67   7
   2  -8   3 41247.2 3757.29   2
  -2   8  -3 46934.0 3402.36   4
   2  -8   4 11974.3 2212.41   2
  -2   8  -4 16581.1 2101.53   4
   2  -8   4 13549.8 2136.22   1
  -2   8  -4 14463.3 2308.95   7
   2  -8   5 40957.0 3697.10   1
  -2   8  -5 47875.3 4115.34   7
  -2   8  -5 41899.3 3267.81   4
   2  -8   5 36803.6 3768.98   2
  -2   8  -6 9956.46 1616.42   4
  -2   8  -6 12391.8 2081.02   7
   2  -8   6 8558.70 1865.92   2
   2  -8   6 7390.88 1782.70   1
   2  -8   7 9665.79 1996.27   2
  -2   8  -7 11765.8 1781.48   4
   2  -8   7 14189.4 2190.64   1
   2  -8   8 971.702 611.770   1
   2  -8   8 2099.83 1158.13   2
  -2   8  -8 486.280 671.577   4
   2  -8   9 308.831 580.202   1
  -2   8  -9-32.0675 480.785   4
   2  -8   9-736.597 801.717   2
   2  -8  10 908.283 731.035   1
  -2   8 -10 1633.16 576.163   3
  -2   8 -10 821.238 598.693   4
   2  -8  11 65.6919 240.240   5
  -2   8 -11-358.324 341.920   4
  -2   8 -11 304.565 421.558   3
   2  -8  11 105.371 615.241   1
   2  -8  12 41320.9 4265.26   1
  -2   8 -12 35885.7 2724.70   3
   2  -8  12 43943.8 3803.27   5
   2  -8  13 1518.86 936.053   5
  -2   8 -13 1301.83 843.089   4
   2  -8  13 1888.71 1149.10   1
  -2   8 -13 2449.38 789.307   3
  -2   8 -14 4618.61 1119.97   3
   2  -8  14 8582.17 1813.94   5
   2  -8  14 7396.52 2002.48   1
   2  -8  15 477.978 716.092   1
  -2   8 -15-701.428 607.523   3
   2  -8  15 1254.33 947.550   5
   2  -8  16 6346.44 1860.23   1
  -2   8 -16 6321.23 1400.58   3
   2  -8  16 6313.89 2038.10   5
   2  -8  17 4361.72 1650.32   5
  -2   8 -17 6737.35 1527.33   3
   2  -7 -14 1757.83 1140.56   1
  -2   7  14-547.378 1309.31   7
   2  -7 -13 2803.06 1303.86   1
  -2   7  13 3786.34 1337.57   7
   2  -7 -12 28316.4 3763.81   1
  -2   7  12 36396.4 4111.91   7
  -2   7  11 1917.45 1021.32   7
   2  -7 -11 2156.76 1142.25   1
   2  -7 -10 1796.91 949.568   1
  -2   7  10 976.799 1182.93   7
   2  -7 -10 2410.99 977.931   2
   2  -7  -9 43134.6 3892.16   1
  -2   7   9 45443.2 4199.36   7
   2  -7  -9 42404.5 3336.52   2
  -2   7   9 39252.7 3116.87   5
  -2   7   8 10489.4 1979.79   7
   2  -7  -8 11245.8 1922.52   1
   2  -7  -8 12524.3 1968.10   2
  -2   7   8 10429.4 1522.68   5
   2  -7  -7 64759.7 4375.35   1
  -2   7   7 66727.7 4786.05   7
  -2   7   7 61613.6 3598.37   5
   2  -7  -7 67082.7 4219.11   2
   2  -7  -6 17892.2 2115.55   2
  -2   7   6 15194.1 2238.71   7
   2  -7  -6 14073.4 2012.22   1
  -2   7   6 15230.1 1725.96   5
   2  -7  -5 27673.4 2675.95   2
   2  -7  -5 25109.4 2592.36   1
  -2   7   5 24948.7 2862.39   7
  -2   7   5 27388.6 2459.16   4
  -2   7   5 28536.5 2387.19   5
   2  -7  -4 9609.98 1531.73   1
  -2   7   4 9729.90 1475.62   4
  -2   7   4 8890.91 1612.56   7
   2  -7  -4 8141.05 1521.32   2
  -2   7   3 36739.0 2793.31   4
   2  -7  -3 33585.1 2909.44   2
  -2   7   3 33956.0 3204.52   7
   2  -7  -3 36250.1 2992.76   1
  -2   7   2 12261.0 1604.71   4
   2  -7  -2 11630.2 1687.13   2
   2  -7  -2 11650.2 1696.84   1
  -2   7   2 9266.72 1664.64   7
   2  -7  -1 28647.5 2576.47   1
   2  -7  -1 27134.6 2682.67   2
  -2   7   1 27238.4 2364.58   4
  -2   7   1 25732.9 2740.33   7
  -2   7   0 5592.76 1235.72   7
   2  -7   0 8520.33 1538.10   2
  -2   7   0 7252.93 1269.03   4
   2  -7   0 7102.73 1345.71   1
  -2   7  -1 16859.4 1863.75   4
   2  -7   1 13767.1 1967.21   2
  -2   7  -1 14977.1 2067.08   7
   2  -7   1 14805.4 1920.63   1
   2  -7   2 90780.3 5142.07   2
  -2   7  -2 85966.9 4971.58   7
   2  -7   2 84534.0 4544.29   1
  -2   7  -2 88068.2 2877.56   3
  -2   7  -2 84951.6 4149.91   4
  -2   7  -3 35957.1 3207.50   7
  -2   7  -3 37845.6 2780.93   4
  -2   7  -3 31830.5 1812.27   3
   2  -7   3 33889.2 2912.37   1
   2  -7   3 31619.2 3125.14   2
  -2   7  -4 94.3455 149.812   4
  -2   7  -4 240.922 480.358   7
  -2   7  -4-252.458 235.090   3
  -2   7  -5 101.615 212.915   4
  -2   7  -5 824.612 512.165   7
   2  -7   5-692.432 458.915   1
   2  -7   5 468.955 472.614   2
  -2   7  -5 147.258 248.909   3
  -2   7  -6 3109.43 879.984   4
   2  -7   6 2745.43 1081.36   2
  -2   7  -6 3088.10 635.556   3
   2  -7   6 1037.90 581.032   1
   2  -7   7 2387.36 1018.42   2
   2  -7   7 492.123 401.885   1
  -2   7  -7 1619.87 645.004   4
  -2   7  -7 1902.39 619.061   3
   2  -7   8 42568.2 3622.10   1
   2  -7   8 42303.0 3177.40   5
  -2   7  -8 41959.4 2429.34   3
  -2   7  -8 48217.9 3294.36   4
   2  -7   9 604.521 598.373   1
  -2   7  -9-404.994 373.397   4
   2  -7   9-435.772 513.016   5
  -2   7  -9-241.347 190.375   3
  -2   7 -10 8784.19 1431.77   4
   2  -7  10 7060.15 1530.63   1
   2  -7  10 8341.64 1584.87   5
  -2   7 -10 7540.44 1155.19   3
  -2   7 -11 43110.9 2814.42   3
  -2   7 -11 41102.1 3217.78   4
   2  -7  11 42518.3 3980.66   1
   2  -7  11 44242.2 3522.05   5
   2  -7  12 9228.60 1830.26   5
  -2   7 -12 5818.43 1203.71   4
  -2   7 -12 7603.12 1241.02   3
   2  -7  12 7407.49 1795.83   1
   2  -7  13 60831.0 4452.97   5
  -2   7 -13 63041.3 3712.12   3
  -2   7 -14 5336.89 1217.67   3
   2  -7  14 3745.82 1252.81   5
  -2   7 -15 7936.66 1628.22   3
   2  -7  15 7270.98 1660.79   5
  -2   7 -16 18351.1 2352.70   3
   2  -7  16 18412.4 2727.75   5
  -2   7 -17 5866.15 1475.27   3
   2  -7  17 4071.45 1517.87   5
  -2   7 -18 4933.67 1297.71   3
   2  -7  18 1167.74 1056.99   5
   2  -6 -16 6042.67 1814.84   1
  -2   6  16 6238.83 1879.47   5
  -2   6  16 4407.32 1517.11   7
   2  -6 -15 23787.7 3610.52   1
  -2   6  15 26552.3 3578.97   7
  -2   6  15 25513.9 3396.82   5
   2  -6 -15 26509.5 3066.10   2
   2  -6 -14 1003.23 847.344   1
   2  -6 -14 995.062 595.285   2
  -2   6  14-383.946 743.629   5
  -2   6  13 2633.69 970.181   5
   2  -6 -13 2775.17 1039.66   2
  -2   6  13 3660.75 1246.88   7
   2  -6 -13 2086.99 1054.87   1
  -2   6  12 4763.83 1220.12   5
   2  -6 -12 3367.67 1016.39   2
  -2   6  12 2996.08 1150.02   7
   2  -6 -12 4771.92 1408.94   1
   2  -6 -11 512.809 777.219   1
   2  -6 -11 804.274 459.437   2
  -2   6  11 1955.19 948.997   5
  -2   6  11 1342.86 784.426   7
  -2   6  10 565.150 452.672   5
  -2   6  10 495.458 779.895   7
   2  -6 -10 750.220 712.359   1
   2  -6 -10 248.904 395.403   2
   2  -6  -9 32998.6 3209.03   1
   2  -6  -9 33146.5 2821.48   2
  -2   6   9 32244.3 2732.38   5
  -2   6   9 31621.6 3216.43   7
   2  -6  -8 12554.8 1767.03   2
  -2   6   8 10307.4 1497.38   5
  -2   6   8 14764.0 2076.87   7
   2  -6  -8 9572.35 1642.44   1
  -2   6   7 4811.87 991.579   5
   2  -6  -7 4259.51 1026.38   1
  -2   6   7 3784.46 1046.95   7
   2  -6  -7 4620.01 1067.85   2
   2  -6  -6 132945. 5487.83   2
  -2   6   6 132769. 4902.41   4
  -2   6   6 124397. 4869.30   5
  -2   6   6 125696. 5806.76   7
   2  -6  -6 126153. 5444.65   1
  -2   6   5 50807.8 3009.02   4
   2  -6  -5 52547.8 3371.77   1
   2  -6  -5 56403.7 3526.76   2
  -2   6   5 52422.7 3643.64   7
  -2   6   5 50303.6 3040.65   5
   2  -6  -4 113945. 4841.46   1
  -2   6   4 109618. 4430.02   4
  -2   6   4 113158. 5245.32   7
   2  -6  -4 118530. 5103.70   2
   2  -6  -3 4566.42 1060.15   2
  -2   6   3 2522.73 852.344   7
  -2   6   3 3981.52 854.071   4
   2  -6  -3 4369.65 974.808   1
  -2   6   2 19132.3 1813.76   4
   2  -6  -2 19339.5 1982.63   1
  -2   6   2 19618.6 2144.07   7
   2  -6  -2 19839.0 2110.80   2
  -2   6   1 3724.83 828.055   4
   2  -6  -1 2968.43 776.265   1
   2  -6  -1 2098.18 831.183   2
  -2   6   1 2331.23 777.775   7
  -2   6   0 27636.5 2515.73   7
   2  -6   0 29056.4 2660.75   2
   2  -6   0 34322.4 2544.90   1
  -2   6   0 33646.7 2358.16   4
   2  -6   1 22361.5 2109.42   1
  -2   6  -1 24921.9 1309.00   3
   2  -6   1 25556.3 2502.72   2
  -2   6  -1 23077.1 2282.26   7
  -2   6  -1 25561.2 2060.56   4
  -2   6  -2 11959.1 1432.74   4
   2  -6   2 10357.0 1472.17   1
   2  -6   2 10563.9 1733.68   2
   2  -6   2 10302.9 587.582   6
  -2   6  -2 8524.70 1402.75   7
  -2   6  -2 10527.0 889.242   3
  -2   6  -3 18573.5 1252.57   3
   2  -6   3 20475.3 2371.20   2
  -2   6  -3 22712.4 2256.46   7
   2  -6   3 19380.8 2016.09   1
  -2   6  -3 21910.7 1914.51   4
  -2   6  -4 44192.7 3247.56   7
  -2   6  -4 49680.0 2921.31   4
   2  -6   4 52349.7 3806.86   2
  -2   6  -4 47070.9 2054.22   3
   2  -6   4 49037.1 3246.77   1
  -2   6  -5 68929.6 4121.04   7
  -2   6  -5 69945.6 3490.00   4
   2  -6   5 65321.1 3779.15   1
   2  -6   5 66315.0 4330.68   2
  -2   6  -5 66850.2 2516.43   3
   2  -6   6 8815.73 1429.58   1
  -2   6  -6 8672.04 950.438   3
  -2   6  -6 9787.00 1336.53   4
  -2   6  -7 1369.63 502.828   4
   2  -6   7 1125.13 527.555   1
  -2   6  -7 1964.05 521.317   3
   2  -6   7 2453.74 710.890   5
   2  -6   8 28285.2 2483.14   5
  -2   6  -8 27822.7 2279.82   4
   2  -6   8 26999.6 2695.08   1
  -2   6  -8 26768.5 1842.79   3
  -2   6  -9 7330.24 1199.92   4
  -2   6  -9 5135.44 914.726   3
   2  -6   9 6946.23 1284.01   5
  -2   6 -10 8376.54 1323.30   4
  -2   6 -10 10720.6 1331.85   3
   2  -6  10 10047.1 1667.08   5
  -2   6 -11 9799.49 1489.46   4
  -2   6 -11 11034.4 1391.41   3
   2  -6  11 11608.9 1742.50   5
  -2   6 -12 18046.4 1996.19   4
  -2   6 -12 23809.6 2097.65   3
   2  -6  12 22938.0 2607.73   5
  -2   6 -13 8998.77 1408.23   4
   2  -6  13 12474.8 2009.55   5
  -2   6 -13 10835.8 1553.30   3
   2  -6  14 102597. 5863.03   5
  -2   6 -14 93852.7 4755.62   3
  -2   6 -15 33826.5 3004.07   3
   2  -6  15 39963.0 3850.17   5
  -2   6 -16 39296.6 3346.41   3
   2  -6  16 43546.8 4201.95   5
   2  -6  17 420.385 527.865   5
  -2   6 -17 1486.21 793.720   3
   2  -6  18 144.107 315.625   5
  -2   6 -18 446.270 502.481   3
   2  -6  19 5150.01 1621.74   5
  -2   6 -19 2928.36 1118.47   3
  -2   5  19 19583.0 3072.97   5
  -2   5  18 4230.06 1948.94   7
  -2   5  18 2821.48 1128.81   5
   2  -5 -18 3074.51 1342.90   1
  -2   5  17 12397.4 2403.05   5
  -2   5  17 10104.6 2274.44   7
   2  -5 -17 16479.4 2952.22   1
  -2   5  16 15645.4 2661.90   5
   2  -5 -16 16241.4 2482.77   2
   2  -5 -16 18194.4 2898.96   1
  -2   5  16 14453.3 2761.17   7
  -2   5  15 543.018 679.966   5
  -2   5  15 2834.68 1328.41   7
   2  -5 -15 2133.24 854.733   2
   2  -5 -15 1633.99 857.859   1
   2  -5 -14 44252.7 3723.37   2
  -2   5  14 40267.7 4041.61   7
   2  -5 -14 46543.3 4590.37   1
  -2   5  14 43549.9 4087.71   5
   2  -5 -13 15219.8 2564.96   1
  -2   5  13 17497.6 2509.85   5
  -2   5  13 15367.6 2419.84   7
   2  -5 -13 19008.4 2357.51   2
  -2   5  12 47882.9 4092.49   7
   2  -5 -12 49250.0 3608.80   2
  -2   5  12 45846.7 3710.17   5
   2  -5 -12 39517.7 3985.57   1
  -2   5  11 11548.5 1719.90   5
  -2   5  11 12330.7 1987.72   7
   2  -5 -11 11393.4 1724.49   2
   2  -5 -11 9434.54 1845.16   1
  -2   5  10 24205.2 2675.61   7
   2  -5 -10 27541.8 2981.60   1
  -2   5  10 25574.4 2455.32   5
   2  -5 -10 27364.3 2530.01   2
   2  -5  -9 17534.6 2307.71   1
   2  -5  -9 15383.1 1813.53   2
  -2   5   9 16351.0 2088.45   7
  -2   5   9 18683.7 2011.17   5
  -2   5   8 4631.88 993.586   5
   2  -5  -8 2592.49 841.338   1
   2  -5  -8 3709.41 886.235   2
  -2   5   8 3977.58 1008.04   7
  -2   5   7 110963. 4102.57   4
  -2   5   7 101209. 4312.41   5
  -2   5   7 105834. 4944.44   7
   2  -5  -7 112450. 4998.32   1
   2  -5  -7 107143. 4695.31   2
  -2   5   6 6911.24 1133.42   5
  -2   5   6 6528.18 1031.28   4
  -2   5   6 6385.18 1128.54   7
   2  -5  -6 7310.39 1210.51   1
   2  -5  -6 6341.42 1227.79   2
   2  -5  -5 50647.6 1598.26   3
  -2   5   5 53189.6 2763.86   4
   2  -5  -5 51907.4 3148.01   2
   2  -5  -5 51267.6 3038.03   1
  -2   5   5 49823.7 3169.72   7
  -2   5   5 47921.2 1516.53   6
   2  -5  -4 19246.3 1778.03   1
   2  -5  -4 18779.3 1906.90   2
  -2   5   4 17398.1 1583.29   4
  -2   5   4 17302.4 1839.79   7
   2  -5  -4 18021.8 883.190   3
  -2   5   3 12011.0 1320.01   4
   2  -5  -3 10130.9 1248.89   1
   2  -5  -3 10510.2 611.769   3
  -2   5   3 9686.84 1344.45   7
   2  -5  -3 11118.6 1472.03   2
   2  -5  -2 5792.70 942.676   1
  -2   5   2 7092.05 999.123   4
   2  -5  -2 6468.74 455.246   3
   2  -5  -2 5532.54 1081.19   2
  -2   5   2 5904.40 1023.66   7
  -2   5   1 46588.2 2875.42   7
  -2   5   1 47387.5 2544.30   4
   2  -5  -1 52217.9 2756.08   1
   2  -5  -1 49716.7 1277.13   3
   2  -5  -1 44341.6 2960.25   2
   2  -5   0 4508.86 883.355   1
  -2   5   0 4459.46 779.147   4
   2  -5   0 6191.65 1152.97   2
   2  -5   0 5059.55 464.293   3
  -2   5   0 4048.44 913.794   7
  -2   5  -1 89989.5 3503.07   4
   2  -5   1 85587.1 4252.58   2
   2  -5   1 89483.8 3612.93   1
   2  -5   1 91244.4 2133.52   3
   2  -5   1 85532.2 1905.49   6
  -2   5  -1 88608.5 3991.25   7
  -2   5  -1 91726.4 2158.53   3
  -2   5  -2 47808.4 1668.43   3
   2  -5   2 48426.2 2715.41   1
  -2   5  -2 49787.8 2606.63   4
   2  -5   2 45300.7 3192.93   2
  -2   5  -2 45720.4 2875.11   7
   2  -5   3 39203.8 2973.69   2
  -2   5  -3 43544.5 1649.74   3
   2  -5   3 42695.4 2609.93   1
  -2   5  -3 44231.3 2477.26   4
  -2   5  -3 40292.4 2727.26   7
   2  -5   4 155048. 5005.24   1
  -2   5  -4 151879. 3261.41   3
  -2   5  -4 153922. 5406.26   7
  -2   5  -4 154078. 4655.48   4
   2  -5   4 150078. 5919.75   2
  -2   5  -5 10071.8 1220.94   4
   2  -5   5 10382.2 1354.06   5
  -2   5  -5 8915.84 844.106   3
   2  -5   5 10398.2 1411.66   1
   2  -5   6 144325. 5222.90   1
  -2   5  -6 147570. 3656.76   3
   2  -5   6 148853. 5009.33   5
  -2   5  -7 74392.1 3378.78   4
   2  -5   7 70475.8 3568.18   5
  -2   5  -7 72423.5 2750.86   3
  -2   5  -8 80854.3 3560.69   4
  -2   5  -8 81977.5 3126.95   3
   2  -5   8 76062.1 3861.67   5
  -2   5  -9 1394.02 488.726   4
   2  -5   9 937.203 661.723   5
  -2   5  -9 840.400 412.961   3
  -2   5 -10 10758.5 1365.16   4
  -2   5 -10 12006.7 1374.16   3
   2  -5  10 10734.5 1547.86   5
  -2   5 -11 13523.5 1589.52   4
   2  -5  11 13656.2 1896.87   5
  -2   5 -11 15760.6 1724.47   3
  -2   5 -12 231.882 288.676   3
  -2   5 -12 409.954 508.689   4
   2  -5  12 176.566 424.552   5
  -2   5 -13 38929.6 2791.22   4
  -2   5 -13 42850.6 3133.93   3
   2  -5  13 45815.5 3684.98   5
  -2   5 -14 2477.94 735.408   4
  -2   5 -14 2425.79 991.205   3
   2  -5  14 4479.00 1195.56   5
  -2   5 -15 36526.9 2714.10   4
  -2   5 -15 35467.9 3210.48   3
  -2   5 -16 2811.34 906.934   3
   2  -5  16 5566.05 1606.76   5
   2  -5  17 5119.70 1609.58   5
  -2   5 -17 2772.70 1153.01   3
   2  -5  18-1933.13 930.275   5
  -2   5 -18 183.153 371.287   3
  -2   5 -19 3660.34 1189.68   3
   2  -5  19 1931.09 1483.96   5
  -2   5 -20 4215.88 1330.83   3
   2  -5  20 5068.27 1730.70   5
  -2   4  20-277.548 814.030   7
  -2   4  20-1082.64 932.523   5
  -2   4  19 870.671 872.507   7
  -2   4  19 194.304 849.100   5
   2  -4 -19 1588.85 1054.34   1
  -2   4  18 5744.92 1799.85   7
  -2   4  18 7732.58 1918.04   5
   2  -4 -18 9832.98 2043.17   1
  -2   4  17 2735.15 1195.22   5
  -2   4  17 1816.19 903.156   7
   2  -4 -17 2683.16 1106.03   1
   2  -4 -16 3361.35 1214.75   2
  -2   4  16 3212.96 1215.76   5
  -2   4  16 1590.14 951.728   7
   2  -4 -16 2709.26 1051.90   1
   2  -4 -16 2804.83 818.981   3
   2  -4 -15 64518.8 4603.06   2
   2  -4 -15 72572.7 5461.91   1
   2  -4 -15 63993.8 3581.19   3
  -2   4  15 58656.2 4799.36   7
  -2   4  15 55558.7 4659.37   5
   2  -4 -14 9672.24 1728.28   2
   2  -4 -14 10844.4 2012.77   1
  -2   4  14 10505.5 1954.50   7
  -2   4  14 10167.9 1922.22   5
  -2   4  13 163722. 7313.53   7
   2  -4 -13 178387. 6969.04   2
  -2   4  13 181187. 7656.08   5
   2  -4 -13 186115. 8377.79   1
  -2   4  12 602.825 408.512   5
  -2   4  12 60.9342 148.347   7
   2  -4 -12 339.385 419.167   2
   2  -4 -11 14371.2 1845.62   2
  -2   4  11 15709.1 1916.45   5
  -2   4  11 14511.6 1977.83   7
   2  -4 -11 15913.9 2281.52   1
   2  -4 -10 8919.85 1623.72   1
   2  -4 -10 5515.07 1176.19   2
  -2   4  10 5651.90 1154.72   7
  -2   4  10 7080.79 1256.74   5
   2  -4  -9 20946.8 2031.11   2
  -2   4   9 22727.9 2098.88   5
  -2   4   9 19963.4 2087.56   7
   2  -4  -9 20985.9 2366.37   1
  -2   4   8 1327.14 509.206   5
  -2   4   8 2651.58 758.189   7
  -2   4   8 2556.78 639.780   4
   2  -4  -8 3041.26 845.940   1
   2  -4  -8 2901.73 761.067   2
   2  -4  -7 116262. 4899.25   1
  -2   4   7 107434. 3646.20   4
  -2   4   7 109232. 4280.69   5
  -2   4   7 105528. 4425.61   7
  -2   4   7 111694. 3632.83   6
   2  -4  -7 108758. 4425.74   2
   2  -4  -6 339.894 263.687   1
  -2   4   6 462.121 290.593   4
  -2   4   6-50.5981 157.572   6
   2  -4  -6-356.701 334.521   2
  -2   4   6 238.391 251.399   5
  -2   4   6 491.311 310.808   7
  -2   4   5 15943.2 1591.23   7
   2  -4  -5 17279.6 1650.82   2
  -2   4   5 16731.5 1398.27   4
  -2   4   5 15295.0 1096.89   6
   2  -4  -5 17205.0 1636.60   1
   2  -4  -4 70165.1 3380.43   2
  -2   4   4 69564.7 2773.30   4
  -2   4   4 69668.8 2101.26   6
   2  -4  -4 76745.1 3147.07   1
   2  -4  -4 64422.7 1400.12   3
  -2   4   4 68145.2 3138.79   7
   2  -4  -3 189096. 4644.93   1
  -2   4   3 181135. 4398.45   4
   2  -4  -3 177336. 5296.41   2
  -2   4   3 176787. 4889.36   7
  -2   4   3 174259. 2904.71   6
  -2   4   2 28494.2 1748.93   4
   2  -4  -2 30134.0 2237.33   2
   2  -4  -2 28191.6 1718.49   1
  -2   4   2 27728.9 1848.01   1
  -2   4   2 29273.1 1965.54   7
  -2   4   1 19869.0 1503.53   1
   2  -4  -1 20043.3 1841.00   2
  -2   4   1 19305.9 1476.41   4
  -2   4   1 17995.3 1546.04   7
   2  -4  -1 19421.4 903.474   6
   2  -4  -1 19348.3 1389.14   1
  -2   4   0 404.632 299.748   7
   2  -4   0 222.970 249.485   1
  -2   4   0-179.970 190.157   1
  -2   4   0 672.064 365.128   4
   2  -4   0 283.050 134.964   6
   2  -4   0 354.594 360.582   2
  -2   4   0 331.313 101.680   3
  -2   4  -1 54004.4 2450.08   4
  -2   4  -1 53046.0 2650.81   7
   2  -4   1 52527.9 3048.13   2
   2  -4   1 54230.4 2304.32   1
  -2   4  -1 54423.3 1334.63   3
  -2   4  -2 9909.53 1060.62   4
   2  -4   2 10208.2 1357.55   2
   2  -4   2 10596.0 1069.29   1
  -2   4  -2 9819.32 1155.09   7
  -2   4  -2 10500.5 648.860   3
   2  -4   3 1366.45 480.838   1
  -2   4  -3 1356.61 258.842   3
  -2   4  -3 1063.52 421.167   7
  -2   4  -3 1227.04 366.980   4
   2  -4   3 1769.52 626.949   2
  -2   4  -4 6873.65 906.922   4
   2  -4   4 6418.84 957.099   5
   2  -4   4 7445.51 978.748   1
  -2   4  -4 6066.56 617.101   3
  -2   4  -5 236616. 4235.35   3
  -2   4  -5 228057. 5272.09   4
   2  -4   5 226256. 5622.90   5
  -2   4  -6 14076.5 1343.24   4
   2  -4   6 12161.9 1382.14   5
  -2   4  -6 15141.2 1187.83   3
  -2   4  -7 480043. 7994.86   4
  -2   4  -7 479975. 7410.81   3
   2  -4   7 480327. 8823.12   5
  -2   4  -8 3078.76 630.957   4
  -2   4  -8 2770.58 669.865   3
   2  -4   8 3153.28 798.911   5
   2  -4   9 9825.19 1406.05   5
  -2   4  -9 11422.2 1272.04   4
  -2   4  -9 11033.7 1304.42   3
  -2   4 -10 19381.9 1753.26   4
   2  -4  10 19280.5 2035.17   5
  -2   4 -10 15350.5 1689.06   3
  -2   4 -11 653.453 385.987   4
   2  -4  11 251.819 470.596   5
  -2   4 -11 181.714 410.145   3
  -2   4 -12 334.887 400.957   4
   2  -4  12 49.6338 332.235   5
  -2   4 -12 1102.01 585.830   3
  -2   4 -13 30099.6 2379.83   4
  -2   4 -13 24111.8 2395.91   3
   2  -4  13 29495.6 2896.84   5
  -2   4 -14 3558.79 832.232   4
   2  -4  14 3452.12 1165.09   5
  -2   4 -14 3697.69 1027.90   3
  -2   4 -15 6928.24 1384.75   3
  -2   4 -15 5106.27 1012.16   4
   2  -4  15 5164.13 1438.90   5
  -2   4 -16 21569.6 2489.97   3
   2  -4  16 22993.0 3152.36   5
   2  -4  17 25631.8 3390.89   5
  -2   4 -17 33561.5 3127.59   3
   2  -4  18 9058.66 2165.71   5
  -2   4 -18 9065.54 1671.75   3
  -2   4 -19 9032.70 1753.69   3
   2  -4  19 4304.56 1421.44   5
   2  -4  20 631.964 601.682   5
  -2   4 -20 451.032 416.135   3
  -2   3  21 46997.4 4763.70   7
  -2   3  20 1344.61 931.284   7
   2  -3 -20 766.816 782.553   1
   2  -3 -20 926.218 547.509   3
  -2   3  20-563.026 721.461   5
  -2   3  19 14467.4 2436.13   5
   2  -3 -19 14766.6 2451.27   1
  -2   3  19 20290.4 3082.95   7
   2  -3 -19 15386.2 1983.84   3
   2  -3 -18 28019.8 2615.19   3
   2  -3 -18 30035.6 3471.10   1
  -2   3  18 35266.8 3822.42   5
  -2   3  18 28708.9 3525.43   7
  -2   3  17 3223.30 1311.98   7
  -2   3  17 3412.09 1219.41   5
   2  -3 -17 3650.63 941.225   3
   2  -3 -17 3215.93 978.138   1
  -2   3  16 4826.44 1476.53   5
  -2   3  16 5028.93 1436.03   7
   2  -3 -16 6603.52 1218.68   3
   2  -3 -16 7959.07 1721.68   1
   2  -3 -15 22151.4 2716.66   2
  -2   3  15 20251.4 2692.43   7
   2  -3 -15 21427.6 2054.17   3
  -2   3  15 22606.2 2961.31   5
   2  -3 -15 22354.6 2768.15   1
   2  -3 -14 77138.6 4796.65   2
   2  -3 -14 81757.3 5197.33   1
  -2   3  14 64966.6 4617.16   7
   2  -3 -14 76767.7 3820.89   3
  -2   3  14 68353.4 4982.24   5
   2  -3 -13 251.915 523.554   2
  -2   3  13 706.055 463.074   5
  -2   3  13 101.930 334.655   7
   2  -3 -13 636.286 348.813   3
   2  -3 -13 1161.78 723.495   1
  -2   3  12 2071.20 760.131   5
   2  -3 -12 2643.63 891.641   2
  -2   3  12 1588.33 673.042   7
   2  -3 -12 2701.36 719.089   3
   2  -3 -12 3441.01 1026.42   1
   2  -3 -11 37867.0 2846.91   2
   2  -3 -11 33169.3 2261.55   3
  -2   3  11 34896.6 2897.14   7
  -2   3  11 39539.7 3026.75   5
   2  -3 -11 41561.3 3487.46   1
   2  -3 -10 10482.4 1477.43   2
  -2   3  10 8584.37 1349.42   5
  -2   3  10 8440.17 1386.76   7
   2  -3 -10 9949.21 1685.14   1
   2  -3  -9 5261.64 1287.76   1
   2  -3  -9 4592.83 942.051   2
  -2   3   9 3711.60 862.314   5
  -2   3   9 4538.17 900.521   7
  -2   3   8 136690. 3547.04   4
   2  -3  -8 145713. 5901.79   1
  -2   3   8 137264. 4740.75   7
  -2   3   8 132359. 4668.61   5
   2  -3  -8 140694. 4837.69   2
   2  -3  -7 105738. 4058.68   2
  -2   3   7 101939. 2990.00   4
  -2   3   7 103641. 3985.53   5
   2  -3  -7 102732. 4617.45   1
  -2   3   7 108305. 3973.34   7
  -2   3   6 4244.69 601.870   4
   2  -3  -6 4651.56 950.931   1
  -2   3   6 3978.65 740.488   5
   2  -3  -6 5043.42 875.512   2
  -2   3   6 5131.88 844.573   7
  -2   3   6 5198.23 801.173   6
   2  -3  -5 35649.5 1301.45   3
   2  -3  -5 32268.0 2120.17   2
  -2   3   5 34382.8 1683.12   4
  -2   3   5 32435.5 1919.21   7
  -2   3   5 33769.1 1821.56   6
   2  -3  -5 35716.9 2312.75   1
   2  -3  -4 120907. 4005.42   2
  -2   3   4 125290. 3158.68   6
  -2   3   4 120451. 3137.30   4
  -2   3   4 127078. 3674.08   1
  -2   3   4 124321. 3550.16   7
   2  -3  -4 121857. 3508.16   7
   2  -3  -4 121467. 1881.30   3
  -2   3   3 167239. 3817.78   1
  -2   3   3 161821. 3617.63   4
  -2   3   3 153467. 3290.58   6
  -2   3   3 161126. 3845.20   7
   2  -3  -3 163630. 3883.00   7
   2  -3  -3 159047. 4546.33   2
  -2   3   2 7060.11 780.643   4
   2  -3  -2 7226.15 983.511   2
  -2   3   2 6985.35 662.975   6
  -2   3   2 6061.04 672.731   1
  -2   3   2 7073.77 787.361   7
   2  -3  -2 7992.39 757.933   1
   2  -3  -2 6264.09 633.469   6
   2  -3  -2 7257.15 824.436   7
   2  -3  -1 489615. 5227.44   1
  -2   3   1 480779. 6338.48   4
   2  -3  -1 494016. 8091.43   2
  -2   3   1 478497. 5621.87   1
   2  -3  -1 505532. 6614.27   7
  -2   3   1 501803. 6536.18   7
   2  -3  -1 496681. 5488.61   6
  -2   3   0 14709.0 1129.30   4
   2  -3   0 14086.7 958.078   6
  -2   3   0 14910.5 1148.37   7
   2  -3   0 14214.4 1430.54   2
  -2   3   0 14503.1 924.569   1
   2  -3   0 13731.3 832.461   1
   2  -3   0 13799.7 1104.83   7
  -2   3  -1 89446.5 2848.59   4
   2  -3   1 86620.8 3500.43   2
   2  -3   1 96179.5 2966.01   7
   2  -3   1 90553.9 2167.43   1
  -2   3  -1 94301.4 2914.02   7
  -2   3  -1 92835.8 1520.11   3
  -2   3  -2 43914.4 2044.72   4
   2  -3   2 38579.6 2397.15   2
   2  -3   2 39983.1 1584.41   1
   2  -3   2 41201.7 2000.40   7
   2  -3   3 1.38782 156.646   5
  -2   3  -3-203.896 251.933   4
  -2   3  -4 7043.53 872.740   4
   2  -3   4 7644.27 691.013   1
   2  -3   4 5356.48 796.376   5
   2  -3   5 47.0494 124.310   1
  -2   3  -5 145.248 192.054   4
   2  -3   5 124.579 211.771   5
   2  -3   6 179822. 4944.26   5
  -2   3  -6 180699. 4641.32   4
  -2   3  -7 4171.33 774.083   4
   2  -3   7 2829.48 698.635   5
  -2   3  -8 2395.30 597.331   4
   2  -3   8 1774.68 674.254   5
   2  -3   9 82722.7 3901.28   5
  -2   3  -9 86711.1 3572.08   4
  -2   3 -10 612.232 350.930   4
   2  -3  10-188.085 357.049   5
   2  -3  11 7368.24 1371.57   5
  -2   3 -11 4892.25 934.590   4
  -2   3 -12 41163.7 2741.29   4
   2  -3  12 47550.3 3525.06   5
   2  -3  13 100651. 5433.40   5
  -2   3 -13 89733.0 4141.16   4
  -2   3 -14 1281.49 500.544   4
   2  -3  14 1395.29 769.930   5
   2  -3  15 15046.8 2319.02   5
  -2   3 -15 16399.5 1782.78   4
  -2   3 -16 44336.7 2976.52   4
   2  -3  16 34477.0 3667.19   5
  -2   3 -17 19662.6 2362.79   3
   2  -3  17 16241.6 2597.88   5
  -2   3 -18 352.254 499.797   3
   2  -3  18-876.767 988.180   5
   2  -3  19 49313.2 4701.13   5
  -2   3 -19 56704.9 4211.69   3
   2  -3  20 7011.82 1869.31   5
  -2   3 -20 10420.7 1889.10   3
  -2   3 -21 6953.40 1655.74   3
   2  -3  21 6838.36 1830.23   5
   2  -2 -22 73684.1 4786.94   3
  -2   2  22 69980.6 5837.34   7
  -2   2  21 3917.13 1383.38   5
   2  -2 -21 3180.10 1155.48   1
  -2   2  21 2433.40 1145.63   7
   2  -2 -21 2388.12 846.516   3
  -2   2  20 20513.3 2921.19   5
   2  -2 -20 18593.5 2786.93   1
   2  -2 -20 17738.4 2223.73   3
  -2   2  20 19930.1 2892.87   7
  -2   2  19-1455.55 987.417   7
  -2   2  19-10.2884 456.597   5
   2  -2 -19 25.0251 588.333   1
   2  -2 -19-188.897 354.594   3
  -2   2  18 868.300 774.653   7
  -2   2  18 1723.67 913.749   5
   2  -2 -18 1163.85 605.252   3
   2  -2 -18 341.155 471.763   1
  -2   2  17 4957.19 1324.95   7
   2  -2 -17 4678.22 1337.44   1
   2  -2 -17 3644.57 957.019   3
  -2   2  17 3430.92 1200.11   5
  -2   2  16 69740.0 4836.72   7
   2  -2 -16 66591.2 3926.49   3
   2  -2 -16 71383.3 4898.38   1
  -2   2  16 69731.9 5218.14   5
  -2   2  15 5645.17 1641.93   5
  -2   2  15 7739.01 1646.84   7
   2  -2 -15 7542.79 1526.70   1
   2  -2 -15 7982.00 1404.73   3
   2  -2 -14 11383.3 1831.60   2
   2  -2 -14 9242.59 1431.64   3
  -2   2  14 10248.0 1699.10   7
  -2   2  14 10983.6 1983.90   5
   2  -2 -14 13343.2 2074.63   1
  -2   2  13 8682.96 1659.00   5
   2  -2 -13 8485.43 1572.96   2
  -2   2  13 7307.47 1390.35   7
   2  -2 -13 10373.6 1759.38   1
   2  -2 -13 8904.66 1328.15   3
   2  -2 -12 154926. 6160.34   2
  -2   2  12 141115. 5890.16   7
   2  -2 -12 158471. 6473.73   1
  -2   2  12 165050. 6706.53   5
   2  -2 -11 13926.4 1764.92   2
  -2   2  11 15295.3 1791.60   7
   2  -2 -11 11189.0 1433.89   3
   2  -2 -11 15799.6 1981.20   1
  -2   2  11 14673.6 1827.79   5
  -2   2  10 18352.8 1934.97   5
   2  -2 -10 17557.6 1865.46   2
  -2   2  10 13686.6 1615.67   7
   2  -2 -10 14496.6 1493.71   3
   2  -2 -10 19814.1 2146.38   1
  -2   2   9 46627.5 2856.75   5
   2  -2  -9 43365.2 2059.81   4
  -2   2   9 40191.0 2587.08   7
   2  -2  -9 43806.1 2764.85   2
   2  -2  -9 43451.6 2319.56   3
   2  -2  -9 49227.4 3232.51   1
  -2   2   8 61603.8 1958.54   4
   2  -2  -8 64115.5 2397.38   4
   2  -2  -8 65613.4 3203.16   2
   2  -2  -8 63359.7 2476.13   3
  -2   2   8 62769.1 2976.28   7
  -2   2   8 63914.8 3141.18   5
   2  -2  -8 61799.2 3473.70   1
   2  -2  -7 17851.9 1600.78   2
  -2   2   7 16702.1 1004.57   4
   2  -2  -7 19785.2 1289.79   4
  -2   2   7 17082.5 1433.95   7
   2  -2  -7 19535.9 1873.80   1
   2  -2  -7 20140.5 1223.61   3
  -2   2   7 18323.1 1608.74   5
   2  -2  -6 8846.98 1043.62   2
  -2   2   6 9307.34 1111.41   5
  -2   2   6 9535.07 733.955   4
   2  -2  -6 9928.24 907.328   4
   2  -2  -6 9854.25 1306.39   1
  -2   2   6 9722.30 992.067   7
   2  -2  -6 10963.4 795.267   3
   2  -2  -5 919.146 216.918   3
   2  -2  -5 843.267 289.138   4
  -2   2   5 1060.55 420.350   1
  -2   2   5 1327.81 296.529   4
   2  -2  -5 930.084 360.542   2
  -2   2   5 1225.59 347.322   7
  -2   2   5 986.099 417.831   5
  -2   2   5 1144.49 349.913   6
   2  -2  -5 970.228 469.233   1
   2  -2  -4 42296.8 2167.27   2
   2  -2  -4 46895.9 1866.38   4
   2  -2  -4 46486.6 1721.95   7
  -2   2   4 41253.9 2019.45   1
  -2   2   4 44770.4 2046.90   6
  -2   2   4 41067.8 1622.44   7
   2  -2  -4 43700.5 1166.16   3
   2  -2  -4 44801.6 2279.66   1
  -2   2   4 43036.7 1577.94   4
  -2   2   3 20593.3 1210.13   1
   2  -2  -3 19758.1 1369.27   1
   2  -2  -3 17879.5 1401.98   2
  -2   2   3 20047.8 1033.36   7
  -2   2   3 19454.8 1274.26   6
   2  -2  -3 20732.0 1240.55   4
   2  -2  -3 20317.1 1017.81   7
   2  -2  -3 18630.8 663.169   3
   2  -2  -3 18466.0 1217.02   6
  -2   2   3 21000.5 701.738   3
  -2   2   3 20084.2 1093.03   4
  -2   2   2 960253. 6440.37   1
   2  -2  -2 999999. 9897.58   2
   2  -2  -2 926550. 4127.15   3
  -2   2   2 919308. 7649.26   4
  -2   2   2 952646. 8595.79   6
  -2   2   2 970499. 6480.02   7
   2  -2  -2 968061. 6483.60   7
  -2   2   2 948802. 3846.42   3
   2  -2  -2 889560. 7182.85   1
   2  -2  -2 966001. 8552.94   6
   2  -2  -1 16678.9 1323.12   2
  -2   2   1 17426.6 1093.11   4
   2  -2  -1 16785.7 1135.94   6
  -2   2   1 17314.3 1122.83   6
   2  -2  -1 17832.9 883.389   7
  -2   2   1 17310.6 576.330   3
  -2   2   1 16305.6 854.920   7
  -2   2   0 360467. 5182.17   4
   2  -2   0 370928. 6217.06   2
  -2   2   0 361095. 4083.60   7
   2  -2   0 362784. 4141.02   7
  -2   2  -1 12969.1 1025.55   4
   2  -2   1 13088.0 864.161   7
   2  -2   1 12036.8 1192.02   2
   2  -2   2 41389.3 1337.21   1
   2  -2   2 43630.2 2269.12   2
   2  -2   2 46681.9 2042.23   5
  -2   2  -2 44552.8 1993.59   4
  -2   2  -3-91.2387 175.213   4
   2  -2   3 353.480 235.985   1
  -2   2  -3-29.7735 83.0088   1
   2  -2   3 55.9762 260.980   5
   2  -2   4 111516. 3390.15   5
  -2   2  -4 113705. 3496.91   4
  -2   2  -4 117401. 2787.29   1
  -2   2  -5 31309.0 1953.99   4
   2  -2   5 31559.6 2053.27   1
   2  -2   5 30237.6 1847.25   5
  -2   2  -5 33805.3 1755.81   1
  -2   2  -6 25150.1 1809.41   4
   2  -2   6 24301.8 1771.43   5
  -2   2  -6 24161.3 1688.27   1
  -2   2  -7 5317.05 882.361   4
   2  -2   7 7292.66 1011.93   5
  -2   2  -7 5921.18 924.098   1
  -2   2  -8 228484. 5940.65   4
   2  -2   8 238742. 6235.01   5
  -2   2  -9 6359.36 1088.72   4
  -2   2  -9 6220.18 1059.51   1
   2  -2   9 7965.98 1193.87   5
  -2   2 -10 14511.0 1631.24   4
   2  -2  10 16156.9 1813.79   5
  -2   2 -10 14784.3 1752.48   1
  -2   2 -11 18796.5 2023.04   1
  -2   2 -11 14838.4 1708.06   4
   2  -2  11 15974.7 1888.73   5
  -2   2 -12 88559.2 4546.09   1
  -2   2 -12 77204.0 3888.39   4
   2  -2  12 91325.6 4814.55   5
  -2   2 -13 4009.17 936.992   4
  -2   2 -13 4786.39 1101.12   1
   2  -2  13 4055.94 1144.13   5
  -2   2 -14 10016.3 1477.28   4
  -2   2 -14 11223.5 1758.40   1
   2  -2  14 7903.08 1612.08   5
  -2   2 -15 6447.32 1160.96   4
  -2   2 -15 6564.54 1418.90   1
   2  -2  15 3853.44 1305.45   5
  -2   2 -16 8969.98 1629.97   1
  -2   2 -16 8044.11 1335.77   4
  -2   2 -17 2645.35 953.702   1
   2  -2  17 1663.42 867.577   5
   2  -2  18 114608. 6967.78   5
  -2   2 -18 138003. 6949.69   1
   2  -2  19 1690.02 1084.96   5
  -2   2 -19 2914.77 1229.44   1
   2  -2  20 28016.0 3490.59   5
   2  -2  21-325.100 740.570   5
  -2   2 -21 637.081 779.680   3
  -2   1  23 2097.88 1001.16   7
  -2   1  22 11005.3 2188.25   7
   2  -1 -22 11097.0 1933.23   3
  -2   1  21 6997.72 1780.23   5
   2  -1 -21 7400.98 1571.05   3
  -2   1  21 5745.08 1519.99   7
  -2   1  20 12671.8 2351.63   5
   2  -1 -20 12997.8 1935.27   3
  -2   1  20 11050.0 2204.81   7
  -2   1  19 3297.80 1110.19   5
  -2   1  19 5225.14 1284.60   7
   2  -1 -19 4910.47 1208.77   3
   2  -1 -18 6272.22 1302.67   3
  -2   1  18 5853.67 1425.00   7
  -2   1  18 5543.88 1458.12   5
  -2   1  17 25717.7 2937.85   7
   2  -1 -17 21008.2 2332.75   3
  -2   1  17 23991.0 2980.85   5
   2  -1 -16 55992.4 3715.10   3
   2  -1 -16 59686.9 4395.09   1
  -2   1  15 401.872 653.196   5
   2  -1 -15 1056.03 706.137   1
   2  -1 -15 731.690 453.298   3
  -2   1  14 7293.20 1589.40   5
   2  -1 -14 3466.63 945.044   3
   2  -1 -14 5547.82 1411.40   1
   2  -1 -13 27270.8 2438.59   3
   2  -1 -13 31280.6 2923.80   1
   2  -1 -12-90.6389 200.613   1
   2  -1 -12-167.896 566.546   2
   2  -1 -12-280.146 255.568   3
   2  -1 -12-31.3768 172.968   4
  -2   1  12-228.919 444.510   5
   2  -1 -11 28856.6 2493.78   2
  -2   1  11 28357.1 2698.09   5
   2  -1 -11 26858.1 2044.01   3
   2  -1 -11 26146.4 1265.19   4
   2  -1 -11 22482.5 2321.11   1
   2  -1 -10 297887. 7695.07   2
   2  -1 -10 284891. 3985.85   4
   2  -1 -10 310076. 6305.27   3
  -2   1  10 308578. 8096.49   5
   2  -1  -9 19667.1 1901.38   1
   2  -1  -9 23571.0 2054.60   2
   2  -1  -9 25310.4 1656.27   3
  -2   1   9 23786.9 2067.56   5
   2  -1  -9 21163.3 1061.42   4
   2  -1  -8 252386. 6341.84   2
  -2   1   8 238775. 2835.18   4
   2  -1  -8 255699. 4824.42   3
   2  -1  -8 252907. 3598.34   4
  -2   1   8 245430. 6172.79   5
   2  -1  -8 252943. 6270.21   1
   2  -1  -7 37467.9 2271.86   2
  -2   1   7 33482.3 1049.67   4
   2  -1  -7 37653.2 1384.40   4
   2  -1  -7 35508.4 2123.76   1
   2  -1  -7 36162.4 1638.19   3
  -2   1   7 35300.5 2166.92   5
  -2   1   6 4991.51 756.087   5
   2  -1  -6 4448.36 485.592   4
   2  -1  -6 5186.30 832.219   2
   2  -1  -6 4817.12 560.512   3
  -2   1   6 4676.09 553.004   3
  -2   1   6 4352.51 396.458   4
   2  -1  -5 5685.84 785.369   2
  -2   1   5 4735.18 424.405   4
   2  -1  -5 5629.01 558.741   3
   2  -1  -5 5816.27 569.347   4
  -2   1   5 5031.78 737.446   5
  -2   1   5 5334.61 526.415   3
  -2   1   5 6818.64 815.297   1
   2  -1  -4 1920.73 482.517   2
  -2   1   4 1711.44 288.818   4
   2  -1  -4 2183.90 334.687   3
  -2   1   4 2113.86 299.203   3
  -2   1   4 2162.22 516.477   6
  -2   1   4 1969.89 395.512   1
   2  -1  -4 2183.18 367.123   4
   2  -1  -3 80965.2 2612.07   2
  -2   1   3 81290.9 2020.38   4
   2  -1  -3 84279.3 2322.62   4
  -2   1   3 82412.1 2779.66   6
   2  -1  -3 82096.4 1869.77   3
  -2   1   3 89001.7 1877.11   3
  -2   1   3 85001.1 2075.12   1
  -2   1   2 75123.8 2107.81   4
   2  -1  -2 78339.0 1786.46   3
  -2   1   2 83156.9 1823.81   3
   2  -1  -2 75869.8 2384.60   2
  -2   1   2 75639.3 2591.06   6
   2  -1  -1 58934.5 2030.90   2
  -2   1   1 59595.5 1629.61   1
  -2   1   1 61130.1 2054.44   4
   2  -1  -1 60399.1 1569.54   3
  -2   1   1 66262.0 1657.84   3
  -2   1   1 60440.5 2293.27   6
  -2   1   0 252225. 4487.98   2
   2  -1   0 257669. 4295.79   2
  -2   1   0 256455. 4529.43   4
  -2   1   0 260897. 3328.49   3
  -2   1   0 261658. 3149.53   1
   2  -1   0 248501. 3247.63   1
  -2   1  -1 37451.6 1229.94   1
   2  -1   1 39926.3 1758.65   2
  -2   1  -1 40831.6 1935.77   4
   2  -1   1 39706.2 1337.22   1
  -2   1  -2 69989.9 1871.98   1
   2  -1   2 64389.5 1899.28   1
  -2   1  -2 70095.6 2703.77   4
   2  -1   2 67166.2 2189.62   5
  -2   1  -3 34514.1 1532.85   1
   2  -1   3 32152.8 1524.73   1
   2  -1   3 33953.9 1621.11   5
  -2   1  -3 30806.7 1515.14   5
   2  -1   4 300123. 5218.48   5
   2  -1   4 315720. 5340.69   1
  -2   1  -4 300416. 4865.45   5
  -2   1  -5 817.518 395.051   1
   2  -1   5 416.690 344.432   1
   2  -1   5 104.561 262.813   5
  -2   1  -6 162150. 4998.65   1
   2  -1   6 174789. 4465.58   5
   2  -1   7 35846.5 2188.21   5
  -2   1  -7 33411.5 2489.99   1
  -2   1  -8 8771.72 1420.02   1
   2  -1   8 8960.20 1161.70   5
   2  -1   9 29156.1 2256.37   5
  -2   1  -9 33284.1 2775.42   1
  -2   1 -10 219422. 7361.91   1
   2  -1  10 210591. 6540.37   5
  -2   1 -11 516.734 501.116   1
   2  -1  11 597.804 439.659   5
  -2   1 -12 201847. 7502.41   1
   2  -1  12 151504. 6318.31   5
  -2   1 -13 221.683 332.717   1
   2  -1  13-242.085 437.190   5
   2  -1  14 9583.33 1797.21   5
  -2   1 -14 14608.1 1943.37   4
  -2   1 -14 15825.2 2271.43   1
  -2   1 -15 1214.55 660.223   4
   2  -1  15-475.608 603.471   5
  -2   1 -15 215.225 539.576   1
  -2   1 -16-322.400 596.301   1
  -2   1 -16-72.5524 140.155   4
  -2   1 -17 23695.1 2447.16   4
   2  -1  17 19116.9 2687.15   5
  -2   1 -17 18640.2 2535.74   1
  -2   1 -18 17955.7 2535.21   1
   2  -1  18 19011.5 2702.10   5
  -2   1 -19 13105.5 2235.02   1
   2  -1  19 13842.6 2330.21   5
   2  -1  20 3565.99 1350.65   7
   2  -1  20 2652.05 1053.95   5
  -2   1 -20 737.020 578.694   1
  -2   1 -21 1689.92 837.434   1
   2  -1  21 338.934 431.102   5
  -2   0  23 13202.8 2520.81   7
   2   0 -22 4784.71 1308.84   3
  -2   0  21 10161.1 2186.32   5
   2   0 -21 8777.93 1751.85   3
  -2   0  20 2671.55 1334.16   5
   2   0 -20 3201.08 1022.63   3
   2   0 -19 26853.6 2855.33   3
  -2   0  19 29341.4 3262.24   5
  -2   0  18 13665.2 2213.84   5
   2   0 -18 9425.19 1702.69   3
   2   0 -17 687.585 603.146   3
  -2   0  17 1103.65 683.984   5
   2   0 -16 18575.0 2424.31   3
  -2   0  16 28396.9 3069.00   5
  -2   0  15 1374.88 810.554   5
   2   0 -15 108.697 504.571   3
  -2   0  14 7563.08 1533.28   5
   2   0 -14 4494.28 998.037   3
  -2   0  13 1945.48 789.356   5
   2   0 -13 535.060 406.474   3
  -2   0  12 1961.95 956.872   5
   2   0 -12 1336.38 551.650   3
   2   0 -11 212742. 5486.41   3
  -2   0  11 200389. 7363.35   5
   2   0 -10 89492.9 3329.11   3
  -2   0  10 89506.8 4621.37   5
   2   0  -9 386911. 6443.02   3
  -2   0   9 424825. 9347.26   5
   2   0  -8 2471.47 644.649   2
  -2   0   8 4162.08 899.694   5
   2   0  -8 2461.29 508.413   3
   2   0  -7 6638.31 1026.71   2
   2   0  -7 7157.42 790.586   3
  -2   0   7 7743.77 1047.23   5
  -2   0   6 19663.3 727.038   4
   2   0  -6 20066.4 1239.28   3
   2   0  -6 22684.2 1737.08   2
  -2   0   6 21853.7 1581.32   5
   2   0  -5 27756.1 1750.89   2
  -2   0   5 28474.3 1069.89   4
  -2   0   5 26265.2 1320.88   7
  -2   0   5 26503.1 1592.09   5
   2   0  -5 27105.9 1364.04   3
   2   0  -4 82352.9 2721.31   2
  -2   0   4 74920.2 2650.64   2
   2   0  -4 75315.1 2201.74   3
  -2   0   4 66312.9 1829.77   7
  -2   0   4 72238.8 2416.63   5
  -2   0   3 74210.7 1749.17   7
   2   0  -3 81720.5 2432.45   2
  -2   0   3 76644.8 2420.23   2
   2   0  -3 77820.9 2198.62   3
  -2   0   3 75213.4 2838.51   6
  -2   0   3 74790.8 2260.73   5
   2   0  -2 61421.2 1892.49   2
  -2   0   2 61294.0 1918.67   2
  -2   0   2 59899.4 1512.29   7
   2   0  -2 61929.7 1946.84   3
  -2   0   2 62991.1 2516.81   6
  -2   0   2 61179.4 2415.61   1
   2   0  -2 59103.6 1551.59   7
   2   0  -1 121700. 2379.67   2
  -2   0   1 119104. 2427.35   2
  -2   0   1 121527. 3441.66   6
  -2   0   1 128372. 3412.67   1
   2   0  -1 124985. 2812.85   3
   2   0  -1 121017. 2272.36   7
  -2   0   1 120690. 2268.72   7
   2   0   0 42726.3 1283.43   2
  -2   0   0 40400.5 1388.06   2
  -2   0   0 41209.6 1910.81   1
  -2   0   0 43686.5 1502.96   7
   2   0   0 43122.2 1476.31   7
  -2   0   0 42241.5 1993.39   6
   2   0   1 237539. 3083.02   2
  -2   0  -1 235192. 4532.16   1
   2   0   1 233472. 3857.93   7
  -2   0  -1 246662. 4035.44   7
  -2   0  -1 240618. 3428.16   5
   2   0   2 9864.55 1015.11   1
  -2   0  -2 9630.81 936.583   1
   2   0   2 10496.5 727.329   2
   2   0   2 10915.9 945.848   7
  -2   0  -2 9666.93 708.944   5
   2   0   2 10396.4 760.158   5
  -2   0  -3 18334.4 1338.06   1
  -2   0  -3 19112.5 1069.55   5
   2   0   3 18793.1 1459.92   1
   2   0   3 19954.6 1146.49   5
   2   0   3 20670.8 1437.10   7
   2   0   4 153638. 3441.97   5
  -2   0  -4 151594. 4067.23   1
  -2   0  -4 153320. 3312.01   5
  -2   0  -5 38662.5 2179.10   1
  -2   0  -5 39336.1 1874.15   5
   2   0   5 36825.5 1841.50   5
  -2   0  -6 3944.09 790.616   1
   2   0   6 3576.55 674.143   5
  -2   0  -7 2553.52 695.280   1
   2   0   7 2432.83 565.441   5
   2   0   8 6973.48 1020.29   5
  -2   0  -8 6996.56 1240.45   1
  -2   0  -9 255927. 7731.88   1
   2   0   9 248972. 6648.68   5
   2   0  10 79129.9 4718.69   7
   2   0  10 78025.8 4035.79   5
  -2   0 -10 69887.0 4325.18   1
   2   0  11 239388. 8444.70   7
   2   0  11 213753. 7166.22   5
  -2   0 -11 223058. 8187.78   1
  -2   0 -12 12925.6 2059.41   1
   2   0  12 12762.3 2065.98   7
   2   0  12 6911.72 1390.23   5
   2   0  13 3099.51 960.832   5
   2   0  13 3857.90 1243.94   7
  -2   0 -13 3188.24 1139.12   1
   2   0  14 7980.09 1589.06   5
   2   0  14 11166.9 2106.86   7
  -2   0 -14 13995.4 2317.16   1
   2   0  15 2359.91 869.681   5
   2   0  15 315.686 692.030   7
  -2   0 -15 718.962 706.416   1
  -2   0 -16 33142.8 3699.36   1
   2   0  16 30587.6 3291.27   5
   2   0  16 24623.4 3266.68   7
   2   0  17 4440.28 1383.07   5
   2   0  17 5248.83 1639.83   7
  -2   0 -17 5511.35 1608.73   1
   2   0  18 41965.2 3961.52   5
  -2   0 -18 46111.6 4361.93   1
   2   0  18 43553.4 4322.01   7
   2   0  19 3652.08 1181.75   5
   2   0  19 3486.84 1315.77   7
  -2   0 -19 4380.13 1441.08   1
   2   0  20 57.6422 243.903   7
  -2   0 -20 2388.45 1087.88   1
   2   0  20 3228.89 1166.18   5
   2   0  21 10088.2 2062.20   5
   2   1 -22 3295.65 1235.32   3
  -2  -1  21 1144.86 703.262   5
   2   1 -21 1582.42 961.558   3
  -2  -1  20 2725.35 1076.83   5
   2   1 -20 2966.71 1201.85   3
  -2  -1  19 26907.0 3231.88   5
   2   1 -19 15856.2 2383.02   3
   2   1 -18 26549.5 3116.29   3
  -2  -1  18 36800.1 3571.08   5
   2   1 -17 100948. 5689.05   3
  -2  -1  17 133992. 6650.66   5
   2   1 -16 25893.3 2641.49   3
  -2  -1  16 30139.7 3122.29   5
  -2  -1  15 7007.16 1463.84   5
   2   1 -15 5764.59 1231.87   3
  -2  -1  14-39.5592 218.095   5
   2   1 -14 299.243 301.351   3
  -2  -1  13 1015.66 555.392   5
   2   1 -13 224.570 209.578   3
  -2  -1  12 1433.28 597.539   5
   2   1 -12 590.659 306.836   3
   2   1 -11 89538.9 3619.31   3
  -2  -1  11 95925.8 4962.93   5
  -2  -1  10 5400.08 1217.08   5
   2   1 -10 6476.15 926.679   3
  -2  -1   9 210.564 524.999   5
   2   1  -9 580.382 258.466   3
  -2  -1   8 150980. 5608.53   5
   2   1  -8 142129. 3912.42   3
  -2  -1   7 107567. 1765.87   4
   2   1  -7 108335. 3272.68   3
  -2  -1   7 113224. 4554.12   5
  -2  -1   6 96748.1 3149.72   7
  -2  -1   6 96835.8 3784.48   5
   2   1  -6 94667.0 2941.56   3
  -2  -1   5 61876.1 2378.33   7
   2   1  -5 61961.4 2331.58   3
   2   1  -5 58017.8 2312.98   5
   2   1  -4 9977.30 946.660   3
  -2  -1   4 9565.49 962.806   2
  -2  -1   4 8605.05 882.478   7
   2   1  -4 7543.98 971.773   6
   2   1  -4 8476.49 869.269   7
  -2  -1   4 7634.63 825.119   5
  -2  -1   3 295189. 6617.72   1
  -2  -1   3 289521. 4882.00   7
   2   1  -3 285403. 4881.35   7
  -2  -1   3 290067. 4270.10   5
  -2  -1   3 297868. 4637.43   2
   2   1  -3 280436. 4887.69   3
  -2  -1   2 10182.6 1069.49   6
  -2  -1   2 10324.7 743.607   2
   2   1  -2 10375.0 956.539   3
   2   1  -2 10650.6 957.274   7
  -2  -1   2 10523.8 1227.67   1
  -2  -1   2 9337.45 887.098   7
  -2  -1   2 10707.9 695.499   5
   2   1  -2 9124.81 1032.14   6
  -2  -1   1 8355.52 541.009   2
   2   1  -1 8185.78 838.870   7
   2   1  -1 8268.23 858.066   3
  -2  -1   1 8381.46 958.164   6
   2   1  -1 7520.30 922.240   6
  -2  -1   1 7787.88 823.468   7
  -2  -1   1 9109.68 1121.79   1
  -2  -1   0 10795.1 1212.02   1
  -2  -1   0 12528.6 1155.44   6
   2   1   0 11779.3 1041.44   7
  -2  -1   0 11664.9 561.712   5
  -2  -1   0 12333.5 1062.49   7
   2   1   0 10420.3 1076.68   6
   2   1   1 190542. 4339.19   7
   2   1   1 189387. 4622.90   6
  -2  -1  -1 197591. 5180.27   1
  -2  -1  -1 193564. 2354.24   5
   2   1   2 104294. 3391.17   7
  -2  -1  -2 115208. 2152.06   5
  -2  -1  -2 116782. 3996.86   1
   2   1   2 111628. 2108.04   5
   2   1   2 107954. 3480.34   6
  -2  -1  -3 499861. 8467.16   1
   2   1   3 507611. 5151.11   5
   2   1   4 37477.7 1305.77   2
  -2  -1  -4 35201.3 2279.18   1
   2   1   4 42353.4 1686.14   5
  -2  -1  -4 46111.1 1988.32   5
   2   1   5 13399.2 965.468   2
  -2  -1  -5 14706.8 1535.35   1
   2   1   5 13624.0 1061.40   5
  -2  -1  -5 16274.1 1399.69   5
   2   1   6 18664.3 1273.85   2
  -2  -1  -6 18622.6 1785.04   1
   2   1   6 18514.1 1404.25   5
   2   1   7 35902.1 1963.48   2
  -2  -1  -7 37476.7 2630.50   1
   2   1   7 40590.3 2283.40   5
  -2  -1  -8 15089.5 1728.37   1
   2   1   8 14493.0 1513.91   5
  -2  -1  -9 39243.8 3022.54   1
   2   1   9 33235.3 3022.90   7
   2   1   9 31666.4 2430.07   5
   2   1  10 1941.90 651.592   5
  -2  -1 -10 2170.79 887.938   1
   2   1  10 869.584 675.621   7
   2   1  11 2521.04 884.803   5
  -2  -1 -11 4017.25 1114.28   1
   2   1  11 3809.11 1244.44   7
  -2  -1 -12 27694.2 3082.24   1
   2   1  12 28401.9 3196.41   7
   2   1  12 19194.7 2359.89   5
   2   1  13 33382.1 3568.16   7
   2   1  13 30501.7 3042.33   5
  -2  -1 -13 33800.5 3598.83   1
  -2  -1 -14 11116.8 2137.57   1
   2   1  14 9285.67 1704.31   5
   2   1  14 10942.3 2084.83   7
   2   1  15 14665.2 2239.70   5
   2   1  15 15916.9 2641.21   7
   2   1  16 4867.31 1281.98   5
  -2  -1 -16 6003.66 1788.48   1
   2   1  16 4219.83 1488.42   7
  -2  -1 -17 74409.7 5957.40   1
   2   1  17 78103.6 6122.21   7
   2   1  17 70091.4 5033.78   5
   2   1  18 4469.91 1312.72   5
  -2  -1 -18 6801.41 1937.39   1
   2   1  18 6579.82 1769.44   7
   2   1  19 3538.66 1177.10   5
   2   1  19 2261.38 1196.13   7
  -2  -1 -19 4249.68 1567.68   1
   2   1  20 2357.72 1206.09   5
   2   1  21 5518.39 1906.91   5
   2   2 -21 2197.57 1094.04   3
  -2  -2  21 2536.84 1198.70   5
  -2  -2  20 8286.67 1728.24   5
   2   2 -20 6849.31 1689.64   3
   2   2 -19 28242.3 3332.31   3
  -2  -2  19 37610.5 3756.62   5
   2   2 -18 45687.0 3980.82   3
  -2  -2  18 52022.7 4261.58   5
   2   2 -17 37790.2 3375.09   3
  -2  -2  17 37063.2 3540.21   5
  -2  -2  16 47661.3 3838.10   5
   2   2 -16 46750.6 3523.45   3
  -2  -2  15 1803.28 877.701   5
   2   2 -15 1375.89 563.546   3
   2   2 -14 20024.3 2069.70   3
  -2  -2  14 21572.0 2466.96   5
   2   2 -13 17239.5 1823.11   3
  -2  -2  13 16714.2 2075.85   5
  -2  -2  12 5606.94 1230.43   5
   2   2 -12 9476.08 1256.66   3
  -2  -2  11 107676. 4872.98   5
   2   2 -11 107966. 4138.17   3
  -2  -2  10 6945.99 1253.97   5
  -2  -2  10 7384.86 502.901   4
   2   2 -10 8088.46 1117.73   3
  -2  -2   9 1697.23 645.821   5
  -2  -2   9 2205.63 302.965   4
   2   2  -9 2683.67 620.586   3
  -2  -2   8 72906.5 1886.05   4
   2   2  -8 74508.0 3030.76   3
  -2  -2   7 4187.80 491.499   4
   2   2  -7 4217.00 726.461   3
  -2  -2   7 4769.94 832.744   5
  -2  -2   6 15539.8 1003.44   4
   2   2  -6 16306.1 1378.36   3
   2   2  -6 17388.7 1539.98   7
  -2  -2   6 14200.0 1383.65   5
   2   2  -5 157988. 4626.52   7
   2   2  -5 144682. 4026.86   3
  -2  -2   5 141028. 5455.19   1
   2   2  -5 148253. 3550.91   5
  -2  -2   5 143481. 3918.15   5
  -2  -2   4 712.122 262.043   5
   2   2  -4 323.760 183.672   5
  -2  -2   4 534.145 314.352   2
  -2  -2   4 665.413 558.092   1
   2   2  -4 434.104 310.771   7
   2   2  -4 506.863 338.692   3
  -2  -2   3 33747.6 1789.75   2
   2   2  -3 40101.4 2278.39   6
  -2  -2   3 42124.5 2884.57   1
   2   2  -3 38609.3 2033.66   3
   2   2  -3 37480.6 2189.75   7
  -2  -2   3 41297.5 1497.76   5
  -2  -2   2 26191.4 1290.04   2
  -2  -2   2 26190.6 2255.05   1
   2   2  -2 26481.4 1837.28   7
   2   2  -2 25916.6 1802.47   6
   2   2  -2 25201.9 1671.69   3
  -2  -2   2 26680.2 851.727   5
   2   2  -1 12557.0 1194.80   3
  -2  -2   1 13537.1 713.268   2
  -2  -2   1 12177.5 1567.83   1
   2   2  -1 12258.2 1267.69   7
   2   2  -1 11748.0 1202.37   6
  -2  -2   0 93288.8 4210.91   1
   2   2   0 84611.6 3373.23   7
   2   2   0 84246.9 3180.41   6
  -2  -2  -1 106633. 4483.80   1
   2   2   1 104312. 3833.71   7
   2   2   1 104741. 3594.96   6
  -2  -2  -2 219862. 6474.61   1
   2   2   2 218608. 5195.52   6
  -2  -2  -2 210408. 2195.42   5
  -2  -2  -3 213953. 6457.31   1
   2   2   3 212535. 5245.16   6
  -2  -2  -3 206001. 3173.08   5
   2   2   3 223224. 2929.75   5
  -2  -2  -4 122213. 4853.65   1
   2   2   4 128811. 4799.48   7
   2   2   4 126208. 2653.48   5
   2   2   5 9473.88 668.579   2
  -2  -2  -5 9771.32 1456.25   1
   2   2   5 10497.2 1463.42   7
   2   2   5 11647.0 955.806   5
  -2  -2  -5 10691.3 1016.15   5
   2   2   6 14657.3 990.297   2
  -2  -2  -6 15472.5 1845.23   1
   2   2   6 14946.7 1818.93   7
   2   2   6 18358.7 1356.81   5
  -2  -2  -6 14091.3 1350.64   5
   2   2   7 3603.97 688.273   5
   2   2   7 2753.16 825.219   7
  -2  -2  -7 3530.98 916.685   1
   2   2   7 3799.52 653.058   2
   2   2   8 77.9219 371.317   5
   2   2   8-268.711 481.059   7
  -2  -2  -8 394.424 373.031   1
  -2  -2  -9 145103. 6071.20   1
   2   2   9 144327. 6426.48   7
   2   2   9 126035. 4947.43   5
   2   2  10 19315.7 2556.18   7
  -2  -2 -10 20456.3 2416.81   1
   2   2  10 13614.7 1784.67   5
   2   2  11-369.271 449.159   5
  -2  -2 -11-4.02204 472.128   1
   2   2  11 466.154 601.589   7
  -2  -2 -12 20508.9 2772.42   1
   2   2  12 14080.8 2376.28   7
   2   2  12 15146.8 2037.41   5
  -2  -2 -13 18080.8 2723.70   1
   2   2  13 13401.8 2505.50   7
   2   2  13 14059.9 2083.92   5
   2   2  14 1054.87 764.697   5
  -2  -2 -14 1978.86 960.160   1
   2   2  14 1350.64 958.369   7
   2   2  15 32651.0 3999.59   7
   2   2  15 29044.7 3037.24   5
  -2  -2 -15 28595.6 3768.80   1
  -2  -2 -16 6222.70 1752.00   1
   2   2  16 7536.85 2191.42   7
   2   2  16 9723.78 1839.02   5
   2   2  17 14669.1 2360.19   5
  -2  -2 -17 11412.8 2584.85   1
   2   2  17 17107.7 2971.47   7
  -2  -2 -18 14532.0 2876.15   1
   2   2  18 18021.5 2558.77   5
   2   2  18 15751.9 3128.15   7
  -2  -3  21 501.118 593.573   5
   2   3 -21-639.882 806.167   3
  -2  -3  20 5213.04 1641.73   5
   2   3 -20 3560.52 1333.76   3
  -2  -3  19 3442.41 1214.37   5
   2   3 -19 4447.51 1280.59   3
  -2  -3  18 13217.4 2121.76   5
   2   3 -18 10877.9 1997.77   3
   2   3 -17 14103.7 2013.28   3
  -2  -3  17 13400.0 2182.03   5
  -2  -3  16 3981.33 1143.04   5
   2   3 -16 4497.78 1078.61   3
   2   3 -15 70228.5 4127.56   3
  -2  -3  15 58035.6 4162.56   5
  -2  -3  14 336.883 370.447   5
   2   3 -14 514.990 416.369   3
  -2  -3  13 36.3681 378.349   5
   2   3 -13 330.772 295.910   3
   2   3 -12 53988.8 3180.19   3
  -2  -3  12 44349.3 3293.12   5
   2   3 -11 22019.1 1953.32   3
  -2  -3  11 18167.2 2081.25   5
   2   3 -10 16482.1 1670.90   3
  -2  -3  10 12974.6 1620.75   5
  -2  -3   9 823.072 435.738   5
   2   3  -9 9.82120 377.193   3
   2   3  -8 13459.7 1406.64   3
  -2  -3   8 11871.3 1302.48   5
   2   3  -7 88532.7 3560.87   3
  -2  -3   7 99783.7 3410.23   5
  -2  -3   7 89732.5 5001.12   1
   2   3  -7 100310. 4323.91   7
  -2  -3   6 148231. 6309.34   1
   2   3  -6 145280. 4500.63   3
  -2  -3   6 148655. 3712.06   5
   2   3  -6 162225. 5427.48   7
   2   3  -6 155112. 4063.61   5
   2   3  -5 283042. 7110.14   7
   2   3  -5 264054. 6000.22   3
  -2  -3   5 289667. 4469.17   5
  -2  -3   5 278660. 8551.95   1
   2   3  -5 270762. 4612.46   5
  -2  -3   4 94626.7 4930.47   1
   2   3  -4 102039. 3679.99   3
  -2  -3   4 98317.9 2180.11   5
   2   3  -4 93755.1 2209.17   5
  -2  -3   3 1824.95 231.592   5
  -2  -3   3 1935.09 752.793   1
   2   3  -3 2417.29 630.521   3
   2   3  -3 641.124 477.463   7
   2   3  -3 2425.89 594.075   6
   2   3  -2 7728.64 1033.61   6
   2   3  -2 7982.47 1061.81   3
   2   3  -2 6518.28 1125.63   7
  -2  -3   2 7264.41 1310.77   1
  -2  -3   1 34333.3 1432.19   2
   2   3  -1 33786.2 2490.54   7
   2   3  -1 37078.5 2259.89   3
  -2  -3   1 36576.8 2961.72   1
   2   3  -1 35894.6 2197.11   6
  -2  -3   0 2142.08 247.208   2
  -2  -3   0 1890.43 254.522   2
   2   3   0 1736.52 692.670   7
   2   3   0 1918.14 488.279   6
  -2  -3   0 1605.16 627.598   1
  -2  -3  -1 2227.70 935.209   1
   2   3   1 2385.01 737.943   7
   2   3   1 2463.41 588.270   6
  -2  -3  -2 10914.8 1615.20   1
   2   3   2 11455.8 1527.47   7
   2   3   2 12384.4 1279.18   6
   2   3   3 8405.33 1323.27   7
  -2  -3  -3 10930.0 1598.89   1
   2   3   3 8718.26 1132.36   6
   2   3   4 9995.49 1538.84   7
   2   3   4 8155.06 1105.45   6
   2   3   4 8151.44 595.552   5
  -2  -3  -4 7602.94 1415.76   1
   2   3   5 97105.5 2494.24   5
  -2  -3  -5 100471. 5014.87   1
   2   3   5 93097.4 4725.49   7
   2   3   5 95409.7 3918.20   6
  -2  -3  -6 522.469 370.242   1
   2   3   6-445.791 415.637   7
   2   3   6 49.0193 281.433   5
   2   3   7 6814.11 1423.04   7
  -2  -3  -7 7438.14 1466.06   1
   2   3   7 9093.76 1040.29   5
  -2  -3  -8 62978.6 4207.89   1
   2   3   8 57464.8 4204.23   7
   2   3   8 58880.3 2991.63   5
   2   3   9 44186.8 3842.25   7
   2   3   9 39146.6 2732.39   5
   2   3  10 41887.7 3861.02   7
  -2  -3 -10 45675.8 3819.77   1
   2   3  11-171.252 371.573   5
  -2  -3 -11-323.664 479.099   1
   2   3  11 238.483 503.445   7
  -2  -3 -12 4796.68 1432.92   1
   2   3  12 7469.68 1833.53   7
  -2  -3 -13 3958.36 1334.75   1
   2   3  13 5166.53 1597.26   7
  -2  -3 -14 40297.3 4374.50   1
   2   3  14 33556.0 4123.46   7
  -2  -3 -15 48450.8 5075.97   1
   2   3  15 43606.4 4883.44   7
  -2  -3 -16 15651.8 3109.72   1
   2   3  16 11386.3 2704.42   7
  -2  -4  21 380.771 819.838   5
  -2  -4  20 25314.6 3329.16   5
  -2  -4  19 679.018 546.034   5
   2   4 -19 2147.73 1021.60   3
  -2  -4  18 4082.05 1321.61   5
   2   4 -18 5248.89 1506.13   3
  -2  -4  17 2668.39 1121.14   5
   2   4 -17 2894.17 963.259   3
  -2  -4  16 9161.43 1723.31   5
   2   4 -16 14993.3 2134.40   3
  -2  -4  15 941.419 944.882   5
   2   4 -15 7506.75 1410.75   3
  -2  -4  14 3812.96 1083.33   5
   2   4 -14 6576.07 1334.98   3
   2   4 -13 24060.3 2323.03   3
  -2  -4  13 21475.7 2377.45   5
  -2  -4  12 35125.2 2816.94   5
   2   4 -12 30629.0 2508.29   3
  -2  -4  11 76.9357 264.272   5
   2   4 -11 931.810 524.956   3
  -2  -4  10 605.105 458.988   5
  -2  -4  10 424.810 543.626   1
   2   4 -10 137.161 200.051   3
   2   4  -9 37874.0 2623.82   3
  -2  -4   9 41941.2 3900.70   1
  -2  -4   9 43048.6 2510.81   5
  -2  -4   8 4029.08 1213.19   1
   2   4  -8 4687.73 957.406   3
  -2  -4   8 4677.73 740.688   5
  -2  -4   7 45092.4 3844.87   1
   2   4  -7 46552.2 3305.29   7
   2   4  -7 40142.9 2607.54   3
  -2  -4   7 41990.1 2045.74   5
   2   4  -6 121345. 5346.19   7
  -2  -4   6 121632. 6251.15   1
   2   4  -6 122661. 4464.48   3
  -2  -4   6 123505. 3122.09   5
  -2  -4   5 34009.5 1424.58   5
  -2  -4   5 35208.8 3341.14   1
   2   4  -5 33995.7 2330.07   3
   2   4  -5 36893.5 2944.29   7
   2   4  -4 21381.6 2215.00   7
  -2  -4   4 22245.4 2631.09   1
   2   4  -4 19840.1 1822.15   3
   2   4  -3 77123.8 4200.99   7
  -2  -4   3 81048.2 4979.54   1
   2   4  -3 78652.7 3587.43   3
  -2  -4   2 1386.63 366.035   2
   2   4  -2 1879.47 803.159   7
  -2  -4   2 2858.29 1047.15   1
   2   4  -2 2055.90 689.550   3
  -2  -4   1 4921.20 605.960   2
  -2  -4   1 2648.19 1048.84   1
   2   4  -1 4517.34 1106.12   7
   2   4  -1 5599.72 884.456   6
  -2  -4   0 67851.4 1774.21   2
   2   4   0 72510.6 3190.26   6
  -2  -4   0 75580.9 4751.52   1
   2   4   0 71669.1 4071.89   7
  -2  -4  -1 43375.8 3559.03   1
   2   4   1 43065.2 2469.46   6
   2   4   1 42522.8 3166.93   7
  -2  -4  -1 35926.9 951.735   2
  -2  -4  -2 22293.0 2578.81   1
   2   4   2 22915.4 2394.69   7
   2   4   2 24377.0 1862.87   6
  -2  -4  -3 15133.1 2085.33   1
   2   4   3 14115.5 1472.90   6
   2   4   3 14583.2 1974.76   7
  -2  -4  -4 38112.3 3423.97   1
   2   4   4 35686.2 2384.43   6
   2   4   4 40842.2 3334.67   7
   2   4   5 8268.53 1567.15   7
   2   4   5 8190.91 1204.61   6
  -2  -4  -5 9392.54 1693.37   1
   2   4   6 498.291 401.370   7
   2   4   6 269.928 285.795   6
  -2  -4  -6 790.459 541.459   1
   2   4   7 7731.68 1205.29   6
   2   4   7 8357.13 1693.50   7
  -2  -4  -7 7457.86 1574.61   1
   2   4   8 57941.4 4561.47   7
  -2  -4  -8 51213.4 4162.69   1
   2   4   8 61385.3 3600.13   6
   2   4   9 1609.47 941.185   7
  -2  -4  -9 3246.73 1081.70   1
  -2  -4 -10-1007.78 707.574   1
   2   4  10 638.963 873.237   7
  -2  -4 -11 62959.0 4994.27   1
   2   4  11 66365.9 5388.68   7
  -2  -4 -12 1311.12 1008.23   1
   2   4  12-402.099 685.187   7
   2   4  13 18697.9 3207.59   7
  -2  -4 -13 19633.6 3098.57   1
  -2  -4 -14 38901.5 4555.89   1
   2   4  14 44742.7 5004.93   7
  -2  -5  20 8911.80 1943.26   5
  -2  -5  19 2668.28 1195.07   5
   2   5 -18-85.2785 445.678   3
  -2  -5  18-335.471 881.197   5
   2   5 -17 6846.31 1481.58   3
  -2  -5  17 5131.01 1479.36   5
   2   5 -16 2645.59 909.276   3
  -2  -5  16 1978.53 1024.62   5
   2   5 -15 14069.0 2086.21   3
  -2  -5  15 10462.0 1835.18   5
  -2  -5  14 98103.6 5121.41   5
   2   5 -14 101828. 5169.42   3
   2   5 -13 20379.8 2296.70   3
  -2  -5  13 19835.3 3154.51   1
  -2  -5  13 17825.5 2085.88   5
  -2  -5  12 54990.8 5073.32   1
  -2  -5  12 53975.9 3383.37   5
   2   5 -12 58701.3 3745.89   3
  -2  -5  11 2795.43 1245.73   1
   2   5 -11 3297.52 876.144   3
  -2  -5  10 13418.2 2386.61   1
   2   5 -10 8498.87 1428.27   3
  -2  -5   9 3709.86 1221.61   1
   2   5  -9 1407.54 650.437   3
   2   5  -8-146.579 269.029   7
  -2  -5   8 168.291 519.664   1
   2   5  -8 259.933 239.112   3
   2   5  -7 4309.52 1158.56   7
  -2  -5   7 4583.36 1462.47   1
   2   5  -7 4385.59 980.186   3
  -2  -5   6 4.87353 555.438   1
   2   5  -6 1436.52 699.217   3
   2   5  -6 1296.20 690.870   7
  -2  -5   5-879.295 596.146   1
   2   5  -5 997.056 593.859   3
   2   5  -5-196.155 631.944   7
  -2  -5   4 101928. 6174.53   1
   2   5  -4 98518.8 5267.21   7
   2   5  -4 97240.5 4310.40   3
   2   5  -3 1112.88 583.660   3
   2   5  -3 160.772 372.805   7
  -2  -5   3-171.921 590.268   1
   2   5  -2 21174.7 2459.88   7
  -2  -5   2 18805.0 2670.56   1
  -2  -5   1 8075.02 1813.19   1
   2   5  -1 8723.72 1626.02   7
   2   5   0 54057.0 3984.61   7
   2   5   0 55852.6 2838.47   6
  -2  -5   0 54797.6 4468.07   1
  -2  -5  -1 22402.4 2869.64   1
   2   5   1 20431.0 2420.79   7
  -2  -5  -2 13066.3 2249.45   1
   2   5   2 16240.2 2208.11   7
  -2  -5  -3 35541.0 3508.70   1
   2   5   3 38404.0 3475.82   7
   2   5   4 405.650 612.594   7
  -2  -5  -4-543.714 639.177   1
  -2  -5  -5 32984.4 3461.18   1
   2   5   5 31496.2 3339.25   7
  -2  -5  -6 75574.7 5322.58   1
   2   5   6 73052.0 5174.66   7
  -2  -5  -7 11707.7 2070.20   1
   2   5   7 14587.6 2467.89   7
  -2  -5  -8 34798.3 3730.09   1
   2   5   8 36053.7 3871.53   7
  -2  -5  -9 4125.96 1433.79   1
   2   5   9 4574.58 1533.08   7
  -2  -5 -10 22689.9 3108.52   1
   2   5  10 26364.6 3636.77   7
  -2  -5 -11 464.291 342.089   1
   2   5  11-858.266 923.111   7
  -2  -5 -12 3379.98 1283.75   1
   2   5  12 1942.91 1229.04   7
   2   6 -16 7284.39 1623.13   3
  -2  -6  16 9842.68 2879.83   1
  -2  -6  15 23483.7 3787.71   1
   2   6 -15 24407.7 2847.20   3
   2   6 -14 945.371 702.195   3
  -2  -6  14 1338.78 1469.59   1
  -2  -6  13 30416.2 4198.15   1
   2   6 -13 28009.6 2841.19   3
  -2  -6  12 23823.1 3669.23   1
   2   6 -12 24110.5 2579.25   3
   2   6 -11 2212.41 826.540   3
  -2  -6  11 2530.97 1418.05   1
   2   6 -10 22110.2 2338.22   3
  -2  -6  10 23933.6 3428.63   1
  -2  -6   9 12586.6 2521.30   1
   2   6  -9 12955.2 1816.82   3
  -2  -6   8 19025.0 3087.92   1
   2   6  -8 20103.8 2691.61   7
   2   6  -8 20180.5 2127.75   3
   2   6  -7 21728.2 2831.79   7
  -2  -6   7 20543.0 3127.97   1
   2   6  -7 15641.7 1897.09   3
   2   6  -6 27371.4 2492.30   3
   2   6  -6 26699.8 3173.01   7
  -2  -6   6 30384.4 3686.22   1
  -2  -6   5-95.6331 340.808   1
   2   6  -5-443.362 434.590   7
   2   6  -5 327.072 634.374   3
  -2  -6   4-419.619 497.923   1
   2   6  -4 351.685 322.683   3
   2   6  -4-633.493 573.606   7
   2   6  -3 2172.94 1025.52   7
  -2  -6   3 2824.19 1172.48   1
  -2  -6   2 12364.8 2266.71   1
   2   6  -2 10432.8 1940.70   7
  -2  -6   1 8175.49 1971.30   1
   2   6  -1 12065.4 2004.13   7
  -2  -6   0 13005.8 2293.82   1
   2   6   0 13332.7 2261.63   7
  -2  -6  -1 9150.97 1956.57   1
   2   6   1 7192.30 1688.16   7
  -2  -6  -2 40242.7 4134.85   1
   2   6   2 32866.4 3485.56   7
   2   6   3 648.723 526.846   7
  -2  -6  -3 956.168 716.857   1
  -2  -6  -4 42568.9 4275.00   1
   2   6   4 42363.9 4135.60   7
  -2  -6  -5 37242.0 4036.53   1
   2   6   5 43076.5 4229.28   7
   2   6   6 837.990 852.466   7
  -2  -6  -6 1465.52 878.377   1
  -2  -6  -7 40626.2 4320.75   1
   2   6   7 40565.4 4269.44   7
   2   6   8 9392.30 2336.93   7
  -2  -6  -8 9905.86 2111.98   1
  -2  -6  -9 798.265 650.274   1
   2   7 -13 7777.05 1537.29   3
  -2  -7  12 5292.80 1886.26   1
   2   7 -12 6691.40 1435.44   3
  -2  -7  11 25366.7 3872.17   1
   2   7 -11 29121.6 2900.36   3
  -2  -7  10 5334.88 1784.34   1
   2   7 -10 4130.17 1107.28   3
  -2  -7   9 1450.25 1268.80   1
   2   7  -9 4133.91 1164.73   3
   2   7  -8 1018.21 1029.49   7
   2   7  -8 447.566 460.082   3
  -2  -7   8-629.319 1059.58   1
   2   7  -7 20287.7 2350.71   3
  -2  -7   7 21487.4 3330.38   1
   2   7  -7 19300.8 2877.98   7
   2   7  -6 7409.03 1859.86   7
  -2  -7   6 8796.20 2222.81   1
   2   7  -6 10420.1 1646.92   3
   2   7  -5 498.924 852.859   7
  -2  -7   5 595.546 685.346   1
  -2  -7   4 22288.7 3346.47   1
   2   7  -4 25278.3 3256.40   7
  -2  -7   3 32989.3 4049.02   1
   2   7  -3 40567.4 4088.75   7
  -2  -7   2-432.759 1068.89   1
   2   7  -2 1515.96 992.608   7
  -2  -7   1 62067.0 5562.65   1
   2   7  -1 60352.8 5065.96   7
  -2  -7   0-1120.89 750.379   1
   2   7   0 1350.41 756.713   7
   2   7   1 1125.23 984.770   7
  -2  -7  -1 599.794 708.824   1
   2   7   2 12375.2 2451.43   7
  -2  -7  -2 12001.9 2433.06   1
   2   7   3 5991.15 1681.97   7
  -2  -7  -3 5231.70 1786.52   1
   2   7   4-1118.19 952.438   7
  -2  -7  -4-858.992 957.826   1
   2   8  -9 16262.2 2285.56   3
   2   8  -8 478.328 527.389   3
   2   8  -7-293.851 521.045   3
  -3  10   1 21837.2 3243.69   7
  -3  10   0 3809.81 1475.83   7
  -3  10  -1 627.278 572.420   7
   3 -10   2 6789.80 1662.79   2
  -3  10  -2 6212.60 1682.90   7
  -3  10  -3 1286.66 1177.33   7
   3 -10   3 1701.94 1020.40   2
  -3  10  -4 938.245 632.913   4
   3 -10   4 590.582 561.368   2
  -3  10  -4 203.723 762.437   7
  -3  10  -5 14283.9 2252.81   4
   3 -10   5 11781.1 2412.83   2
  -3  10  -6 13669.4 2315.04   4
   3 -10   6 14084.5 2920.82   2
  -3  10  -7 9730.05 1990.78   4
   3 -10   7 9463.73 2224.47   2
   3 -10   8-1785.55 1087.90   2
  -3  10  -8 925.643 730.436   4
  -3  10  -9-43.6401 356.724   4
   3 -10   9 430.164 840.996   2
  -3  10 -10 3202.11 1131.77   4
  -3  10 -11 1786.80 852.416   4
  -3   9   8 6821.32 2058.74   7
  -3   9   7 1604.59 1373.74   7
  -3   9   6 3512.61 1214.04   7
   3  -9  -5 31213.5 3379.74   2
  -3   9   5 36132.8 3841.22   7
  -3   9   4-220.635 948.763   7
  -3   9   4 804.865 477.356   4
   3  -9  -4 409.803 635.318   2
  -3   9   3 2668.65 1036.26   7
  -3   9   3 3894.71 1130.05   4
   3  -9  -3 2459.41 1085.92   2
  -3   9   2 214.302 525.861   4
  -3   9   2 832.703 866.949   7
   3  -9  -2-1033.93 752.731   2
  -3   9   1 165.677 453.216   4
   3  -9  -1 636.397 552.961   2
  -3   9   1-234.360 614.651   7
  -3   9   0-138.283 817.769   7
  -3   9   0 1022.54 661.939   4
   3  -9   0 1853.32 845.025   2
  -3   9  -1 13033.5 1973.78   4
   3  -9   1 11652.6 2126.57   2
  -3   9  -1 14759.3 2379.93   7
  -3   9  -2 3899.04 1080.67   4
  -3   9  -2 2689.27 1021.32   7
   3  -9   2 3991.73 1266.56   2
  -3   9  -3-450.738 431.840   4
  -3   9  -3 645.034 572.769   7
   3  -9   3-36.0636 564.794   2
  -3   9  -4 16545.8 2140.60   4
   3  -9   4 14486.1 2569.60   2
  -3   9  -4 16654.4 2477.39   7
  -3   9  -5 56431.4 4113.13   4
   3  -9   5 56912.7 5024.76   2
   3  -9   6 21692.4 3244.38   2
  -3   9  -6 22487.3 2577.73   4
  -3   9  -7 4495.30 1287.99   4
   3  -9   7 5007.35 1622.62   2
  -3   9  -8 25022.3 2754.31   4
   3  -9   8 29133.7 3797.93   2
  -3   9  -9 1483.66 712.142   4
   3  -9   9 182.140 457.427   2
  -3   9 -10 14786.1 2274.26   4
   3  -9  10 12626.1 2548.78   2
  -3   9 -11 12790.7 2060.59   4
   3  -9  11 13926.6 2880.55   2
  -3   9 -12 4301.82 1341.00   4
   3  -9  12 4243.29 1597.26   2
  -3   9 -13 554.149 811.222   4
   3  -9  14 542.952 893.299   5
   3  -9  15 18995.8 3069.69   5
  -3   8  12 1185.64 1052.59   7
  -3   8  11 22651.7 3118.83   7
   3  -8 -10 16135.0 2701.48   1
   3  -8 -10 18583.8 2518.37   2
  -3   8  10 16705.5 2656.26   7
   3  -8  -9 545.136 965.367   1
   3  -8  -9 709.612 648.528   2
  -3   8   9 756.052 966.063   7
   3  -8  -8 13012.7 2120.20   1
  -3   8   8 12176.4 2231.69   7
   3  -8  -8 9852.86 1848.64   2
   3  -8  -7 14625.7 2142.61   1
   3  -8  -7 16215.3 2329.62   2
  -3   8   7 16678.6 2567.93   7
  -3   8   7 14880.2 2017.44   5
  -3   8   6 516.925 468.918   5
  -3   8   6 208.910 278.485   4
   3  -8  -6 539.653 648.823   1
  -3   8   6-268.975 311.710   7
   3  -8  -6 189.126 586.956   2
  -3   8   5 13422.9 1843.83   5
  -3   8   5 13288.0 1845.29   4
   3  -8  -5 9756.14 1633.19   1
  -3   8   5 12436.8 2127.66   7
   3  -8  -5 15733.9 2231.21   2
  -3   8   4 5751.47 1255.24   4
   3  -8  -4 5476.26 1307.50   1
  -3   8   4 6105.03 1537.60   7
   3  -8  -4 6967.86 1592.44   2
  -3   8   3 46046.7 3335.08   4
   3  -8  -3 42634.3 3254.93   1
   3  -8  -3 45221.7 3807.48   2
  -3   8   3 51096.5 4153.42   7
  -3   8   2 22613.0 2348.03   4
   3  -8  -2 22984.1 2373.23   1
   3  -8  -2 24013.0 2831.37   2
  -3   8   2 21134.3 2603.16   7
  -3   8   1 31770.9 2790.30   4
   3  -8  -1 34757.3 3382.14   2
   3  -8  -1 30518.7 2736.85   1
  -3   8   1 30461.5 3137.53   7
  -3   8   0 387.433 407.898   7
  -3   8   0-145.095 223.387   4
   3  -8   0-726.544 489.351   2
   3  -8   0-345.333 354.004   1
  -3   8  -1 7379.52 1315.99   4
   3  -8   1 8844.06 1439.98   1
   3  -8   1 8033.70 1643.07   2
  -3   8  -1 5984.46 1366.96   7
   3  -8   2 822.853 542.779   1
  -3   8  -2 1161.26 559.100   4
  -3   8  -2 334.216 318.640   7
   3  -8   2 1089.72 983.671   2
  -3   8  -3 316.835 484.389   7
   3  -8   3-1051.54 524.989   1
  -3   8  -3 261.682 339.780   4
   3  -8   3 866.669 881.831   2
  -3   8  -4 21424.0 2338.41   4
   3  -8   4 22672.7 3050.04   2
   3  -8   4 21914.7 2345.20   1
  -3   8  -4 23205.8 2727.84   7
  -3   8  -5-741.526 423.922   4
   3  -8   5-365.206 330.134   1
   3  -8   5 19.9417 611.443   2
  -3   8  -6 13523.4 1903.10   4
   3  -8   6 12173.4 1826.19   1
   3  -8   6 14725.8 2417.44   2
   3  -8   7 93727.2 5207.99   1
  -3   8  -7 93441.8 4943.23   4
   3  -8   7 89281.4 6162.61   2
   3  -8   8 2178.05 861.099   1
  -3   8  -8 1511.30 668.620   4
   3  -8   8 821.702 745.282   2
  -3   8  -9 52701.7 3859.22   4
   3  -8   9 50443.9 4861.69   2
  -3   8 -10 9909.19 1716.32   4
   3  -8  10 10359.1 2313.24   2
  -3   8 -11 1737.44 862.144   4
   3  -8  11 3054.22 1071.19   5
  -3   8 -12 9513.34 1717.84   4
   3  -8  12 5038.22 1370.01   5
  -3   8 -13 20.5289 441.144   4
  -3   8 -13 76.1181 375.394   3
   3  -8  13 67.0808 684.345   5
  -3   8 -14 802.842 606.917   3
  -3   8 -14 580.494 522.688   4
   3  -8  14-500.146 739.733   5
  -3   8 -15 4812.36 1171.12   3
   3  -8  15 4471.10 1528.06   5
  -3   8 -16 1206.89 747.187   3
   3  -8  16 519.495 992.500   5
  -3   8 -17 15972.2 2311.38   3
  -3   7  15 1347.63 901.766   5
  -3   7  15 3778.69 1640.82   7
   3  -7 -15 3023.05 1500.08   1
   3  -7 -14 6219.75 1836.28   1
   3  -7 -14 6914.19 1564.84   2
  -3   7  14 5419.81 1619.39   5
  -3   7  14 3506.92 1696.03   7
   3  -7 -13 15305.7 2698.42   1
  -3   7  13 17772.6 2630.31   5
   3  -7 -13 15376.4 2418.02   2
  -3   7  13 14162.2 2533.77   7
  -3   7  12 9498.40 1759.76   5
   3  -7 -12 7469.79 1659.11   2
  -3   7  12 9993.53 2106.22   7
   3  -7 -12 10423.0 2192.47   1
  -3   7  11-756.308 663.427   5
   3  -7 -11 649.877 644.690   1
   3  -7 -11 432.511 545.402   2
  -3   7  11 54.6588 293.250   7
  -3   7  10 1028.56 701.735   5
   3  -7 -10 1862.04 800.997   2
  -3   7  10 316.539 445.527   7
   3  -7 -10 1828.85 920.340   1
  -3   7   9 2547.68 928.904   5
   3  -7  -9 1817.15 876.090   1
   3  -7  -9 1050.25 709.698   2
  -3   7   9 1561.54 753.325   7
  -3   7   8 7990.67 1450.40   5
  -3   7   8 6984.69 1229.13   4
   3  -7  -8 8053.51 1650.16   1
   3  -7  -8 6751.70 1523.69   2
  -3   7   8 8753.03 1688.17   7
   3  -7  -7 15402.5 2144.37   2
  -3   7   7 13170.7 1715.21   4
   3  -7  -7 13545.8 1972.07   1
  -3   7   7 14425.8 2124.40   7
  -3   7   7 13320.0 1868.70   5
  -3   7   6 8019.29 1388.67   5
  -3   7   6 9025.48 1412.26   4
   3  -7  -6 9115.74 1568.43   1
   3  -7  -6 7620.24 1486.10   2
  -3   7   6 7634.31 1518.62   7
   3  -7  -5 16104.9 1934.44   1
  -3   7   5 14689.1 1782.07   4
   3  -7  -5 16017.9 2096.87   2
  -3   7   5 14894.7 2012.72   7
   3  -7  -4 74055.0 3972.67   1
  -3   7   4 72958.2 3864.66   4
   3  -7  -4 75353.9 4632.08   2
  -3   7   4 75549.9 4543.51   7
  -3   7   3 1111.51 510.631   4
   3  -7  -3 1286.81 768.096   2
  -3   7   3 1421.44 640.145   7
   3  -7  -3 1457.12 597.571   1
   3  -7  -2 74068.4 4605.23   2
  -3   7   2 75050.5 3862.82   4
   3  -7  -2 75144.1 3785.65   1
  -3   7   2 75059.7 4421.58   7
  -3   7   1 63562.3 4068.71   7
  -3   7   1 69210.7 3720.66   4
   3  -7  -1 65440.7 4413.21   2
   3  -7  -1 65392.8 3483.60   1
  -3   7   0 4263.58 948.785   4
   3  -7   0 3379.92 1229.22   2
  -3   7   0 3759.15 1052.76   7
   3  -7   0 2425.38 720.348   1
  -3   7  -1 90465.4 4277.29   4
   3  -7   1 94835.1 5368.02   2
   3  -7   1 88130.8 4063.22   1
  -3   7  -1 94887.4 4978.88   7
  -3   7  -2 23277.2 2174.10   4
   3  -7   2 24692.1 2778.80   2
   3  -7   2 20135.8 1988.30   1
  -3   7  -2 21062.9 2338.78   7
   3  -7   3 953.401 667.256   1
  -3   7  -3 3386.18 806.151   4
  -3   7  -3 2030.48 734.213   7
   3  -7   3 1765.76 986.931   2
  -3   7  -4 40413.2 2901.35   4
   3  -7   4 38241.0 2833.27   1
   3  -7   4 38944.4 3630.33   2
  -3   7  -4 38074.2 1780.96   3
  -3   7  -4 39505.5 3224.35   7
  -3   7  -5 337.521 272.490   4
   3  -7   5-139.643 282.185   1
   3  -7   5 158.926 658.261   2
  -3   7  -5-584.098 285.136   3
   3  -7   6 23102.2 2313.24   1
   3  -7   6 24338.2 3061.87   2
  -3   7  -6 23247.6 1567.93   3
  -3   7  -6 26954.1 2441.25   4
  -3   7  -7 10166.5 1542.19   4
  -3   7  -7 7864.99 980.911   3
   3  -7   7 10097.1 1540.11   1
   3  -7   7 7795.08 1891.92   2
  -3   7  -8 43255.6 3137.35   4
   3  -7   8 44246.8 4128.00   2
   3  -7   8 41280.2 3272.45   1
  -3   7  -8 40813.4 2296.26   3
  -3   7  -9 1605.00 681.114   4
   3  -7   9 1671.58 747.085   1
  -3   7  -9 1151.94 473.119   3
   3  -7   9 1553.79 771.841   5
  -3   7 -10 375.628 381.741   4
   3  -7  10 1124.10 702.765   1
  -3   7 -10 1180.99 558.544   3
   3  -7  10 356.702 509.215   5
  -3   7 -11 7287.49 1365.32   4
  -3   7 -11 5946.24 1044.22   3
   3  -7  11 4582.54 1248.30   5
  -3   7 -12-433.476 393.662   4
  -3   7 -12-102.728 267.926   3
   3  -7  12 16.7955 618.991   5
  -3   7 -13 13043.4 1952.89   4
  -3   7 -13 12991.2 1678.50   3
   3  -7  13 12707.0 2208.07   5
  -3   7 -14 2888.63 991.115   4
  -3   7 -14 5456.08 1182.08   3
   3  -7  14 6072.36 1611.77   5
   3  -7  15 23325.3 3095.02   5
  -3   7 -15 23556.4 2513.48   3
  -3   7 -16 16826.4 2294.88   3
   3  -7  16 21438.6 3210.10   5
  -3   7 -17 2789.70 1002.13   3
   3  -7  17 4213.57 1502.20   5
  -3   7 -18 19397.0 2865.22   3
   3  -7  18 23079.5 3579.48   5
  -3   6  17 1548.83 1323.57   5
  -3   6  17 5593.13 1782.54   7
   3  -6 -17 4770.11 1434.55   2
  -3   6  16 1981.63 1098.21   7
   3  -6 -16 2749.71 1281.20   2
   3  -6 -16 3378.74 1447.90   1
  -3   6  16 1289.74 1206.55   5
  -3   6  15 6599.80 1676.10   5
  -3   6  15 9324.12 2053.49   7
   3  -6 -15 5931.04 1745.94   2
   3  -6 -15 7381.93 1886.37   1
   3  -6 -14 21276.6 2718.05   2
  -3   6  14 23394.4 3064.18   7
  -3   6  14 24530.1 3051.14   5
   3  -6 -14 22302.5 3167.91   1
   3  -6 -13 4842.81 1559.92   1
  -3   6  13 4290.41 1394.85   5
   3  -6 -13 3908.57 1183.65   2
  -3   6  13 4179.55 1315.87   7
   3  -6 -12 15857.3 2543.66   1
   3  -6 -12 15775.6 2261.20   2
  -3   6  12 15920.5 2225.35   5
  -3   6  12 12821.5 2084.89   7
   3  -6 -11 1670.81 909.011   1
  -3   6  11 573.167 413.881   5
   3  -6 -11 1234.96 649.214   2
  -3   6  11 852.783 599.885   7
   3  -6 -10 103834. 5406.13   2
   3  -6 -10 93097.3 5776.94   1
  -3   6  10 106326. 5688.66   7
  -3   6  10 106895. 5322.29   5
  -3   6   9-62.0322 203.480   5
   3  -6  -9 491.207 562.159   1
  -3   6   9 703.865 354.670   4
  -3   6   9 773.101 466.587   7
   3  -6  -9 643.583 454.665   2
  -3   6   8 197.425 441.283   5
   3  -6  -8-491.646 726.117   1
  -3   6   8-205.339 257.736   4
   3  -6  -8 574.367 537.392   2
  -3   6   8-166.113 553.371   7
  -3   6   7 10350.5 1564.63   5
   3  -6  -7 10853.8 1667.59   1
  -3   6   7 6931.50 1153.37   4
  -3   6   7 7135.13 1336.87   7
   3  -6  -7 10207.1 1652.21   2
   3  -6  -6 47.8416 198.384   1
  -3   6   6 235.266 352.534   4
   3  -6  -6 786.343 446.298   2
  -3   6   6 563.466 355.608   7
   3  -6  -5 7970.59 1418.38   2
  -3   6   5 6315.88 1059.30   4
   3  -6  -5 5673.24 1028.07   1
  -3   6   5 4813.20 1111.47   7
   3  -6  -4 40580.1 2641.41   1
  -3   6   4 38457.4 2574.01   4
   3  -6  -4 37735.1 3057.21   2
  -3   6   4 38585.4 2899.43   7
   3  -6  -3 17888.1 1691.18   1
  -3   6   3 16319.5 1646.85   4
   3  -6  -3 18618.0 2173.72   2
  -3   6   3 18759.9 1995.64   7
   3  -6  -2 45775.9 2601.67   1
  -3   6   2 47065.5 2791.06   4
   3  -6  -2 45859.4 3374.33   2
  -3   6   2 44590.5 3036.13   7
  -3   6   1 45583.5 2813.09   4
   3  -6  -1 45679.4 2550.76   1
   3  -6  -1 42442.6 3289.93   2
  -3   6   1 47120.4 3076.91   7
  -3   6   0 251444. 6486.56   4
   3  -6   0 241085. 7924.15   2
   3  -6   0 242141. 5756.58   1
   3  -6   0 224834. 3570.69   6
  -3   6   0 245504. 7126.12   7
  -3   6  -1 45282.0 2765.15   4
   3  -6   1 45850.3 3503.22   2
   3  -6   1 40943.1 2373.59   1
  -3   6  -1 39707.5 1182.30   3
  -3   6  -1 41399.5 2926.03   7
   3  -6   1 44477.2 1822.07   6
   3  -6   2 2649.85 500.635   6
   3  -6   2 1924.96 526.291   1
  -3   6  -2 2619.94 703.296   4
  -3   6  -2 2372.42 736.034   7
   3  -6   2 3339.63 992.301   2
  -3   6  -2 2403.07 345.445   3
  -3   6  -3 9456.52 749.839   3
   3  -6   3 9804.72 1224.60   1
  -3   6  -3 11645.2 1408.52   4
  -3   6  -3 9339.77 1377.76   7
   3  -6   3 9379.71 1678.19   2
  -3   6  -4 2252.81 622.261   4
   3  -6   4 1929.49 862.997   2
  -3   6  -4 2000.13 373.142   3
   3  -6   4 2834.26 719.346   1
   3  -6   5 8021.90 1711.90   2
  -3   6  -5 9538.80 1312.76   4
   3  -6   5 9180.44 1277.21   1
  -3   6  -5 10322.8 914.618   3
   3  -6   6 38110.5 2638.59   1
  -3   6  -6 39262.6 2715.64   4
   3  -6   6 39684.0 3516.74   2
  -3   6  -6 37870.6 1870.07   3
   3  -6   7 8829.15 1356.92   1
  -3   6  -7 10448.6 1428.87   4
  -3   6  -7 9968.34 1036.31   3
   3  -6   7 10009.3 1501.51   5
  -3   6  -8 21438.4 2072.88   4
   3  -6   8 19024.7 2144.40   5
  -3   6  -8 19553.1 1574.85   3
  -3   6  -9 789.213 497.295   4
   3  -6   9 1199.09 680.074   5
  -3   6  -9 881.525 403.451   3
  -3   6 -10 128306. 5290.90   4
  -3   6 -10 131455. 4638.83   3
   3  -6  10 133020. 5981.90   5
  -3   6 -11 1704.84 710.943   4
   3  -6  11 414.587 658.972   5
  -3   6 -11 1512.84 724.955   3
  -3   6 -12 1909.68 676.509   4
   3  -6  12 2211.65 1062.72   5
  -3   6 -12 2101.06 743.967   3
   3  -6  13 17810.3 2463.88   5
  -3   6 -13 13078.0 1830.37   4
  -3   6 -13 13458.3 1750.78   3
  -3   6 -14 17332.4 2181.00   3
  -3   6 -14 16064.9 2065.50   4
   3  -6  14 20938.8 2851.65   5
  -3   6 -15 4077.58 1241.97   3
  -3   6 -15 5293.74 1162.71   4
   3  -6  15 6132.93 1721.68   5
  -3   6 -16 469.682 376.823   3
   3  -6  16 584.430 651.166   5
  -3   6 -17 1653.58 912.511   3
   3  -6  17 3038.52 1246.73   5
  -3   6 -18 10992.5 1984.82   3
   3  -6  18 12175.9 2551.19   5
  -3   6 -19 8814.32 1962.58   3
  -3   5  19 2212.20 1645.43   7
   3  -5 -18 11812.8 2281.61   2
  -3   5  18 9130.90 2304.67   5
  -3   5  18 5461.87 1816.71   7
   3  -5 -18 13220.5 2354.91   1
  -3   5  17 967.136 888.829   5
  -3   5  17-624.487 580.144   7
   3  -5 -17 1439.42 897.680   2
   3  -5 -17 1450.00 989.097   1
  -3   5  16 5801.50 1613.21   5
   3  -5 -16 6172.87 1494.88   2
  -3   5  16 6044.64 1643.13   7
   3  -5 -16 6916.38 1674.26   1
  -3   5  15 7553.83 1745.97   5
   3  -5 -15 8810.79 1807.27   2
  -3   5  15 7955.90 1733.30   7
   3  -5 -15 7085.20 1688.75   1
   3  -5 -14 38930.7 3524.81   2
  -3   5  14 39665.6 3777.45   5
  -3   5  14 29307.0 3258.73   7
   3  -5 -14 39095.5 3973.70   1
  -3   5  13 2814.73 978.956   5
   3  -5 -13 4248.09 1201.17   2
  -3   5  13 2388.19 888.386   7
   3  -5 -13 3220.16 1174.27   1
  -3   5  12 8384.91 1601.14   5
   3  -5 -12 6368.43 1379.89   2
  -3   5  12 5870.84 1324.69   7
   3  -5 -12 3759.51 1141.36   1
   3  -5 -11 61768.4 4056.78   2
  -3   5  11 62476.6 4134.28   7
  -3   5  11 59497.2 3985.05   5
   3  -5 -11 60560.5 4605.81   1
  -3   5  10 2273.74 760.892   5
  -3   5  10 3820.74 981.731   7
  -3   5  10 3409.16 714.467   4
   3  -5 -10 4377.00 1140.80   2
   3  -5  -9 44069.6 3318.11   2
  -3   5   9 47713.1 2676.04   4
  -3   5   9 46587.7 3294.78   7
   3  -5  -9 45976.9 3711.77   1
  -3   5   9 42020.6 3183.29   5
  -3   5   8 147829. 5626.14   7
   3  -5  -8 148527. 5913.66   2
  -3   5   8 154426. 4731.22   4
   3  -5  -8 140286. 2958.10   3
  -3   5   8 143663. 5662.81   5
   3  -5  -8 140513. 6181.27   1
   3  -5  -7 56593.5 3668.04   1
   3  -5  -7 50416.2 3449.81   2
  -3   5   7 50443.3 2729.41   4
  -3   5   7 54361.5 3281.38   7
   3  -5  -7 47398.7 1397.84   3
  -3   5   7 55910.2 3451.55   5
   3  -5  -6 13989.6 1722.41   1
   3  -5  -6 10419.3 1597.54   2
  -3   5   6 13802.5 1400.72   4
   3  -5  -6 7216.44 412.011   3
  -3   5   6 10597.6 1379.57   7
   3  -5  -6 8783.81 420.816   3
   3  -5  -5 50730.4 2952.22   1
   3  -5  -5 43582.8 3068.46   2
  -3   5   5 45620.2 2509.96   4
  -3   5   5 46444.3 2829.18   7
  -3   5   5 43608.9 2047.22   6
   3  -5  -4 10786.2 1268.05   1
  -3   5   4 9151.28 1147.91   4
   3  -5  -4 8336.15 1362.11   2
  -3   5   4 6778.68 1087.87   7
  -3   5   4 9401.95 882.599   6
   3  -5  -3 1793.25 657.791   2
  -3   5   3 2003.06 532.649   4
   3  -5  -3 1265.79 477.671   1
  -3   5   3 448.673 292.851   7
   3  -5  -2 65671.0 2650.56   1
  -3   5   2 64568.6 2987.24   4
   3  -5  -2 59582.7 3586.21   2
  -3   5   2 60246.1 3119.09   7
  -3   5   2 59325.1 2732.16   1
   3  -5  -2 58318.1 2068.70   6
   3  -5  -1 42596.0 1843.19   6
   3  -5  -1 44568.6 2085.33   1
  -3   5   1 46898.2 2557.01   4
   3  -5  -1 44849.3 3154.24   2
  -3   5   1 40909.5 2163.70   1
  -3   5   1 42888.8 2561.62   7
  -3   5   0 18033.5 1608.21   4
   3  -5   0 17288.8 2029.96   2
   3  -5   0 15378.1 1186.75   1
   3  -5   0 17345.1 1248.31   6
  -3   5   0 14194.5 1486.61   7
  -3   5  -1 24146.8 1871.32   4
  -3   5  -1 21715.9 1843.50   7
   3  -5   1 22845.1 2365.62   2
   3  -5   1 24209.4 1496.99   1
  -3   5  -1 21921.5 789.950   3
   3  -5   1 24438.2 1538.73   6
  -3   5  -2 79629.7 3406.56   4
   3  -5   2 73612.4 4248.01   2
   3  -5   2 74266.0 2690.52   1
  -3   5  -2 74326.8 1690.03   3
  -3   5  -2 77843.8 3554.48   7
   3  -5   2 75362.1 2785.74   6
  -3   5  -3 4171.70 849.842   4
  -3   5  -3 4151.09 461.861   3
   3  -5   3 4248.23 1010.19   2
   3  -5   3 3891.74 686.527   1
  -3   5  -4 880.182 422.540   4
   3  -5   4 2006.95 793.534   2
   3  -5   4 918.550 390.728   1
  -3   5  -4 1208.94 274.821   3
   3  -5   5 2688.71 672.280   1
  -3   5  -5 2740.06 689.614   4
   3  -5   5 2505.60 843.625   2
  -3   5  -5 2722.08 486.470   3
  -3   5  -6 136306. 4782.23   4
   3  -5   6 129119. 5017.92   5
  -3   5  -6 140383. 3730.41   3
  -3   5  -7 25909.4 2132.03   4
  -3   5  -7 26900.1 1807.44   3
   3  -5   7 25106.9 2287.38   5
  -3   5  -8 3069.63 753.816   4
   3  -5   8 2084.17 707.635   5
  -3   5  -8 3286.13 727.527   3
   3  -5   9 94046.8 4655.46   5
  -3   5  -9 86762.0 3810.80   3
  -3   5  -9 88330.8 4148.07   4
  -3   5 -10 6651.00 1159.22   4
   3  -5  10 7143.36 1373.09   5
  -3   5 -10 4244.11 1041.23   3
  -3   5 -11 50214.8 3265.84   4
  -3   5 -11 46950.0 3189.19   3
   3  -5  11 52300.7 3805.61   5
  -3   5 -12 115849. 5097.06   4
   3  -5  12 125360. 6041.08   5
  -3   5 -13 14378.8 1829.44   4
  -3   5 -13 13670.7 1884.18   3
   3  -5  13 19795.9 2472.82   5
  -3   5 -14 13669.0 1808.96   4
  -3   5 -14 13537.5 1868.73   3
   3  -5  14 16367.7 2501.18   5
  -3   5 -15 5497.49 1223.47   4
  -3   5 -15 6532.25 1371.42   3
   3  -5  15 8360.01 1816.58   5
  -3   5 -16 11668.0 1663.76   4
  -3   5 -16 9506.91 1671.90   3
   3  -5  16 12946.7 2379.70   5
  -3   5 -17-763.302 724.340   3
   3  -5  17 855.363 763.708   5
   3  -5  18 5820.57 1697.40   5
  -3   5 -18 4768.72 1324.15   3
  -3   5 -19 9531.09 1915.53   3
   3  -5  19 6398.13 1988.19   5
  -3   5 -20 17963.8 2500.51   3
   3  -4 -20 766.753 775.188   1
  -3   4  20-396.354 564.734   7
  -3   4  19 31170.1 3774.15   7
   3  -4 -19 25946.6 3335.97   1
  -3   4  19 29994.8 4036.66   5
  -3   4  18 2228.91 1145.41   5
  -3   4  18 3146.73 1263.84   7
   3  -4 -18 2859.65 1238.61   1
  -3   4  17 9056.24 2137.10   5
   3  -4 -17 12793.8 2305.88   2
  -3   4  17 11726.5 2235.72   7
   3  -4 -17 17318.9 2650.10   1
  -3   4  16 11345.8 2200.04   5
   3  -4 -16 10220.4 1945.78   2
  -3   4  16 9236.72 1865.93   7
   3  -4 -16 12272.6 2107.26   1
  -3   4  15-949.117 682.935   5
   3  -4 -15-174.712 681.726   2
  -3   4  15-49.4647 233.811   7
   3  -4 -15 606.113 717.516   1
  -3   4  14 7299.56 1551.15   5
   3  -4 -14 12642.8 2056.64   2
  -3   4  14 7983.07 1642.18   7
   3  -4 -14 7126.43 1197.56   3
   3  -4 -14 8744.36 1793.33   1
   3  -4 -13 16081.4 2095.33   2
  -3   4  13 15636.3 2092.42   7
   3  -4 -13 14743.7 2196.22   1
  -3   4  13 14495.3 2069.52   5
   3  -4 -13 9191.49 1391.17   3
  -3   4  12 529.228 494.333   5
   3  -4 -12 354.512 436.658   1
   3  -4 -12-504.313 582.484   2
  -3   4  12 185.442 364.232   7
   3  -4 -12 340.124 312.365   3
  -3   4  11 523.216 448.856   5
   3  -4 -11-353.014 363.697   2
  -3   4  11-95.1120 339.137   7
   3  -4 -11 551.567 535.333   1
   3  -4 -11-75.8623 188.277   3
   3  -4 -10 58176.8 3645.96   2
  -3   4  10 53672.8 2627.42   4
  -3   4  10 57748.1 3485.94   7
   3  -4 -10 59011.6 2541.85   3
  -3   4  10 54381.8 3554.04   5
   3  -4 -10 65802.6 4261.07   1
   3  -4  -9 146035. 5627.05   2
  -3   4   9 153688. 4246.13   4
   3  -4  -9 151068. 3567.49   3
  -3   4   9 157164. 5427.79   7
  -3   4   9 153250. 5730.09   5
   3  -4  -8 160058. 5766.19   2
  -3   4   8 159034. 4262.78   4
  -3   4   8 167449. 5338.82   7
   3  -4  -8 162177. 3242.27   3
  -3   4   8 155545. 5647.04   5
   3  -4  -8 170476. 6383.38   1
   3  -4  -7 81678.6 1953.45   3
   3  -4  -7 83410.2 4087.55   2
  -3   4   7 79564.8 3005.71   4
  -3   4   7 81994.9 3533.15   7
  -3   4   7 85723.7 4083.73   5
   3  -4  -7 85530.5 4358.31   1
   3  -4  -6 10333.1 1443.44   2
  -3   4   6 9933.14 1071.95   4
  -3   4   6 9494.72 1161.49   7
   3  -4  -6 9281.64 548.621   3
   3  -4  -6 10501.4 1547.30   1
   3  -4  -5 57.1148 389.823   1
  -3   4   5-141.943 274.835   7
  -3   4   5 143.155 264.037   4
   3  -4  -5 136.163 344.074   2
   3  -4  -5 17.0461 46.6565   3
   3  -4  -4 30532.7 2373.87   2
  -3   4   4 30372.0 1867.83   4
  -3   4   4 30301.7 1813.15   1
  -3   4   4 31601.2 1930.92   7
  -3   4   4 31254.9 1834.31   6
   3  -4  -4 31665.0 2120.96   1
   3  -4  -3 29076.4 1834.06   1
   3  -4  -3 23542.9 2083.40   2
  -3   4   3 27869.5 1787.31   4
  -3   4   3 24425.2 1495.16   1
  -3   4   3 24974.9 1566.36   6
   3  -4  -3 23997.9 1542.62   6
  -3   4   3 27020.4 1764.62   7
   3  -4  -2 92973.3 4125.18   2
  -3   4   2 95796.6 3337.07   4
  -3   4   2 92636.4 2708.46   1
  -3   4   2 91658.6 3172.82   7
   3  -4  -2 87527.8 2949.50   6
  -3   4   1 2508.60 533.221   7
   3  -4  -1 2809.35 412.051   1
  -3   4   1 2260.15 387.711   1
  -3   4   1 2570.78 568.632   4
   3  -4  -1 2007.83 718.637   2
   3  -4  -1 2455.32 491.592   6
  -3   4   0 354.330 258.649   4
   3  -4   0-186.646 146.648   1
  -3   4   0 44.9396 188.677   7
   3  -4   0-31.4118 531.979   2
   3  -4   0-94.3240 117.030   6
  -3   4  -1 245718. 5529.79   4
   3  -4   1 230018. 6714.98   2
   3  -4   1 216792. 3003.55   1
  -3   4  -1 228713. 5086.18   7
  -3   4  -1 235094. 2681.75   3
   3  -4   1 225893. 4910.51   6
  -3   4  -2 51970.5 2595.95   4
   3  -4   2 48039.4 3147.10   2
   3  -4   2 44990.7 1513.38   1
  -3   4  -3 48717.5 2581.01   4
   3  -4   3 53411.5 3349.73   2
   3  -4   3 46656.6 1766.68   1
   3  -4   3 52835.3 1585.58   1
  -3   4  -4 56729.1 2849.90   4
   3  -4   4 57098.9 3511.89   2
   3  -4   4 54093.0 2934.05   5
   3  -4   4 65120.9 2129.90   1
  -3   4  -5 19099.6 1719.44   4
   3  -4   5 19220.2 1815.16   5
   3  -4   5 22953.5 1515.32   1
  -3   4  -6 71240.5 3383.20   4
   3  -4   6 70298.1 3504.52   5
   3  -4   6 79608.1 3245.50   1
  -3   4  -7 1922.00 602.953   4
   3  -4   7 1345.34 642.300   5
  -3   4  -8 122.910 260.868   4
   3  -4   8 1100.16 500.786   5
  -3   4  -9 1422.03 523.676   4
   3  -4   9 290.597 476.555   5
  -3   4 -10 43924.4 2973.30   4
   3  -4  10 45917.1 3302.37   5
  -3   4 -11 118200. 5065.71   4
   3  -4  11 133623. 5835.09   5
  -3   4 -12 92957.6 4599.20   4
   3  -4  12 113393. 5652.94   5
  -3   4 -13 37657.0 2988.88   4
   3  -4  13 60628.2 4308.73   5
  -3   4 -14 1413.72 588.150   4
   3  -4  14 2940.46 1218.01   5
  -3   4 -15 7490.48 1348.77   4
   3  -4  15 7174.36 1696.91   5
  -3   4 -16-162.227 482.012   4
   3  -4  16-853.273 732.536   5
  -3   4 -17 785.034 555.512   3
   3  -4  17-515.100 776.338   5
  -3   4 -18 30754.7 3120.40   3
   3  -4  18 23554.3 3527.78   5
   3  -4  19 881.008 778.344   5
  -3   4 -19-289.389 609.208   3
   3  -4  20 2710.29 1271.52   5
  -3   4 -20 1182.71 932.530   3
  -3   3  21 5254.24 1579.85   7
  -3   3  20 6074.14 1884.97   5
  -3   3  20 2859.25 1199.76   7
   3  -3 -20 5061.54 1509.70   1
  -3   3  19 6133.93 1878.63   5
  -3   3  19 2909.86 1185.51   7
   3  -3 -19 3595.22 1177.16   1
   3  -3 -19 4699.64 1120.57   3
  -3   3  18 28208.7 3313.93   7
   3  -3 -18 26622.2 2678.37   3
   3  -3 -18 29377.0 3441.84   1
  -3   3  18 27489.8 3753.39   5
  -3   3  17 28766.4 3300.39   7
   3  -3 -17 24542.5 2507.17   3
   3  -3 -17 31764.2 3335.02   1
  -3   3  17 27113.1 3640.97   5
   3  -3 -16 76302.7 5264.77   2
  -3   3  16 71481.7 5067.52   7
   3  -3 -16 64345.4 4014.25   3
   3  -3 -16 80187.7 5209.55   1
  -3   3  16 75152.5 5741.67   5
   3  -3 -15 30038.9 3192.07   2
  -3   3  15 24506.7 2812.07   7
   3  -3 -15 31693.7 3137.14   1
  -3   3  15 34823.6 3678.93   5
   3  -3 -14 43268.8 3596.12   2
  -3   3  14 35000.2 3171.21   7
   3  -3 -14 44429.7 3694.96   1
  -3   3  14 44516.8 3857.63   5
   3  -3 -13 15921.9 2075.38   2
   3  -3 -13 18773.5 2294.65   1
  -3   3  13 16333.6 2196.30   5
   3  -3 -13 12981.6 1552.67   3
  -3   3  13 13902.1 1853.51   7
  -3   3  12 5695.71 1215.93   5
   3  -3 -12 5618.48 1163.12   2
  -3   3  12 6399.56 1219.89   7
   3  -3 -12 7278.59 1375.58   1
   3  -3 -12 5069.60 877.876   3
   3  -3 -11 20970.0 2207.37   2
  -3   3  11 13921.5 1152.09   4
  -3   3  11 17643.0 1875.27   7
   3  -3 -11 18102.2 1530.17   3
   3  -3 -11 17028.3 2077.77   1
  -3   3  11 17883.0 2063.42   5
  -3   3  10 2323.18 701.726   5
  -3   3  10 1892.73 402.775   4
   3  -3 -10 3193.68 902.279   2
  -3   3  10 2009.82 632.127   7
   3  -3 -10 3789.77 971.686   1
   3  -3 -10 2595.32 621.963   3
   3  -3  -9 107018. 4596.06   2
  -3   3   9 97675.6 2973.60   4
  -3   3   9 103847. 4020.58   7
  -3   3   9 96688.6 4375.82   5
   3  -3  -9 107292. 3045.34   3
   3  -3  -9 89456.3 4413.92   1
   3  -3  -8 10158.7 1391.52   2
  -3   3   8 11070.5 986.696   4
   3  -3  -8 12682.6 946.039   3
  -3   3   8 11766.4 1283.24   7
   3  -3  -8 8560.27 1296.25   1
  -3   3   8 8890.43 1272.74   5
   3  -3  -7 9738.99 1354.65   2
  -3   3   7 9091.31 870.158   4
   3  -3  -7 9081.21 733.151   3
  -3   3   7 9349.43 1045.71   7
   3  -3  -7 7616.07 1259.87   1
  -3   3   7 9654.11 1277.69   5
   3  -3  -6 59101.9 3173.27   2
  -3   3   6 57415.1 2258.29   4
   3  -3  -6 56366.7 1615.35   3
  -3   3   6 58638.8 2397.68   7
  -3   3   5 32635.8 1890.78   1
   3  -3  -5 31289.0 2258.85   2
  -3   3   5 28894.2 1605.32   4
   3  -3  -5 33102.0 1660.12   7
   3  -3  -5 31363.2 1075.87   3
  -3   3   5 31584.6 1643.02   7
   3  -3  -5 32601.8 2070.63   1
  -3   3   4 1908.17 406.365   4
   3  -3  -4 1917.13 272.234   3
   3  -3  -4 2157.08 662.786   2
  -3   3   4 2448.98 463.085   1
   3  -3  -4 1916.70 369.347   7
  -3   3   4 1731.63 359.296   7
   3  -3  -4 1945.36 495.201   6
   3  -3  -4 1939.31 508.179   1
  -3   3   3 152942. 3062.19   1
   3  -3  -3 148589. 4717.82   2
  -3   3   3 144245. 3673.33   4
  -3   3   3 140810. 3099.52   7
   3  -3  -3 150509. 3135.66   7
   3  -3  -3 150750. 4180.27   6
  -3   3   3 151784. 1803.93   3
   3  -3  -3 158801. 3207.46   1
   3  -3  -2 81341.4 3472.88   2
  -3   3   2 87386.8 2947.38   4
  -3   3   2 83133.0 1834.63   1
   3  -3  -2 86907.7 2337.43   7
  -3   3   2 84468.0 2302.86   7
  -3   3   2 85831.3 3043.85   6
   3  -3  -2 88500.7 3169.83   6
  -3   3   2 83180.7 1313.35   3
   3  -3  -2 91159.9 1833.28   1
   3  -3  -1 56293.0 2928.25   2
  -3   3   1 55056.0 2398.92   4
   3  -3  -1 54543.7 1887.90   7
  -3   3   1 56121.6 1902.76   7
  -3   3   1 57259.2 1276.80   3
   3  -3  -1 56938.3 2554.55   6
   3  -3   0 63171.0 3182.73   2
  -3   3   0 60297.3 2599.97   4
   3  -3   0 61738.5 2120.55   7
   3  -3   0 61884.8 2674.53   6
   3  -3   1 2606.85 458.744   7
  -3   3  -1 2315.54 530.074   4
   3  -3   1 2885.60 594.807   6
   3  -3   1 2126.56 683.839   2
  -3   3  -2 210596. 5166.52   4
   3  -3   2 210518. 5926.56   2
   3  -3   2 211788. 4419.55   7
   3  -3   3 158187. 2693.30   1
  -3   3  -3 150251. 4488.68   4
   3  -3   3 144970. 5024.29   2
   3  -3   3 151863. 3994.33   7
   3  -3   4 364000. 5316.80   1
  -3   3  -4 359904. 7210.50   4
   3  -3   4 354950. 7069.39   5
  -3   3  -5 149433. 4802.60   4
   3  -3   5 152535. 4723.11   5
   3  -3   6 36537.1 2341.82   1
  -3   3  -6 42232.1 2644.10   4
   3  -3   6 41105.9 2557.51   5
  -3   3  -6 42277.1 1961.75   1
  -3   3  -7 12906.6 1504.24   4
   3  -3   7 12268.2 1456.14   5
  -3   3  -7 12816.0 1232.44   1
  -3   3  -8 3160.61 649.610   1
  -3   3  -8 3796.21 864.970   4
   3  -3   8 4553.15 944.365   5
  -3   3  -9 2285.21 741.601   4
  -3   3  -9 2291.79 611.853   1
   3  -3   9 1357.18 542.719   5
  -3   3 -10 2289.07 657.158   1
  -3   3 -10 1313.49 585.111   4
   3  -3  10 1647.64 594.107   5
  -3   3 -11 70298.8 4036.61   4
  -3   3 -11 62974.3 3641.94   1
  -3   3 -12 2765.47 828.069   4
   3  -3  12 4050.25 1056.46   5
  -3   3 -12 3254.27 879.072   1
  -3   3 -13 1683.34 654.544   4
  -3   3 -13 2432.98 835.177   1
   3  -3  13 2051.20 767.483   5
  -3   3 -14 15242.6 1982.54   4
   3  -3  14 18136.4 2525.95   5
  -3   3 -14 14657.1 2055.66   1
  -3   3 -15 14065.7 1884.82   4
  -3   3 -15 14465.9 2063.62   1
   3  -3  15 12781.1 2227.27   5
  -3   3 -16 1170.19 594.239   4
  -3   3 -16-34.7264 298.613   1
   3  -3  16 313.786 527.865   5
  -3   3 -17 35543.5 3038.65   4
   3  -3  17 22263.4 3104.29   5
   3  -3  18 15207.4 2720.49   5
   3  -3  19 16846.0 2941.44   5
   3  -3  20 7183.82 2026.84   5
   3  -2 -22 3289.63 1242.69   3
  -3   2  21 2320.43 1212.27   7
   3  -2 -21 1661.75 984.575   3
  -3   2  20 3881.04 1441.93   5
  -3   2  20 4005.46 1292.13   7
   3  -2 -20 2429.48 1012.30   3
  -3   2  19 2100.02 1262.22   5
  -3   2  19 2054.11 930.722   7
   3  -2 -19 592.530 754.629   3
  -3   2  18 6722.40 1787.73   5
  -3   2  18 7222.90 1647.92   7
   3  -2 -18 5725.44 1364.26   3
  -3   2  17 120456. 6263.10   7
  -3   2  17 113170. 7295.22   5
  -3   2  16 24460.9 2738.91   7
   3  -2 -16 17683.3 2232.74   3
  -3   2  16 26784.3 3442.88   5
   3  -2 -15 38952.5 3654.49   2
  -3   2  15 37416.4 3260.38   7
   3  -2 -15 35865.8 2954.82   3
  -3   2  15 36275.7 3746.95   5
  -3   2  14 13235.0 2209.47   5
   3  -2 -14 12843.8 2048.39   2
  -3   2  14 14730.9 1961.89   7
   3  -2 -14 11939.7 1587.67   3
  -3   2  13 214.533 478.575   7
  -3   2  13 2538.46 984.142   5
   3  -2 -13 1809.18 1045.90   2
   3  -2 -13 1688.27 735.952   1
   3  -2 -13 2149.07 616.477   3
  -3   2  12-343.485 423.667   5
  -3   2  12-238.590 309.561   7
   3  -2 -12 340.977 455.121   2
   3  -2 -12 262.687 333.760   1
   3  -2 -12-40.0421 232.089   3
   3  -2 -11 80677.0 4265.31   2
  -3   2  11 72613.8 2099.44   4
   3  -2 -11 79952.3 3168.15   3
  -3   2  11 72929.2 3702.34   7
  -3   2  11 79579.9 4257.45   5
  -3   2  10 541.699 503.613   5
  -3   2  10 442.659 208.127   4
   3  -2 -10 838.251 519.907   2
   3  -2 -10 804.682 398.051   4
   3  -2 -10 1022.48 511.149   1
  -3   2  10 839.376 430.695   7
   3  -2 -10 968.897 324.523   3
   3  -2  -9 41910.2 2822.04   2
  -3   2   9 38521.0 1562.13   4
   3  -2  -9 46075.3 2199.55   4
  -3   2   9 41238.0 2384.57   7
   3  -2  -9 44872.2 2040.63   3
  -3   2   9 38830.6 2683.01   5
   3  -2  -8 67231.4 3380.92   2
  -3   2   8 62173.5 2649.78   7
  -3   2   8 56545.1 1880.34   4
   3  -2  -8 63105.5 2549.62   4
   3  -2  -8 59147.2 2198.57   3
  -3   2   8 65890.1 3347.27   5
   3  -2  -7 104087. 4075.25   2
  -3   2   7 106212. 2636.18   4
   3  -2  -7 110880. 3365.79   4
  -3   2   7 112901. 3143.40   7
  -3   2   7 103279. 4082.43   5
   3  -2  -7 108115. 2754.98   3
   3  -2  -6 134290. 4455.30   2
  -3   2   6 144545. 3122.77   4
   3  -2  -6 138198. 3779.74   4
  -3   2   6 141001. 3081.91   7
   3  -2  -6 139888. 2919.01   3
  -3   2   6 146933. 2960.66   3
  -3   2   6 128416. 4359.02   5
   3  -2  -5 1688.34 413.307   4
  -3   2   5 671.675 224.196   4
   3  -2  -5 657.455 309.333   2
  -3   2   5 851.072 211.176   7
   3  -2  -5 472.703 275.578   6
   3  -2  -5 331.202 152.426   3
  -3   2   5 856.323 212.029   3
  -3   2   5 1363.47 461.931   1
  -3   2   4 37073.3 1308.17   3
   3  -2  -4 32418.0 2098.91   2
  -3   2   4 35278.7 1660.55   4
   3  -2  -4 37367.6 2007.99   4
  -3   2   4 32473.5 1020.75   7
   3  -2  -4 34857.6 1356.11   3
   3  -2  -4 33472.5 2141.01   6
   3  -2  -3 147922. 4286.40   2
  -3   2   3 153218. 3632.61   4
   3  -2  -3 151749. 4441.32   6
   3  -2  -3 151604. 2750.90   3
  -3   2   3 165991. 2816.33   3
  -3   2   3 172055. 3427.71   1
   3  -2  -2 22134.9 1650.62   2
  -3   2   2 20891.7 1396.46   4
  -3   2   2 24864.9 1113.34   3
  -3   2   2 24840.4 1020.90   1
   3  -2  -1 1659.66 204.978   7
  -3   2   1 1329.31 232.855   1
   3  -2  -1 1434.01 479.565   2
  -3   2   1 1497.41 393.399   4
  -3   2   1 1701.06 301.095   3
  -3   2   0 3778.44 318.073   1
  -3   2   0 3442.30 450.763   3
   3  -2   0 4070.58 763.622   2
  -3   2   0 4174.53 691.809   4
   3  -2   0 4021.67 411.029   7
  -3   2  -1 11499.4 597.171   1
   3  -2   1 10877.9 1226.57   2
  -3   2  -1 10554.1 1139.20   4
   3  -2   1 10945.4 650.164   1
  -3   2  -2 42201.9 1459.22   1
   3  -2   2 40279.3 2357.04   2
  -3   2  -2 38459.8 2284.84   4
   3  -2   2 34947.4 1332.47   1
  -3   2  -3 372096. 7410.78   4
   3  -2   3 367191. 4939.00   1
   3  -2   3 379620. 7272.11   2
   3  -2   3 384242. 6705.72   5
   3  -2   4 102397. 2951.56   1
  -3   2  -4 106860. 4125.68   4
   3  -2   4 109278. 3671.09   5
  -3   2  -4 96506.1 3231.09   1
   3  -2   5 156014. 4085.81   1
  -3   2  -5 153021. 5150.03   4
   3  -2   5 151668. 4478.24   5
  -3   2  -5 144597. 4407.85   1
  -3   2  -6 4141.66 812.350   1
  -3   2  -6 4324.99 903.841   4
   3  -2   6 5693.79 928.422   5
  -3   2  -7 5958.09 1134.28   4
   3  -2   7 6342.44 1044.45   5
  -3   2  -7 5409.05 1014.56   1
  -3   2  -8-64.2769 214.136   4
   3  -2   8 116.219 324.058   5
  -3   2  -8 185.912 204.772   1
  -3   2  -9 47184.2 3320.01   4
   3  -2   9 53362.8 3208.22   5
  -3   2 -10 13132.6 1777.69   4
  -3   2 -10 16348.2 1992.74   1
   3  -2  10 15314.1 1815.58   5
   3  -2  11 55070.0 3606.16   5
  -3   2 -11 56622.0 3753.26   1
  -3   2 -12 36942.8 3063.80   4
  -3   2 -12 44660.7 3382.76   1
   3  -2  12 45778.5 3483.05   5
  -3   2 -13 32147.9 2916.91   4
   3  -2  13 36195.6 3303.02   5
  -3   2 -13 40789.1 3360.98   1
  -3   2 -14 30303.2 2871.56   4
   3  -2  14 30076.9 3116.56   5
  -3   2 -14 32300.3 3045.86   1
  -3   2 -15 1660.82 789.152   4
  -3   2 -15 1881.24 787.467   1
   3  -2  15 2222.63 968.226   5
  -3   2 -16 742.792 602.891   4
  -3   2 -16 2430.22 975.142   1
   3  -2  16 321.645 872.512   5
  -3   2 -17 57888.8 4063.44   4
  -3   2 -17 60433.2 4514.20   1
  -3   2 -18 414.350 534.841   1
   3  -2  18 2744.90 1241.78   5
  -3   2 -19 4249.42 1390.31   1
   3  -2  19 1336.67 906.543   5
  -3   2 -20 6136.34 1524.38   1
   3  -2  20 5339.16 1649.58   5
  -3   2 -21-611.518 635.602   1
  -3   1  22 1126.84 1009.50   7
   3  -1 -22-114.963 671.902   3
  -3   1  21-804.430 822.253   5
  -3   1  21 1640.76 1001.41   7
   3  -1 -21 1436.17 991.055   3
  -3   1  20 1375.64 1095.28   5
  -3   1  20 1254.17 718.753   7
   3  -1 -20 1917.02 1035.74   3
  -3   1  19 8190.85 2042.69   5
  -3   1  19 7989.80 1664.74   7
   3  -1 -19 4781.08 1368.65   3
  -3   1  18 23448.3 2825.30   7
  -3   1  18 22358.4 3121.93   5
   3  -1 -18 17174.8 2389.81   3
  -3   1  17 9693.97 2164.08   5
   3  -1 -17 6856.70 1568.70   3
  -3   1  16 8045.41 1875.34   5
   3  -1 -16 11409.5 1755.84   3
  -3   1  15 30880.1 3455.16   5
   3  -1 -15 30455.9 2665.63   3
  -3   1  14 12164.6 2155.64   5
   3  -1 -14 10947.8 1509.08   3
   3  -1 -13 39187.0 3348.78   2
   3  -1 -13 38926.3 2579.14   3
  -3   1  13 39390.5 3516.71   5
   3  -1 -12 12618.6 1789.44   2
   3  -1 -12 14890.1 1493.16   3
  -3   1  12 16388.5 2119.40   5
   3  -1 -11 38286.5 3004.84   2
   3  -1 -11 35461.2 2159.44   3
  -3   1  11 36596.1 2945.93   5
   3  -1 -10 48932.7 3180.93   2
   3  -1 -10 46106.5 2329.90   3
  -3   1  10 44859.4 3005.95   5
   3  -1  -9 37635.1 2666.39   2
  -3   1   9 31963.0 1088.93   4
   3  -1  -9 35996.7 1947.82   3
  -3   1   9 36931.1 2577.12   5
  -3   1   8 4980.56 930.086   5
  -3   1   8 5421.28 490.918   4
   3  -1  -8 4623.07 681.158   3
   3  -1  -8 4604.49 899.176   2
   3  -1  -7 27133.7 2032.06   2
  -3   1   7 25874.5 1155.45   4
   3  -1  -7 25923.7 1493.76   3
  -3   1   7 24598.8 1896.93   5
  -3   1   6 1134.21 403.834   5
  -3   1   6 1283.80 291.814   4
   3  -1  -6 1071.04 418.360   2
   3  -1  -6 1457.19 367.037   3
   3  -1  -5 471397. 7577.77   2
  -3   1   5 457632. 5707.51   4
   3  -1  -5 472724. 5999.07   3
   3  -1  -4 86343.5 3123.71   2
   3  -1  -4 90035.0 2569.66   3
  -3   1   4 88953.8 2676.50   4
   3  -1  -3 337564. 5888.22   2
  -3   1   3 338993. 5612.30   4
   3  -1  -3 352305. 4967.58   3
  -3   1   2 4527.84 578.101   3
   3  -1  -2 3344.81 602.215   2
  -3   1   2 4007.22 651.693   4
  -3   1   2 2901.75 554.043   2
   3  -1  -2 3711.97 548.683   3
  -3   1   2 3973.45 640.499   1
  -3   1   1 15321.4 1138.64   1
   3  -1  -1 12573.5 1078.64   2
  -3   1   1 11851.9 1109.92   2
  -3   1   1 12942.9 1233.71   4
   3  -1  -1 12310.9 585.451   7
  -3   1   1 13179.0 993.404   3
   3  -1   0 33036.7 1721.53   2
  -3   1   0 37451.8 1978.45   2
  -3   1   0 35308.8 2147.84   4
  -3   1   0 33505.5 1642.89   1
   3  -1   0 35965.4 1793.54   1
   3  -1   0 34579.1 1240.11   7
   3  -1   1 4675.08 672.354   2
  -3   1  -1 5267.97 666.109   1
   3  -1   1 5444.16 609.672   7
   3  -1   1 5363.52 735.932   1
  -3   1  -1 5633.46 728.333   5
   3  -1   2 39958.9 1868.42   7
  -3   1  -2 36001.0 1732.86   1
   3  -1   2 37804.5 1985.42   2
   3  -1   2 39118.9 1968.47   1
  -3   1  -3 7523.43 846.856   1
   3  -1   3 8028.30 915.410   2
   3  -1   3 7986.58 920.305   1
   3  -1   3 8574.52 986.142   7
   3  -1   3 8899.49 975.870   5
  -3   1  -4 18295.1 1394.57   1
   3  -1   4 18868.3 1453.91   5
  -3   1  -5 121348. 3863.45   1
   3  -1   5 118484. 3753.82   5
  -3   1  -6 27800.5 2026.54   1
   3  -1   6 27288.2 1922.67   5
  -3   1  -7 63159.7 3351.96   1
   3  -1   7 61417.1 3013.94   5
  -3   1  -8 2166.87 684.335   1
   3  -1   8 2878.35 706.208   5
   3  -1   9 99954.1 4290.97   5
  -3   1  -9 94323.9 4781.06   1
   3  -1  10 71252.4 3832.94   5
  -3   1 -10 62547.3 4165.26   1
  -3   1 -11 64589.6 4439.24   1
   3  -1  11 76181.3 4213.36   5
  -3   1 -12 587.548 647.932   1
   3  -1  12 788.201 461.857   5
   3  -1  13 5882.14 1310.62   5
  -3   1 -13 6787.54 1587.58   1
  -3   1 -14 355.466 684.731   1
   3  -1  14 356.898 507.126   5
   3  -1  15 72612.7 5329.80   7
  -3   1 -15 71116.8 4634.63   4
  -3   1 -15 79915.9 5427.56   1
  -3   1 -16 27121.2 2948.85   4
   3  -1  16 31362.6 3610.14   7
  -3   1 -16 25211.4 3059.56   1
   3  -1  17 60319.6 5148.34   7
  -3   1 -17 55085.5 4173.46   4
  -3   1 -17 63450.7 4948.92   1
   3  -1  18 3719.94 1160.08   7
  -3   1 -18 1268.61 741.660   1
   3  -1  18 1912.58 1137.61   5
   3  -1  19 2408.39 1168.82   7
   3  -1  19 3263.75 1234.10   5
  -3   1 -19 2666.67 1084.10   1
  -3   1 -20 4647.87 1422.82   1
   3  -1  20 5534.17 1800.13   5
   3   0 -22 3333.36 1174.26   3
  -3   0  21 1638.89 890.686   5
   3   0 -21 1503.17 1072.43   3
  -3   0  20 15607.7 2446.60   5
   3   0 -20 8253.73 1805.70   3
  -3   0  19 2320.62 1255.67   5
   3   0 -19 3052.50 1120.76   3
  -3   0  18 49781.1 4447.08   5
   3   0 -18 34677.8 3441.75   3
   3   0 -17 18257.6 2339.94   3
  -3   0  17 20976.4 2920.47   5
  -3   0  16 9149.14 1989.20   5
   3   0 -16 7132.83 1379.10   3
  -3   0  15 14756.5 2384.25   5
   3   0 -15 13374.7 1759.60   3
   3   0 -14 41047.9 2865.33   3
  -3   0  14 41269.6 3888.53   5
   3   0 -13 48425.8 2919.14   3
  -3   0  13 42606.4 3853.29   5
   3   0 -12 27285.8 2088.39   3
  -3   0  12 27300.3 2873.81   5
   3   0 -11 61266.1 2967.67   3
  -3   0  11 67141.7 4174.29   5
   3   0 -10 19093.0 2130.42   2
   3   0 -10 17536.0 1516.46   3
  -3   0  10 18969.1 2054.50   5
  -3   0   9-284.654 227.898   5
   3   0  -9-40.0460 171.067   2
  -3   0   9 78.1647 34.5253   4
   3   0  -9-244.438 179.528   3
  -3   0   8 2002.07 658.115   5
   3   0  -8 1897.21 600.569   2
  -3   0   8 2419.44 529.735   7
  -3   0   8 1445.78 260.819   4
   3   0  -8 1370.69 383.930   3
   3   0  -7 17262.4 1690.17   2
  -3   0   7 16801.4 1254.25   7
  -3   0   7 16572.6 993.932   4
  -3   0   7 17801.2 1585.02   5
   3   0  -7 16866.4 1329.39   3
  -3   0   6 166330. 3553.95   4
  -3   0   6 158160. 3437.73   7
   3   0  -6 160997. 4020.85   3
  -3   0   6 167261. 4552.04   5
   3   0  -5 12199.4 1247.35   2
  -3   0   5 9921.90 816.096   7
   3   0  -5 10719.2 1051.35   3
  -3   0   5 9787.61 1047.04   5
  -3   0   4 423414. 4930.28   7
   3   0  -4 424466. 6302.26   3
   3   0  -3 30134.0 1653.58   2
  -3   0   3 27154.9 1596.00   2
   3   0  -3 26675.8 1596.22   3
  -3   0   3 27647.8 1263.76   7
   3   0  -3 24951.7 1214.39   7
  -3   0   3 27880.9 2035.37   1
   3   0  -2 17230.5 1142.49   2
  -3   0   2 15511.1 1142.32   2
   3   0  -2 16229.6 1005.07   7
  -3   0   2 16865.9 1002.55   7
   3   0  -2 15515.2 1246.06   3
  -3   0   2 17187.2 1563.57   1
   3   0  -1 49188.5 1791.19   2
  -3   0   1 47917.8 1919.01   2
   3   0  -1 48520.0 1796.10   7
  -3   0   1 50485.3 1844.98   7
  -3   0   1 49641.5 2595.65   1
   3   0   0 4159.72 503.903   2
  -3   0   0 4314.92 592.054   7
  -3   0   0 4439.31 755.362   1
   3   0   0 2437.29 436.085   7
  -3   0   0 3648.51 519.146   2
  -3   0   0 3640.01 530.037   5
   3   0   1 8959.44 715.614   2
   3   0   1 9274.83 905.632   7
  -3   0  -1 8386.55 1047.36   1
  -3   0  -1 8996.72 932.426   7
  -3   0  -1 9568.12 832.740   5
   3   0   2 123483. 2697.63   2
  -3   0  -2 129495. 4112.20   1
   3   0   2 123866. 3594.30   7
   3   0   2 119876. 4254.58   6
  -3   0  -2 126200. 3003.78   5
  -3   0  -3 93012.4 3529.71   1
   3   0   3 97326.4 2603.79   2
   3   0   3 96383.1 2881.36   5
   3   0   3 93258.2 3363.58   7
  -3   0  -3 95239.2 2702.22   5
   3   0   4 4140.33 788.072   7
  -3   0  -4 3235.21 719.037   1
   3   0   4 5126.21 742.277   5
  -3   0  -5 20410.2 1767.69   1
   3   0   5 22485.2 1561.40   5
  -3   0  -6 92516.5 3926.04   1
   3   0   6 90893.7 3348.64   5
  -3   0  -7 15588.0 1711.40   1
   3   0   7 13181.9 1762.58   7
   3   0   7 16228.7 1498.57   5
  -3   0  -8 33376.8 2650.99   1
   3   0   8 29167.4 2729.33   7
   3   0   8 35755.8 2360.82   5
  -3   0  -9 39734.0 3072.02   1
   3   0   9 31031.7 2960.20   7
   3   0   9 37155.9 2580.78   5
  -3   0 -10 53734.0 3828.63   1
   3   0  10 47039.2 3821.64   7
   3   0  10 56352.6 3385.37   5
  -3   0 -11 7725.85 1568.08   1
   3   0  11 6946.95 1639.93   7
   3   0  11 8902.63 1472.82   5
  -3   0 -12 713.133 954.531   1
   3   0  12 609.655 680.019   7
   3   0  12 609.470 571.929   5
   3   0  13 39510.5 3928.84   7
   3   0  13 34741.4 3314.26   5
  -3   0 -13 35134.7 3717.60   1
   3   0  14 37484.7 3970.35   7
   3   0  14 34931.2 3542.64   5
  -3   0 -14 42170.2 4214.73   1
  -3   0 -15 515.622 558.960   1
   3   0  15 2167.48 989.144   7
   3   0  15 1753.14 1203.69   5
   3   0  16 119110. 7352.67   7
  -3   0 -16 112326. 7119.90   1
   3   0  17 66.7242 399.022   7
  -3   0 -17 942.015 756.965   1
   3   0  17-521.439 516.641   5
   3   0  18 848.389 1217.23   7
  -3   0 -18 1294.57 1038.20   1
   3   0  18 1206.76 1044.12   5
  -3   0 -19 1385.28 1096.98   1
   3   0  19 965.818 1377.25   5
   3   0  20 1824.57 1476.58   5
  -3  -1  21-496.469 454.749   5
   3   1 -21 1289.51 970.932   3
  -3  -1  20 580.133 521.715   5
   3   1 -20 2410.40 1277.07   3
  -3  -1  19 3082.49 1115.69   5
   3   1 -19 2998.01 1344.64   3
   3   1 -18 25754.7 2939.18   3
  -3  -1  18 29002.8 3246.46   5
  -3  -1  17-484.301 585.202   5
   3   1 -17 399.665 490.765   3
  -3  -1  16-884.696 785.000   5
   3   1 -16 300.603 360.560   3
  -3  -1  15 1891.16 935.266   5
   3   1 -15 1568.08 736.171   3
   3   1 -14 62956.5 3600.66   3
  -3  -1  14 65802.2 4668.31   5
  -3  -1  13 661.866 446.762   5
   3   1 -13 811.590 461.392   3
   3   1 -12 333995. 7578.50   3
  -3  -1  12 359691. 10419.5   5
  -3  -1  11-301.262 410.337   5
   3   1 -11 64.9374 123.172   3
  -3  -1  10 28068.0 800.330   4
  -3  -1  10 32124.9 988.776   4
   3   1 -10 32321.0 2173.36   3
  -3  -1  10 31264.1 2887.46   5
  -3  -1   9 1384.01 571.716   5
  -3  -1   9 718.963 169.120   4
  -3  -1   9 678.222 196.116   4
   3   1  -9 597.869 319.466   3
   3   1  -8 9828.54 1111.15   3
  -3  -1   8 9496.77 1393.10   5
  -3  -1   7 1661.10 552.665   5
   3   1  -7 2654.05 604.036   3
  -3  -1   6 46833.7 2489.98   5
   3   1  -6 39056.8 2182.69   3
   3   1  -5 12282.3 1221.28   3
   3   1  -5 11888.4 1125.65   7
   3   1  -5 12852.2 1497.16   6
  -3  -1   5 14535.1 1759.72   1
  -3  -1   5 12019.4 1162.90   5
  -3  -1   4 6315.62 786.409   2
  -3  -1   4 6128.74 790.321   7
  -3  -1   4 6368.34 1164.97   1
   3   1  -4 6675.75 874.561   3
   3   1  -4 5621.48 800.117   7
   3   1  -4 4256.54 859.676   6
  -3  -1   4 5849.50 732.527   5
  -3  -1   3 4512.76 617.179   2
  -3  -1   3 4046.35 678.594   7
   3   1  -3 4970.14 735.655   7
  -3  -1   3 4150.88 916.379   1
   3   1  -3 3804.65 798.395   6
   3   1  -3 3993.70 725.341   3
  -3  -1   3 4166.36 581.307   5
  -3  -1   2 227413. 3823.75   2
   3   1  -2 226478. 4966.99   7
  -3  -1   2 235937. 6682.19   1
   3   1  -2 241912. 5358.20   3
   3   1  -2 241638. 6217.74   6
  -3  -1   2 225118. 3781.86   5
   3   1  -1 6090.16 994.751   6
  -3  -1   1 6156.75 566.286   2
   3   1  -1 7780.00 944.057   7
  -3  -1   1 6550.88 611.354   5
  -3  -1   1 7010.88 1170.34   1
  -3  -1   0 19832.6 872.046   2
   3   1   0 20727.7 1820.46   6
  -3  -1   0 20434.4 1949.41   1
  -3  -1   0 22180.9 1044.53   5
   3   1   0 20746.4 1562.63   7
   3   1   1 24878.7 1785.30   7
  -3  -1  -1 24574.2 2152.41   1
  -3  -1  -1 22942.7 1052.34   5
   3   1   1 22564.7 1931.28   6
  -3  -1  -2 296564. 7315.49   1
   3   1   2 290354. 6363.79   7
   3   1   2 288192. 6869.48   6
  -3  -1  -2 296358. 3974.29   5
   3   1   3 4046.29 835.321   6
  -3  -1  -3 4183.69 535.699   5
  -3  -1  -3 5484.01 1023.77   1
   3   1   4 14523.3 637.069   2
  -3  -1  -4 18785.7 1888.83   1
   3   1   4 13742.0 676.952   2
   3   1   4 17984.3 1200.76   5
   3   1   4 15919.1 1672.97   6
  -3  -1  -4 20268.4 1306.66   5
  -3  -1  -5 3591.22 623.916   5
   3   1   5 2673.52 727.325   7
   3   1   5 2483.07 383.229   2
  -3  -1  -5 3351.99 832.156   1
   3   1   5 3600.57 602.352   5
   3   1   6 83541.8 2442.22   2
  -3  -1  -6 89790.5 4256.13   1
   3   1   6 87969.6 4380.09   7
   3   1   6 87007.4 3123.30   5
   3   1   7 5708.52 1266.25   7
   3   1   7 5208.43 695.957   2
  -3  -1  -7 5850.15 1105.28   1
   3   1   7 6214.21 942.115   5
  -3  -1  -8 309638. 8511.96   1
   3   1   8 302712. 8969.17   7
   3   1   8 322873. 6914.73   5
  -3  -1  -9 8324.70 1517.26   1
   3   1   9 9540.16 1676.14   7
   3   1   9 9152.95 1246.68   5
  -3  -1 -10 17144.5 2289.49   1
   3   1  10 16301.9 1761.93   5
   3   1  11 183.850 729.016   7
  -3  -1 -11 307.099 707.668   1
   3   1  11 595.456 528.160   5
  -3  -1 -12 28361.8 3240.20   1
   3   1  12 22827.0 3009.39   7
   3   1  12 28718.4 2818.33   5
   3   1  13-21.9585 768.327   7
  -3  -1 -13 1414.41 893.421   1
   3   1  13-1121.62 1130.85   5
  -3  -1 -14 4706.42 1577.46   1
   3   1  14 5430.84 1633.10   7
   3   1  14 3498.59 1118.07   5
  -3  -1 -15 1461.73 1156.29   1
   3   1  15-1075.39 973.393   7
   3   1  15 344.371 564.180   5
  -3  -1 -16 3908.19 1474.00   1
   3   1  16 2187.18 1119.05   7
   3   1  16 2986.50 1329.02   5
  -3  -1 -17 579.943 973.663   1
   3   1  17 1909.87 1180.50   7
   3   1  17 2487.30 1224.96   5
  -3  -1 -18 31233.9 4015.71   1
   3   1  18 22387.2 3071.26   5
  -3  -2  21 965.939 978.731   5
   3   2 -21 265.408 590.391   3
   3   2 -20 32169.3 3602.67   3
  -3  -2  20 31160.0 3561.03   5
  -3  -2  19 1582.27 905.007   5
   3   2 -19 858.955 735.435   3
  -3  -2  18 7565.39 1739.50   5
   3   2 -18 4758.94 1253.95   3
  -3  -2  17 194.037 464.467   5
   3   2 -17 22.5574 99.9659   3
   3   2 -16 20544.7 2329.71   3
  -3  -2  16 22982.6 2816.00   5
   3   2 -15 17537.9 2055.55   3
  -3  -2  15 15371.4 2180.40   5
  -3  -2  14-1022.21 644.624   5
   3   2 -14 426.952 302.706   3
   3   2 -13 122465. 5016.36   3
  -3  -2  13 139668. 6150.80   5
  -3  -2  12 4924.67 1148.97   5
   3   2 -12 4741.93 965.232   3
   3   2 -11 65435.2 3415.20   3
  -3  -2  11 73178.0 4192.62   5
   3   2 -10 42369.8 2659.19   3
  -3  -2  10 45814.6 3275.67   5
  -3  -2   9 8186.60 1397.46   5
   3   2  -9 9570.05 1262.13   3
  -3  -2   8 394.750 360.412   5
   3   2  -8 1684.57 577.556   3
   3   2  -7 33088.5 2213.40   3
  -3  -2   7 30652.4 2925.50   1
  -3  -2   7 30382.2 2374.06   5
  -3  -2   6 135712. 6050.88   1
   3   2  -6 132844. 4384.12   3
  -3  -2   6 118932. 4427.11   5
  -3  -2   5 4245.80 779.362   5
  -3  -2   5 5970.27 1297.10   1
   3   2  -5 4960.55 948.188   6
   3   2  -5 5304.12 883.644   3
  -3  -2   4 33673.9 1784.35   2
   3   2  -4 32587.9 2173.65   3
  -3  -2   4 32971.7 2844.28   1
   3   2  -4 35045.6 2498.88   6
  -3  -2   4 28081.8 1840.30   5
  -3  -2   3 55642.3 2037.73   2
   3   2  -3 54278.3 2793.42   3
  -3  -2   3 58229.5 3809.07   1
   3   2  -3 56321.2 3172.12   6
  -3  -2   2 1972.12 394.152   5
  -3  -2   2 1222.50 275.788   2
   3   2  -2 417.523 311.890   6
   3   2  -2 779.088 450.374   3
  -3  -2   2 952.745 179.646   5
  -3  -2   2 743.503 546.570   1
  -3  -2   1 4235.10 344.334   2
   3   2  -1 4460.30 871.144   6
   3   2   0 162653. 5289.13   6
  -3  -2   0 165237. 6261.15   1
  -3  -2  -1 21238.8 2263.95   1
   3   2   1 19309.1 1844.08   6
   3   2   1 16873.1 1701.15   7
  -3  -2  -2 30624.8 2695.84   1
   3   2   2 25889.3 2165.38   6
   3   2   2 25499.9 2220.57   7
  -3  -2  -2 23406.2 945.467   5
   3   2   3 10360.7 1455.39   7
  -3  -2  -3 9926.71 1570.40   1
   3   2   3 8400.51 1237.73   6
  -3  -2  -3 9244.70 776.025   5
  -3  -2  -4 77155.2 4301.73   1
   3   2   4 73416.5 3960.16   7
   3   2   4 73812.3 3773.68   6
   3   2   4 71998.1 2059.96   5
  -3  -2  -4 70275.2 2467.42   5
   3   2   5 29983.4 2646.61   7
  -3  -2  -5 26395.2 2557.69   1
   3   2   5 28879.9 2461.79   6
   3   2   5 27444.3 1458.28   5
  -3  -2  -5 32841.6 1880.37   5
   3   2   6 2965.79 978.242   7
  -3  -2  -6 4719.80 1164.29   1
   3   2   6 3780.85 616.219   5
  -3  -2  -7 166565. 6579.92   1
   3   2   7 176652. 6936.22   7
   3   2   7 180031. 4544.62   5
  -3  -2  -8 32236.3 3009.15   1
   3   2   8 34230.4 3189.55   7
   3   2   8 32010.3 2078.11   5
  -3  -2  -9 61178.7 4245.56   1
   3   2   9 65810.8 4674.56   7
   3   2   9 66022.9 3262.94   5
  -3  -2 -10 8683.22 1659.22   1
   3   2  10 12483.9 2091.10   7
   3   2  10 10219.2 1368.50   5
  -3  -2 -11-904.526 555.473   1
   3   2  11 168.142 307.893   5
  -3  -2 -12 1022.37 883.712   1
   3   2  12-16.4568 340.853   7
   3   2  12 232.818 454.244   5
  -3  -2 -13 6469.21 1654.50   1
   3   2  13 3552.45 1448.17   7
  -3  -2 -14 66875.5 5687.73   1
   3   2  14 65017.5 5757.74   7
  -3  -2 -15 2838.19 1280.22   1
   3   2  15 2992.24 1404.25   7
  -3  -2 -16 9126.76 2275.66   1
   3   2  16 11732.5 2643.60   7
  -3  -3  21 58277.9 4950.24   5
  -3  -3  20 6190.09 1712.08   5
   3   3 -20 5946.74 1688.39   3
   3   3 -19 48953.3 4287.00   3
  -3  -3  19 45226.1 4166.95   5
  -3  -3  18 263.174 457.559   5
   3   3 -18-1104.21 732.030   3
  -3  -3  17 1747.81 558.394   5
   3   3 -17-66.5206 288.182   3
  -3  -3  16 1531.92 862.774   5
   3   3 -16 1314.73 722.595   3
  -3  -3  15 6304.46 1525.78   5
   3   3 -15 9403.07 1528.55   3
  -3  -3  14-487.544 469.490   5
   3   3 -14 138.993 405.717   3
  -3  -3  13 6130.76 1405.02   5
   3   3 -13 6638.88 1342.93   3
  -3  -3  12 2010.62 790.191   5
   3   3 -12 3024.59 833.365   3
   3   3 -11 57326.3 3405.15   3
  -3  -3  11 48894.5 3293.53   5
   3   3 -10 37406.3 2697.01   3
  -3  -3  10 31220.7 2530.02   5
   3   3  -9 16143.6 1746.74   3
  -3  -3   9 16745.2 2410.01   1
  -3  -3   9 16016.9 1677.53   5
  -3  -3   8 4583.85 804.112   5
  -3  -3   8 4215.79 1326.98   1
   3   3  -8 3710.19 857.548   3
   3   3  -7 105841. 4686.77   7
   3   3  -7 102361. 4187.54   3
  -3  -3   7 105352. 5920.00   1
  -3  -3   7 107220. 3562.80   5
   3   3  -6 6664.53 1119.66   3
   3   3  -6 7442.17 1266.01   7
  -3  -3   6 6090.56 762.988   5
  -3  -3   6 4978.37 1395.96   1
   3   3  -5 41714.2 2904.02   7
  -3  -3   5 39079.4 3445.37   1
   3   3  -5 36083.7 2486.14   3
  -3  -3   5 39517.8 1583.09   5
  -3  -3   4 5741.62 1342.87   1
   3   3  -4 5522.70 1052.65   7
   3   3  -4 5417.88 1027.90   6
   3   3  -4 6671.41 1107.87   3
  -3  -3   4 5402.05 452.408   5
  -3  -3   3 25106.5 1350.04   2
   3   3  -3 23193.5 2178.40   7
  -3  -3   3 23758.2 2730.19   1
   3   3  -3 24947.3 2073.26   3
   3   3  -3 23269.2 2093.09   6
   3   3  -2-616.781 455.787   3
  -3  -3   2 48.4290 88.4214   2
  -3  -3   2-767.412 728.934   1
   3   3  -2-114.036 355.676   6
   3   3  -2-558.898 450.660   7
  -3  -3   1 235150. 8395.36   1
   3   3  -1 242988. 7016.39   7
   3   3  -1 248044. 6790.45   6
   3   3   0 18467.4 1865.75   6
  -3  -3   0 20556.2 2512.52   1
   3   3   0 22726.7 2236.53   7
   3   3   1 150620. 5731.43   7
  -3  -3  -1 150167. 6628.97   1
   3   3   1 139213. 5082.09   6
  -3  -3  -2-238.616 519.092   1
   3   3   2 38.3631 280.314   7
   3   3   2-303.568 364.497   6
   3   3   3 9120.40 1561.73   7
   3   3   3 8244.96 1251.06   6
  -3  -3  -3 8670.42 1599.81   1
  -3  -3  -4 12905.5 2050.82   1
   3   3   4 13139.3 1856.75   7
   3   3   4 11534.2 1512.18   6
   3   3   5 21.3742 436.245   7
   3   3   5 880.091 634.317   6
  -3  -3  -5 219.832 387.482   1
   3   3   6 7524.67 1531.66   7
   3   3   6 5498.69 1219.94   6
  -3  -3  -6 5546.09 1401.54   1
   3   3   7 6968.39 1563.00   7
  -3  -3  -7 9937.52 1789.34   1
   3   3   7 7972.95 1385.52   6
  -3  -3  -8 1591.65 842.608   1
   3   3   8 2140.98 973.937   7
   3   3   8 1440.32 607.872   6
  -3  -3  -9 29358.6 3185.57   1
   3   3   9 28966.3 3339.76   7
   3   3  10 23230.7 3148.84   7
  -3  -3 -10 23407.1 2972.58   1
  -3  -3 -11 5361.67 1415.80   1
   3   3  11 4828.50 1523.36   7
  -3  -3 -12 1919.34 998.139   1
   3   3  12 2147.99 1080.52   7
  -3  -3 -13 55014.9 5051.02   1
   3   3  13 42560.5 4725.50   7
  -3  -3 -14 3520.71 1347.33   1
   3   3  14 2359.80 1311.22   7
  -3  -4  20 14016.8 2499.44   5
  -3  -4  19-858.652 575.794   5
  -3  -4  18 19764.0 2827.97   5
   3   4 -18 21972.3 2847.33   3
  -3  -4  17 3774.86 1317.30   5
   3   4 -17 4590.49 1406.26   3
  -3  -4  16 5430.54 1502.22   5
   3   4 -16 10524.0 1814.30   3
   3   4 -15 32863.7 3090.26   3
  -3  -4  15 27545.3 2992.24   5
  -3  -4  14 461.918 618.955   5
   3   4 -14 469.560 477.977   3
  -3  -4  13 36068.9 4361.63   1
   3   4 -13 40742.6 3222.19   3
  -3  -4  13 38719.4 3089.95   5
  -3  -4  12 1560.24 582.871   5
  -3  -4  12 1998.77 985.906   1
   3   4 -12 2182.79 803.820   3
  -3  -4  11 221.878 738.973   1
   3   4 -11-510.086 579.398   3
  -3  -4  10 6109.24 1619.60   1
   3   4 -10 4000.31 974.493   3
   3   4  -9 46031.1 3104.92   3
  -3  -4   9 39366.5 4040.98   1
   3   4  -8 8488.40 1594.46   7
   3   4  -8 8701.98 1371.99   3
  -3  -4   8 6906.85 1830.72   1
  -3  -4   7 76999.9 5445.20   1
   3   4  -7 79079.8 4635.26   7
   3   4  -7 75353.4 3880.63   3
  -3  -4   6 2560.85 1081.87   1
   3   4  -6 1722.85 899.704   7
   3   4  -6 2649.74 764.022   3
  -3  -4   5 14331.6 2373.51   1
   3   4  -5 10675.7 1488.93   3
   3   4  -5 15744.2 2067.37   7
   3   4  -4 35214.2 3005.86   7
  -3  -4   4 31884.4 3489.45   1
   3   4  -4 33436.8 2596.25   3
   3   4  -3 19586.6 2002.08   3
  -3  -4   3 18260.0 2605.95   1
   3   4  -3 17600.3 1920.68   6
   3   4  -3 21175.0 2352.30   7
   3   4  -2 67908.9 4187.65   7
   3   4  -2 61932.1 3484.23   6
  -3  -4   2 66708.5 4865.18   1
  -3  -4   1 38576.3 3727.87   1
   3   4  -1 36597.1 3144.23   7
   3   4  -1 37357.6 2726.93   6
  -3  -4   0 68172.4 4929.75   1
   3   4   0 59542.9 4028.14   7
   3   4   0 59516.5 3432.66   6
  -3  -4  -1 283.262 715.879   1
   3   4   1 173.819 551.428   7
   3   4   1 2.50803 387.041   6
  -3  -4  -2 37300.7 3636.51   1
   3   4   2 36456.7 3235.74   7
   3   4   2 35157.1 2663.09   6
  -3  -4  -3 20108.8 2776.31   1
   3   4   3 20618.7 2464.50   7
   3   4   3 15829.1 1810.17   6
   3   4   4 7930.17 1570.85   7
   3   4   4 6404.91 1117.03   6
  -3  -4  -4 8786.31 1748.51   1
  -3  -4  -5 37835.5 3774.43   1
   3   4   5 47330.8 3966.43   7
   3   4   5 42349.4 3105.76   6
   3   4   6 1731.95 912.936   7
  -3  -4  -6 1024.97 668.715   1
   3   4   6 1826.85 653.828   6
  -3  -4  -7 65275.3 4968.38   1
   3   4   7 60175.2 4734.78   7
  -3  -4  -8 2286.28 1117.89   1
   3   4   8 3259.87 1315.35   7
  -3  -4  -9 2697.81 1108.07   1
   3   4   9 462.856 888.597   7
  -3  -4 -10 1686.06 872.321   1
   3   4  10 626.151 839.310   7
  -3  -4 -11 1992.31 1246.61   1
   3   4  11 640.343 1198.20   7
  -3  -4 -12-1005.78 912.938   1
   3   4  12-681.268 881.487   7
  -3  -5  16 2276.54 1644.01   1
   3   5 -16 2765.55 1088.41   3
  -3  -5  15 5779.25 1955.47   1
   3   5 -15 6668.69 1488.63   3
  -3  -5  14 12085.5 2658.58   1
   3   5 -14 11434.3 1808.52   3
  -3  -5  13 325.571 900.741   1
   3   5 -13-275.670 298.423   3
  -3  -5  12 13628.2 2785.70   1
   3   5 -12 12431.4 1876.05   3
  -3  -5  11-6.54159 450.443   1
   3   5 -11 2634.22 942.352   3
   3   5 -10 41982.8 3276.22   3
  -3  -5  10 47273.8 4894.38   1
   3   5  -9 26982.1 2600.94   3
  -3  -5   9 26612.6 3588.68   1
   3   5  -8 77457.1 5019.06   7
  -3  -5   8 79240.2 6037.88   1
   3   5  -8 69885.7 4068.02   3
  -3  -5   7 16452.4 2673.22   1
   3   5  -7 23830.0 2839.92   7
   3   5  -7 21311.5 2244.19   3
   3   5  -6 11663.6 1697.24   3
   3   5  -6 10019.2 1812.17   7
  -3  -5   6 12158.4 2447.07   1
   3   5  -5 9917.69 1744.19   7
   3   5  -5 10559.1 1628.23   3
  -3  -5   5 10384.7 2092.24   1
   3   5  -4-111.786 361.356   7
  -3  -5   4-655.735 606.571   1
   3   5  -4 264.803 401.209   3
  -3  -5   3-561.949 624.022   1
   3   5  -3-103.852 215.550   7
  -3  -5   2 1449.85 855.828   1
   3   5  -2 682.347 623.315   7
  -3  -5   1 11505.2 2236.02   1
   3   5  -1 14461.1 2197.21   7
  -3  -5   0 4600.72 1354.58   1
   3   5   0 7226.33 1584.69   7
  -3  -5  -1 24357.3 3206.40   1
   3   5   1 23943.6 2861.87   7
   3   5   2 5918.05 1659.27   7
  -3  -5  -2 7811.07 1928.53   1
  -3  -5  -3 24460.8 3285.62   1
   3   5   3 20148.8 2741.37   7
   3   5   4 9152.75 1912.39   7
  -3  -5  -4 11099.5 2214.10   1
   3   5   5 15826.3 2591.37   7
  -3  -5  -5 16241.0 2595.56   1
  -3  -5  -6 37830.0 4114.88   1
   3   5   6 44611.9 4343.73   7
  -3  -5  -7 798.701 904.285   1
   3   5   7 732.222 612.696   7
   3   5   8 24513.6 3405.76   7
  -3  -5  -8 21260.5 3118.17   1
   3   5   9 17030.4 2977.46   7
  -3  -5  -9 10942.5 2243.30   1
  -3  -6  13 10949.1 2616.61   1
   3   6 -13 11298.2 1938.28   3
  -3  -6  12 8278.16 2243.95   1
   3   6 -12 8142.10 1676.37   3
  -3  -6  11 16436.2 3133.82   1
   3   6 -11 18273.8 2333.69   3
  -3  -6  10 4636.65 1641.18   1
   3   6 -10 4254.03 1150.91   3
  -3  -6   9 8265.20 2099.69   1
   3   6  -9 8687.04 1563.57   3
   3   6  -8 6407.66 1303.91   3
   3   6  -8 9222.37 1886.40   7
  -3  -6   8 7703.88 2116.73   1
  -3  -6   7 32985.0 4132.73   1
   3   6  -7 33808.4 3005.47   3
   3   6  -7 38311.9 3814.24   7
   3   6  -6 2874.56 1076.65   7
  -3  -6   6 1873.45 1055.25   1
   3   6  -6 2737.27 958.356   3
   3   6  -5 28108.5 3353.01   7
  -3  -6   5 24135.1 3453.02   1
  -3  -6   4 2631.25 1318.93   1
   3   6  -4 4302.53 1457.94   7
  -3  -6   3 395.191 1214.67   1
   3   6  -3 2853.55 1407.84   7
  -3  -6   2 51957.4 5151.11   1
   3   6  -2 53375.3 4486.32   7
  -3  -6   1 8513.15 2249.61   1
   3   6  -1 9451.74 1973.30   7
  -3  -6   0 1783.90 1130.10   1
   3   6   0 4271.69 1623.51   7
  -3  -6  -1 1366.70 893.793   1
   3   6   1 166.440 524.766   7
   3   6   2-749.931 509.544   7
  -3  -6  -2-427.956 574.683   1
   3   6   3 4340.30 1472.01   7
  -3  -6  -3 2981.05 1306.34   1
   3   6   4 18771.2 3066.77   7
  -3  -6  -4 19923.5 3052.02   1
   3   6   5 3945.56 1467.15   7
  -3  -6  -5 4118.38 1754.76   1
   3   7  -9 1299.71 801.464   3
   3   7  -8 460.268 613.042   7
   3   7  -8 585.174 506.407   3
   3   7  -7 1109.56 832.067   3
   3   7  -7 1084.26 1176.55   7
   3   7  -6 27143.5 3554.03   7
   3   7  -5 1302.80 1176.05   7
   3   7  -4-275.658 598.259   7
   3   7  -3 3200.69 1503.26   7
   3   7  -2 7401.72 1857.78   7
   3   7  -1 17775.6 2890.74   7
  -4  10   5 2020.52 1076.64   7
   4 -10  -4 8561.90 1880.47   2
  -4  10   4 6106.22 1904.31   7
   4 -10  -3 4161.92 1369.55   2
  -4  10   3 2655.56 1325.43   7
   4 -10  -2 10028.2 2140.61   2
  -4  10   2 11091.2 2152.11   7
   4 -10  -1 2801.90 1462.97   2
  -4  10   1 3308.91 1253.19   7
   4 -10   0 19918.5 3043.85   2
  -4  10   0 18594.7 2757.97   7
  -4  10  -1 21403.9 3042.55   7
   4 -10   1 24070.0 3366.60   2
  -4  10  -2 10426.4 1815.58   4
   4 -10   2 11424.2 2256.75   2
  -4  10  -2 12038.5 2229.94   7
  -4  10  -3 17269.6 2376.55   4
  -4  10  -3 19649.0 2833.94   7
   4 -10   3 15564.1 2840.85   2
  -4  10  -4 3602.85 1176.40   4
   4 -10   4 7752.31 1984.58   2
  -4  10  -5 6205.88 1483.61   4
   4 -10   5 4502.71 1795.27   2
   4 -10   6-584.481 593.617   2
  -4  10  -6-220.104 365.912   4
  -4  10  -7 916.579 889.074   4
   4 -10   7 2570.64 1168.34   2
   4 -10   8 1397.77 1400.40   2
  -4  10  -8 1790.60 902.552   4
  -4  10  -9-420.212 645.092   4
  -4  10 -10 21522.9 2999.41   4
   4  -9  -9 30687.3 3592.60   2
  -4   9   9 33166.8 3844.57   7
   4  -9  -8-193.552 488.485   2
  -4   9   8 3505.50 1315.83   7
  -4   9   7 17134.4 2359.01   4
  -4   9   7 20513.0 2933.54   7
   4  -9  -7 18352.3 2814.78   2
  -4   9   6 7869.47 1536.06   4
   4  -9  -6 11228.0 2213.13   2
  -4   9   6 10511.8 2029.56   7
  -4   9   5 29279.0 2931.66   4
   4  -9  -5 31649.1 3443.31   2
  -4   9   5 31145.4 3454.17   7
  -4   9   4 5977.49 1446.96   4
   4  -9  -4 8925.17 1984.80   2
  -4   9   4 7844.56 1690.55   7
  -4   9   3 19125.2 2355.30   4
   4  -9  -3 19410.6 2698.86   2
  -4   9   3 17061.3 2452.97   7
  -4   9   2-226.290 631.710   4
   4  -9  -2 311.556 917.803   2
  -4   9   2-425.953 460.903   7
  -4   9   1-547.199 459.536   4
  -4   9   1-119.323 566.799   7
   4  -9  -1-140.096 405.514   2
  -4   9   0 38642.1 3300.50   4
   4  -9   0 38109.1 3956.62   2
  -4   9   0 34849.2 3595.77   7
  -4   9  -1 9338.85 1643.89   4
  -4   9  -1 6740.58 1558.77   7
   4  -9   1 8549.64 1996.72   2
  -4   9  -2 25.1314 433.081   4
  -4   9  -2-213.152 559.028   7
   4  -9   2-1327.10 1155.27   2
  -4   9  -3 138.023 238.903   4
  -4   9  -3 273.141 536.522   7
   4  -9   3 1075.99 839.358   2
  -4   9  -4 11695.0 1834.00   4
   4  -9   4 9047.82 1969.44   2
  -4   9  -5-664.989 576.931   4
   4  -9   5 674.310 927.190   2
  -4   9  -6 6497.12 1438.62   4
   4  -9   6 7011.99 1931.62   2
  -4   9  -7 727.248 487.832   4
   4  -9   7 637.482 568.494   2
  -4   9  -8 8741.85 1677.74   4
   4  -9   8 6459.03 1817.75   2
  -4   9  -9 25055.7 2956.91   4
   4  -9   9 29922.1 4126.14   2
   4  -9  10 6790.25 2219.21   2
  -4   9 -10 9281.68 1774.30   4
  -4   9 -11 34308.3 3540.76   4
   4  -9  11 38242.9 4848.20   2
  -4   9 -12-9.30454 318.797   4
   4  -9  12 1988.77 1303.14   2
  -4   9 -13 12459.1 2171.62   4
  -4   9 -14 11206.6 2072.55   4
  -4   8  13 4045.74 1325.13   5
   4  -8 -13 2218.98 1097.11   2
  -4   8  12-127.802 617.326   5
   4  -8 -12-367.718 455.277   2
   4  -8 -11 27127.7 3314.44   2
  -4   8  11 22526.2 3101.50   7
  -4   8  11 22330.2 2886.45   5
  -4   8  10 44.2245 722.106   5
  -4   8  10 554.546 683.655   7
   4  -8 -10 264.928 569.371   2
  -4   8   9-953.797 703.822   5
  -4   8   9-39.6220 508.230   4
   4  -8  -9-391.255 508.629   2
  -4   8   9-37.6825 644.431   7
   4  -8  -8 56970.0 4612.31   2
  -4   8   8 59135.7 3906.88   4
  -4   8   8 64248.3 4768.91   7
  -4   8   8 62868.1 4505.62   5
  -4   8   7 17204.4 2129.01   4
  -4   8   7 18600.9 2457.58   7
   4  -8  -7 17779.6 2676.81   2
  -4   8   7 16575.5 2305.61   5
   4  -8  -6 48551.9 4150.89   2
  -4   8   6 47873.4 3458.00   4
  -4   8   6 46915.7 3917.90   7
   4  -8  -5 2525.41 968.849   2
  -4   8   5 535.441 521.203   4
  -4   8   5 1570.06 849.270   7
  -4   8   4 3988.58 1025.55   4
   4  -8  -4 6123.48 1545.50   2
  -4   8   4 3964.02 1183.75   7
  -4   8   3 7055.60 1292.66   4
   4  -8  -3 6227.43 1554.96   2
  -4   8   3 6289.71 1385.38   7
  -4   8   2 12472.7 1789.55   4
   4  -8  -2 11853.1 2072.25   2
  -4   8   2 9594.15 1689.55   7
  -4   8   1 746.804 464.539   4
  -4   8   1 1038.96 613.473   7
   4  -8  -1 81.1212 268.519   2
  -4   8   0 15424.5 1957.04   4
   4  -8   0 17631.8 2471.60   2
  -4   8   0 12385.0 1920.36   7
  -4   8  -1 12784.4 1771.54   4
  -4   8  -1 14713.6 2045.68   7
   4  -8   1 12264.0 2232.31   2
  -4   8  -2 14040.8 1873.19   4
   4  -8   2 14753.7 2378.95   2
  -4   8  -2 14559.0 2074.28   7
  -4   8  -3 68305.2 4136.78   4
   4  -8   3 74309.0 5410.59   2
  -4   8  -4 14581.2 1942.86   4
   4  -8   4 12564.5 2312.26   2
  -4   8  -5 7170.32 1344.61   4
   4  -8   5 7402.31 1788.66   2
  -4   8  -6 16790.8 2093.02   4
   4  -8   6 19308.4 2930.48   2
  -4   8  -7 437.347 608.769   4
   4  -8   7-96.4805 590.206   2
  -4   8  -8 2059.69 789.462   4
   4  -8   8 5269.01 1545.57   2
  -4   8  -9 15489.9 2098.95   4
   4  -8   9 20936.6 3281.35   2
  -4   8 -10 1807.19 728.813   4
   4  -8  10 1880.45 1145.45   2
  -4   8 -11 410.612 619.835   4
   4  -8  11-107.918 370.120   2
  -4   8 -12 43907.3 3747.25   4
   4  -8  12 51198.7 4505.20   5
  -4   8 -13 15163.6 2343.50   4
   4  -8  13 18804.9 2848.08   5
  -4   8 -14 23118.7 2776.20   4
   4  -8  14 33438.4 3885.38   5
   4  -8  15 17.7459 408.551   5
  -4   7  15 9135.83 2168.48   5
   4  -7 -15 9941.70 2179.29   2
   4  -7 -14 32574.3 3568.23   2
  -4   7  14 39448.4 3991.86   5
  -4   7  13 5855.91 1493.31   5
   4  -7 -13 4939.71 1572.05   2
  -4   7  13 5220.74 1621.47   7
  -4   7  12 18721.9 2646.06   5
   4  -7 -12 16821.3 2506.72   2
  -4   7  12 17769.5 2569.94   7
   4  -7 -11 16878.5 2593.76   2
  -4   7  11 18753.0 2478.78   7
  -4   7  11 18476.8 2457.04   5
  -4   7  10 6354.66 1459.98   5
  -4   7  10 6965.34 1258.01   4
   4  -7 -10 9273.65 1816.15   2
  -4   7  10 5882.60 1360.92   7
   4  -7  -9 18195.9 2635.98   1
  -4   7   9 12913.4 1812.86   4
   4  -7  -9 15261.8 2352.10   2
  -4   7   9 14976.9 2174.93   7
  -4   7   9 16460.4 2317.38   5
   4  -7  -8 2291.69 870.262   1
  -4   7   8 3900.79 1180.00   5
  -4   7   8 1729.68 694.422   4
   4  -7  -8 2523.58 965.631   2
  -4   7   8 2722.15 962.446   7
   4  -7  -7 13091.0 1988.99   1
  -4   7   7 17564.4 1907.11   4
  -4   7   7 13983.3 1994.35   7
   4  -7  -7 15356.7 2207.09   2
  -4   7   7 15042.2 2139.48   5
   4  -7  -6 4951.75 1152.47   1
  -4   7   6 5586.76 1187.89   4
  -4   7   6 8100.02 1444.08   7
   4  -7  -6 4878.38 1360.14   2
   4  -7  -5 17904.4 1979.98   1
   4  -7  -5 17487.5 2377.48   2
  -4   7   5 17164.5 1899.82   4
  -4   7   5 18260.0 2134.57   7
   4  -7  -4 11222.0 1489.04   1
  -4   7   4 13521.5 1645.54   4
  -4   7   4 9033.54 1486.11   7
   4  -7  -4 13542.8 2110.52   2
   4  -7  -3-19.4388 169.954   1
  -4   7   3-391.747 526.873   4
   4  -7  -3-35.2509 207.781   2
  -4   7   3-191.600 455.455   7
  -4   7   2 2537.11 770.392   4
   4  -7  -2 1001.89 765.239   2
  -4   7   2 3076.15 874.557   7
  -4   7   1 21834.4 2126.70   4
   4  -7  -1 21775.5 2632.04   2
  -4   7   1 20274.4 2213.80   7
  -4   7   0 22764.8 2176.46   4
   4  -7   0 23181.9 2770.42   2
  -4   7   0 23450.3 2411.27   7
  -4   7  -1 32041.2 2584.22   4
   4  -7   1 33024.8 3370.71   2
  -4   7  -1 30272.8 2681.37   7
  -4   7  -2 51101.7 3307.22   4
   4  -7   2 50308.9 4123.73   2
  -4   7  -2 51114.0 3501.81   7
  -4   7  -3 27925.5 2449.89   4
   4  -7   3 22820.6 2861.12   2
   4  -7   3 26560.4 1923.06   6
  -4   7  -4 100836. 4710.21   4
   4  -7   4 102821. 6128.02   2
  -4   7  -5 17503.4 2009.48   4
   4  -7   5 17470.0 2612.88   2
  -4   7  -6 86543.4 4473.59   4
   4  -7   6 82096.6 5657.08   2
   4  -7   7 238.041 465.277   2
  -4   7  -7 1001.96 611.028   4
  -4   7  -7 218.989 216.400   3
  -4   7  -8 10361.5 1576.61   4
  -4   7  -8 9017.03 1092.16   3
   4  -7   8 12361.6 2275.29   2
  -4   7  -9 21904.8 2374.60   4
   4  -7   9 22956.0 3085.85   2
  -4   7  -9 24279.6 1882.44   3
  -4   7 -10-206.880 487.566   4
   4  -7  10 411.409 560.487   5
  -4   7 -10-4.21235 411.006   3
  -4   7 -11 5332.47 1277.79   4
   4  -7  11 4245.98 1296.94   5
  -4   7 -11 4754.87 989.055   3
  -4   7 -12-325.880 445.552   4
   4  -7  12-244.387 485.698   5
  -4   7 -12 51.3485 566.212   3
  -4   7 -13 13960.5 2076.69   4
  -4   7 -13 15075.1 1927.38   3
   4  -7  13 18483.7 2617.42   5
  -4   7 -14 3691.68 1155.22   4
   4  -7  14 3715.10 1373.35   5
  -4   7 -14 4365.86 1154.68   3
  -4   7 -15 4931.22 1266.12   4
   4  -7  15 6686.78 1725.55   5
  -4   7 -15 4761.89 1244.56   3
   4  -7  16 3592.72 1327.17   5
  -4   7 -16 2646.90 970.854   3
   4  -7  17 1433.18 915.155   5
  -4   7 -17 377.840 643.865   3
  -4   7 -18 3118.77 1172.01   3
  -4   6  17 15796.4 2939.06   5
   4  -6 -17 15289.0 2664.76   2
   4  -6 -17 11907.1 2281.62   1
  -4   6  16 1452.64 1057.42   5
   4  -6 -16 2284.10 1074.70   2
   4  -6 -16-71.4810 884.853   1
   4  -6 -15 84732.3 5750.93   2
   4  -6 -15 88053.3 5808.70   1
  -4   6  15 94330.8 6358.09   5
  -4   6  14-1013.17 747.069   5
   4  -6 -14-357.031 562.632   2
   4  -6 -14 4.72118 569.655   1
  -4   6  13 9166.03 1834.24   5
   4  -6 -13 8053.13 1721.56   2
  -4   6  13 8914.36 1690.25   7
   4  -6 -13 9713.39 1839.62   1
  -4   6  12 1923.80 949.362   5
   4  -6 -12 1364.01 916.168   2
  -4   6  12 2002.51 845.077   7
   4  -6 -12 518.959 725.820   1
  -4   6  11 1756.31 843.586   5
  -4   6  11 1939.38 667.123   4
  -4   6  11 2924.04 1020.61   7
   4  -6 -11 1642.68 947.821   2
   4  -6 -11 2286.21 895.674   1
  -4   6  10 1107.84 571.014   5
  -4   6  10 1229.49 613.538   4
  -4   6  10 949.370 599.737   7
   4  -6 -10 2762.04 1060.08   2
   4  -6 -10 538.881 427.239   1
   4  -6  -9 50657.2 3924.27   2
  -4   6   9 44523.4 2873.40   4
  -4   6   9 43955.1 3275.15   7
  -4   6   9 42784.3 3548.51   5
   4  -6  -9 55225.3 4111.88   1
   4  -6  -8 5082.88 1221.77   1
  -4   6   8 3642.97 1012.95   5
  -4   6   8 3084.83 770.192   4
  -4   6   8 2774.12 791.015   7
   4  -6  -8 3756.09 1124.86   2
   4  -6  -7 5058.28 1151.19   1
  -4   6   7 6652.59 1113.66   4
   4  -6  -7 6878.82 1456.61   2
  -4   6   7 5285.14 1043.33   7
   4  -6  -6 49339.2 3754.56   2
  -4   6   6 48791.0 2927.21   4
  -4   6   6 49350.6 3167.10   7
   4  -6  -6 51209.2 3488.89   1
   4  -6  -5 101807. 5270.98   2
  -4   6   5 100587. 4165.48   4
  -4   6   5 99560.0 4412.70   7
   4  -6  -5 93818.8 4395.97   1
   4  -6  -4 48780.5 2938.83   1
   4  -6  -4 44228.5 3472.38   2
  -4   6   4 45561.8 2807.35   4
  -4   6   4 49030.5 3033.86   7
   4  -6  -3 292.860 252.724   1
  -4   6   3 414.318 424.657   4
   4  -6  -3 141.170 397.359   2
  -4   6   3-72.5200 327.407   7
   4  -6  -2 11748.8 1215.04   1
  -4   6   2 10172.1 1351.51   4
   4  -6  -2 12826.0 1915.84   2
  -4   6   2 10171.7 1374.20   7
   4  -6  -2 11457.6 1133.82   6
   4  -6  -1 21443.9 1443.51   1
  -4   6   1 19898.3 1873.51   4
   4  -6  -1 16906.4 2163.91   2
  -4   6   1 16023.3 1709.11   7
   4  -6  -1 18151.8 1493.89   6
   4  -6   0 13163.7 1040.51   1
  -4   6   0 13365.0 1566.72   4
  -4   6   0 11085.5 1455.97   7
   4  -6   0 11820.2 1889.13   2
   4  -6   0 11741.4 1220.73   6
   4  -6   1 8823.41 846.996   1
  -4   6  -1 8285.53 1230.53   4
  -4   6  -1 10133.5 1382.97   7
   4  -6   1 9180.50 1093.83   6
   4  -6   1 7539.47 1567.80   2
  -4   6  -2 9170.21 1273.76   4
   4  -6   2 5851.23 716.599   1
  -4   6  -2 5725.71 446.849   3
   4  -6   2 7029.91 1008.56   6
   4  -6   2 6067.85 1459.53   2
  -4   6  -3 33627.5 2530.06   4
   4  -6   3 33083.6 3194.03   2
   4  -6   3 32481.0 1657.23   1
  -4   6  -3 33736.4 1291.14   3
  -4   6  -4 2483.11 701.507   4
   4  -6   4 1166.17 370.451   1
   4  -6   4 2233.72 882.891   2
  -4   6  -4 1516.36 357.335   3
  -4   6  -5 232230. 6853.34   4
   4  -6   5 238647. 8791.97   2
   4  -6   5 215832. 4990.41   1
  -4   6  -5 231549. 4379.48   3
   4  -6   6 936.250 441.440   1
  -4   6  -6 1472.12 647.831   4
   4  -6   6 1539.25 838.779   2
  -4   6  -6 1726.86 452.237   3
   4  -6   7 7301.52 1136.63   1
  -4   6  -7 8294.33 1358.40   4
   4  -6   7 6008.82 1491.95   2
  -4   6  -7 6251.18 915.637   3
  -4   6  -8 1849.04 642.233   4
   4  -6   8 2588.20 944.365   5
  -4   6  -8 2167.41 628.813   3
  -4   6  -9 2688.64 818.257   4
   4  -6   9 3774.04 1111.85   5
  -4   6  -9 2656.62 663.013   3
  -4   6 -10 2249.42 809.547   4
   4  -6  10 2029.70 844.198   5
  -4   6 -10 2099.41 652.722   3
  -4   6 -11 20873.5 2308.25   4
  -4   6 -11 13899.0 1759.17   3
   4  -6  11 21987.4 2685.03   5
  -4   6 -12 6216.81 1298.75   4
   4  -6  12 7759.50 1771.40   5
  -4   6 -12 5725.75 1316.83   3
  -4   6 -13 3.74917 184.160   4
   4  -6  13-60.3569 221.108   5
  -4   6 -14 26270.9 2890.09   4
  -4   6 -14 21320.4 2443.43   3
  -4   6 -15 34051.4 3221.74   4
  -4   6 -15 33244.8 3107.43   3
  -4   6 -16 11451.6 1826.08   4
   4  -6  16 12843.0 2496.62   5
  -4   6 -16 11915.4 2062.45   3
   4  -6  17 968.817 938.613   5
  -4   6 -17 1979.16 933.795   3
   4  -6  18 3355.15 1423.21   5
  -4   6 -18 1702.79 786.858   3
  -4   6 -19 13770.6 2386.10   3
   4  -5 -19 545.440 758.526   1
  -4   5  18 973.420 777.300   5
   4  -5 -18-135.784 707.941   2
   4  -5 -18 492.851 1064.34   1
  -4   5  17 12104.0 2501.70   5
   4  -5 -17 12282.8 2408.42   2
   4  -5 -17 15558.0 2507.17   1
  -4   5  16 10526.4 2129.99   5
   4  -5 -16 14112.1 2407.39   2
   4  -5 -16 13441.4 2245.79   1
  -4   5  15 1048.56 903.868   5
  -4   5  15 1442.72 714.026   7
   4  -5 -15 942.430 788.714   2
   4  -5 -15 1869.41 825.086   1
  -4   5  14 713.940 585.716   5
   4  -5 -14 1263.96 747.283   2
  -4   5  14 2050.64 868.658   7
   4  -5 -14 2166.83 977.571   1
   4  -5 -13 27128.3 3064.16   2
  -4   5  13 20739.7 2445.14   7
   4  -5 -13 23084.5 2725.20   1
  -4   5  13 22295.7 2694.99   5
  -4   5  12 1590.34 823.538   5
  -4   5  12-225.629 205.243   4
   4  -5 -12 550.773 444.224   2
  -4   5  12 49.7401 281.831   7
   4  -5 -12 1080.69 704.902   1
  -4   5  11 45.0069 276.655   5
  -4   5  11 264.508 259.017   4
   4  -5 -11 1156.16 668.388   2
  -4   5  11-33.1126 378.664   7
   4  -5 -11 954.770 517.459   1
   4  -5 -10 17412.2 2256.94   2
  -4   5  10 17576.0 1639.01   4
  -4   5  10 14378.7 1731.38   7
   4  -5 -10 18072.1 2202.99   1
  -4   5  10 14786.7 2002.68   5
   4  -5  -9 32258.5 2958.22   2
  -4   5   9 35035.5 2270.58   4
  -4   5   9 35525.4 2620.39   7
   4  -5  -9 37649.5 3072.34   1
  -4   5   9 38007.2 3182.61   5
  -4   5   8 1373.02 617.766   5
  -4   5   8 1409.56 520.439   4
   4  -5  -8 1186.75 620.064   2
  -4   5   8 842.722 435.460   7
   4  -5  -8 628.050 394.690   1
  -4   5   7 6551.96 1006.88   4
  -4   5   7 6092.62 995.178   7
   4  -5  -7 6860.49 1314.68   2
   4  -5  -7 7156.48 1208.16   1
   4  -5  -6 73023.7 4237.70   2
  -4   5   6 76428.1 3327.36   4
  -4   5   6 78976.4 3435.28   7
   4  -5  -6 81291.8 4023.27   1
   4  -5  -5 38355.8 3067.24   2
  -4   5   5 36508.5 2334.57   4
  -4   5   5 33006.4 2175.84   7
   4  -5  -5 37896.7 2637.54   1
  -4   5   4 3996.57 804.128   4
  -4   5   4 3545.60 716.848   7
   4  -5  -4 2430.77 900.426   2
   4  -5  -4 1810.36 510.293   6
   4  -5  -4 3350.41 799.079   1
   4  -5  -3 332363. 8801.78   2
  -4   5   3 312633. 6868.14   4
  -4   5   3 317353. 5345.93   1
   4  -5  -3 336705. 6720.91   6
  -4   5   3 337119. 6705.80   7
  -4   5   2 2704.13 656.447   7
  -4   5   2 4389.32 825.561   4
   4  -5  -2 3265.77 1000.79   2
  -4   5   2 3424.45 473.929   1
   4  -5  -2 3794.79 790.797   6
   4  -5  -2 3408.99 595.207   1
  -4   5   1 96280.8 3830.34   4
   4  -5  -1 98611.9 4863.07   2
  -4   5   1 98888.9 3628.46   7
   4  -5  -1 102600. 3771.67   6
  -4   5   0 29427.3 2164.71   4
   4  -5   0 33266.2 2869.69   2
  -4   5   0 33476.2 2132.64   7
   4  -5   0 30829.7 2116.41   6
  -4   5  -1 2351.20 615.084   4
   4  -5   1 2374.96 824.690   2
   4  -5   1 2240.98 577.552   6
  -4   5  -1 2684.11 290.436   3
  -4   5  -2 136.319 268.064   4
   4  -5   2-342.714 382.419   2
   4  -5   3 2576.10 436.314   1
   4  -5   3 3027.81 362.935   1
  -4   5  -3 3940.61 859.898   4
   4  -5   3 4152.29 1063.66   2
   4  -5   4 41683.4 1624.21   1
  -4   5  -4 45564.6 2891.30   4
   4  -5   4 41495.0 3403.58   2
   4  -5   5 965.149 446.206   1
  -4   5  -5 920.416 519.928   4
   4  -5   5 429.449 492.906   2
   4  -5   5 785.574 324.130   1
  -4   5  -6 2952.19 842.005   4
   4  -5   6 3201.20 1019.36   2
  -4   5  -7 63465.8 3672.38   4
   4  -5   7 61871.8 3801.36   5
  -4   5  -8 7648.44 1350.49   4
   4  -5   8 7977.14 1424.70   5
  -4   5  -9 344.958 359.630   4
   4  -5   9 133.066 372.366   5
  -4   5 -10 9416.97 1543.64   4
   4  -5  10 11376.5 1885.60   5
  -4   5 -11 92635.7 4932.84   4
   4  -5  11 111417. 5772.17   5
  -4   5 -12 556.893 440.114   4
   4  -5  12 597.499 844.459   5
  -4   5 -13 12826.3 1961.25   4
   4  -5  13 16140.2 2385.53   5
  -4   5 -14 20728.3 2545.92   4
   4  -5  14 26793.7 3212.33   5
  -4   5 -15 7931.23 1579.31   4
   4  -5  15 13852.9 2507.66   5
  -4   5 -16 606.646 696.953   4
   4  -5  16-515.138 917.480   5
  -4   5 -17 63375.6 4479.41   3
   4  -5  17 75083.0 6055.08   5
   4  -5  18 7484.48 2142.49   5
  -4   5 -18 4862.11 1266.76   3
  -4   5 -19 16979.5 2369.22   3
  -4   4  18 20202.1 3459.20   5
   4  -4 -18 22777.0 3277.60   2
  -4   4  17 14028.0 2684.62   5
   4  -4 -17 13917.0 2508.69   2
   4  -4 -17 15996.9 2375.00   1
  -4   4  16 7552.95 1817.86   5
   4  -4 -16 6953.22 1638.03   2
   4  -4 -16 4486.65 1314.00   1
  -4   4  15 7087.54 1679.08   5
   4  -4 -15 3613.11 1117.92   2
  -4   4  15 4051.38 1167.56   7
   4  -4 -15 4557.45 1204.08   1
   4  -4 -14 81335.0 5129.17   2
  -4   4  14 73688.4 4468.20   7
   4  -4 -14 73572.5 4817.23   1
  -4   4  14 86103.3 5437.86   5
  -4   4  13 11379.9 1873.65   5
  -4   4  13 10102.3 1545.65   7
   4  -4 -13 9518.58 1686.43   2
   4  -4 -13 9178.38 1654.15   1
   4  -4 -12 53567.1 3893.49   2
  -4   4  12 50032.2 2495.94   4
  -4   4  12 54084.0 3422.20   7
   4  -4 -12 48926.8 2433.69   3
   4  -4 -12 43259.4 3517.53   1
  -4   4  12 54549.4 4003.60   5
   4  -4 -11 45891.8 3514.28   2
  -4   4  11 43993.3 2345.92   4
   4  -4 -11 44112.0 2120.76   3
  -4   4  11 48122.9 3062.23   7
   4  -4 -11 37105.1 3143.65   1
  -4   4  11 45786.0 3526.24   5
   4  -4 -10 12065.9 1784.39   2
  -4   4  10 11072.3 1716.67   5
  -4   4  10 11563.6 1163.36   4
  -4   4  10 10785.5 1364.16   7
   4  -4 -10 10565.9 986.200   3
   4  -4 -10 7024.68 1323.34   1
   4  -4  -9 29565.9 2610.58   2
  -4   4   9 31658.1 1962.06   4
  -4   4   9 26036.3 1989.97   7
   4  -4  -9 28086.9 1436.14   3
  -4   4   9 29240.4 2676.01   5
  -4   4   8 6720.03 1235.90   5
   4  -4  -8 4571.81 552.942   3
  -4   4   8 4858.45 819.336   4
   4  -4  -8 4869.81 1101.16   2
  -4   4   8 5082.39 814.944   7
   4  -4  -8 4771.42 972.225   1
  -4   4   7 1456.69 446.757   4
  -4   4   7 1413.39 437.571   7
   4  -4  -7 977.352 462.852   2
   4  -4  -7 1319.00 543.221   1
   4  -4  -7 1186.90 262.352   3
   4  -4  -6 297.675 116.841   3
  -4   4   6 272.796 203.720   4
   4  -4  -6 110.737 298.151   2
   4  -4  -6 284.013 260.806   7
  -4   4   6 326.601 196.449   7
   4  -4  -6 285.340 244.271   1
  -4   4   5 3174.35 641.089   4
   4  -4  -5 3181.21 532.487   7
   4  -4  -5 3728.59 877.395   2
  -4   4   5 3350.72 586.644   7
  -4   4   5 2867.45 540.727   1
   4  -4  -5 4333.27 682.008   1
   4  -4  -4 278363. 7645.21   2
  -4   4   4 284042. 5947.06   4
  -4   4   4 271397. 4617.54   1
   4  -4  -4 283852. 6625.49   6
   4  -4  -4 286640. 4909.26   7
  -4   4   4 277463. 5008.99   7
   4  -4  -3 25670.8 2301.75   2
  -4   4   3 24790.3 1804.68   4
  -4   4   3 23749.3 1157.75   1
  -4   4   3 24963.0 1461.87   7
   4  -4  -3 22350.5 1897.68   6
   4  -4  -3 24621.1 1437.76   7
  -4   4   3 23159.9 687.256   3
   4  -4  -2 154158. 5557.12   2
  -4   4   2 155438. 4590.41   4
   4  -4  -2 150040. 3593.21   7
   4  -4  -2 155847. 4852.75   6
  -4   4   2 161218. 3634.16   7
  -4   4   1 606.461 338.160   4
   4  -4  -1 55.3960 125.003   7
   4  -4  -1-138.427 290.771   2
   4  -4  -1 215.751 259.234   6
  -4   4   1 128.280 80.1199   3
   4  -4   0 1036.37 528.280   2
   4  -4   0 1154.81 346.737   7
  -4   4   0 1477.77 556.126   4
   4  -4   0 775.674 351.720   6
  -4   4   0 793.727 195.426   3
  -4   4  -1 360.963 376.169   4
   4  -4   1 404.284 250.987   7
   4  -4   1-128.969 254.016   2
  -4   4  -2 20712.1 1841.69   4
   4  -4   2 20247.2 2089.68   2
  -4   4  -3 44687.5 2794.52   4
   4  -4   3 40937.6 3126.77   2
   4  -4   4 52025.7 1589.52   1
  -4   4  -4 47576.1 2944.68   4
   4  -4   4 46795.7 3401.24   2
   4  -4   5 57818.9 2129.86   1
  -4   4  -5 59697.4 3419.66   4
   4  -4   5 59480.2 3877.19   2
   4  -4   6 124082. 3701.41   1
  -4   4  -6 128490. 5142.07   4
   4  -4   6 125183. 5008.34   5
  -4   4  -7 12929.4 1679.40   4
   4  -4   7 11913.8 1660.59   5
  -4   4  -8 44792.9 3223.19   4
   4  -4   8 48962.4 3380.00   5
  -4   4  -9 44103.2 3277.70   4
   4  -4   9 43614.6 3267.77   5
  -4   4 -10 32560.0 2898.64   4
   4  -4  10 31555.8 2857.27   5
  -4   4 -11 26474.6 2694.18   4
   4  -4  11 32166.9 3022.78   5
  -4   4 -12 2244.05 794.533   4
   4  -4  12 6742.27 1442.66   5
  -4   4 -13 320.971 508.820   4
   4  -4  13 1726.74 762.748   5
  -4   4 -14-161.342 523.752   4
   4  -4  14 722.066 711.227   5
  -4   4 -15-1170.43 670.966   4
   4  -4  15 25.4640 805.069   5
  -4   4 -16 60013.4 4330.92   4
   4  -4  16 75528.7 5757.64   5
  -4   4 -17 10391.1 1821.32   4
   4  -4  17 6987.59 1883.91   5
   4  -4  18 30591.0 4178.57   5
   4  -4  19 1712.71 1436.68   5
  -4   3  19 592.611 1289.86   5
  -4   3  18 13879.3 2739.59   5
  -4   3  17 262.634 1098.57   5
   4  -3 -17-103.862 310.247   2
   4  -3 -17-96.3213 641.595   3
  -4   3  16 4944.10 1275.33   7
  -4   3  16 4751.96 1427.69   5
   4  -3 -16 5707.66 1531.68   2
   4  -3 -16 6687.16 1334.06   3
  -4   3  15 15713.6 2481.38   5
   4  -3 -15 12953.1 2157.98   2
   4  -3 -15 13558.0 1632.15   3
  -4   3  15 9329.75 1619.91   7
  -4   3  14-777.776 587.317   5
   4  -3 -14 1380.66 675.686   2
  -4   3  14-3.18770 242.363   7
   4  -3 -14 898.714 462.720   3
  -4   3  13 10530.3 1813.00   5
   4  -3 -13 9946.87 1735.56   2
  -4   3  13 9627.81 1480.71   7
   4  -3 -13 10608.2 1266.11   3
   4  -3 -12 123465. 5773.80   2
  -4   3  12 113650. 3169.18   4
   4  -3 -12 112887. 3880.84   3
  -4   3  12 115108. 4658.29   7
  -4   3  12 114788. 5607.15   5
   4  -3 -11 17692.7 2135.77   2
  -4   3  11 15341.4 1176.41   4
  -4   3  11 16427.3 1647.68   7
   4  -3 -11 15795.2 1358.47   3
  -4   3  11 18023.6 2144.35   5
   4  -3 -10 235910. 7388.86   2
  -4   3  10 233329. 4627.66   4
   4  -3 -10 232225. 4865.46   3
  -4   3  10 236894. 5768.45   7
  -4   3  10 231274. 7377.52   5
   4  -3  -9 38882.7 2909.57   2
  -4   3   9 36986.6 1859.59   4
  -4   3   9 37459.9 2093.38   7
   4  -3  -9 36360.5 1810.68   3
  -4   3   9 38539.6 2941.54   5
  -4   3   8-142.879 258.881   5
  -4   3   8 103.956 165.817   4
  -4   3   8 88.3756 116.889   7
   4  -3  -8-16.0372 168.084   2
   4  -3  -8 24.6891 188.244   3
  -4   3   7 6101.89 786.283   4
  -4   3   7 7286.01 748.603   7
   4  -3  -7 7508.07 1229.28   2
   4  -3  -7 6556.21 698.281   3
  -4   3   6 1588.00 437.520   4
   4  -3  -6 1307.25 550.310   2
  -4   3   6 1610.91 309.966   7
   4  -3  -6 1499.02 338.142   3
  -4   3   6 1474.15 294.524   3
  -4   3   5 2472.55 641.328   1
  -4   3   5 3259.87 592.911   4
   4  -3  -5 2185.82 679.134   2
  -4   3   5 2237.37 338.058   7
  -4   3   5 2615.77 365.571   3
   4  -3  -5 2199.62 393.389   3
  -4   3   4 51605.4 2357.33   1
   4  -3  -4 53330.3 3083.49   2
  -4   3   4 56612.8 2558.50   4
   4  -3  -4 54161.0 1744.99   3
  -4   3   4 60272.7 1744.63   3
  -4   3   4 51122.7 1325.90   7
  -4   3   3 22181.5 1300.61   1
   4  -3  -3 22079.0 1952.56   2
  -4   3   3 24943.7 1745.17   4
   4  -3  -3 22852.1 853.439   7
  -4   3   3 25415.5 1167.76   3
  -4   3   2 64848.9 1668.02   1
   4  -3  -2 67669.4 1532.91   7
   4  -3  -2 70924.6 3475.01   2
  -4   3   2 67998.4 1671.50   1
  -4   3   1 1051.48 453.638   4
   4  -3  -1 1008.28 214.446   7
   4  -3  -1 1004.54 506.719   2
  -4   3   1 1100.61 300.559   3
   4  -3   0 106974. 4323.60   2
  -4   3   0 113301. 4064.79   4
   4  -3   0 107878. 2503.94   7
  -4   3   0 104274. 2616.22   3
  -4   3  -1 2390.39 659.454   4
   4  -3   1 1668.79 348.844   7
   4  -3   1 1552.37 660.157   2
   4  -3   2 144648. 5232.75   2
  -4   3  -2 143840. 4922.66   4
  -4   3  -2 139721. 1918.32   1
  -4   3  -3 11546.3 1467.99   4
   4  -3   3 12640.9 1627.88   2
   4  -3   3 10662.3 765.581   1
  -4   3  -3 13006.5 846.001   1
  -4   3  -4 139464. 5158.41   4
   4  -3   4 128489. 5146.10   2
   4  -3   4 126413. 3080.05   1
  -4   3  -4 130479. 3295.44   1
   4  -3   5 37535.9 1920.22   1
  -4   3  -5 37407.7 2759.53   4
   4  -3   5 40164.1 2914.23   2
   4  -3   5 39047.8 2631.30   5
  -4   3  -5 36870.2 2008.79   1
  -4   3  -6 4254.32 947.964   4
  -4   3  -6 2986.02 616.864   1
   4  -3   6 3916.39 853.401   5
  -4   3  -7 31285.6 2726.06   4
   4  -3   7 32933.9 2568.40   5
  -4   3  -7 27677.6 2040.82   1
  -4   3  -8 158264. 6303.31   4
   4  -3   8 167062. 5964.77   5
  -4   3  -8 150289. 5033.45   1
  -4   3  -9 13333.6 1850.04   4
   4  -3   9 13746.2 1810.87   5
  -4   3  -9 11871.7 1536.79   1
  -4   3 -10 181791. 7157.67   4
  -4   3 -10 193971. 6365.36   1
  -4   3 -11 4362.73 1157.76   4
  -4   3 -11 6095.96 1243.97   1
   4  -3  11 5297.05 1169.32   5
  -4   3 -12 669.233 466.110   4
  -4   3 -12 1987.10 789.517   1
   4  -3  12 2049.94 784.845   5
  -4   3 -13 4416.86 1150.78   4
  -4   3 -13 3439.86 919.900   1
   4  -3  13 5402.80 1470.41   5
  -4   3 -14 7370.90 1500.76   4
  -4   3 -14 8323.70 1510.24   1
   4  -3  14 7238.89 1580.80   5
  -4   3 -15 1210.92 736.815   4
  -4   3 -15 48.5697 335.185   1
   4  -3  15 494.502 490.464   5
  -4   3 -16 15437.4 2206.60   4
  -4   3 -16 16429.0 2343.23   1
   4  -3  16 16669.2 2684.05   5
  -4   3 -17 839.352 598.871   4
  -4   3 -17 1314.41 715.447   1
   4  -3  17 222.573 539.679   5
  -4   3 -18 1652.59 895.281   1
   4  -3  18 1054.86 823.855   5
  -4   3 -19 315.810 752.973   1
   4  -3  19 1350.62 1218.84   5
  -4   3 -20 10910.9 2094.47   1
   4  -2 -21 18587.4 2778.49   3
  -4   2  20 5240.88 1764.96   5
   4  -2 -20 3402.98 1223.54   3
  -4   2  19 2538.00 1290.79   5
   4  -2 -19 3117.34 1305.47   3
   4  -2 -18 35799.7 3436.79   3
  -4   2  18 34383.4 4317.19   5
  -4   2  17 1708.10 1300.13   5
   4  -2 -17 1790.48 794.660   3
   4  -2 -16-33.7788 213.127   2
  -4   2  16-71.3888 545.489   5
  -4   2  16-386.324 591.684   7
   4  -2 -16-198.775 256.826   3
  -4   2  15 2661.01 1128.31   5
   4  -2 -15 3089.13 1153.00   2
  -4   2  15 1733.11 674.922   7
   4  -2 -15 3182.11 841.789   3
  -4   2  14-341.134 649.148   5
  -4   2  14-329.455 304.586   7
   4  -2 -14 258.420 537.130   2
   4  -2 -14 174.013 178.706   3
   4  -2 -13 61127.7 4207.89   2
   4  -2 -13 63098.0 3193.17   3
  -4   2  13 56965.7 3434.74   7
  -4   2  13 64554.6 4411.54   5
   4  -2 -12 88054.8 4819.82   2
  -4   2  12 74498.4 3677.88   7
   4  -2 -12 80178.9 3396.43   3
  -4   2  12 86127.3 4804.36   5
   4  -2 -11 162086. 6259.92   2
  -4   2  11 156231. 3170.54   4
  -4   2  11 143017. 4701.09   7
   4  -2 -11 155629. 4475.58   3
  -4   2  11 164441. 6275.92   5
  -4   2  10 4021.09 1058.02   5
  -4   2  10 4541.12 561.956   4
   4  -2 -10 5846.31 1160.24   2
  -4   2  10 5134.12 850.018   7
   4  -2 -10 5739.88 814.414   3
   4  -2  -9 22519.5 2161.19   2
  -4   2   9 19159.4 1197.51   4
  -4   2   9 22013.1 1485.77   7
   4  -2  -9 21080.7 1497.39   3
  -4   2   9 22565.2 2165.67   5
   4  -2  -8 12305.6 1526.06   2
  -4   2   8 11045.1 954.506   4
  -4   2   8 10777.4 901.703   7
   4  -2  -8 9649.43 993.922   3
  -4   2   8 11765.3 1498.87   5
  -4   2   7 5181.49 994.119   5
  -4   2   7 5864.61 710.073   4
   4  -2  -7 5785.12 1020.45   2
   4  -2  -7 5640.10 747.552   3
  -4   2   7 6083.36 561.372   7
   4  -2  -6 44194.0 2745.86   2
  -4   2   6 44761.5 2077.29   4
  -4   2   6 38385.7 978.717   7
  -4   2   6 36652.2 946.814   7
   4  -2  -6 43190.8 1969.43   3
   4  -2  -6 40972.8 2809.94   6
   4  -2  -5 27103.8 2079.28   2
  -4   2   5 24907.2 1611.36   4
   4  -2  -5 26496.9 1495.14   3
   4  -2  -4 166159. 5005.78   2
  -4   2   4 160385. 4281.90   4
   4  -2  -4 167724. 3678.54   3
  -4   2   4 176454. 3708.96   1
   4  -2  -3 41997.1 2480.03   2
  -4   2   3 42155.0 2274.56   4
   4  -2  -3 42803.0 1861.21   3
  -4   2   3 42073.3 2023.55   1
  -4   2   2-8.59503 230.882   4
   4  -2  -2 125.775 293.330   2
  -4   2   2-48.4225 129.108   1
   4  -2  -1 175295. 4904.77   2
  -4   2   1 183237. 5181.49   4
  -4   2   1 188161. 3728.76   1
   4  -2   0 10649.6 1245.18   2
  -4   2   0 11378.1 1361.33   4
  -4   2   0 10634.3 863.649   1
   4  -2   0 13867.3 818.252   7
   4  -2   1 12379.0 1381.25   2
  -4   2  -1 10963.5 863.379   1
  -4   2  -1 11702.7 1451.74   4
   4  -2   1 11661.5 992.165   1
  -4   2  -2 207260. 3931.55   1
   4  -2   2 208786. 5651.48   2
  -4   2  -2 211777. 6296.74   4
   4  -2   2 206035. 4341.13   1
  -4   2  -3 3221.26 533.901   1
  -4   2  -3 3972.71 961.500   4
   4  -2   3 3356.08 617.218   1
   4  -2   3 2878.15 775.307   2
  -4   2  -4 2491.13 537.110   1
   4  -2   4 2583.14 558.337   1
  -4   2  -4 2381.77 804.876   4
   4  -2   4 1686.36 593.924   2
  -4   2  -5 345.958 262.744   1
  -4   2  -5 646.619 399.993   4
   4  -2   5 573.628 441.706   2
   4  -2   5 819.618 409.265   5
  -4   2  -6 15371.7 1602.40   1
  -4   2  -6 16515.8 2049.72   4
   4  -2   6 16542.0 1685.38   5
  -4   2  -7 64067.4 4142.22   4
   4  -2   7 64862.7 3435.37   5
  -4   2  -7 59606.2 3418.87   1
   4  -2   8 65437.2 3582.73   5
  -4   2  -8 59032.8 3643.41   1
   4  -2   9 155277. 5760.93   5
  -4   2  -9 145689. 6087.18   1
  -4   2 -10 30573.0 3097.22   4
   4  -2  10 33956.4 2817.10   5
  -4   2 -10 37147.1 3200.14   1
  -4   2 -11 4638.59 1188.95   4
   4  -2  11 5283.76 1233.31   5
  -4   2 -11 7231.76 1442.97   1
  -4   2 -12 14344.2 2205.02   4
   4  -2  12 15562.9 2095.61   5
  -4   2 -12 16204.2 2233.60   1
  -4   2 -13 2869.34 1010.73   4
  -4   2 -13 4564.64 1244.23   1
   4  -2  13 3135.57 1032.19   5
  -4   2 -14 15767.9 2287.30   4
  -4   2 -14 15945.9 2305.63   1
   4  -2  14 15702.7 2394.98   5
  -4   2 -15 1528.23 718.356   4
  -4   2 -15-432.597 780.999   1
   4  -2  15 1045.59 740.053   5
  -4   2 -16 76494.2 5172.97   4
   4  -2  16 74117.1 5703.68   5
  -4   2 -16 82582.9 5376.39   1
  -4   2 -17 7453.67 1688.28   4
  -4   2 -17 8260.89 1832.97   1
   4  -2  17 5774.23 1778.02   5
  -4   2 -18-1080.70 741.394   4
   4  -2  18 1304.49 963.411   7
  -4   2 -18 343.396 527.985   1
   4  -2  18-204.398 1000.58   5
   4  -2  19 19282.0 3362.05   7
  -4   2 -19 18037.2 2670.04   1
   4  -2  19 10491.6 2514.81   5
  -4   2 -20-174.843 379.212   1
   4  -1 -22 959.235 933.157   3
   4  -1 -21 5742.40 1575.55   3
  -4   1  20 23934.0 3532.35   5
   4  -1 -20 17482.7 2659.38   3
   4  -1 -19 75069.7 5288.65   3
  -4   1  19 93661.0 6805.68   5
   4  -1 -18 35713.7 3360.28   3
  -4   1  18 37748.0 4426.72   5
  -4   1  17 9853.13 2457.68   5
   4  -1 -17 10971.2 1743.02   3
  -4   1  16 2933.83 1128.33   5
   4  -1 -16 4230.93 1059.34   3
  -4   1  15-197.228 937.184   5
   4  -1 -15-663.489 514.091   3
   4  -1 -14 4070.28 1199.96   2
  -4   1  14 4796.80 1480.82   5
   4  -1 -14 4517.62 923.021   3
   4  -1 -13 30566.2 3031.05   2
   4  -1 -13 28275.0 2218.58   3
  -4   1  13 31811.3 3156.87   5
  -4   1  12 9139.29 1587.58   5
   4  -1 -12 5388.82 1196.83   2
   4  -1 -12 6989.91 1054.09   3
  -4   1  11 2806.49 836.520   5
   4  -1 -11 1447.21 617.628   2
  -4   1  11 2343.39 317.214   4
   4  -1 -11 1875.61 525.231   3
   4  -1 -10 19197.2 2121.92   2
  -4   1  10 19817.8 1022.25   4
   4  -1 -10 19477.7 1584.76   3
  -4   1  10 17940.9 2000.99   5
   4  -1  -9 97155.8 4448.15   2
  -4   1   9 91436.8 2442.41   4
   4  -1  -9 90127.6 3358.85   3
  -4   1   9 88025.8 2864.07   7
  -4   1   9 94796.9 4309.22   5
   4  -1  -8 43470.2 2850.64   2
  -4   1   8 36666.0 1698.84   4
   4  -1  -8 38335.1 2156.30   3
  -4   1   8 36282.4 1622.41   7
  -4   1   8 36939.3 2584.93   5
  -4   1   7 2250.54 663.402   5
   4  -1  -7 2661.28 669.214   2
  -4   1   7 1693.77 407.313   4
  -4   1   7 2091.45 332.178   7
   4  -1  -7 2076.83 505.967   3
   4  -1  -6 31282.9 2201.28   2
  -4   1   6 27794.8 1684.46   4
  -4   1   6 27431.5 1018.12   7
   4  -1  -6 28406.9 1763.88   3
  -4   1   6 26985.2 2062.90   5
   4  -1  -5 141931. 4469.00   2
  -4   1   5 129322. 3862.54   4
   4  -1  -5 131705. 3695.83   3
   4  -1  -4 44931.5 2431.55   2
  -4   1   4 45793.3 2411.85   4
   4  -1  -4 42971.0 2121.73   3
  -4   1   4 44046.6 2604.72   1
  -4   1   3 2745.88 608.449   1
   4  -1  -3 3493.26 684.684   2
  -4   1   3 3464.95 705.581   4
   4  -1  -3 3262.77 610.607   3
   4  -1  -2 15925.3 1375.86   2
  -4   1   2 18705.1 1705.54   4
  -4   1   2 17815.1 1543.96   1
   4  -1  -2 15573.6 764.644   7
   4  -1  -1 76921.2 2916.67   2
  -4   1   1 78556.2 3664.61   4
   4  -1  -1 77961.8 1987.62   7
  -4   1   1 80412.2 3228.71   1
   4  -1   0 104058. 3343.48   2
  -4   1   0 106398. 3631.32   1
   4  -1   0 104915. 2618.55   7
   4  -1   1 390141. 6420.31   2
  -4   1  -1 375696. 6751.74   1
   4  -1   1 390712. 5712.06   7
   4  -1   2 125606. 3771.87   2
  -4   1  -2 122301. 3863.94   1
   4  -1   2 128972. 3679.62   7
  -4   1  -3 27970.3 1880.07   1
   4  -1   3 28167.5 1886.72   2
   4  -1   3 30310.0 1942.15   7
   4  -1   4 2107.56 596.795   7
  -4   1  -4 1320.74 479.568   1
   4  -1   4 785.992 414.142   2
  -4   1  -5 32688.4 2193.85   1
   4  -1   5 31955.2 2145.13   2
   4  -1   5 32802.0 2176.35   5
  -4   1  -6 4148.81 857.944   1
   4  -1   6 2627.28 775.711   7
   4  -1   6 2930.16 661.719   5
  -4   1  -7 7866.93 1221.57   1
   4  -1   7 5993.66 1204.80   7
   4  -1   7 7206.03 1090.20   5
  -4   1  -8 5795.58 1172.27   1
   4  -1   8 3650.42 1109.39   7
   4  -1   8 4785.79 933.707   5
  -4   1  -9 1360.82 673.202   1
   4  -1   9 888.391 673.472   7
   4  -1   9 674.967 431.102   5
  -4   1 -10 7425.34 1443.36   1
   4  -1  10 8305.02 1574.06   7
   4  -1  10 7803.43 1407.06   5
   4  -1  11 48955.0 4202.90   7
   4  -1  11 52564.3 3660.34   5
  -4   1 -11 48369.1 3954.66   1
  -4   1 -12 15486.8 2309.33   1
   4  -1  12 16340.7 2574.67   7
   4  -1  12 18640.7 2286.28   5
  -4   1 -13 875.802 818.067   1
   4  -1  13 848.053 920.350   7
   4  -1  13 1909.64 795.163   5
  -4   1 -14 8697.63 1862.25   1
   4  -1  14 10574.5 2208.70   7
   4  -1  14 8981.28 1818.39   5
  -4   1 -15 69371.2 5108.38   4
   4  -1  15 79110.0 5896.52   7
   4  -1  15 72433.8 5391.39   5
  -4   1 -15 80359.4 5724.66   1
   4  -1  16 11461.7 2359.43   7
  -4   1 -16 12655.9 2185.57   4
  -4   1 -16 10328.3 2097.31   1
   4  -1  16 8752.55 1996.50   5
   4  -1  17 4904.82 1804.77   7
  -4   1 -17 7592.22 1800.16   4
  -4   1 -17 10031.2 2033.14   1
   4  -1  17 3903.93 1501.44   5
   4  -1  18-453.417 565.451   7
  -4   1 -18 519.426 897.336   4
  -4   1 -18-724.440 856.385   1
   4  -1  18-937.404 1043.10   5
  -4   1 -19 4502.02 1549.76   1
   4  -1  19 1255.48 1613.99   5
   4   0 -21 10969.8 2254.38   3
  -4   0  20 11177.1 2281.12   5
   4   0 -20 8112.67 1857.04   3
   4   0 -19 34945.7 3552.23   3
  -4   0  19 39281.2 4212.56   5
   4   0 -18 21829.2 2652.26   3
  -4   0  18 21357.1 3117.26   5
  -4   0  17 1238.86 867.226   5
   4   0 -17 1900.46 894.084   3
  -4   0  16 17130.0 2828.18   5
   4   0 -16 15200.7 1962.78   3
  -4   0  15 2117.89 1259.65   5
   4   0 -15 1822.30 690.787   3
  -4   0  14 201.903 685.640   5
   4   0 -14 191.631 331.349   3
   4   0 -13 86323.0 4071.59   3
  -4   0  13 91282.6 5622.36   5
   4   0 -12 18542.1 1780.32   3
  -4   0  12 18650.2 2378.20   5
  -4   0  11 1748.75 909.244   5
   4   0 -11 1999.91 607.426   3
   4   0 -10 68076.7 4170.82   2
  -4   0  10 65647.2 1915.89   4
   4   0 -10 62036.1 3080.88   3
  -4   0  10 74029.1 4055.90   5
  -4   0   9 2028.76 658.740   5
   4   0  -9 1758.97 701.301   2
  -4   0   9 2145.03 410.208   4
   4   0  -9 1675.04 499.030   3
   4   0  -8 61947.0 3541.69   2
  -4   0   8 58135.5 2311.84   4
  -4   0   8 63332.8 2498.75   7
   4   0  -8 65129.8 3016.85   3
  -4   0   8 68228.4 3430.40   5
  -4   0   7 115756. 3546.97   4
  -4   0   7 105085. 2995.96   7
   4   0  -7 108122. 3819.01   3
  -4   0   7 114797. 4233.74   5
   4   0  -6 35938.7 2400.63   2
  -4   0   6 35649.6 2110.00   4
   4   0  -6 33494.5 2082.01   3
  -4   0   6 33447.8 1631.64   7
  -4   0   6 35502.7 2253.84   5
   4   0  -5 74266.7 3245.54   2
  -4   0   5 65073.2 2225.69   7
   4   0  -5 66471.1 2896.25   3
  -4   0   5 67000.5 3786.02   1
  -4   0   5 69181.7 2999.88   5
  -4   0   4 164.784 153.060   5
  -4   0   4-2.51545 345.231   1
   4   0  -4 48.2959 246.998   2
  -4   0   4-359.403 204.966   7
   4   0  -4 164.033 112.527   7
   4   0  -4 192.897 287.274   3
   4   0  -3 32338.3 1872.82   2
  -4   0   3 29367.6 1523.11   7
   4   0  -3 30400.4 1955.31   3
   4   0  -3 27012.1 1455.66   7
  -4   0   3 29875.0 2362.18   1
   4   0  -2 36926.9 1882.55   2
  -4   0   2 35234.8 1956.55   2
  -4   0   2 37988.6 1791.57   7
   4   0  -2 37842.6 1789.64   7
  -4   0   2 38938.1 2689.88   1
   4   0  -2 35372.0 2639.95   6
   4   0  -1 28440.6 1556.48   2
  -4   0   1 28221.2 1643.71   7
  -4   0   1 26605.2 1666.77   2
   4   0  -1 28606.3 1633.09   7
  -4   0   1 27537.3 2257.73   1
   4   0  -1 27747.4 2369.80   6
   4   0   0 64532.0 2203.67   2
  -4   0   0 59028.0 2395.41   2
  -4   0   0 58011.4 3198.42   1
   4   0   0 57467.9 2451.84   7
   4   0   0 55986.3 3380.18   6
   4   0   1 169195. 3428.31   2
  -4   0  -1 167653. 5438.34   1
   4   0   1 170516. 4478.59   7
   4   0   1 172052. 5999.40   6
   4   0   2 92025.4 2492.40   2
  -4   0  -2 90760.8 3978.76   1
   4   0   2 83152.0 3314.03   7
   4   0   2 85849.3 4207.73   6
   4   0   3 851.110 365.216   2
   4   0   3 1028.08 495.923   6
  -4   0  -3 1679.26 612.569   1
  -4   0  -4 19326.4 1902.57   1
   4   0   4 22176.7 1388.47   2
   4   0   4 20912.6 2159.10   6
   4   0   5 47.1173 290.175   7
  -4   0  -5-158.206 339.993   1
   4   0   5-128.101 225.202   2
   4   0   5 213.375 265.939   5
   4   0   6 600.650 510.319   7
  -4   0  -6 495.502 379.488   1
   4   0   6 1352.84 466.070   2
   4   0   6 943.645 423.686   5
  -4   0  -7 162901. 5926.04   1
   4   0   7 160863. 6300.08   7
   4   0   7 173036. 5170.22   5
  -4   0  -8 27379.7 2513.18   1
   4   0   8 25264.1 2644.21   7
   4   0   8 28176.0 2216.84   5
  -4   0  -9 19287.4 2242.49   1
   4   0   9 19794.0 2525.24   7
   4   0   9 20914.1 1987.10   5
  -4   0 -10 27664.2 2852.97   1
   4   0  10 24445.7 2898.36   7
   4   0  10 26925.5 2432.76   5
  -4   0 -11 17752.0 2464.77   1
   4   0  11 17261.5 2679.45   7
   4   0  11 18817.5 2138.65   5
  -4   0 -12 6879.93 1570.82   1
   4   0  12 5839.26 1554.30   7
   4   0  12 5005.38 1236.95   5
   4   0  13 38993.1 4255.73   7
   4   0  13 39891.9 3502.44   5
  -4   0 -13 33080.6 3703.68   1
  -4   0 -14 1276.63 1098.61   1
   4   0  14-288.681 860.366   7
   4   0  14 2057.46 1026.86   5
   4   0  15 30703.3 4004.43   7
   4   0  15 29565.4 3430.16   5
  -4   0 -15 30103.4 3812.82   1
  -4   0 -16 7191.25 1961.48   1
   4   0  16 7189.29 1978.53   7
   4   0  16 5469.95 1636.92   5
   4   0  17 8667.77 2265.85   7
   4   0  17 5349.49 1637.71   5
  -4   0 -17 6466.49 1845.75   1
  -4   0 -18 11968.7 2732.86   1
   4   0  18 8726.31 2357.48   5
   4   1 -21 9820.62 2127.42   3
  -4  -1  20 3119.02 1155.89   5
   4   1 -20 1440.89 756.777   3
  -4  -1  19-410.720 545.481   5
   4   1 -19-954.757 900.257   3
  -4  -1  18 10529.9 2044.71   5
   4   1 -18 5924.62 1412.08   3
   4   1 -17 31361.3 3034.77   3
  -4  -1  17 29549.3 3365.00   5
  -4  -1  16 5932.74 1604.40   5
   4   1 -16 7416.62 1402.27   3
  -4  -1  15 227.690 527.263   5
   4   1 -15 108.877 330.857   3
  -4  -1  14 6809.03 1665.37   5
   4   1 -14 7536.92 1303.65   3
   4   1 -13 23706.3 2231.29   3
  -4  -1  13 30023.9 3313.26   5
  -4  -1  12 8970.96 1852.77   5
   4   1 -12 10664.3 1443.24   3
  -4  -1  11-3.83443 262.486   5
   4   1 -11 207.874 208.145   3
  -4  -1  10 2805.36 1067.29   5
  -4  -1  10 4625.86 629.354   4
   4   1 -10 5280.63 1010.26   3
  -4  -1   9 33063.7 1864.07   4
   4   1  -9 32413.9 2325.21   3
  -4  -1   9 35467.7 2906.86   5
   4   1  -8 80277.1 3616.54   3
  -4  -1   8 94120.5 4313.93   5
  -4  -1   7 289425. 8961.50   1
  -4  -1   7 302840. 7077.88   5
  -4  -1   6 61726.1 4045.85   1
   4   1  -6 64630.3 3819.50   6
   4   1  -6 64569.2 3142.40   3
  -4  -1   6 68941.2 3125.32   5
   4   1  -5 20002.5 1746.83   3
  -4  -1   5 16465.3 2094.94   1
   4   1  -5 17542.5 1991.92   6
   4   1  -5 19951.9 1583.64   7
  -4  -1   5 18608.7 1527.27   5
  -4  -1   4 316.234 232.520   5
  -4  -1   4-284.317 346.558   1
   4   1  -4 36.9286 125.719   7
   4   1  -4 135.387 437.890   6
   4   1  -4-36.8120 189.834   3
  -4  -1   3 16421.3 1253.64   2
   4   1  -3 19208.1 1571.18   7
  -4  -1   3 22174.5 2306.81   1
   4   1  -3 18582.4 1672.53   3
   4   1  -3 18429.0 1984.50   6
  -4  -1   3 16277.5 1239.95   5
  -4  -1   2 100.838 167.390   5
   4   1  -2-182.463 235.021   7
  -4  -1   2 141.319 154.461   2
   4   1  -2-492.250 426.533   6
  -4  -1   2-298.385 395.258   1
  -4  -1   1 9886.98 855.303   2
  -4  -1   1 10812.4 1625.30   1
   4   1  -1 11294.7 1238.86   7
   4   1  -1 8790.74 1389.45   6
  -4  -1   1 10216.4 886.275   5
  -4  -1   0 437.685 407.764   1
   4   1   0 912.238 510.299   6
  -4  -1   0 505.952 233.649   5
   4   1   1 1139.38 501.112   6
  -4  -1  -1 1902.40 390.851   5
  -4  -1  -2 21086.5 2201.71   1
   4   1   2 16385.2 1916.32   6
  -4  -1  -2 18678.9 1153.00   5
  -4  -1  -3 76930.6 4185.64   1
   4   1   3 79735.4 3883.00   7
   4   1   3 74161.8 4148.36   6
   4   1   4 5217.19 1034.33   7
   4   1   4 5327.61 1099.77   6
  -4  -1  -4 6757.29 1315.09   1
   4   1   5 801.827 483.737   6
  -4  -1  -5 476.859 490.283   1
   4   1   5 328.847 496.341   7
  -4  -1  -6 29083.7 2695.13   1
   4   1   6 32424.9 2868.14   7
   4   1   6 30521.4 2830.31   6
   4   1   6 33875.7 2063.92   5
  -4  -1  -7 96468.2 5016.33   1
   4   1   7 102008. 5296.07   7
   4   1   7 96887.4 3666.62   5
  -4  -1  -8 37409.5 3191.21   1
   4   1   8 38983.0 3440.44   7
   4   1   8 38384.2 2479.09   5
  -4  -1  -9 812.726 626.257   1
   4   1   9 1346.97 830.229   7
   4   1   9 763.987 390.507   5
  -4  -1 -10 28827.5 3020.25   1
   4   1  10 30436.4 3342.96   7
   4   1  10 28061.3 2402.53   5
  -4  -1 -11 5817.02 1434.34   1
   4   1  11 5949.89 1709.88   7
   4   1  11 5948.69 1141.54   5
  -4  -1 -12 37085.1 3785.96   1
   4   1  12 31362.7 3743.80   7
   4   1  12 40869.2 3244.50   5
  -4  -1 -13 87871.3 6125.94   1
   4   1  13 73285.7 5983.66   7
  -4  -1 -14 22726.6 3211.66   1
   4   1  14 21726.0 3514.90   7
  -4  -1 -15 10388.4 2392.50   1
   4   1  15 10037.5 2587.78   7
  -4  -1 -16 325.738 905.569   1
   4   1  16 588.486 1343.30   7
  -4  -2  20 10242.8 2010.57   5
  -4  -2  19 3860.66 1203.62   5
   4   2 -19 6969.08 1667.24   3
  -4  -2  18 2554.22 959.452   5
   4   2 -18 3604.55 1139.12   3
  -4  -2  17 9963.82 1841.82   5
   4   2 -17 8133.69 1653.08   3
  -4  -2  16 2099.00 865.459   5
   4   2 -16 1802.72 909.885   3
  -4  -2  15 50284.6 4015.32   5
   4   2 -15 46343.9 3508.75   3
   4   2 -14 40190.8 3156.31   3
  -4  -2  14 46744.9 3792.48   5
  -4  -2  13 13028.8 2001.85   5
   4   2 -13 11486.5 1613.95   3
  -4  -2  12-70.6484 526.440   5
   4   2 -12 219.043 399.312   3
   4   2 -11 23539.2 2211.53   3
  -4  -2  11 27339.0 2695.19   5
  -4  -2  10 22.5994 130.181   5
   4   2 -10 952.086 441.186   3
   4   2  -9 19962.9 1963.09   3
  -4  -2   9 18227.2 2504.32   1
  -4  -2   9 19426.7 2172.97   5
   4   2  -8 65028.6 3456.25   3
  -4  -2   8 68683.4 4884.41   1
  -4  -2   8 64362.7 3826.75   5
   4   2  -7 17162.9 1755.72   7
   4   2  -7 19797.4 1909.36   3
  -4  -2   7 19624.0 2554.91   1
  -4  -2   7 18899.2 1990.41   5
   4   2  -6 29333.1 2293.62   7
   4   2  -6 27614.1 2230.67   3
  -4  -2   6 30469.6 3132.14   1
   4   2  -6 28371.4 2695.53   6
  -4  -2   6 23376.4 2122.21   5
   4   2  -5 76071.4 3666.20   7
  -4  -2   5 88469.5 5217.66   1
   4   2  -5 80437.5 3792.64   3
   4   2  -5 81188.7 4375.50   6
  -4  -2   4 253.839 252.935   5
  -4  -2   4 258.112 726.067   1
   4   2  -4 60.4772 146.636   7
   4   2  -4-83.4287 278.110   6
   4   2  -4-93.4591 261.778   3
   4   2  -3 8401.37 1236.39   3
   4   2  -3 7971.65 1208.63   7
   4   2  -3 5225.08 1076.26   6
  -4  -2   3 7309.39 833.234   5
  -4  -2   3 7963.11 1633.56   1
  -4  -2   2 59026.1 4180.49   1
   4   2  -2 57870.3 3242.01   7
   4   2  -2 58412.1 3649.77   6
  -4  -2   2 51324.6 1902.81   5
  -4  -2   1 60498.9 4256.70   1
   4   2  -1 64662.4 3471.21   7
   4   2  -1 62922.0 3771.05   6
  -4  -2   1 58092.5 1639.87   5
  -4  -2   0 69265.0 4461.84   1
   4   2   0 65532.5 3599.72   7
   4   2   0 64941.3 3877.12   6
  -4  -2  -1 34882.2 3212.62   1
   4   2   1 34793.6 2677.53   7
   4   2   1 31068.0 2715.00   6
   4   2   2 11000.4 1588.10   7
  -4  -2  -2 13975.8 2024.15   1
   4   2   2 11091.3 1642.33   6
   4   2   3 7458.12 1372.18   7
   4   2   3 8295.16 1486.03   6
  -4  -2  -3 6782.91 1492.09   1
   4   2   4 1604.60 687.413   7
   4   2   4 1505.37 670.094   6
  -4  -2  -4 2227.16 890.116   1
  -4  -2  -5 45689.2 3707.40   1
   4   2   5 43486.1 3405.20   6
   4   2   5 45083.8 3516.28   7
  -4  -2  -6 60759.9 4312.01   1
   4   2   6 59899.3 4102.72   6
   4   2   6 60714.0 4198.81   7
  -4  -2  -7 1991.17 957.227   1
   4   2   7 3685.47 1188.43   7
   4   2   7 2914.75 983.174   6
   4   2   8 1470.65 892.093   7
  -4  -2  -8 506.149 718.328   1
   4   2   8 1942.79 767.307   6
  -4  -2  -9 35111.7 3475.31   1
   4   2   9 33688.2 3584.04   7
  -4  -2 -10 1428.18 629.796   1
   4   2  10 515.366 819.985   7
  -4  -2 -11 15223.9 2483.50   1
   4   2  11 15130.0 2722.45   7
  -4  -2 -12 44376.3 4320.31   1
   4   2  12 35937.5 4251.65   7
  -4  -2 -13-194.339 727.366   1
   4   2  13-437.834 541.908   7
  -4  -2 -14 14943.3 2778.31   1
   4   2  14 13201.7 2856.27   7
  -4  -3  20 557.215 515.896   5
  -4  -3  19 2483.04 1037.72   5
  -4  -3  18 937.177 747.633   5
   4   3 -18 936.490 769.128   3
  -4  -3  17 10781.8 2029.99   5
   4   3 -17 13927.4 2244.14   3
   4   3 -16 77771.4 4910.76   3
  -4  -3  16 74166.3 4931.07   5
  -4  -3  15 5232.08 1387.50   5
   4   3 -15 4504.77 1173.49   3
   4   3 -14 73316.6 4495.35   3
  -4  -3  14 69598.0 4529.91   5
  -4  -3  13 5957.65 1423.38   5
   4   3 -13 6980.83 1326.59   3
  -4  -3  12-780.600 613.643   1
   4   3 -12-202.829 337.342   3
  -4  -3  11 2263.63 724.476   5
  -4  -3  11 4799.97 1468.08   1
   4   3 -11 2595.16 807.374   3
   4   3 -10 916.030 458.948   3
  -4  -3  10 518.567 535.130   1
  -4  -3   9-611.253 621.414   1
   4   3  -9-92.4740 480.603   3
   4   3  -8 16061.0 1861.68   3
  -4  -3   8 19323.2 2807.88   1
  -4  -3   7 1266.42 952.680   1
   4   3  -7 862.840 631.296   7
   4   3  -7-61.9384 321.469   3
   4   3  -6 30541.7 2642.04   7
  -4  -3   6 25728.8 3148.05   1
   4   3  -6 30412.2 2521.78   3
  -4  -3   5 450.240 419.479   1
   4   3  -5-72.8972 487.128   7
   4   3  -5 118.827 189.242   6
   4   3  -5-53.1165 424.291   3
   4   3  -4 31423.7 2707.88   7
  -4  -3   4 28542.6 3279.63   1
   4   3  -4 32600.7 2612.09   3
   4   3  -4 30679.7 2745.09   6
   4   3  -3 2120.74 773.746   7
  -4  -3   3 1967.57 928.345   1
   4   3  -3 1182.57 530.177   6
   4   3  -2 61353.1 3808.44   7
  -4  -3   2 57102.9 4512.20   1
   4   3  -2 56531.3 3718.63   6
   4   3  -1 5713.39 1260.61   7
  -4  -3   1 5086.71 1380.61   1
   4   3  -1 3112.71 885.809   6
  -4  -3   0 38563.9 3742.63   1
   4   3   0 36776.5 3042.80   7
   4   3   0 36439.2 2989.82   6
  -4  -3  -1 43677.1 3902.75   1
   4   3   1 47824.1 3504.96   7
   4   3   1 43778.7 3287.61   6
  -4  -3  -2 787.177 876.838   1
   4   3   2-12.8680 380.681   6
   4   3   3 39034.5 3360.14   7
  -4  -3  -3 45679.7 4031.21   1
   4   3   3 42758.7 3362.87   6
  -4  -3  -4 91442.4 5710.50   1
   4   3   4 86460.7 4868.63   6
   4   3   4 95864.1 5361.92   7
   4   3   5 7276.72 1555.99   7
   4   3   5 8334.05 1532.27   6
  -4  -3  -5 6223.94 1611.86   1
  -4  -3  -6 105021. 6172.66   1
   4   3   6 104754. 5997.75   7
   4   3   6 103463. 5548.00   6
   4   3   7 1678.40 768.773   7
  -4  -3  -7 2173.33 1050.08   1
   4   3   7 2373.55 846.929   6
   4   3   8 3896.89 1373.50   7
  -4  -3  -8 6167.11 1714.62   1
   4   3   8 4040.93 1152.23   6
  -4  -3  -9-40.5005 412.429   1
   4   3   9-10.8396 430.848   7
   4   3   9 1184.38 691.068   6
  -4  -3 -10 769.174 832.715   1
   4   3  10 2596.81 1216.12   7
   4   3  10 2401.32 978.057   6
  -4  -3 -11 4412.48 1635.23   1
   4   3  11 3384.74 1688.80   7
  -4  -3 -12 12553.5 2519.75   1
   4   3  12 12416.0 2587.28   7
  -4  -4  16-1103.93 1339.67   1
   4   4 -16-547.490 536.359   3
  -4  -4  15 20802.3 3640.61   1
   4   4 -15 19101.2 2584.52   3
  -4  -4  14 12687.8 2721.25   1
   4   4 -14 10638.9 1794.21   3
   4   4 -13 5894.57 1290.15   3
  -4  -4  13 7659.84 2044.86   1
  -4  -4  12 21779.9 3461.02   1
   4   4 -12 24693.8 2601.71   3
  -4  -4  11 13064.4 2622.43   1
   4   4 -11 12336.6 1800.99   3
   4   4 -10 21363.1 2376.69   3
  -4  -4  10 18516.9 3032.71   1
   4   4  -9 18918.5 2208.13   3
  -4  -4   9 20825.5 3135.34   1
   4   4  -8 63145.4 4339.26   7
  -4  -4   8 63125.8 5465.08   1
   4   4  -8 61349.8 3889.29   3
  -4  -4   7 536.325 734.097   1
   4   4  -7 712.954 678.388   7
   4   4  -7 795.337 497.519   3
   4   4  -6 3370.46 1072.94   7
   4   4  -6 2666.57 906.380   3
  -4  -4   6 2353.46 1246.15   1
   4   4  -5-593.776 476.155   7
   4   4  -5-241.648 577.957   3
  -4  -4   5-1794.60 1379.53   1
  -4  -4   4 26468.8 3466.30   1
   4   4  -4 31376.9 2939.08   7
  -4  -4   3 6187.52 1754.06   1
   4   4  -3 7232.31 1517.84   7
   4   4  -3 5198.29 1152.66   6
  -4  -4   2 63985.6 5208.25   1
   4   4  -2 66280.4 4435.32   7
   4   4  -2 67709.3 4171.28   6
  -4  -4   1 7458.69 1846.46   1
   4   4  -1 7344.65 1544.39   7
   4   4  -1 7464.25 1390.48   6
  -4  -4   0 4958.88 1523.90   1
   4   4   0 5267.52 1301.76   7
   4   4   0 6063.16 1266.90   6
  -4  -4  -1 2261.92 1002.80   1
   4   4   1 1735.45 816.454   7
   4   4   1 485.346 468.305   6
  -4  -4  -2 39920.0 4069.17   1
   4   4   2 36754.3 3502.85   7
   4   4   2 33345.9 2983.38   6
   4   4   3 16853.9 2400.17   7
   4   4   3 16961.9 2158.69   6
  -4  -4  -3 16890.1 2697.47   1
   4   4   4 229.215 487.880   7
  -4  -4  -4 948.559 660.141   1
  -4  -4  -5 33569.0 3689.21   1
   4   4   5 25727.4 3242.64   7
   4   4   6 1511.17 1093.16   7
  -4  -4  -6 1299.88 1097.00   1
   4   4   7 7234.68 1905.01   7
  -4  -4  -7 6673.34 1680.69   1
   4   4   8 15927.9 2738.21   7
  -4  -4  -8 19304.6 2964.78   1
  -4  -4  -9 3889.25 1556.67   1
   4   4   9 4579.46 1833.64   7
   4   4  10 10529.6 2392.49   7
   4   5 -13 20752.5 2628.80   3
  -4  -5  13 21722.6 3707.32   1
  -4  -5  12 2975.75 1438.02   1
   4   5 -12 2140.59 820.624   3
  -4  -5  11-875.263 1111.77   1
   4   5 -11 148.292 296.718   3
  -4  -5  10 2372.80 1146.55   1
   4   5 -10 4178.35 1075.78   3
  -4  -5   9 21165.1 3641.94   1
   4   5  -9 23904.0 2547.60   3
   4   5  -8 2818.94 1075.33   7
   4   5  -8 3251.50 990.970   3
  -4  -5   8 1725.16 1184.08   1
   4   5  -7 4349.06 1451.03   7
   4   5  -7 4502.33 1113.67   3
  -4  -5   7 3664.62 1454.39   1
  -4  -5   6 27042.0 3751.70   1
   4   5  -6 24361.5 3023.61   7
   4   5  -6 26714.5 2719.05   3
  -4  -5   5 26205.0 3579.73   1
   4   5  -5 29210.9 3295.84   7
  -4  -5   4-664.426 940.535   1
   4   5  -4 337.554 943.128   7
  -4  -5   3 101333. 7014.70   1
   4   5  -3 95607.1 5799.95   7
  -4  -5   2-708.210 972.537   1
   4   5  -2 2019.36 1164.84   7
  -4  -5   1 11003.8 2459.61   1
   4   5  -1 11046.8 1967.88   7
  -4  -5   0 7458.52 1975.76   1
   4   5   0 5711.62 1472.62   7
  -4  -5  -1 3831.31 1553.84   1
   4   5   1 3365.47 1300.08   7
   4   5   2 311.609 949.201   7
  -4  -5  -2 1058.83 1100.88   1
   4   5   3 1838.13 930.927   7
  -4  -5  -3 3201.01 1534.16   1
   4   5   4 19006.6 2914.85   7
  -4  -5  -4 19414.0 3037.54   1
   4   5   5 130.766 370.534   7
  -4  -5  -5 753.992 693.775   1
   4   5   6 426.016 459.968   7
   4   6  -8 3389.73 1295.91   7
   4   6  -8 2385.95 953.707   3
   4   6  -7 19114.0 3023.68   7
  -4  -6   6 11321.7 2763.60   1
   4   6  -6 10412.8 2155.71   7
  -4  -6   5 14.5728 1247.50   1
   4   6  -5 1513.25 1223.91   7
  -4  -6   4 337.835 1097.51   1
   4   6  -4 5250.91 1613.03   7
  -4  -6   3-620.085 1350.59   1
   4   6  -3 1066.32 664.235   7
   4   6  -2 10547.6 2182.11   7
   4   6  -1 11024.9 2251.42   7
   4   6   0 19022.3 3015.13   7
   4   6   1 1495.98 913.191   7
   5 -10  -4 8885.83 2019.67   2
   5 -10  -3 37054.9 4165.18   2
   5 -10  -2 1801.56 979.498   2
  -5  10   2 2968.69 1266.46   7
   5 -10  -1 1187.04 884.882   2
  -5  10   1 1314.96 1028.01   7
   5 -10   0 962.715 820.317   2
  -5  10   0 2534.10 1077.73   7
   5 -10   1 310.743 722.571   2
   5 -10   2 10182.5 2296.58   2
   5 -10   3 6682.21 1815.92   2
   5 -10   4 6273.68 1938.95   2
   5 -10   5 28949.3 3982.94   2
   5 -10   6 1329.38 838.338   2
  -5   9  10-58.4791 921.544   5
  -5   9   9-569.694 653.627   5
  -5   9   9 949.248 822.226   4
   5  -9  -9-186.338 740.625   2
  -5   9   8 899.170 1091.08   5
  -5   9   8 800.495 625.552   4
   5  -9  -8 150.404 359.108   2
  -5   9   7 5059.20 1486.43   5
  -5   9   7 3320.05 1167.27   4
   5  -9  -7 2370.12 1004.38   2
  -5   9   6 17022.4 2291.00   4
   5  -9  -6 16733.8 2765.67   2
  -5   9   5 616.178 500.669   4
   5  -9  -5-150.542 592.744   2
  -5   9   4 35684.2 3231.22   4
   5  -9  -4 39558.4 4125.33   2
  -5   9   4 38433.8 3680.74   7
  -5   9   3 12062.4 1831.47   4
   5  -9  -3 13204.6 2380.55   2
  -5   9   3 14829.3 2182.82   7
  -5   9   2 4173.35 1098.54   4
   5  -9  -2 2984.40 1203.34   2
  -5   9   2 4083.72 1190.39   7
  -5   9   1 50099.7 3812.93   4
   5  -9  -1 52881.8 4737.38   2
  -5   9   1 55391.9 4266.88   7
  -5   9   0 18734.6 2278.71   4
  -5   9   0 18116.1 2552.41   7
   5  -9   0 20270.3 3020.68   2
  -5   9  -1 3049.03 1002.61   4
   5  -9   1 5140.56 1484.63   2
  -5   9  -2 22861.6 2533.53   4
   5  -9   2 20785.2 3104.27   2
  -5   9  -3-291.247 459.646   4
   5  -9   3-663.330 952.796   2
  -5   9  -4 1732.32 820.488   4
   5  -9   4 59.9317 759.832   2
  -5   9  -5 5857.62 1417.81   4
   5  -9   5 4289.76 1492.41   2
  -5   9  -6 13162.5 2041.15   4
   5  -9   6 13443.5 2562.15   2
  -5   9  -7 1118.43 769.005   4
   5  -9   7 1182.57 1091.10   2
  -5   9  -8 640.635 737.535   4
   5  -9   8-1367.32 1032.55   2
  -5   9  -9 14469.1 2278.02   4
   5  -9   9 15484.9 2963.79   2
  -5   9 -10 1729.76 1023.22   4
   5  -9  10 3071.64 1491.62   2
  -5   9 -11 75.6592 600.590   4
   5  -9  11 1957.66 1200.11   2
  -5   9 -12-1147.98 890.724   4
  -5   9 -13 11451.6 2369.09   4
  -5   9 -14 8214.56 1931.33   4
   5  -8 -12 58849.1 5112.78   2
  -5   8  12 54047.1 4793.86   5
  -5   8  11-1203.94 819.797   5
  -5   8  11 718.931 576.716   4
   5  -8 -11 451.189 713.139   2
  -5   8  10 3647.07 1350.08   5
  -5   8  10 7137.89 1522.04   4
   5  -8 -10 9614.84 2004.01   2
  -5   8   9 6659.20 1564.25   5
  -5   8   9 7062.05 1467.61   4
   5  -8  -9 6571.94 1737.25   2
  -5   8   8 867.818 686.194   5
  -5   8   8-291.052 390.432   4
   5  -8  -8 1716.36 929.599   2
  -5   8   7 7118.52 1417.80   4
   5  -8  -7 8119.56 1792.72   2
   5  -8  -6 27231.9 3277.07   2
  -5   8   6 22179.5 2391.50   4
  -5   8   5 2505.55 933.450   4
   5  -8  -5 5152.60 1548.50   2
  -5   8   5 3295.36 953.526   7
  -5   8   4 1596.43 647.353   4
   5  -8  -4 2993.95 1070.26   2
  -5   8   4 2369.67 777.369   7
  -5   8   3 20049.2 2253.02   4
   5  -8  -3 23510.8 3021.58   2
  -5   8   3 22325.6 2407.63   7
  -5   8   2 79708.3 4458.36   4
   5  -8  -2 91301.6 5869.54   2
  -5   8   2 92830.9 4965.12   7
  -5   8   1 16071.7 1960.91   4
   5  -8  -1 17796.9 2726.98   2
  -5   8   1 16529.4 2115.30   7
  -5   8   0 2773.57 822.321   4
   5  -8   0 3138.02 1278.88   2
  -5   8   0 3648.37 1056.22   7
  -5   8  -1 796.208 622.379   4
   5  -8   1-80.2003 590.076   2
  -5   8  -2 9976.40 1625.28   4
   5  -8   2 12925.2 2222.26   2
  -5   8  -3 5439.62 1286.61   4
   5  -8   3 7404.17 1772.10   2
  -5   8  -4 9377.75 1635.10   4
   5  -8   4 9389.34 2147.89   2
  -5   8  -5 14883.0 2065.94   4
   5  -8   5 11025.0 2296.00   2
  -5   8  -6 9391.30 1588.21   4
   5  -8   6 6669.59 1767.93   2
  -5   8  -7 4149.33 1127.82   4
   5  -8   7 1318.11 1257.73   2
  -5   8  -8 92815.0 5252.53   4
   5  -8   8 95982.0 6875.53   2
  -5   8  -9 872.507 557.907   4
   5  -8   9 346.286 528.721   2
  -5   8 -10 7897.78 1588.61   4
   5  -8  10 9638.41 2382.99   2
  -5   8 -11 13811.3 2196.20   4
   5  -8  11 17430.8 3278.92   2
  -5   8 -12 2706.31 1094.17   4
   5  -8  12 2556.39 1204.57   2
  -5   8 -13 7852.73 1681.17   4
   5  -8  13 10664.6 2214.66   5
   5  -8  13 11301.4 2847.20   2
  -5   8 -14 3550.80 1351.43   4
   5  -8  14 4488.64 1650.09   5
  -5   8 -15 346.240 832.690   4
  -5   7  14 4093.97 1506.52   5
   5  -7 -14 1442.29 1012.76   2
  -5   7  13 20007.6 2983.47   5
   5  -7 -13 20980.1 2961.20   2
  -5   7  12 431.154 561.321   5
  -5   7  12-802.724 584.302   4
   5  -7 -12 1168.84 928.445   2
   5  -7 -11 26385.0 3242.71   2
  -5   7  11 23921.6 2366.02   4
  -5   7  11 26594.1 3204.33   5
   5  -7 -10 71460.0 5157.66   2
  -5   7  10 61949.5 3709.67   4
  -5   7  10 61959.3 4764.09   5
   5  -7  -9 36882.5 3748.87   2
  -5   7   9 32444.1 2666.06   4
  -5   7   9 36215.4 3602.63   5
   5  -7  -8 17143.0 2522.70   2
  -5   7   8 16148.4 2350.78   5
  -5   7   8 13873.4 1748.14   4
   5  -7  -7 30824.5 3365.96   2
  -5   7   7 35577.8 2780.79   4
  -5   7   6 9016.80 1383.97   4
   5  -7  -6 6583.12 1602.09   2
  -5   7   6 8805.37 1397.04   7
  -5   7   5 4049.01 981.078   4
   5  -7  -5 5993.31 1479.79   2
  -5   7   5 3287.42 830.016   7
  -5   7   4 13788.7 1728.72   4
  -5   7   4 14135.2 1731.78   7
   5  -7  -4 14772.2 2227.90   2
  -5   7   3 556.039 432.754   4
   5  -7  -3 1968.14 847.382   2
  -5   7   3 1814.65 653.164   7
  -5   7   2 9262.69 1449.28   4
   5  -7  -2 8629.99 1662.61   2
  -5   7   2 9673.48 1454.58   7
  -5   7   1 1932.57 681.834   4
   5  -7  -1 1935.68 831.271   2
  -5   7   1 795.121 401.231   7
  -5   7   0 54077.3 3473.50   4
   5  -7   0 53947.8 4341.72   2
  -5   7  -1 4421.90 1016.61   4
   5  -7   1 2881.78 1005.57   2
  -5   7  -2 12249.2 1660.75   4
   5  -7   2 13329.1 2208.10   2
  -5   7  -3 1069.04 607.890   4
   5  -7   3 1494.42 735.297   2
   5  -7   3 425.974 349.823   6
  -5   7  -4 35765.3 2955.07   4
   5  -7   4 34699.7 3697.65   2
   5  -7   4 36659.1 2767.22   6
  -5   7  -5 23335.8 2412.57   4
   5  -7   5 20445.1 2908.30   2
   5  -7   5 23618.0 2302.42   6
  -5   7  -6 1053.93 570.952   4
   5  -7   6 3016.22 1206.71   2
  -5   7  -7 49926.7 3661.70   4
   5  -7   7 52300.6 4707.58   2
  -5   7  -8 241.104 410.029   4
   5  -7   8-287.928 505.692   2
  -5   7  -9 41619.9 3511.37   4
   5  -7   9 34859.5 4038.18   2
  -5   7 -10 59938.0 4292.50   4
   5  -7  10 64354.1 5594.98   2
  -5   7 -10 56776.8 3324.18   3
  -5   7 -11 19082.6 2426.73   4
  -5   7 -11 17032.7 1919.19   3
   5  -7  11 18589.2 2656.46   5
   5  -7  11 17373.6 3043.01   2
  -5   7 -12 12621.1 2038.66   4
   5  -7  12 13341.0 2328.92   5
  -5   7 -12 12426.8 1794.97   3
  -5   7 -13 4143.12 1258.02   4
   5  -7  13 8472.99 1905.00   5
  -5   7 -13 5468.27 1213.63   3
  -5   7 -14 11465.7 2022.92   4
   5  -7  14 13877.9 2627.89   5
  -5   7 -14 9035.49 1625.39   3
  -5   7 -15-505.714 771.198   4
   5  -7  15-734.659 942.259   5
  -5   7 -15 656.891 613.144   3
  -5   7 -16-661.351 832.809   4
  -5   7 -16-20.2251 162.142   3
  -5   7 -17 649.416 851.477   3
  -5   6  16 8469.99 2046.59   5
  -5   6  15 17410.6 2727.81   5
   5  -6 -15 18184.3 2794.91   2
  -5   6  14 1693.66 968.262   5
   5  -6 -14 904.584 771.047   2
  -5   6  13 10253.1 1977.76   5
   5  -6 -13 9139.19 1892.65   2
   5  -6 -12 25078.7 2977.15   2
  -5   6  12 22345.9 2118.20   4
  -5   6  12 23478.1 2954.75   5
   5  -6 -11 28912.7 3218.69   2
  -5   6  11 27654.9 2315.11   4
  -5   6  11 27542.3 3161.72   5
   5  -6 -10 74859.5 5081.34   2
  -5   6  10 75968.1 3799.46   4
  -5   6  10 87991.8 5486.39   5
   5  -6  -9 24795.0 2952.39   2
  -5   6   9 27263.4 2265.28   4
  -5   6   9 22746.0 2696.11   5
  -5   6   8 5012.74 1037.02   4
   5  -6  -8 6736.98 1562.03   2
  -5   6   7 535.158 399.779   4
   5  -6  -7-404.160 396.163   2
  -5   6   7 445.665 425.117   7
  -5   6   6 140.616 200.647   4
  -5   6   6 717.680 399.838   7
  -5   6   5 369.614 484.903   4
  -5   6   5 67.4435 142.519   7
   5  -6  -5 748.622 605.330   2
   5  -6  -4 53860.7 4006.88   2
  -5   6   4 47651.7 2997.50   4
  -5   6   4 51487.9 2820.10   7
  -5   6   3 2102.99 691.431   4
   5  -6  -3 2797.81 910.318   2
  -5   6   3 1690.90 534.630   7
  -5   6   2 1252.94 546.296   4
   5  -6  -2 2313.59 1048.40   2
  -5   6   2 1490.40 476.919   7
   5  -6  -1 107427. 5761.07   2
  -5   6   1 105395. 4507.50   4
  -5   6   0 14674.3 1712.44   4
   5  -6   0 14044.8 2105.07   2
  -5   6  -1 101627. 4564.45   4
   5  -6   1 104856. 5696.24   2
   5  -6   1 100715. 4426.21   6
  -5   6  -2 23165.6 2252.71   4
   5  -6   2 24566.9 2835.34   2
   5  -6   2 21126.7 2062.36   6
  -5   6  -3 743.319 398.205   4
   5  -6   3 1031.54 659.895   2
   5  -6   3 92.1543 331.576   6
  -5   6  -3 209.845 121.699   3
  -5   6  -4 48386.1 3311.21   4
   5  -6   4 49076.7 4073.62   2
   5  -6   4 51214.4 3341.66   6
  -5   6  -5 14331.5 1819.32   4
   5  -6   5 12779.2 2068.97   2
  -5   6  -6 2925.43 899.186   4
   5  -6   6 2200.89 960.314   2
  -5   6  -7 3380.30 966.712   4
   5  -6   7 1803.56 893.484   2
  -5   6  -8 2247.71 832.940   4
   5  -6   8 2522.80 915.606   2
  -5   6  -9 39630.7 3358.44   4
   5  -6   9 42216.0 4194.83   2
   5  -6   9 43068.9 3720.99   5
  -5   6 -10 70780.8 4582.19   4
   5  -6  10 75498.2 5737.81   2
   5  -6  10 73765.1 4998.87   5
  -5   6 -11 26112.7 2874.64   4
   5  -6  11 27030.9 3160.77   5
  -5   6 -12 1808.91 905.783   4
   5  -6  12 3968.62 1346.78   5
  -5   6 -13 517.907 675.245   4
   5  -6  13 1565.05 963.790   5
  -5   6 -14 1478.20 721.067   4
   5  -6  14 1766.65 1144.92   5
  -5   6 -15 3036.49 965.904   3
  -5   6 -15 641.988 704.597   4
   5  -6  15 3318.23 1316.95   5
  -5   6 -16 15661.5 2402.58   4
   5  -6  16 17658.0 2967.43   5
  -5   6 -16 15643.3 2188.49   3
  -5   6 -17-1095.72 822.215   4
  -5   6 -17 3829.17 1226.59   3
  -5   6 -18 5052.93 1280.95   3
  -5   5  17 19122.2 3051.40   5
   5  -5 -17 15530.7 2641.43   2
   5  -5 -16 37341.2 3984.94   2
  -5   5  16 39787.5 4306.87   5
  -5   5  15 3044.69 1190.02   5
   5  -5 -15 3040.81 1099.27   2
  -5   5  14 3409.55 1206.26   5
   5  -5 -14 2013.74 1122.91   2
  -5   5  13 186.566 501.369   5
   5  -5 -13 48.6954 180.594   2
  -5   5  12 9617.21 1777.35   5
  -5   5  12 8508.12 1179.42   4
   5  -5 -12 10130.3 1786.62   2
   5  -5 -11 24554.6 2811.97   2
  -5   5  11 20464.2 1810.46   4
  -5   5  11 20982.7 2645.99   5
  -5   5  10 1765.64 807.833   5
  -5   5  10 2671.57 675.370   4
   5  -5 -10 2728.58 965.951   2
   5  -5  -9 16763.1 2218.20   2
  -5   5   9 18545.6 1661.78   4
  -5   5   9 19565.2 2432.90   5
   5  -5  -8 32814.2 3106.49   2
  -5   5   8 27777.1 2102.78   4
  -5   5   8 30570.7 2038.99   7
   5  -5  -7 49552.0 3759.04   2
  -5   5   7 50616.4 2838.54   4
  -5   5   7 52617.6 2527.95   7
  -5   5   6 1209.59 495.827   4
   5  -5  -6 1852.88 844.401   2
  -5   5   6 2006.22 465.766   7
   5  -5  -5 13423.8 1924.51   2
  -5   5   5 13268.9 1473.68   4
  -5   5   5 13075.4 1183.74   7
   5  -5  -5 11142.6 1538.61   6
   5  -5  -4 31668.5 2855.98   2
  -5   5   4 28231.4 2190.63   4
  -5   5   4 31715.3 1780.80   7
   5  -5  -4 33119.5 2554.95   6
  -5   5   3 8943.58 1240.48   4
   5  -5  -3 10655.6 1641.13   2
   5  -5  -3 7122.71 1211.55   6
   5  -5  -2 35691.4 3043.20   2
  -5   5   2 36582.7 2532.64   4
   5  -5  -2 39239.8 2797.99   6
   5  -5  -1 18840.6 2255.95   2
  -5   5   1 19246.8 1894.37   4
   5  -5  -1 20454.9 2041.04   6
   5  -5   0 55453.5 3847.46   2
  -5   5   0 57111.0 3285.16   4
  -5   5   0 54062.6 1653.15   3
   5  -5   0 56534.8 3395.45   6
   5  -5   1 22857.8 2495.31   2
  -5   5  -1 20622.0 1994.81   4
   5  -5   1 20646.3 2087.70   6
  -5   5  -2 228131. 6836.54   4
   5  -5   2 222574. 7891.78   2
   5  -5   2 217819. 6770.39   6
  -5   5  -3 88896.6 4348.94   4
   5  -5   3 92043.4 5143.05   2
   5  -5   3 89737.9 4395.04   6
  -5   5  -4 57857.4 3607.19   4
   5  -5   4 60963.4 4316.90   2
   5  -5   4 59610.3 3654.29   6
  -5   5  -5 4280.23 1023.35   4
   5  -5   5 4498.88 1285.83   2
  -5   5  -6 6511.21 1286.59   4
   5  -5   6 5661.80 1360.86   2
  -5   5  -7 5258.65 1236.04   4
   5  -5   7 7887.83 1713.80   2
  -5   5  -8 1562.65 672.581   4
   5  -5   8 663.961 622.663   5
   5  -5   8 2064.12 993.841   2
  -5   5  -9 14667.5 2112.55   4
   5  -5   9 16268.9 2230.76   5
   5  -5   9 16133.5 2449.32   2
  -5   5 -10 541.458 514.137   4
   5  -5  10-218.910 328.875   5
  -5   5 -11 3556.86 1190.91   4
   5  -5  11 3302.75 1056.28   5
  -5   5 -12 7494.30 1621.82   4
   5  -5  12 6663.34 1612.11   5
  -5   5 -13 24157.9 2913.89   4
   5  -5  13 30559.1 3377.41   5
  -5   5 -14 509.559 655.845   4
   5  -5  14 214.525 310.016   5
  -5   5 -15 8600.54 1757.01   4
   5  -5  15 12871.6 2410.01   5
  -5   5 -16 18527.2 2604.79   4
   5  -5  16 23864.1 3362.44   5
  -5   5 -17 19093.0 2586.87   4
   5  -5  17 22205.7 3505.92   5
  -5   4  18 2176.26 1171.80   5
   5  -4 -18 3203.06 1447.30   2
   5  -4 -17 25048.4 3297.47   2
  -5   4  17 20448.9 3320.23   5
  -5   4  16 1632.60 1038.91   5
   5  -4 -16 4122.26 1449.78   2
  -5   4  15-1129.50 790.597   5
   5  -4 -15-862.579 885.014   2
  -5   4  14 1118.67 810.411   5
   5  -4 -14 1642.84 816.197   2
   5  -4 -13 27932.0 3070.65   2
  -5   4  13 23502.3 2862.04   5
  -5   4  12 3086.04 1105.90   5
   5  -4 -12 1860.52 905.290   2
  -5   4  11 8036.61 1637.66   5
  -5   4  11 8684.54 1104.23   4
   5  -4 -11 9958.92 1782.57   2
   5  -4 -10 28514.3 2814.03   2
  -5   4  10 31871.5 2030.46   4
   5  -4 -10 31747.8 1779.51   3
  -5   4  10 26800.7 2820.42   5
   5  -4  -9 37271.7 3160.21   2
  -5   4   9 37398.4 2226.57   4
   5  -4  -9 37297.9 1819.71   3
  -5   4   9 39135.1 3280.45   5
   5  -4  -8 74238.8 4367.39   2
  -5   4   8 79499.1 3257.60   4
   5  -4  -8 76081.6 2437.09   3
  -5   4   8 79274.8 4537.51   5
  -5   4   7 9078.75 1120.54   4
   5  -4  -7 7645.26 1389.34   2
  -5   4   7 9146.10 798.121   7
   5  -4  -7 7303.46 742.851   3
   5  -4  -6 70369.9 4103.92   2
  -5   4   6 74786.1 3244.62   4
  -5   4   6 76974.2 2037.98   7
   5  -4  -6 70528.4 3905.20   6
  -5   4   5 81185.4 2721.62   1
   5  -4  -5 66851.4 3944.85   2
  -5   4   5 70490.3 3206.49   4
   5  -4  -5 76093.9 4026.68   6
  -5   4   4 37679.2 1533.44   1
   5  -4  -4 38144.1 3000.70   2
  -5   4   4 36984.4 2378.39   4
   5  -4  -4 40673.9 2953.63   6
  -5   4   4 43708.7 1512.89   3
  -5   4   3 597.864 143.842   1
   5  -4  -3 1064.70 213.871   7
   5  -4  -3 1002.97 498.630   2
  -5   4   3 1436.06 478.472   4
   5  -4  -3 565.550 489.802   6
  -5   4   3 874.136 160.372   1
  -5   4   3 953.211 239.054   3
  -5   4   2 1836.09 602.932   4
   5  -4  -2 1586.09 280.388   7
   5  -4  -2 1300.75 565.591   2
   5  -4  -2 1791.91 623.880   6
  -5   4   2 2068.53 384.509   3
  -5   4   1 7658.29 1210.14   4
   5  -4  -1 7443.77 680.958   7
   5  -4  -1 5604.33 1153.72   2
  -5   4   1 7520.90 728.106   3
   5  -4  -1 6307.97 1206.95   6
   5  -4   0 14131.1 1789.20   2
  -5   4   0 14968.7 1662.33   4
   5  -4   0 12243.1 974.988   7
   5  -4   0 14040.4 1772.44   6
   5  -4   1 135412. 5627.56   2
  -5   4  -1 135347. 5131.70   4
   5  -4   1 125540. 3397.60   7
   5  -4   1 135159. 5367.57   6
   5  -4   2 28770.3 2709.52   2
  -5   4  -2 27450.4 2399.54   4
   5  -4   2 27124.1 2442.91   6
   5  -4   3 83003.8 4562.76   2
  -5   4  -3 78367.8 4135.90   4
   5  -4   3 76634.1 4140.50   6
  -5   4  -4 6648.57 1265.62   4
   5  -4   4 6775.69 587.471   1
   5  -4   4 7106.26 1359.41   6
   5  -4   4 7206.82 1399.23   2
  -5   4  -5 1646.43 623.079   4
   5  -4   5 1381.09 738.015   2
  -5   4  -6 36.3133 341.360   4
   5  -4   6-810.015 574.549   2
  -5   4  -7 14277.2 1977.95   4
   5  -4   7 15066.4 2130.99   2
   5  -4   7 12728.9 1819.22   5
  -5   4  -7 12323.7 1138.11   1
  -5   4  -8 15612.2 2097.94   4
   5  -4   8 14931.9 2198.93   2
   5  -4   8 16516.0 2044.55   5
  -5   4  -8 15236.9 1448.27   1
  -5   4  -9 63013.1 4425.88   4
   5  -4   9 63557.7 4181.76   5
  -5   4  -9 53909.4 2966.49   1
  -5   4 -10 52024.8 4126.18   4
   5  -4  10 51737.6 3909.25   5
  -5   4 -10 43141.5 2828.46   1
  -5   4 -11 8765.21 1814.72   4
  -5   4 -11 11184.1 1529.93   1
  -5   4 -12 29102.1 3196.11   4
   5  -4  12 32947.7 3399.63   5
  -5   4 -12 25212.9 2405.13   1
  -5   4 -13 6354.86 1638.86   4
  -5   4 -13 5747.53 1206.33   1
   5  -4  13 7164.54 1731.87   5
  -5   4 -14 15220.4 2463.39   4
  -5   4 -14 14296.6 2012.86   1
  -5   4 -15 47495.8 4191.03   4
   5  -4  15 58387.8 5002.84   5
  -5   4 -15 45443.8 3681.79   1
  -5   4 -16 2639.37 1032.31   4
   5  -4  16 3155.89 1326.77   5
  -5   4 -17 5525.99 1489.81   4
   5  -4  17 2909.18 1304.32   5
  -5   4 -18-1045.61 985.488   4
   5  -4  18-1103.98 804.886   5
   5  -3 -18-844.874 955.997   2
  -5   3  18-1271.02 1010.01   5
  -5   3  17 14149.0 2776.19   5
   5  -3 -17 10826.2 2280.65   2
  -5   3  16 12263.4 2292.64   5
   5  -3 -16 11641.1 2094.30   2
   5  -3 -15 29595.1 3285.65   2
   5  -3 -15 27311.4 2283.91   3
  -5   3  15 29877.1 3393.69   5
  -5   3  14 1122.16 834.101   5
   5  -3 -14 2360.10 908.933   2
   5  -3 -14 1741.88 565.202   3
  -5   3  13 12482.1 1974.56   5
   5  -3 -13 14029.3 2078.69   2
   5  -3 -13 12736.8 1434.47   3
  -5   3  12 13376.9 2014.97   5
   5  -3 -12 12710.6 1950.14   2
   5  -3 -12 11498.6 1297.83   3
   5  -3 -11 26828.4 2729.46   2
  -5   3  11 24835.2 1621.90   4
   5  -3 -11 25151.8 1828.00   3
  -5   3  11 26346.0 2699.50   5
  -5   3  10 558.878 467.051   5
  -5   3  10 967.817 420.153   4
   5  -3 -10 819.636 540.784   2
   5  -3 -10 868.128 344.623   3
  -5   3   9 2136.14 751.400   5
  -5   3   9 2307.46 544.593   4
   5  -3  -9 1366.75 648.042   2
   5  -3  -9 1831.88 482.830   3
  -5   3   8 588.574 388.400   5
  -5   3   8 981.512 408.332   4
   5  -3  -8 1050.41 595.898   2
   5  -3  -8 308.290 326.459   3
   5  -3  -7 174160. 6217.40   2
  -5   3   7 185797. 4819.16   4
   5  -3  -7 177982. 4149.04   3
   5  -3  -7 166330. 6257.26   6
   5  -3  -6 34745.2 2726.93   2
  -5   3   6 31109.7 2040.79   4
   5  -3  -6 30971.8 1713.73   3
   5  -3  -6 32058.2 2732.02   6
   5  -3  -5 276095. 7536.14   2
  -5   3   5 278436. 6283.94   4
   5  -3  -5 264943. 4855.59   3
   5  -3  -5 274916. 7959.86   6
  -5   3   4 1407.32 388.216   1
  -5   3   4 993.851 478.631   4
   5  -3  -4 1698.06 605.608   2
   5  -3  -4 523.099 460.389   6
  -5   3   4 1812.48 490.549   1
   5  -3  -3 790.540 432.824   2
  -5   3   3 1120.60 440.201   4
  -5   3   3 654.779 244.841   1
   5  -3  -3 605.771 467.298   6
  -5   3   3 1085.98 301.531   1
  -5   3   2 2909.72 729.057   4
   5  -3  -2 3689.90 830.893   2
  -5   3   2 2469.81 395.363   1
   5  -3  -2 2127.61 683.840   6
  -5   3   2 3152.23 422.408   1
  -5   3   1 779.449 191.876   1
  -5   3   1 1477.33 586.691   4
   5  -3  -1 1184.61 481.600   2
   5  -3  -1 1385.50 702.274   6
  -5   3   0 3020.01 355.877   1
  -5   3   0 4148.78 884.946   4
   5  -3   0 3583.41 429.777   7
   5  -3   0 2672.90 790.890   2
   5  -3   0 4523.99 1076.80   6
  -5   3  -1 29749.0 1221.74   1
   5  -3   1 27511.2 2320.73   2
  -5   3  -1 27680.1 2370.89   4
   5  -3   1 27163.1 2493.33   6
  -5   3  -2 2483.67 414.034   1
  -5   3  -2 1982.91 666.491   4
   5  -3   2 855.129 475.583   2
   5  -3   2 900.667 520.838   6
  -5   3  -3 30233.0 1687.50   1
   5  -3   3 29246.8 2517.81   2
  -5   3  -3 32703.4 2748.57   4
   5  -3   3 27703.5 1574.97   1
   5  -3   3 29962.7 2661.15   6
   5  -3   4 30033.8 2670.46   2
  -5   3  -4 31668.1 2814.67   4
   5  -3   4 30462.9 1822.86   1
   5  -3   4 30581.5 2745.49   6
  -5   3  -4 26020.8 1789.49   1
   5  -3   5 70353.4 4066.30   2
  -5   3  -5 74640.8 4438.78   4
  -5   3  -5 65188.8 3125.47   1
  -5   3  -6 2548.94 679.843   1
  -5   3  -6 2741.06 905.998   4
   5  -3   6 4456.55 1106.84   2
  -5   3  -7 67950.7 4512.04   4
   5  -3   7 64836.6 4139.75   2
   5  -3   7 63569.9 3809.00   5
  -5   3  -7 69235.3 3615.31   1
  -5   3  -8 15474.9 2234.52   4
   5  -3   8 17538.0 2299.26   2
   5  -3   8 14235.8 1923.55   5
  -5   3  -8 16695.0 1911.05   1
  -5   3  -9 77063.8 5101.90   4
   5  -3   9 84622.8 4663.01   5
  -5   3  -9 94175.8 4619.82   1
  -5   3 -10 1549.73 837.729   4
  -5   3 -10 1423.09 622.027   1
   5  -3  10 805.195 510.175   5
  -5   3 -11 2582.79 1041.49   4
  -5   3 -11 5136.38 1123.76   1
   5  -3  11 3783.68 1153.49   5
  -5   3 -12 436.417 392.814   4
  -5   3 -12 1060.42 691.857   1
   5  -3  12 1655.36 817.654   5
  -5   3 -13 47192.7 4223.13   4
   5  -3  13 52868.3 4326.21   5
  -5   3 -13 57000.8 4019.54   1
  -5   3 -14 9483.77 1911.24   4
  -5   3 -14 6947.06 1524.08   1
   5  -3  14 9575.32 1909.53   5
  -5   3 -15 94598.5 6052.18   4
   5  -3  15 99572.2 6493.20   5
  -5   3 -15 90431.1 5294.89   1
  -5   3 -16 423.117 945.439   4
  -5   3 -16 201.639 281.391   1
   5  -3  16 823.603 612.480   5
  -5   3 -17-5.08793 232.493   4
  -5   3 -17-782.555 678.047   1
  -5   3 -18 4604.65 1370.47   4
  -5   3 -18 4630.58 1495.99   1
   5  -3  18 7415.32 2011.90   5
  -5   2  19 7622.01 2372.86   5
   5  -2 -19 12433.9 2110.77   3
  -5   2  18 1432.22 1118.06   5
   5  -2 -18-515.580 435.541   3
  -5   2  17 5728.55 1775.55   5
   5  -2 -17 4634.91 1140.13   3
   5  -2 -16 29661.5 3436.38   2
   5  -2 -16 27063.4 2515.34   3
  -5   2  16 29917.9 3640.70   5
   5  -2 -15 30904.7 3350.33   2
   5  -2 -15 34501.0 2645.54   3
  -5   2  15 40430.0 3960.09   5
  -5   2  14 2748.77 1040.27   5
   5  -2 -14 2035.47 947.761   2
   5  -2 -14 3106.37 819.574   3
   5  -2 -13 88408.0 5242.87   2
   5  -2 -13 85489.1 3867.45   3
  -5   2  13 90751.6 5289.83   5
  -5   2  12 6374.71 1359.98   5
   5  -2 -12 4907.18 1224.56   2
   5  -2 -12 6057.07 1054.42   3
   5  -2 -11 16271.6 2049.41   2
   5  -2 -11 18016.4 1674.90   3
  -5   2  11 18623.1 2252.72   5
  -5   2  10 476.372 544.881   5
   5  -2 -10 1668.32 632.338   2
  -5   2  10 879.185 294.093   4
   5  -2 -10 1218.28 455.952   3
  -5   2   9 8552.72 1395.84   5
  -5   2   9 6872.31 832.411   4
   5  -2  -9 8180.26 1410.17   2
   5  -2  -9 8270.34 1047.87   3
   5  -2  -8 46355.8 3143.21   2
  -5   2   8 44179.3 2260.52   4
   5  -2  -8 48395.9 2460.36   3
  -5   2   8 45164.9 3158.80   5
  -5   2   7 391.686 450.190   5
   5  -2  -7-38.3869 332.059   2
  -5   2   7-31.8449 95.1243   4
   5  -2  -7-395.398 565.539   6
   5  -2  -7 106.163 277.043   3
   5  -2  -6 170248. 5693.70   2
  -5   2   6 180133. 4926.01   4
   5  -2  -6 174563. 4488.02   3
   5  -2  -6 185413. 6705.83   6
   5  -2  -5 6450.17 1089.83   2
  -5   2   5 5623.43 939.928   4
   5  -2  -5 7158.88 1391.72   6
   5  -2  -5 5601.31 821.571   3
  -5   2   5 6933.55 1059.46   1
   5  -2  -4 15305.8 1631.12   2
  -5   2   4 16839.7 1668.51   4
  -5   2   4 13561.1 1426.89   1
   5  -2  -4 14670.4 1929.82   6
   5  -2  -3 30123.4 2256.12   2
  -5   2   3 31028.3 2286.08   4
  -5   2   3 32170.4 2070.22   1
   5  -2  -3 28234.3 2596.94   6
  -5   2   2-60.9566 342.635   4
   5  -2  -2 60.3822 174.613   2
   5  -2  -2-183.689 238.950   6
  -5   2   2-553.087 274.361   1
   5  -2  -1 22458.2 1888.42   2
  -5   2   1 23501.3 2186.24   4
  -5   2   1 23786.2 1636.02   1
   5  -2  -1 21916.0 835.093   7
   5  -2  -1 19838.8 2160.12   6
   5  -2   0 75320.8 3464.14   2
  -5   2   0 80431.8 4126.82   4
  -5   2   0 71012.7 2760.33   1
   5  -2   0 77509.4 2110.87   7
   5  -2   0 80657.5 4360.48   6
   5  -2   1 138367. 4702.35   2
  -5   2  -1 135317. 3822.60   1
  -5   2  -1 129806. 5452.45   4
   5  -2   1 133733. 5691.45   6
   5  -2   1 138274. 3347.61   7
  -5   2  -2 1101.54 543.226   4
   5  -2   2 966.415 356.685   7
   5  -2   2 123.281 297.967   2
  -5   2  -2-199.330 255.430   1
   5  -2   2 323.724 410.916   6
  -5   2  -3 45660.1 2306.32   1
   5  -2   3 46788.8 2851.11   2
  -5   2  -3 46065.1 3479.96   4
   5  -2   3 51366.7 2608.41   7
   5  -2   3 48935.0 3504.96   6
  -5   2  -4 46476.5 2457.79   1
   5  -2   4 51286.1 3065.31   2
  -5   2  -4 50740.9 3796.78   4
   5  -2   4 54756.9 2939.80   7
   5  -2   4 53901.4 3714.69   6
  -5   2  -5 35873.3 2312.04   1
   5  -2   5 36787.4 2704.24   2
  -5   2  -5 35072.7 3184.50   4
  -5   2  -6 3430.88 833.263   1
  -5   2  -6 1794.66 918.533   4
   5  -2   6 4287.03 1048.40   7
   5  -2   6 3183.36 925.424   2
  -5   2  -7 96386.3 4440.69   1
   5  -2   7 90380.9 4533.43   2
  -5   2  -7 82898.5 5327.67   4
   5  -2   7 77526.9 4476.81   7
   5  -2   7 88207.6 4298.05   5
  -5   2  -8 32072.9 2810.61   1
  -5   2  -8 33693.3 3517.98   4
   5  -2   8 33172.7 2869.03   2
   5  -2   8 32208.3 3077.67   7
   5  -2   8 33620.6 2749.47   5
  -5   2  -9 2296.01 775.304   1
   5  -2   9 1949.84 963.882   7
  -5   2  -9 1513.89 878.908   4
   5  -2   9 1718.32 636.466   5
  -5   2 -10 3501.31 1053.06   1
  -5   2 -10 2390.80 1009.09   4
   5  -2  10 2760.23 984.468   7
   5  -2  10 607.306 592.968   5
  -5   2 -11 23959.7 3001.90   4
   5  -2  11 25032.1 3089.19   7
   5  -2  11 26747.6 2789.94   5
  -5   2 -11 25768.6 2961.74   1
  -5   2 -12 9341.10 1902.00   1
  -5   2 -12 7767.49 1779.57   4
   5  -2  12 6854.36 1667.78   7
   5  -2  12 8919.93 1634.48   5
  -5   2 -13-521.967 699.303   4
   5  -2  13 389.752 681.699   7
   5  -2  13-418.705 608.991   5
  -5   2 -13 335.325 544.034   1
  -5   2 -14 65227.9 5146.65   4
   5  -2  14 67493.7 5410.92   7
   5  -2  14 72873.3 5190.82   5
  -5   2 -14 76714.3 5361.75   1
   5  -2  15 1125.71 717.840   7
  -5   2 -15 785.643 620.739   4
  -5   2 -15 736.186 568.909   1
   5  -2  15 1161.04 715.351   5
   5  -2  16 1505.49 1320.58   7
  -5   2 -16 862.998 675.483   4
  -5   2 -16 1028.92 848.227   1
   5  -2  16 3572.96 1276.67   5
   5  -2  17 2865.98 1282.58   7
  -5   2 -17 2550.41 1228.13   4
  -5   2 -17 1568.19 1046.62   1
   5  -2  17 3986.87 1545.50   5
  -5   2 -18 3141.73 1303.50   4
  -5   2 -18 2254.52 1129.84   1
   5  -2  18 2177.67 1242.11   5
   5  -1 -21-1616.10 1497.72   3
   5  -1 -20 7086.16 1879.96   3
  -5   1  19-916.800 1298.78   5
   5  -1 -19 1297.36 939.914   3
  -5   1  18 117.532 1081.15   5
   5  -1 -18 920.053 661.164   3
  -5   1  17 1562.23 1029.09   5
   5  -1 -17-119.601 559.157   3
  -5   1  16 18908.3 3038.69   5
   5  -1 -16 14286.8 1888.08   3
  -5   1  15 795.590 575.485   5
   5  -1 -15 52.8464 299.906   3
   5  -1 -14 187655. 8158.93   2
   5  -1 -14 197345. 6446.95   3
  -5   1  13 341.380 534.354   5
   5  -1 -13 334.419 380.862   2
   5  -1 -13-430.323 360.107   3
   5  -1 -12 51080.2 3908.05   2
   5  -1 -12 50698.4 3064.37   3
  -5   1  12 50474.4 3804.85   5
  -5   1  11 1312.31 802.659   5
   5  -1 -11 1769.12 736.213   2
   5  -1 -11 2373.93 682.143   3
  -5   1  10 2592.81 861.262   5
   5  -1 -10 2442.87 847.540   2
  -5   1  10 1946.29 427.374   4
   5  -1 -10 1261.11 523.599   3
  -5   1   9 4750.60 1062.86   5
   5  -1  -9 2941.20 813.308   2
  -5   1   9 2698.90 525.176   4
   5  -1  -9 2987.10 687.114   3
   5  -1  -8 36884.8 2776.51   2
  -5   1   8 35855.0 2065.39   4
   5  -1  -8 37578.3 2349.74   3
  -5   1   8 36433.3 2731.32   5
  -5   1   7 1346.29 551.141   5
   5  -1  -7 1047.08 461.228   2
  -5   1   7 1486.72 439.839   4
   5  -1  -7 2292.32 787.875   6
   5  -1  -7 964.765 378.574   3
  -5   1   6 1879.61 707.038   1
  -5   1   6 1673.16 573.518   5
   5  -1  -6 1959.07 585.091   2
  -5   1   6 1481.05 521.288   4
   5  -1  -6 1717.70 795.605   6
   5  -1  -6 1965.09 540.883   3
  -5   1   5 3619.20 883.404   1
   5  -1  -5 3846.46 772.517   2
  -5   1   5 3379.03 751.776   4
   5  -1  -5 3694.86 1017.88   6
   5  -1  -5 3745.02 725.895   3
   5  -1  -4 119520. 4269.28   2
   5  -1  -4 119187. 4038.38   3
  -5   1   4 120588. 4605.77   4
  -5   1   4 112853. 4650.80   1
   5  -1  -4 120946. 5493.22   6
  -5   1   3 510.658 430.931   1
   5  -1  -3 59.3839 197.691   2
  -5   1   3 220.041 320.132   4
   5  -1  -3 503.340 156.223   7
   5  -1  -3 3.14536 307.498   6
   5  -1  -2 599.403 338.482   2
  -5   1   2 564.962 567.941   4
   5  -1  -2 111.592 135.622   7
   5  -1  -2-220.970 389.768   6
  -5   1   2 160.349 360.028   1
  -5   1   1 1607.43 612.349   1
   5  -1  -1 4787.08 602.207   7
   5  -1  -1 3956.58 730.476   2
  -5   1   1 5123.59 1069.66   4
   5  -1  -1 2760.32 833.524   6
   5  -1   0 177139. 4713.23   2
  -5   1   0 168693. 6360.42   4
  -5   1   0 171442. 5339.76   1
   5  -1   0 164895. 3841.91   7
   5  -1   0 173845. 6536.29   6
  -5   1  -1 3071.48 712.943   1
   5  -1   1 3972.69 738.905   2
   5  -1   1 2969.00 556.967   7
   5  -1   1 2261.27 742.125   6
   5  -1   2 29215.9 1905.66   2
  -5   1  -2 27358.3 2154.74   1
   5  -1   2 28638.6 1904.04   7
   5  -1   2 25835.7 2585.65   6
   5  -1   3 276.144 338.879   2
   5  -1   3 737.706 534.402   6
  -5   1  -3 394.480 326.842   1
  -5   1  -4 31673.0 2363.32   1
   5  -1   4 33313.6 2186.79   2
   5  -1   4 31323.1 2926.27   6
   5  -1   5 1368.16 575.400   7
  -5   1  -5 960.940 515.212   1
   5  -1   5 145.803 365.951   2
   5  -1   5 385.923 373.141   6
  -5   1  -6 295700. 7571.52   1
   5  -1   6 304663. 7130.15   2
   5  -1   6 313335. 8386.15   7
  -5   1  -7 1106.88 629.452   1
   5  -1   7 919.347 641.067   7
   5  -1   7 170.895 412.799   2
   5  -1   7 1209.25 555.604   5
  -5   1  -8 45113.9 3306.13   1
   5  -1   8 45849.5 3005.57   2
   5  -1   8 43474.1 3546.80   7
   5  -1   8 43350.0 3032.53   5
  -5   1  -9-172.635 517.879   1
   5  -1   9-305.300 443.506   7
   5  -1   9 456.020 467.402   2
   5  -1   9-460.558 546.919   5
  -5   1 -10 21579.6 2534.46   1
   5  -1  10 19319.0 2214.57   5
  -5   1 -11 811.141 607.222   1
   5  -1  11 1381.76 730.013   7
   5  -1  11 1388.40 614.152   5
  -5   1 -12 402.206 627.599   1
   5  -1  12 878.578 640.567   7
   5  -1  12 1438.59 799.618   5
  -5   1 -13 8643.45 1939.18   1
   5  -1  13 6474.99 1887.60   7
   5  -1  13 6873.71 1548.54   5
  -5   1 -14 5696.76 1613.57   1
   5  -1  14 5686.79 1784.47   7
  -5   1 -14 4793.42 1521.61   4
   5  -1  14 4030.35 1199.18   5
  -5   1 -15 932.522 951.766   1
  -5   1 -15-978.442 670.717   4
   5  -1  15 624.161 800.537   5
   5  -1  16 17819.1 3090.78   7
  -5   1 -16 23363.9 3289.72   4
   5  -1  16 18209.8 2831.65   5
  -5   1 -16 22313.8 3395.65   1
  -5   1 -17 722.543 800.751   4
  -5   1 -17 1426.43 1017.60   1
   5  -1  17 3328.14 1509.43   5
  -5   1 -18 1111.27 895.745   4
  -5   1 -18-1557.07 1102.69   1
  -5   0  20 20565.3 3346.44   5
   5   0 -20 19166.8 2753.50   3
  -5   0  19-141.155 329.551   5
   5   0 -19 1138.87 846.523   3
  -5   0  18 1373.97 856.292   5
   5   0 -18 4031.64 1148.37   3
  -5   0  17 147.833 1112.19   5
   5   0 -17 1164.72 728.440   3
  -5   0  16 276.621 778.131   5
   5   0 -16 2261.67 831.287   3
   5   0 -15 43813.6 3309.31   3
  -5   0  15 43959.5 4437.50   5
  -5   0  14 12490.2 2201.56   5
   5   0 -14 9935.86 1555.22   3
   5   0 -13 31876.9 2669.11   3
  -5   0  13 28960.0 3188.70   5
   5   0 -12 22871.3 2157.24   3
  -5   0  12 26182.7 2859.47   5
  -5   0  11 10952.8 1767.86   5
   5   0 -11 8843.45 1335.57   3
   5   0 -10 8523.24 1538.41   2
  -5   0  10 8102.60 1374.43   5
   5   0 -10 8489.61 1278.97   3
  -5   0   9 4983.26 1069.70   5
   5   0  -9 5742.11 1195.19   2
  -5   0   9 4739.31 752.496   4
   5   0  -9 4840.13 924.473   3
   5   0  -8 121197. 5232.22   2
  -5   0   8 117739. 4114.35   4
   5   0  -8 114829. 4408.40   3
  -5   0   8 104772. 5573.10   1
  -5   0   8 114536. 4728.31   5
  -5   0   7 623.726 385.847   5
  -5   0   7 454.978 556.871   1
   5   0  -7-113.173 259.218   2
  -5   0   7 858.427 423.791   4
   5   0  -7-35.2254 349.399   6
   5   0  -7 44.8782 234.954   3
   5   0  -6 73568.6 3665.93   2
  -5   0   6 68188.8 3436.18   4
   5   0  -6 69277.5 3374.38   3
  -5   0   6 72835.8 4389.65   1
   5   0  -6 77354.4 4550.15   6
  -5   0   6 74065.8 3497.34   5
   5   0  -5 31244.6 2264.80   2
   5   0  -5 26677.4 2087.10   3
  -5   0   5 30247.7 2808.06   1
   5   0  -5 24537.9 2572.47   6
  -5   0   5 31204.9 2190.44   5
   5   0  -4 11925.8 1307.31   2
  -5   0   4 8537.21 1486.61   1
   5   0  -4 8039.52 861.918   7
   5   0  -4 8586.58 1218.94   3
   5   0  -4 10718.5 1688.56   6
  -5   0   4 8754.52 1113.45   5
   5   0  -3 27910.5 1949.78   2
   5   0  -3 25329.2 1598.31   7
  -5   0   3 25825.1 2497.79   1
   5   0  -3 23214.9 2465.84   6
   5   0  -2 146483. 4123.53   2
  -5   0   2 154042. 5954.48   1
   5   0  -2 133774. 3857.93   7
   5   0  -2 136042. 5914.62   6
  -5   0   1 416.484 607.357   1
   5   0  -1 1067.85 363.384   7
   5   0  -1 1073.54 534.388   6
   5   0   0 73802.3 2602.78   2
  -5   0   0 69700.5 3943.74   1
   5   0   0 73007.8 3083.31   7
   5   0   0 72242.5 4348.32   6
  -5   0  -1-787.454 594.823   1
   5   0   1-60.5968 159.441   2
   5   0   1-450.157 402.508   6
   5   0   2 40911.4 1788.48   2
  -5   0  -2 43951.7 3114.86   1
   5   0   2 40849.3 3333.40   6
   5   0   3 6622.86 695.995   2
   5   0   3 6559.47 1119.76   7
   5   0   3 5619.31 1249.83   6
  -5   0  -3 6519.25 1213.84   1
   5   0   4 6095.11 1135.20   7
   5   0   4 3712.61 1021.18   6
  -5   0  -4 4257.20 991.795   1
  -5   0  -5 55684.5 3559.42   1
   5   0   5 55435.1 3533.56   7
   5   0   5 58719.1 4163.81   6
  -5   0  -6 31358.6 2731.82   1
   5   0   6 31286.3 2802.49   7
   5   0   6 33447.7 3219.31   6
  -5   0  -7 34959.7 2985.34   1
   5   0   7 41695.4 3391.51   7
   5   0   7 37836.6 3581.44   6
  -5   0  -8 3698.81 1012.53   1
   5   0   8 4006.40 1186.48   7
   5   0   8 3824.70 861.604   5
  -5   0  -9 849.507 490.331   1
   5   0   9 566.403 518.662   7
   5   0   9 796.130 502.552   5
  -5   0 -10 4460.85 1219.13   1
   5   0  10 4052.75 1344.96   7
   5   0  10 3564.86 931.374   5
  -5   0 -11 1480.46 744.222   1
   5   0  11 3150.77 1125.73   7
   5   0  11 1905.66 774.351   5
  -5   0 -12 66938.1 5190.72   1
   5   0  12 60051.1 5302.56   7
  -5   0 -13 2679.32 1376.34   1
   5   0  13 2523.22 1315.82   7
   5   0  14 37834.5 4505.97   7
  -5   0 -14 35935.8 4091.57   1
  -5   0 -15 3868.93 1655.28   1
   5   0  15 3563.32 1464.36   7
  -5   0 -16-1104.03 916.168   1
  -5  -1  20-519.378 774.231   5
  -5  -1  19 2811.62 1322.16   5
   5   1 -19 686.323 803.201   3
  -5  -1  18-319.634 624.904   5
   5   1 -18-1382.26 887.991   3
  -5  -1  17 3026.14 1235.16   5
   5   1 -17 2084.69 821.830   3
  -5  -1  16 11448.7 2138.45   5
   5   1 -16 12634.7 1890.44   3
  -5  -1  15 3973.79 1270.68   5
   5   1 -15 5914.49 1214.33   3
  -5  -1  14 4710.06 1355.24   5
   5   1 -14 3779.97 991.817   3
   5   1 -13 24013.6 2393.46   3
  -5  -1  13 20852.8 2940.42   5
  -5  -1  12 7932.12 1812.98   5
   5   1 -12 6178.17 1178.15   3
   5   1 -11 23390.0 2259.28   3
  -5  -1  11 20686.9 2566.44   5
  -5  -1  10-135.518 369.868   5
  -5  -1  10-787.374 606.926   1
   5   1 -10-423.308 395.972   3
  -5  -1   9 30379.3 2163.13   4
   5   1  -9 25297.6 2254.28   3
  -5  -1   9 30361.0 3306.33   1
  -5  -1   9 34796.7 2912.37   5
  -5  -1   8 13939.2 2307.31   1
   5   1  -8 12536.4 1561.47   3
  -5  -1   8 18431.1 1916.65   5
   5   1  -7 22673.0 2075.06   3
  -5  -1   7 21993.6 2726.97   1
   5   1  -7 20826.9 2520.09   6
  -5  -1   7 23282.1 2092.95   5
  -5  -1   6-180.792 309.384   5
  -5  -1   6-110.984 289.502   1
   5   1  -6-308.005 297.160   6
   5   1  -6-577.468 473.315   3
  -5  -1   5 4109.09 801.580   5
  -5  -1   5 4117.18 1102.30   1
   5   1  -5 5376.55 1213.17   6
   5   1  -5 5150.15 974.711   3
  -5  -1   4 5179.80 1372.36   1
  -5  -1   4 3780.68 704.564   5
   5   1  -4 4011.66 856.989   3
   5   1  -4 2184.57 993.452   6
  -5  -1   3 157703. 6858.27   1
   5   1  -3 145828. 6344.21   6
  -5  -1   3 158776. 4286.56   5
   5   1  -2 36178.0 3172.36   6
  -5  -1   2 38744.1 3377.96   1
  -5  -1   2 38973.8 2035.53   5
  -5  -1   1 170907. 6927.33   1
   5   1  -1 158366. 6546.69   6
  -5  -1   0 2455.74 941.220   1
   5   1   0 2389.87 722.491   7
   5   1   0 1984.50 750.201   6
   5   1   1 130.652 176.538   7
   5   1   1-158.814 404.634   6
   5   1   2 8822.00 1372.46   7
   5   1   2 8683.13 1548.95   6
  -5  -1  -2 9294.53 1683.10   1
   5   1   3 3828.08 947.937   7
   5   1   3 4490.28 1150.61   6
  -5  -1  -3 3128.87 914.416   1
  -5  -1  -4 16224.4 2151.33   1
   5   1   4 16487.9 2041.49   7
   5   1   4 13347.5 2041.37   6
   5   1   5 4292.30 1103.98   7
   5   1   5 4468.25 1286.47   6
  -5  -1  -5 4064.31 1198.25   1
  -5  -1  -6 18739.7 2356.81   1
   5   1   6 18118.3 2311.13   7
   5   1   6 20555.2 2606.28   6
  -5  -1  -7 17718.4 2389.41   1
   5   1   7 19398.1 2461.09   7
   5   1   7 23559.3 2860.17   6
  -5  -1  -8 11650.0 1903.68   1
   5   1   8 11477.4 2060.70   7
   5   1   8 11669.8 2128.42   6
  -5  -1  -9 11814.8 2040.73   1
   5   1   9 15265.2 2407.01   7
   5   1   9 14102.0 2330.69   6
  -5  -1 -10-137.326 279.564   1
   5   1  10 605.827 615.934   6
  -5  -1 -11 36872.0 3790.26   1
   5   1  11 33854.8 3976.38   7
  -5  -1 -12 12605.0 2398.42   1
   5   1  12 12263.5 2735.59   7
  -5  -1 -13 33749.3 3987.79   1
   5   1  13 30584.9 4051.03   7
  -5  -1 -14 3764.51 1519.35   1
   5   1  14 3704.57 1784.84   7
  -5  -2  19 6722.78 1836.77   5
  -5  -2  18 8882.46 1814.69   5
   5   2 -18 6127.15 1544.41   3
  -5  -2  17 17452.3 2593.23   5
   5   2 -17 17305.0 2419.56   3
  -5  -2  16-1722.19 1022.11   5
   5   2 -16 1205.79 772.920   3
   5   2 -15 38519.3 3398.07   3
  -5  -2  15 41557.0 3815.63   5
  -5  -2  14 6216.74 1429.10   5
   5   2 -14 4702.81 1154.59   3
  -5  -2  13 2736.41 914.258   5
  -5  -2  13 2089.83 1171.42   1
   5   2 -13 1926.60 736.324   3
  -5  -2  12 10411.8 1802.57   5
  -5  -2  12 7987.96 1977.32   1
   5   2 -12 10124.6 1587.44   3
   5   2 -11 23008.6 2394.06   3
  -5  -2  11 29639.4 3703.06   1
  -5  -2  11 29431.0 2880.87   5
   5   2 -10 21495.9 2212.13   3
  -5  -2  10 25146.1 3303.76   1
   5   2  -9 109850. 5004.66   3
  -5  -2   9 112040. 6827.52   1
  -5  -2   8 3431.56 1130.68   1
   5   2  -8 3666.92 972.398   3
  -5  -2   7 62.7261 583.192   1
   5   2  -7 811.993 489.217   7
   5   2  -7 483.618 470.568   3
   5   2  -6 22491.9 2165.16   7
  -5  -2   6 23437.3 2980.99   1
   5   2  -6 23356.5 2267.13   3
   5   2  -6 19636.6 2554.32   6
   5   2  -5 18505.9 1936.06   7
  -5  -2   5 17498.1 2611.68   1
   5   2  -5 18699.2 2021.99   3
   5   2  -5 18299.0 2343.45   6
  -5  -2   4 22815.3 2985.32   1
   5   2  -4 23321.7 2209.23   7
   5   2  -4 22336.4 2588.95   6
   5   2  -3 23508.4 2229.21   7
   5   2  -3 25390.6 2726.28   6
  -5  -2   3 21844.3 2868.80   1
  -5  -2   2 16830.2 2520.55   1
   5   2  -2 19672.5 2058.67   7
   5   2  -2 20576.5 2451.45   6
  -5  -2   1 1934.44 1011.76   1
   5   2  -1 1758.07 759.668   7
   5   2  -1 2177.47 841.663   6
  -5  -2   0 28159.8 3151.83   1
   5   2   0 25397.3 2422.89   7
   5   2   0 26530.4 2779.89   6
  -5  -2  -1 14481.4 2294.87   1
   5   2   1 12437.4 1762.71   7
   5   2   1 13711.6 2002.10   6
  -5  -2  -2 17244.3 2520.70   1
   5   2   2 14926.4 1940.55   7
   5   2   2 15476.7 2213.11   6
  -5  -2  -3 30136.0 3260.65   1
   5   2   3 33098.5 3012.29   7
   5   2   3 27270.9 2886.77   6
   5   2   4 2409.38 897.832   7
   5   2   4 2020.18 869.034   6
  -5  -2  -4 795.149 519.701   1
  -5  -2  -5 106077. 6074.20   1
   5   2   5 105485. 5694.13   7
   5   2   5 104575. 5964.54   6
   5   2   6 4872.71 1400.84   7
  -5  -2  -6 5346.66 1487.79   1
   5   2   6 4611.74 1274.56   6
   5   2   7 1777.17 1016.64   7
  -5  -2  -7 2487.85 1059.60   1
   5   2   7 2309.79 1002.01   6
  -5  -2  -8 375.705 734.911   1
   5   2   8 831.715 879.044   7
   5   2   8 1009.21 823.022   6
  -5  -2  -9 3963.69 1248.50   1
   5   2   9 4287.85 1539.44   7
   5   2   9 4840.94 1532.67   6
  -5  -2 -10 3535.00 1195.75   1
   5   2  10 2026.87 1144.35   7
   5   2  10 3910.24 1391.19   6
  -5  -2 -11 51778.9 4772.55   1
   5   2  11 42798.7 4756.54   7
   5   2  11 48059.1 4721.34   6
  -5  -2 -12 908.415 743.626   1
   5   2  12 1385.48 1361.80   7
   5   2  12 252.172 804.793   6
   5   2  13-552.733 737.091   6
  -5  -3  16 5237.01 1998.79   1
  -5  -3  15 3583.92 1593.79   1
   5   3 -15 2653.57 934.072   3
  -5  -3  14 4412.23 1773.83   1
   5   3 -14 5408.91 1271.11   3
  -5  -3  13 3606.05 1637.42   1
   5   3 -13 3630.19 1085.69   3
   5   3 -12 23642.0 2575.92   3
  -5  -3  12 32807.4 4300.83   1
  -5  -3  11 19702.7 3235.91   1
   5   3 -11 18476.9 2237.33   3
   5   3 -10 50598.7 3661.43   3
  -5  -3  10 59092.3 5390.30   1
  -5  -3   9 40150.2 4430.31   1
   5   3  -9 33368.4 2987.40   3
  -5  -3   8 15622.6 2632.31   1
   5   3  -8 18663.2 2166.71   3
  -5  -3   7-62.3444 174.670   1
   5   3  -7 794.876 623.774   7
   5   3  -7 318.795 380.182   3
   5   3  -6 2848.03 845.836   7
   5   3  -6 1409.84 714.507   3
  -5  -3   6 3294.70 1330.67   1
   5   3  -5 1217.57 607.946   7
   5   3  -5-466.897 431.862   6
  -5  -3   5-780.619 1156.56   1
   5   3  -4 16.4905 358.329   7
   5   3  -4-504.735 312.241   6
  -5  -3   3 38964.2 4067.31   1
   5   3  -3 40776.9 3259.47   7
   5   3  -3 41740.0 3580.59   6
  -5  -3   2 7452.45 1996.54   1
   5   3  -2 5507.04 1248.55   7
   5   3  -2 5018.88 1221.64   6
  -5  -3   1 1770.95 1228.65   1
   5   3  -1 3331.22 1100.45   7
   5   3  -1 1516.62 717.177   6
  -5  -3   0 9739.39 2260.76   1
   5   3   0 10258.7 1715.12   7
   5   3   0 9448.56 1728.63   6
  -5  -3  -1 17868.3 2744.61   1
   5   3   1 17341.5 2350.84   7
   5   3   1 15229.5 2243.31   6
   5   3   2 2143.71 803.963   7
   5   3   2-65.1034 539.560   6
  -5  -3  -2 2225.13 1095.04   1
  -5  -3  -3 29487.0 3500.83   1
   5   3   3 31564.7 3195.40   7
   5   3   3 26935.3 2992.54   6
  -5  -3  -4 26563.7 3349.74   1
   5   3   4 26138.0 2946.91   7
   5   3   4 26569.5 3064.09   6
   5   3   5 7006.01 1723.70   7
   5   3   5 4436.36 1332.17   6
  -5  -3  -5 8347.57 1928.94   1
  -5  -3  -6 24634.2 3221.74   1
   5   3   6 25808.6 3201.57   7
   5   3   6 23123.8 2893.54   6
   5   3   7 7980.92 2056.88   7
  -5  -3  -7 10456.7 2167.01   1
   5   3   7 13565.7 2276.18   6
  -5  -3  -8 34338.2 3924.62   1
   5   3   8 34755.8 3985.83   7
  -5  -3  -9 7460.39 1883.50   1
   5   3   9 9926.35 2395.18   7
   5   3  10 24588.1 3569.77   7
  -5  -4  13 15182.4 3065.64   1
  -5  -4  12 1830.38 1131.05   1
   5   4 -12 408.609 436.103   3
  -5  -4  11-586.522 754.030   1
   5   4 -11 1662.96 746.021   3
  -5  -4  10 7365.96 2097.11   1
   5   4 -10 5856.42 1323.98   3
  -5  -4   9 15581.5 2913.10   1
   5   4  -9 14368.3 2070.93   3
   5   4  -8 2492.11 1130.49   7
   5   4  -8 1228.91 754.848   3
  -5  -4   8 2145.97 1186.83   1
  -5  -4   7 32574.1 4126.95   1
   5   4  -7 33822.7 3316.00   7
   5   4  -7 32333.7 3004.26   3
   5   4  -6 2388.44 1035.28   7
  -5  -4   6 3418.62 1661.89   1
  -5  -4   5 2367.82 1491.83   1
   5   4  -5 2784.86 1115.73   7
  -5  -4   4 53581.5 5187.56   1
   5   4  -4 53379.6 4118.68   7
  -5  -4   3 19426.7 3187.29   1
   5   4  -3 22465.9 2749.14   7
   5   4  -3 18055.5 2411.97   6
  -5  -4   2 17289.8 2910.68   1
   5   4  -2 16332.3 2377.79   7
   5   4  -2 17363.6 2298.91   6
   5   4  -1 1148.85 759.262   7
   5   4  -1 720.362 694.945   6
  -5  -4   0 4913.31 1726.13   1
   5   4   0 2881.28 1123.87   7
  -5  -4  -1 4433.18 1550.05   1
   5   4   1 5348.25 1429.33   7
   5   4   2 21521.3 2856.00   7
  -5  -4  -2 23013.8 3266.13   1
  -5  -4  -3 31110.4 3846.40   1
   5   4   3 25441.1 3201.27   7
   5   4   4 8350.60 1838.67   7
  -5  -4  -4 9590.77 2173.03   1
   5   4   5 2436.47 1241.08   7
  -5  -4  -5 2003.75 1191.03   1
   5   4   6 3749.40 1534.01   7
   5   4   7 15424.0 2829.20   7
   5   5  -7 546.702 668.188   7
  -5  -5   6-1233.49 1160.06   1
   5   5  -6 58.2583 322.101   7
  -5  -5   5-1088.33 1266.35   1
   5   5  -5-19.5911 777.106   7
  -5  -5   4 14520.0 2965.44   1
   5   5  -4 15519.1 2537.47   7
  -5  -5   3 8368.93 2385.37   1
   5   5  -3 6529.87 1729.60   7
  -5  -5   2-315.263 787.718   1
   5   5  -2 662.137 711.795   7
   5   5  -1 40343.7 4071.45   7
   5   5   0 607.336 1035.65   7
   5   5   1 17315.0 2777.31   7
   5   5   2 42323.0 4490.79   7
   5   5   3 4056.04 1557.47   7
  -6   9   9 1903.02 772.063   4
  -6   9   8 3395.06 1210.94   5
  -6   9   8 4061.51 1145.24   4
  -6   9   7 15184.9 2078.63   4
   6  -9  -7 16237.1 2783.13   2
  -6   9   6 14081.3 2066.81   4
   6  -9  -6 13434.7 2428.32   2
  -6   9   5 3840.47 1200.62   4
   6  -9  -5 3869.55 1482.88   2
  -6   9   4 540.347 610.944   4
   6  -9  -4 778.366 997.915   2
  -6   9   3 2475.46 1069.68   4
   6  -9  -3 4519.47 1464.47   2
  -6   9   2 9089.64 1716.11   4
   6  -9  -2 10272.2 2176.36   2
  -6   9   1 6640.75 1410.66   4
   6  -9  -1 8075.68 2048.63   2
  -6   9   0 4168.61 1150.79   4
   6  -9   0 4545.11 1530.10   2
  -6   9  -1 21215.6 2592.64   4
   6  -9   1 23179.6 3358.97   2
  -6   9  -2 29114.8 3036.14   4
   6  -9   2 33289.8 3944.61   2
  -6   9  -3 3746.35 1235.50   4
   6  -9   3 2432.40 1262.64   2
  -6   9  -4 58535.4 4348.14   4
   6  -9   4 63990.1 5605.61   2
  -6   9  -5-829.844 745.381   4
   6  -9   5-1289.88 1064.67   2
  -6   9  -6 7868.39 1711.73   4
   6  -9   6 7861.74 2061.36   2
  -6   9  -7 11976.6 2091.79   4
   6  -9   7 12946.7 2707.35   2
  -6   9  -8 1541.44 727.881   4
   6  -9   8-1679.09 1155.84   2
  -6   9  -9 385.066 638.747   4
   6  -9   9-1098.59 940.798   2
  -6   9 -10 1238.35 689.874   4
  -6   9 -11 4521.36 1469.53   4
  -6   8  11 10036.2 2164.82   5
  -6   8  11 9235.71 1690.21   4
  -6   8  10 3101.92 1169.61   5
  -6   8  10 3250.24 912.309   4
   6  -8 -10 3166.63 1287.95   2
  -6   8   9 2225.65 1050.98   5
   6  -8  -9-957.784 762.104   2
  -6   8   9 645.665 704.389   4
  -6   8   8 11649.8 2230.23   5
  -6   8   8 11816.0 1767.80   4
   6  -8  -8 10932.9 2139.36   2
   6  -8  -7 59839.3 5042.43   2
  -6   8   7 52105.6 3627.04   4
   6  -8  -6 24721.5 3308.85   2
  -6   8   6 24099.5 2589.44   4
  -6   8   5 2506.16 865.329   4
   6  -8  -5 1811.54 865.232   2
   6  -8  -4 23569.2 3157.72   2
  -6   8   4 20258.0 2330.51   4
  -6   8   3 4090.63 1086.06   4
   6  -8  -3 4863.82 1504.31   2
  -6   8   2 14077.4 1995.66   4
   6  -8  -2 14754.1 2539.99   2
  -6   8   1 2397.15 940.696   4
   6  -8  -1 4862.68 1379.81   2
  -6   8   0 5462.78 1204.38   4
   6  -8   0 5355.50 1614.64   2
  -6   8  -1 4344.79 1197.04   4
   6  -8   1 3830.31 1392.50   2
  -6   8  -2 665.443 475.233   4
   6  -8   2-401.445 672.958   2
  -6   8  -3 66540.8 4331.41   4
   6  -8   3 68567.3 5497.00   2
  -6   8  -4 940.565 788.701   4
   6  -8   4 1124.39 1002.23   2
  -6   8  -5 6499.44 1391.40   4
   6  -8   5 4216.42 1408.43   2
  -6   8  -6 485.188 451.002   4
   6  -8   6 147.521 532.483   2
  -6   8  -7 6050.66 1380.20   4
   6  -8   7 4384.54 1456.96   2
  -6   8  -8 2932.37 975.245   4
   6  -8   8 3481.57 1463.83   2
  -6   8  -9 8956.24 1754.13   4
   6  -8   9 9195.98 2306.27   2
  -6   8 -10 13339.6 2197.07   4
   6  -8  10 14490.0 3008.87   2
  -6   8 -11 309.581 420.673   4
   6  -8  11-30.4283 278.191   2
  -6   8 -12 15645.1 2457.43   4
   6  -8  12 20057.3 3498.42   2
  -6   8 -13 23096.0 3051.75   4
  -6   8 -14 11647.6 2181.95   4
  -6   8 -15-852.089 1295.31   4
  -6   7  13 7073.55 1797.91   5
  -6   7  12-101.075 258.611   5
   6  -7 -12-687.471 637.462   2
  -6   7  11 12990.8 2338.85   5
  -6   7  11 10517.4 1597.13   4
   6  -7 -11 10071.8 2116.23   2
  -6   7  10 2815.26 1215.73   5
  -6   7  10 2045.61 729.027   4
   6  -7 -10 2045.37 996.365   2
  -6   7   9 401.746 720.041   5
  -6   7   9 2004.71 783.563   4
   6  -7  -9 3115.26 1170.22   2
   6  -7  -8 27077.5 3256.16   2
  -6   7   8 26729.9 2472.90   4
  -6   7   7 10073.6 1537.63   4
   6  -7  -7 9531.61 1927.85   2
  -6   7   6 4364.51 1132.02   4
   6  -7  -6 4915.73 1430.75   2
   6  -7  -5 128532. 6866.34   2
  -6   7   5 107026. 5016.90   4
  -6   7   4 745.174 448.284   4
   6  -7  -4 406.105 744.755   2
   6  -7  -3 73884.6 5180.44   2
  -6   7   3 69251.4 4044.84   4
  -6   7   2 14966.0 1839.26   4
   6  -7  -2 15783.4 2342.19   2
   6  -7  -2 16544.7 1921.15   6
  -6   7   1 1997.94 773.246   4
   6  -7  -1 1524.76 878.413   2
   6  -7  -1 711.827 630.789   6
  -6   7   0 9459.90 1548.47   4
   6  -7   0 8413.77 1852.15   2
   6  -7   0 9339.95 1534.85   6
  -6   7  -1 2658.06 960.745   4
   6  -7   1 2372.44 1063.68   2
   6  -7   1 2819.94 818.006   6
  -6   7  -2 3779.61 1001.64   4
   6  -7   2 3724.70 1172.33   2
   6  -7   2 3450.17 969.651   6
  -6   7  -3 5302.62 1187.14   4
   6  -7   3 5941.72 1546.45   2
   6  -7   3 4977.17 1125.98   6
  -6   7  -4 423.499 583.384   4
   6  -7   4 366.200 388.775   2
   6  -7   4-244.663 565.656   6
  -6   7  -5 46890.1 3697.87   4
   6  -7   5 43391.9 4260.12   2
   6  -7   5 47546.9 3613.66   6
  -6   7  -6 12275.0 1922.50   4
   6  -7   6 11592.9 1946.36   6
   6  -7   6 11792.9 2277.87   2
  -6   7  -7 4900.06 1234.00   4
   6  -7   7 5561.09 1380.42   6
   6  -7   7 4271.18 1426.15   2
  -6   7  -8 2640.47 1047.36   4
   6  -7   8 2195.44 1047.86   2
  -6   7  -9 36620.1 3533.58   4
   6  -7   9 30883.4 4021.67   2
  -6   7 -10 1161.24 839.847   4
   6  -7  10 1096.47 995.183   2
  -6   7 -11 13526.8 2251.23   4
   6  -7  11 11021.2 2404.27   2
  -6   7 -12 13558.9 2310.59   4
   6  -7  12 13240.5 2708.88   2
  -6   7 -13 1738.62 1199.25   4
   6  -7  13 137.269 491.446   5
   6  -7  13 2054.76 1209.17   2
  -6   7 -14 3240.78 1181.40   4
   6  -7  14 8.17504 1480.43   2
   6  -7  14 3948.11 1504.40   5
  -6   7 -15 37158.3 3983.56   4
  -6   7 -16 105.180 736.492   4
   6  -6 -14 27109.8 3402.36   2
  -6   6  14 28225.3 3560.57   5
   6  -6 -13 29087.5 3433.24   2
  -6   6  13 27776.8 3400.51   5
  -6   6  12-94.4218 479.523   5
   6  -6 -12 838.482 848.909   2
   6  -6 -11 34513.3 3672.62   2
  -6   6  11 30214.0 2478.27   4
  -6   6  11 35129.0 3681.22   5
  -6   6  10 3939.26 1330.82   5
  -6   6  10 2358.03 781.630   4
   6  -6 -10 4184.51 1422.89   2
  -6   6   9 6132.88 1573.34   5
  -6   6   9 4452.20 930.047   4
   6  -6  -9 3815.54 1206.11   2
  -6   6   8 6131.84 1154.00   4
   6  -6  -8 7499.59 1758.85   2
  -6   6   7 5752.76 1059.76   4
   6  -6  -7 4646.81 1293.61   2
   6  -6  -6 50477.1 4162.75   2
  -6   6   6 50097.4 3191.67   4
   6  -6  -5 17888.3 2400.07   2
  -6   6   5 17412.2 1917.31   4
   6  -6  -5 17514.1 2098.90   6
   6  -6  -4 57493.3 4292.70   2
  -6   6   4 59595.6 3528.13   4
   6  -6  -4 60016.8 3815.84   6
  -6   6   3-268.687 337.385   4
   6  -6  -3-539.300 442.344   2
   6  -6  -3-726.335 723.925   6
  -6   6   2 2065.52 788.007   4
   6  -6  -2 4381.98 1186.09   2
   6  -6  -2 2176.17 862.396   6
  -6   6   1 2919.55 879.811   4
   6  -6  -1 3476.75 1033.40   2
   6  -6  -1 3065.02 874.744   6
  -6   6   0 987.621 699.071   4
   6  -6   0 548.355 416.114   2
   6  -6   0 79.2698 535.230   6
   6  -6   1 30872.9 3229.39   2
  -6   6  -1 33913.5 2840.33   4
   6  -6   1 32236.7 2865.34   6
  -6   6  -2 1791.34 732.855   4
   6  -6   2 649.295 517.326   2
   6  -6   2 1134.65 555.636   6
  -6   6  -3 59588.5 3906.15   4
   6  -6   3 55384.1 4431.15   2
   6  -6   3 61530.7 4076.50   6
  -6   6  -4 43103.2 3452.77   4
   6  -6   4 46974.8 4126.66   2
   6  -6   4 49874.8 3678.33   6
  -6   6  -5 16347.0 2155.55   4
   6  -6   5 16981.3 2212.66   6
   6  -6   5 13830.6 2361.25   2
  -6   6  -6 69819.7 4525.77   4
   6  -6   6 68821.0 5215.96   2
   6  -6   6 72041.8 4665.15   6
  -6   6  -7 23839.1 2700.44   4
   6  -6   7 26734.3 3320.03   2
  -6   6  -8 2526.38 973.075   4
   6  -6   8 4007.27 1311.37   2
  -6   6  -9 35230.9 3512.34   4
   6  -6   9 41214.1 4470.52   2
  -6   6 -10 1168.59 660.291   4
   6  -6  10 408.861 840.753   2
  -6   6 -11 168.768 272.483   4
   6  -6  11-1203.37 925.891   2
  -6   6 -12 1640.54 857.165   4
   6  -6  12 5210.38 1651.75   2
   6  -6  12 3448.23 1303.35   5
  -6   6 -13 1711.90 906.448   4
   6  -6  13 1239.77 1004.97   2
   6  -6  13 1620.23 843.053   5
  -6   6 -14 17806.7 2760.30   4
   6  -6  14 23772.4 3331.31   5
  -6   6 -15 7486.25 1747.19   4
   6  -6  15 8828.61 2106.67   5
  -6   6 -16 15712.2 2523.85   4
  -6   6 -17 796.331 913.781   4
  -6   5  15 12659.4 2462.10   5
   6  -5 -15 11305.2 2210.23   2
   6  -5 -14 37944.3 3936.63   2
  -6   5  14 37298.5 4012.93   5
  -6   5  13 16392.7 2494.19   5
   6  -5 -13 17470.6 2519.84   2
   6  -5 -12 121468. 6564.32   2
  -6   5  12 124338. 6890.58   5
   6  -5 -11 19760.6 2605.82   2
  -6   5  11 20204.8 2765.36   5
  -6   5  10 247.298 471.241   5
  -6   5  10 668.195 489.993   4
   6  -5 -10 1506.45 808.135   2
  -6   5   9 12196.0 2068.34   5
  -6   5   9 11097.5 1423.18   4
   6  -5  -9 11896.0 1930.60   2
  -6   5   8 2492.57 762.678   4
   6  -5  -8 2026.53 837.111   2
  -6   5   7 422.288 428.896   4
   6  -5  -7 1677.25 764.634   2
   6  -5  -6 16379.1 2229.43   2
  -6   5   6 16387.4 1735.83   4
   6  -5  -6 19584.6 2303.12   6
  -6   5   5 2168.39 579.785   4
   6  -5  -5 2120.36 837.979   2
   6  -5  -5 1359.11 837.948   6
   6  -5  -4 23939.6 2578.03   2
  -6   5   4 23167.4 2122.49   4
   6  -5  -4 22637.4 2497.75   6
  -6   5   3 252.849 325.861   4
   6  -5  -3 1005.26 632.637   2
   6  -5  -3-32.7492 698.084   6
   6  -5  -2 92546.9 5093.23   2
  -6   5   2 97654.1 4513.05   4
   6  -5  -2 94962.3 4964.06   6
  -6   5   1 2552.32 829.894   4
   6  -5  -1 2450.42 820.878   2
   6  -5  -1 2851.87 846.947   6
  -6   5   0 9388.19 1451.63   4
   6  -5   0 10339.3 1745.82   2
   6  -5   0 9043.83 1544.08   6
  -6   5  -1 8937.63 1437.43   4
   6  -5   1 12168.5 1975.15   2
   6  -5   1 11791.3 1807.96   6
   6  -5   2 40788.2 3550.52   2
  -6   5  -2 41611.4 3197.59   4
   6  -5   2 40922.0 3355.77   6
   6  -5   3 22640.8 2653.21   2
  -6   5  -3 23169.8 2452.13   4
   6  -5   3 21520.0 2486.33   6
  -6   5  -4 2832.36 860.347   4
   6  -5   4 743.586 665.916   2
   6  -5   4 1935.04 786.757   6
  -6   5  -5 18429.5 2325.22   4
   6  -5   5 18204.8 2514.78   2
   6  -5   5 19601.5 2455.33   6
  -6   5  -6 56684.2 4146.27   4
   6  -5   6 60619.4 4592.24   2
   6  -5   6 58498.0 4272.21   6
  -6   5  -7 14460.9 2132.56   4
   6  -5   7 14756.4 2355.92   2
  -6   5  -8 140932. 6869.84   4
   6  -5   8 142084. 7428.60   2
  -6   5  -9 10985.4 1940.52   4
   6  -5   9 9998.67 2100.25   2
  -6   5 -10 376.195 453.534   4
   6  -5  10-211.303 495.391   5
   6  -5  10-980.418 1117.91   2
  -6   5 -11-665.300 517.257   4
   6  -5  11 311.097 457.203   2
   6  -5  11-128.226 546.644   5
  -6   5 -12 12590.7 2234.96   4
   6  -5  12 20848.6 3104.80   2
   6  -5  12 16358.6 2629.73   5
  -6   5 -13 627.591 798.067   4
   6  -5  13 495.479 728.331   5
  -6   5 -14 3311.78 1222.53   4
   6  -5  14 4657.82 1540.26   5
  -6   5 -15-301.122 720.295   4
   6  -5  15 2574.12 1457.66   5
  -6   5 -16-1200.52 912.684   4
   6  -5  16-1200.89 787.582   5
  -6   5 -17 1062.32 1186.07   4
  -6   4  16 1165.44 928.947   5
   6  -4 -16-223.604 797.299   2
  -6   4  15 2904.26 1105.87   5
   6  -4 -15 2309.83 1063.71   2
   6  -4 -14 26742.2 3137.85   2
  -6   4  14 28027.4 3334.99   5
   6  -4 -13 27689.3 3143.19   2
  -6   4  13 26516.6 3141.72   5
  -6   4  12 14655.9 2358.74   5
   6  -4 -12 12606.6 2050.60   2
  -6   4  11 8030.35 1719.84   5
   6  -4 -11 7109.33 1492.95   2
   6  -4 -10 19351.8 2456.45   2
  -6   4  10 18663.6 1663.14   4
  -6   4  10 23249.0 2738.52   5
  -6   4   9 3341.15 1091.18   5
  -6   4   9 2562.88 626.984   4
   6  -4  -9 4330.05 1195.05   2
  -6   4   8 6778.03 1054.10   4
   6  -4  -8 7134.83 1499.43   2
   6  -4  -8 6897.44 839.071   3
  -6   4   7 869.479 525.000   4
   6  -4  -7 440.855 536.943   2
   6  -4  -7 1186.81 597.089   6
   6  -4  -6 73934.3 4419.29   2
  -6   4   6 73646.3 3542.46   4
   6  -4  -6 72582.1 4476.02   6
   6  -4  -5 27586.8 2717.28   2
  -6   4   5 26028.7 2163.14   4
   6  -4  -5 24982.6 2639.31   6
  -6   4   4 1138.61 551.293   4
   6  -4  -4 1320.84 571.493   2
   6  -4  -4 1079.80 682.301   6
   6  -4  -3 120159. 5461.23   2
  -6   4   3 122887. 4917.07   4
   6  -4  -3 130603. 5930.46   6
  -6   4   2 4652.39 1020.88   4
   6  -4  -2 3277.89 936.160   2
   6  -4  -2 3795.08 1045.74   6
   6  -4  -1 28105.0 2635.21   2
  -6   4   1 32564.7 2686.92   4
   6  -4  -1 29698.5 2834.10   6
   6  -4   0 121244. 5489.67   2
  -6   4   0 128997. 5424.81   4
   6  -4   0 120081. 5770.02   6
  -6   4  -1 1456.85 780.571   4
   6  -4   1 1078.76 699.300   2
   6  -4   1 1367.62 812.618   6
   6  -4   2 14668.5 2009.05   2
  -6   4  -2 15452.0 1957.99   4
   6  -4   2 16317.4 2161.39   6
  -6   4  -3-48.2560 397.800   4
   6  -4   3 24.3250 523.218   2
   6  -4   3-388.240 626.619   6
   6  -4   4 33235.1 3103.37   2
  -6   4  -4 31687.0 3020.02   4
   6  -4   4 34784.8 3176.98   6
  -6   4  -5 9563.33 1692.23   4
   6  -4   5 9382.47 1824.13   6
   6  -4   5 8098.73 1567.08   2
   6  -4   6 16786.5 2362.01   2
  -6   4  -6 12595.8 2065.00   4
   6  -4   6 16545.1 2363.08   6
  -6   4  -7 41600.1 3756.64   4
   6  -4   7 42138.0 3687.74   2
  -6   4  -8 26545.3 3088.20   4
   6  -4   8 29483.6 3232.55   2
  -6   4  -9 5466.99 1405.52   4
   6  -4   9 7457.24 1721.81   2
  -6   4 -10 8027.02 1783.09   4
   6  -4  10 8227.92 1910.56   2
   6  -4  10 9779.55 1808.12   5
  -6   4 -11 1467.04 1079.70   4
   6  -4  11 1986.86 1031.36   2
   6  -4  11 1858.56 905.827   5
  -6   4 -12 3146.39 1146.89   4
   6  -4  12 3783.36 1517.35   2
   6  -4  12 1378.19 763.207   5
  -6   4 -13-845.477 651.849   4
   6  -4  13 283.861 589.875   5
  -6   4 -14 55343.5 4893.20   4
   6  -4  14 76428.5 5793.99   5
  -6   4 -15 6825.34 1730.30   4
   6  -4  15 3829.25 1572.60   5
  -6   4 -16 2829.29 1197.72   4
   6  -4  16 4215.61 1445.97   5
  -6   4 -17 17354.0 2934.00   4
  -6   3  17 1915.50 1071.41   5
   6  -3 -17 344.431 438.093   2
  -6   3  16 671.198 918.454   5
   6  -3 -16 1236.14 986.091   2
  -6   3  15 4587.12 1380.12   5
   6  -3 -15 4164.37 1299.48   2
  -6   3  14 12134.8 2180.33   5
   6  -3 -14 15245.1 2388.39   2
  -6   3  13 685.052 606.587   5
   6  -3 -13 248.713 403.119   2
   6  -3 -13-62.8617 158.087   3
  -6   3  12 280.743 407.882   5
   6  -3 -12 611.572 683.537   2
   6  -3 -12 1670.50 630.508   3
   6  -3 -11 71743.1 4623.37   2
   6  -3 -11 68651.2 3251.66   3
  -6   3  11 72591.2 4716.81   5
  -6   3  10 4965.26 1310.83   5
  -6   3  10 6812.12 982.539   4
   6  -3 -10 4747.33 1207.12   2
   6  -3 -10 6466.47 1005.85   3
  -6   3   9 8723.68 1554.54   5
  -6   3   9 8110.74 1087.37   4
   6  -3  -9 6243.69 1401.75   2
   6  -3  -9 6948.12 1005.62   3
   6  -3  -8 13276.6 1894.55   2
  -6   3   8 17004.1 1600.80   4
   6  -3  -8 15181.7 1407.12   3
   6  -3  -8 17685.3 2321.81   6
  -6   3   8 16076.8 2101.27   5
   6  -3  -7 31442.8 2786.73   2
  -6   3   7 26621.8 2100.34   4
   6  -3  -7 25536.6 1815.99   3
   6  -3  -7 30981.1 3018.98   6
   6  -3  -6 38833.2 3032.92   2
  -6   3   6 37205.9 2527.00   4
  -6   3   6 38069.9 2510.52   1
   6  -3  -6 37894.2 3376.40   6
  -6   3   5 852.545 407.185   1
  -6   3   5 1072.48 462.699   4
   6  -3  -5 602.355 415.546   2
   6  -3  -5 1642.31 743.771   6
  -6   3   4 585.691 348.548   1
  -6   3   4 644.780 491.504   4
   6  -3  -4 205.315 333.255   2
   6  -3  -4 433.963 361.817   6
  -6   3   3 8477.35 1372.71   4
  -6   3   3 7385.17 889.099   1
   6  -3  -3 9562.52 1435.52   2
   6  -3  -3 10006.4 1741.76   6
   6  -3  -2 40192.6 2952.24   2
  -6   3   2 44341.4 3089.46   4
  -6   3   2 39974.7 1967.50   1
   6  -3  -2 44869.9 3528.93   6
   6  -3  -1 176160. 6118.64   2
  -6   3   1 175870. 6359.31   4
  -6   3   1 171629. 3897.02   1
   6  -3  -1 178145. 7083.94   6
   6  -3   0 105133. 4727.63   2
  -6   3   0 112677. 3047.22   1
  -6   3   0 114146. 5285.61   4
   6  -3   0 115891. 5746.91   6
  -6   3  -1 41571.6 1891.90   1
   6  -3   1 42588.1 3030.03   2
  -6   3  -1 44598.1 3388.73   4
   6  -3   1 41960.8 1799.17   7
   6  -3   1 41229.5 3472.73   6
  -6   3  -2 1787.33 409.106   1
  -6   3  -2 4443.94 1132.00   4
   6  -3   2 3159.88 599.649   7
   6  -3   2 2240.51 798.516   2
   6  -3   2 2264.07 1020.05   6
  -6   3  -3 11428.8 1140.99   1
   6  -3   3 11835.2 1693.51   2
   6  -3   3 9548.84 1143.83   7
  -6   3  -3 11506.3 1867.20   4
   6  -3   3 16018.9 2188.16   6
  -6   3  -4 533.474 279.393   1
  -6   3  -4 1043.38 627.830   4
   6  -3   4 1352.42 682.869   2
   6  -3   4 1024.70 755.094   6
  -6   3  -5 4026.30 843.310   1
   6  -3   5 495.925 558.652   7
  -6   3  -5 2425.06 918.592   4
   6  -3   5 3416.69 926.810   2
   6  -3   5 3286.98 1111.46   6
   6  -3   6 15643.5 2072.36   2
  -6   3  -6 19649.4 2599.54   4
   6  -3   6 14478.1 1959.75   7
   6  -3   6 14650.2 2244.50   6
  -6   3  -6 15199.0 1724.42   1
  -6   3  -7 576.896 496.504   1
   6  -3   7-96.1452 728.841   7
  -6   3  -7-780.621 710.688   4
   6  -3   7 32.5913 328.022   2
  -6   3  -8 630.548 397.783   1
   6  -3   8-169.888 509.423   7
  -6   3  -8-915.876 602.061   4
   6  -3   8 1521.03 676.380   2
   6  -3   9 44682.4 3819.04   2
  -6   3  -9 38179.8 4030.89   4
   6  -3   9 39677.0 3742.36   7
   6  -3   9 45753.9 3683.44   5
  -6   3  -9 43518.4 3373.88   1
   6  -3  10 7231.06 1819.80   7
  -6   3 -10 8721.03 1907.70   4
   6  -3  10 8888.37 1739.80   2
   6  -3  10 11183.5 1886.11   5
   6  -3  11 2289.17 998.278   7
  -6   3 -11 3512.93 1270.35   4
   6  -3  11 3098.35 1054.81   2
   6  -3  11 2580.70 1041.96   5
   6  -3  12 11278.4 2276.46   7
  -6   3 -12 8928.09 2056.61   4
   6  -3  12 14944.6 2486.12   2
   6  -3  12 13917.1 2376.28   5
  -6   3 -13 36371.5 4047.46   4
   6  -3  13 43139.9 4495.56   7
   6  -3  13 44498.8 4155.20   5
  -6   3 -14 25709.2 3513.82   4
   6  -3  14 27231.2 3617.37   7
   6  -3  14 23862.6 3090.32   5
  -6   3 -15 10653.4 2212.79   4
   6  -3  15 10005.7 2224.74   7
   6  -3  15 7132.27 1956.64   5
  -6   3 -16 1744.80 898.762   4
   6  -3  16 1603.68 882.654   7
   6  -3  16 1455.95 851.323   5
  -6   3 -17 6.04504 1010.69   4
   6  -3  17-365.172 589.995   5
  -6   2  18 5323.22 1810.30   5
  -6   2  17-25.7975 570.779   5
   6  -2 -17-79.1658 642.121   3
  -6   2  16 956.042 754.867   5
   6  -2 -16 1068.95 726.461   2
   6  -2 -16 105.284 229.209   3
   6  -2 -15 40726.6 3991.22   2
   6  -2 -15 39333.8 3032.82   3
  -6   2  15 40453.4 4091.82   5
  -6   2  14 15318.2 2420.66   5
   6  -2 -14 17281.0 2466.20   2
   6  -2 -14 13976.6 1768.79   3
  -6   2  13 6301.88 1584.10   5
   6  -2 -13 5659.84 1402.99   2
   6  -2 -13 4953.98 1040.75   3
   6  -2 -12 23603.0 2745.30   2
   6  -2 -12 21127.6 2020.09   3
  -6   2  12 20715.9 2531.54   5
  -6   2  11 5364.01 1301.11   5
   6  -2 -11 7435.70 1547.48   2
   6  -2 -11 6155.83 1067.40   3
   6  -2 -10 56622.4 3949.17   2
   6  -2 -10 50839.4 2954.92   3
  -6   2  10 50062.9 3762.65   5
   6  -2  -9 51286.4 3670.01   2
  -6   2   9 46411.5 2588.10   4
   6  -2  -9 47378.2 2777.24   3
  -6   2   9 51079.1 3678.79   5
   6  -2  -8 73733.5 4212.42   2
  -6   2   8 70822.4 3290.95   4
   6  -2  -8 72401.8 3375.72   3
   6  -2  -8 78147.1 4954.28   6
  -6   2   8 72273.1 4257.02   5
   6  -2  -7 68127.9 3923.16   2
  -6   2   7 63263.4 3244.57   4
   6  -2  -7 63580.6 3107.97   3
  -6   2   7 61913.7 3791.78   1
   6  -2  -7 67422.4 4557.59   6
  -6   2   7 64411.9 3940.19   5
  -6   2   6 7363.44 1343.44   1
   6  -2  -6 6648.30 1182.75   2
  -6   2   6 5821.39 1092.19   4
   6  -2  -6 8365.16 1628.94   6
   6  -2  -6 5225.65 896.300   3
   6  -2  -5 5687.09 1091.62   2
  -6   2   5 8783.21 1318.24   4
  -6   2   5 9056.24 1409.19   1
   6  -2  -5 10819.1 1849.49   6
  -6   2   4 10204.3 1419.16   4
   6  -2  -4 9882.14 1456.21   2
  -6   2   4 10444.3 1396.50   1
   6  -2  -4 12065.1 1975.43   6
   6  -2  -3 2867.46 728.935   2
  -6   2   3 3018.34 833.684   4
   6  -2  -3 376.040 572.418   6
   6  -2  -2 20184.6 1958.74   2
  -6   2   2 19725.0 2179.67   4
  -6   2   2 18890.5 1763.51   1
   6  -2  -2 23065.4 2613.27   6
   6  -2  -1 76912.4 3746.53   2
  -6   2   1 83019.3 4546.49   4
  -6   2   1 82867.3 3589.91   1
   6  -2  -1 87769.0 5109.41   6
   6  -2   0 14692.5 1617.90   2
  -6   2   0 14007.2 1430.41   1
  -6   2   0 13944.2 1991.33   4
   6  -2   0 14085.0 994.112   7
   6  -2   0 14991.5 2114.39   6
  -6   2  -1-213.938 279.749   4
   6  -2   1 96.0262 173.421   7
  -6   2  -1-269.068 237.590   1
   6  -2   2 17932.8 1802.82   2
  -6   2  -2 20492.3 1746.27   1
  -6   2  -2 17592.9 2365.86   4
   6  -2   2 19564.4 1544.54   7
   6  -2   2 19853.4 2484.33   6
  -6   2  -3 3109.81 1062.52   4
   6  -2   3 3012.02 664.661   7
  -6   2  -3 2555.74 680.134   1
   6  -2   3 2507.02 721.731   2
   6  -2   3 2218.27 917.438   6
  -6   2  -4 6130.39 1035.47   1
  -6   2  -4 5995.36 1589.00   4
   6  -2   4 7049.50 1153.39   2
   6  -2   4 6867.47 1554.65   6
  -6   2  -5 115630. 4560.78   1
   6  -2   5 112090. 4802.62   2
  -6   2  -5 108164. 6328.82   4
   6  -2   5 112463. 4749.16   7
   6  -2   5 114960. 6180.80   6
  -6   2  -6 43753.4 2985.23   1
   6  -2   6 43246.7 3111.10   2
  -6   2  -6 42641.5 4097.01   4
   6  -2   6 45231.5 3236.69   7
   6  -2   6 40945.0 3776.33   6
  -6   2  -7 47326.1 3318.05   1
   6  -2   7 46745.6 3368.08   2
  -6   2  -7 39444.0 4059.37   4
   6  -2   7 44648.3 3496.87   7
   6  -2   7 50066.5 4275.97   6
  -6   2  -8 21927.5 2409.70   1
   6  -2   8 23222.6 2424.54   2
   6  -2   8 18840.9 2436.00   7
  -6   2  -8 20065.1 2948.10   4
  -6   2  -9 6127.85 1399.53   1
   6  -2   9 3948.36 1220.27   7
  -6   2  -9 3889.70 1345.40   4
  -6   2 -10 11676.7 1912.94   1
   6  -2  10 11353.3 2177.89   7
  -6   2 -10 12152.4 2360.66   4
   6  -2  10 18435.6 2317.55   5
   6  -2  11 19108.4 2900.98   7
  -6   2 -11 22388.0 3264.03   4
   6  -2  11 23486.7 2722.79   5
  -6   2 -11 18591.5 2677.95   1
  -6   2 -12 15961.8 2557.34   1
   6  -2  12 11288.1 2472.09   7
  -6   2 -12 12992.2 2587.74   4
   6  -2  12 15348.5 2289.77   5
  -6   2 -13 46828.4 4748.92   4
   6  -2  13 39773.9 4388.03   7
   6  -2  13 52982.2 4434.80   5
  -6   2 -13 46018.1 4291.88   1
   6  -2  14 19.2503 690.811   7
  -6   2 -14 1937.71 1027.80   4
   6  -2  14-362.546 881.835   5
  -6   2 -15 3000.08 1358.81   4
   6  -2  15 2207.75 1433.18   7
   6  -2  15 3271.82 1328.70   5
  -6   2 -16 10652.3 2272.46   4
   6  -2  16 7267.54 2234.43   7
   6  -2  16 3956.60 1623.84   5
   6  -1 -19 14284.0 2338.91   3
  -6   1  18 9971.33 2492.51   5
   6  -1 -18 12847.3 2139.76   3
  -6   1  17 574.273 711.291   5
   6  -1 -17 401.054 774.072   3
  -6   1  16-859.648 1053.62   5
   6  -1 -16-74.9725 379.643   3
   6  -1 -15 24732.1 2547.99   3
  -6   1  15 27271.0 3488.30   5
   6  -1 -14 1814.99 872.366   2
  -6   1  14 1524.84 937.894   5
   6  -1 -14 1099.26 521.495   3
  -6   1  13 1104.18 823.164   5
   6  -1 -13 1708.00 854.771   2
   6  -1 -13 1300.55 554.549   3
  -6   1  12 5992.69 1407.60   5
   6  -1 -12 4916.71 1279.72   2
   6  -1 -12 3301.37 882.873   3
  -6   1  11 11840.8 1845.95   5
   6  -1 -11 10896.3 1843.54   2
   6  -1 -11 8926.91 1364.47   3
   6  -1 -10 32742.6 3031.57   2
   6  -1 -10 34307.4 2597.15   3
  -6   1  10 33929.8 2990.17   5
   6  -1  -9 126607. 5731.93   2
  -6   1   9 119325. 4229.59   4
   6  -1  -9 126855. 4874.03   3
  -6   1   9 120883. 6154.21   1
  -6   1   9 133245. 5700.01   5
   6  -1  -8 31576.5 2737.69   2
  -6   1   8 29614.7 2236.93   4
   6  -1  -8 25656.0 2168.73   3
  -6   1   8 32632.4 3109.96   1
   6  -1  -8 30273.6 3161.79   6
  -6   1   8 31355.7 2717.76   5
   6  -1  -7 51473.8 3378.38   2
  -6   1   7 45423.4 2870.69   4
   6  -1  -7 49494.0 2960.21   3
  -6   1   7 49313.4 3663.46   1
   6  -1  -7 55420.5 4138.39   6
  -6   1   7 52549.5 3389.20   5
  -6   1   6 625.564 444.167   5
   6  -1  -6-71.5343 453.447   2
  -6   1   6 15.1919 269.084   4
  -6   1   6 774.840 453.025   1
   6  -1  -6-32.5627 497.691   6
   6  -1  -6 382.813 304.201   3
  -6   1   5 4965.00 1076.45   1
   6  -1  -5 6929.22 1148.38   2
  -6   1   5 6763.61 1247.67   4
   6  -1  -5 6195.24 1551.57   6
   6  -1  -4 640.444 410.095   2
  -6   1   4 825.580 442.418   4
   6  -1  -4 443.044 422.337   6
  -6   1   4 528.671 549.192   1
   6  -1  -3 27951.3 2137.05   2
  -6   1   3 29108.9 2685.03   4
  -6   1   3 27358.1 2522.20   1
   6  -1  -3 26371.8 2871.13   6
   6  -1  -2 1924.71 582.031   2
  -6   1   2 1350.32 700.478   1
  -6   1   2 2362.49 826.880   4
   6  -1  -2 2471.02 790.865   6
   6  -1  -1 25140.0 1906.21   2
  -6   1   1 28165.3 2831.93   4
  -6   1   1 23435.3 2274.97   1
   6  -1  -1 25378.2 1528.69   7
   6  -1  -1 25542.8 2785.68   6
   6  -1   0 24866.3 1892.92   2
  -6   1   0 27634.3 2929.51   4
  -6   1   0 26494.7 2389.69   1
   6  -1   0 25695.9 1680.26   7
   6  -1   0 27491.3 2962.07   6
   6  -1   1 34309.0 2182.13   2
  -6   1  -1 37329.2 2776.14   1
  -6   1  -1 37891.2 3528.05   4
   6  -1   1 33825.3 2092.25   7
   6  -1   1 34077.2 3307.52   6
   6  -1   2 23519.2 1790.53   2
  -6   1  -2 23077.3 2207.55   1
  -6   1  -2 26700.5 3067.81   4
   6  -1   2 21626.9 2608.65   6
   6  -1   3-384.298 339.239   2
   6  -1   3 203.580 214.431   7
   6  -1   3-97.8094 565.648   6
  -6   1  -3 694.805 372.820   1
   6  -1   4 404.662 296.155   7
  -6   1  -4 881.413 611.977   1
   6  -1   4-4.37264 336.170   6
  -6   1  -5 81052.4 4225.88   1
   6  -1   5 82647.3 4318.37   7
   6  -1   5 84148.8 5426.62   6
  -6   1  -6 5597.70 1203.82   1
   6  -1   6 5078.57 1103.84   7
   6  -1   6 5363.02 1442.73   6
  -6   1  -7 16794.4 2069.93   1
   6  -1   7 16480.5 2113.87   7
   6  -1   7 19048.7 2679.15   6
  -6   1  -8 12036.3 1887.52   1
   6  -1   8 13347.8 2016.62   7
   6  -1   8 11462.6 2126.44   6
   6  -1   9-71.5257 566.633   7
   6  -1   9-653.222 701.660   6
  -6   1 -10 21845.4 2786.91   1
   6  -1  10 24041.8 3047.69   7
   6  -1  10 28305.0 2794.22   5
  -6   1 -11 85975.4 5714.42   1
  -6   1 -11 83994.8 6472.63   4
   6  -1  11 74448.8 5726.68   7
   6  -1  11 93961.7 5340.65   5
  -6   1 -12 5014.40 1433.29   1
   6  -1  12 4549.09 1645.58   7
  -6   1 -12 7067.06 1862.86   4
  -6   1 -13 18740.6 2888.72   1
   6  -1  13 20022.0 3192.78   7
  -6   1 -13 25540.5 3545.50   4
  -6   1 -14-1812.35 1431.49   1
   6  -1  14 466.929 775.843   7
  -6   1 -14 1473.84 1200.57   4
  -6   1 -15 5163.20 1850.74   1
   6  -1  15 7133.76 2116.43   7
  -6   0  19 5366.70 1666.05   5
   6   0 -19 2936.74 1168.69   3
  -6   0  18 1380.68 1519.56   5
   6   0 -18 4096.13 1168.44   3
   6   0 -17 43608.3 3771.90   3
  -6   0  17 42366.7 4670.11   5
  -6   0  16 16097.1 2768.94   5
   6   0 -16 17680.7 2330.39   3
   6   0 -15 33591.1 3073.90   3
  -6   0  15 36703.1 4193.42   5
  -6   0  14 1318.53 813.656   5
   6   0 -14-715.926 525.623   3
  -6   0  13 1212.80 715.254   5
   6   0 -13 1461.29 638.565   3
  -6   0  12 1188.82 852.032   5
   6   0 -12 787.312 452.191   3
  -6   0  11 3308.27 998.999   5
   6   0 -11 3738.51 964.772   3
  -6   0  11 1594.37 970.263   1
   6   0 -10 34790.0 2764.65   3
  -6   0  10 39777.6 3935.11   1
  -6   0  10 39987.7 3254.22   5
   6   0  -9 997.729 697.151   2
  -6   0   9 113.016 431.646   5
  -6   0   9-127.676 548.943   1
   6   0  -9-208.183 454.693   3
   6   0  -8 15649.2 1991.77   2
  -6   0   8 13418.7 2136.95   1
  -6   0   8 14270.3 1668.56   4
   6   0  -8 15741.9 1839.20   3
   6   0  -8 15581.6 2315.95   6
  -6   0   8 14907.5 1830.51   5
   6   0  -7 46074.3 3328.56   2
  -6   0   7 47549.5 3163.60   4
   6   0  -7 47632.2 3101.99   3
  -6   0   7 45809.9 3859.63   1
   6   0  -7 43978.0 3835.45   6
  -6   0   7 44848.0 3031.63   5
  -6   0   6 183.022 694.905   5
   6   0  -6 503.688 475.071   2
  -6   0   6 669.183 591.026   1
  -6   0   6 927.385 477.909   4
   6   0  -6 1304.32 774.851   6
   6   0  -6 570.606 345.664   3
  -6   0   5 5701.59 1378.56   1
  -6   0   5 5427.85 998.450   5
   6   0  -5 4832.25 966.694   2
  -6   0   5 7868.97 1382.45   4
   6   0  -5 4964.78 1349.50   6
   6   0  -4 17297.0 1711.79   2
  -6   0   4 19028.9 2455.93   1
   6   0  -4 17834.8 2484.69   6
  -6   0   4 17425.8 1700.44   5
   6   0  -3 69359.3 3290.66   2
  -6   0   3 73107.7 4559.02   1
   6   0  -3 73200.4 4904.23   6
  -6   0   2 38858.4 3309.87   1
   6   0  -2 37827.4 3477.59   6
  -6   0   1 62659.9 4173.30   1
   6   0  -1 63131.5 4525.47   6
  -6   0   0-562.889 656.602   1
   6   0   0-335.139 387.609   6
  -6   0  -1 10697.3 1712.64   1
   6   0   1 8550.51 1206.64   7
   6   0   1 10366.3 1836.99   6
   6   0   2 563.157 469.854   7
   6   0   2-188.459 567.732   6
  -6   0  -2 111.739 236.121   1
  -6   0  -3 57264.8 3923.37   1
   6   0   3 56327.1 3467.20   7
   6   0   3 62652.9 4675.33   6
  -6   0  -4 40715.7 3328.29   1
   6   0   4 39454.7 3046.91   7
   6   0   4 35978.8 3667.68   6
  -6   0  -5 37643.9 3220.72   1
   6   0   5 37563.0 3158.32   7
   6   0   5 35404.1 3653.16   6
   6   0   6-467.479 562.566   7
  -6   0  -6 572.403 580.509   1
   6   0   6 1183.09 762.242   6
  -6   0  -7 15439.1 2194.07   1
   6   0   7 14711.4 2170.76   7
   6   0   7 13737.0 2354.68   6
  -6   0  -8 7526.92 1562.31   1
   6   0   8 7191.35 1694.43   7
   6   0   8 6027.85 1622.11   6
  -6   0  -9 6908.58 1537.09   1
   6   0   9 5721.42 1664.56   7
   6   0   9 8740.40 2059.55   6
  -6   0 -10 11260.0 2024.80   1
   6   0  10 10306.7 2192.08   7
   6   0  10 10178.8 2189.01   6
  -6   0 -11 421.317 610.124   1
   6   0  11-548.325 972.434   7
  -6   0 -12 16474.3 2743.11   1
   6   0  12 14500.3 2742.81   7
   6   0  12 10304.7 2403.44   6
  -6   0 -13 4680.20 1784.79   1
   6   0  13 1184.86 963.268   7
  -6   0 -14-426.672 903.978   1
   6   0  14-98.2887 451.557   7
  -6  -1  18 40322.4 4332.59   5
  -6  -1  17 1160.87 748.189   5
   6   1 -17 2094.66 1086.53   3
   6   1 -16 62041.2 4502.90   3
  -6  -1  16 64310.1 5275.47   5
  -6  -1  15 1447.95 1040.42   5
   6   1 -15 1109.22 626.211   3
  -6  -1  14-511.600 829.496   5
   6   1 -14 403.201 519.341   3
  -6  -1  14 231.776 425.618   1
  -6  -1  13 412.307 942.543   5
  -6  -1  13 733.393 773.934   1
   6   1 -13 1569.16 751.146   3
  -6  -1  12 4051.68 1445.04   5
  -6  -1  12 2269.64 1040.32   1
   6   1 -12 1919.55 728.879   3
  -6  -1  11 6663.27 1853.71   1
   6   1 -11 6417.23 1299.23   3
   6   1 -10 25684.4 2543.50   3
  -6  -1  10 22011.2 3047.21   1
   6   1  -9 23925.4 2388.44   3
  -6  -1   9 22919.3 3051.83   1
  -6  -1   8 944.878 828.807   1
  -6  -1   8 1525.45 586.332   4
   6   1  -8 163.637 285.819   3
  -6  -1   7 2894.98 1134.46   1
   6   1  -7 2365.47 969.432   6
   6   1  -7 3268.18 886.702   3
  -6  -1   6 23125.6 2891.09   1
   6   1  -6 22672.4 2316.97   3
   6   1  -6 24970.7 2940.02   6
   6   1  -5 2779.15 996.480   6
  -6  -1   5 2728.37 982.098   1
  -6  -1   4 15319.2 2388.08   1
   6   1  -4 17809.6 2479.16   6
  -6  -1   3-109.316 575.492   1
   6   1  -3 100.839 394.088   6
  -6  -1   2 38026.9 3649.63   1
   6   1  -2 34625.8 3437.18   6
  -6  -1   1 13669.4 2167.17   1
   6   1  -1 10847.5 1493.43   7
   6   1  -1 10584.6 1933.36   6
  -6  -1   0-243.913 640.877   1
   6   1   0 695.167 308.155   7
   6   1   0 540.831 474.304   6
  -6  -1  -1 27801.9 3038.24   1
   6   1   1 26411.1 2449.12   7
   6   1   1 25907.9 3027.95   6
  -6  -1  -2 66046.3 4708.68   1
   6   1   2 66969.1 3973.60   7
   6   1   2 63416.6 4825.22   6
   6   1   3 1797.17 713.548   7
   6   1   3 3360.07 1139.65   6
  -6  -1  -3 2139.54 905.480   1
  -6  -1  -4 102277. 5815.29   1
   6   1   4 105179. 5395.90   7
   6   1   4 102397. 6291.68   6
   6   1   5-104.228 410.363   7
  -6  -1  -5-111.138 261.989   1
   6   1   5 411.345 568.512   6
   6   1   6-1823.63 990.338   7
  -6  -1  -6-431.547 567.128   1
   6   1   6-481.426 515.932   6
  -6  -1  -7 2658.44 1021.34   1
   6   1   7 1450.55 842.133   7
   6   1   7 1689.20 1050.12   6
  -6  -1  -8 1921.05 833.941   1
   6   1   8 1332.49 724.531   7
   6   1   8 3725.30 1446.10   6
  -6  -1  -9 6647.47 1587.84   1
   6   1   9 5692.46 1789.76   7
   6   1   9 6665.23 1774.24   6
  -6  -1 -10 18648.1 2787.97   1
   6   1  10 19012.9 3078.48   7
   6   1  10 15934.7 2754.96   6
  -6  -1 -11 14213.1 2610.31   1
   6   1  11 17402.1 2981.68   7
   6   1  11 17615.4 3166.92   6
  -6  -1 -12-135.301 473.457   1
   6   1  12 356.932 1159.96   7
   6   1  12-1184.96 1215.92   6
  -6  -2  15 6725.42 2187.76   1
   6   2 -15 2672.27 967.263   3
   6   2 -14 19513.4 2466.91   3
  -6  -2  14 20775.8 3484.83   1
  -6  -2  13 6220.29 2064.05   1
   6   2 -13 2188.24 813.707   3
  -6  -2  12 8309.12 2337.75   1
   6   2 -12 7487.18 1580.31   3
   6   2 -11 5604.62 1252.98   3
  -6  -2  11 4591.74 2056.91   1
   6   2 -10 49387.9 3627.86   3
  -6  -2  10 54839.3 5150.62   1
  -6  -2   9 615.328 816.690   1
   6   2  -9-264.430 345.953   3
  -6  -2   8 11740.5 2247.79   1
   6   2  -8 9888.06 1588.16   3
   6   2  -7-168.907 257.386   3
  -6  -2   7 1657.83 1063.24   1
  -6  -2   6 37405.0 4007.33   1
   6   2  -6 31492.4 3409.21   6
  -6  -2   5 3159.32 1223.39   1
   6   2  -5 3463.03 1123.49   6
  -6  -2   4 94678.7 6264.48   1
   6   2  -4 93546.6 5806.57   6
  -6  -2   3 973.183 1026.77   1
   6   2  -3 1659.38 801.158   6
  -6  -2   2-572.767 955.551   1
   6   2  -2 263.302 459.601   6
  -6  -2   1-849.829 1021.46   1
   6   2  -1-3.21227 210.319   7
   6   2  -1 1301.79 851.314   6
  -6  -2   0 30514.8 3485.94   1
   6   2   0 27960.2 2727.38   7
   6   2   0 24220.8 2966.94   6
  -6  -2  -1 1365.51 804.251   1
   6   2   1 760.596 679.727   7
   6   2   1 1045.22 785.696   6
   6   2   2 51.7974 183.967   7
   6   2   2 756.116 798.432   6
  -6  -2  -2 463.273 533.128   1
   6   2   3 7449.96 1591.02   7
   6   2   3 5615.82 1547.98   6
  -6  -2  -3 7679.00 1801.75   1
   6   2   4-1103.16 665.339   7
   6   2   4-20.5948 377.099   6
  -6  -2  -4 232.982 544.263   1
   6   2   5 7109.28 1691.90   7
  -6  -2  -5 5838.25 1530.67   1
   6   2   5 3835.41 1244.10   6
   6   2   6 15253.9 2355.18   7
  -6  -2  -6 17092.7 2771.47   1
   6   2   6 19230.6 2861.98   6
   6   2   7 7509.65 1901.35   7
  -6  -2  -7 6458.76 1617.85   1
   6   2   7 6938.63 1886.22   6
  -6  -2  -8 8913.72 1942.13   1
   6   2   8 8127.79 2031.16   7
   6   2   8 6419.26 1800.97   6
  -6  -2  -9 11479.4 2215.67   1
   6   2   9 10323.8 2435.30   7
   6   2   9 8918.03 2153.52   6
   6   2  10 55093.7 5263.64   7
   6   2  10 55951.8 5445.30   6
  -6  -3  13-786.454 1202.05   1
  -6  -3  12 7042.53 2075.52   1
  -6  -3  11 9626.81 2268.66   1
   6   3 -11 10884.0 1881.01   3
  -6  -3  10 195.936 672.351   1
   6   3 -10-812.390 719.873   3
  -6  -3   9 4141.03 1521.88   1
   6   3  -9 2664.77 982.864   3
  -6  -3   8 27143.3 3797.75   1
   6   3  -8 24059.1 2725.79   3
  -6  -3   7 7008.97 1948.83   1
  -6  -3   6-1817.91 1308.39   1
  -6  -3   5 66909.0 5697.60   1
   6   3  -5 64642.6 4942.73   6
  -6  -3   4 5752.25 1876.98   1
   6   3  -4 5821.34 1449.81   6
  -6  -3   3 26555.9 3660.68   1
   6   3  -3 25124.1 3134.60   6
  -6  -3   2 2012.02 1336.68   1
   6   3  -2 3631.13 1197.35   6
  -6  -3   1-1386.72 1329.19   1
   6   3  -1-728.093 572.032   6
  -6  -3   0-738.709 1187.30   1
   6   3   0-300.579 663.324   6
   6   3   1 2152.25 841.048   7
   6   3   1 5243.64 1504.25   6
  -6  -3  -1 3724.92 1423.67   1
  -6  -3  -2 39323.7 4307.08   1
   6   3   2 35017.1 3565.76   7
   6   3   2 30667.9 3538.72   6
   6   3   3 145.397 490.777   7
   6   3   3 1719.99 1075.87   6
  -6  -3  -3 981.982 682.276   1
   6   3   4 3903.41 1552.34   7
   6   3   4 3213.05 1167.91   6
  -6  -3  -4 2785.09 1256.73   1
   6   3   5 7694.41 1883.31   7
  -6  -3  -5 6915.70 1846.42   1
   6   3   6 5369.33 1768.87   7
   6   3   7 1427.16 1327.12   7
  -6  -4   6 1285.65 1377.82   1
  -6  -4   5-1144.84 1315.27   1
  -6  -4   4-1885.29 1505.78   1
  -6  -4   3 5256.88 1950.65   1
  -6  -4   2 14059.6 2880.52   1
  -7   9   7 2968.04 1115.80   4
  -7   9   6-101.185 589.150   4
  -7   9   5-303.308 372.065   4
  -7   9   4 1462.05 823.447   4
  -7   9   3 322.132 489.187   4
   7  -9  -3-103.530 573.442   2
   7  -9  -2 34758.3 4011.94   2
  -7   9   2 33094.6 3297.21   4
  -7   9   1 1923.31 906.796   4
   7  -9  -1 1839.34 1079.31   2
  -7   9   0 21152.3 2658.55   4
   7  -9   0 21519.7 3174.13   2
  -7   9  -1 1881.36 963.013   4
   7  -9   1 826.095 970.174   2
  -7   9  -2 3998.85 1251.19   4
   7  -9   2 7811.58 1941.24   2
  -7   9  -3 7868.51 1654.48   4
   7  -9   3 12294.3 2592.88   2
  -7   9  -4-165.751 507.327   4
   7  -9   4-1191.63 1061.74   2
  -7   9  -5 16385.6 2388.76   4
   7  -9   5 17171.0 3124.27   2
  -7   9  -6 4858.60 1495.77   4
  -7   8  10-394.345 372.799   4
  -7   8   9 260.012 366.500   4
  -7   8   8 3346.42 1032.70   4
   7  -8  -8 4106.29 1376.13   2
  -7   8   7-440.946 419.841   4
   7  -8  -7-536.315 813.962   2
  -7   8   6 8034.67 1464.68   4
   7  -8  -6 7246.20 1888.26   2
  -7   8   5 374.370 779.321   4
   7  -8  -5-699.604 720.915   2
  -7   8   4 2361.58 859.889   4
   7  -8  -4 1741.90 1052.62   2
   7  -8  -3 41718.0 4307.73   2
  -7   8   3 40942.4 3403.14   4
  -7   8   2 14515.1 2113.30   4
   7  -8  -2 8891.27 1976.82   2
   7  -8  -1 53730.2 4791.86   2
  -7   8   1 50497.3 3834.28   4
  -7   8   0 2878.56 1052.35   4
   7  -8   0 2807.88 1180.07   2
  -7   8  -1 14569.9 2123.30   4
   7  -8   1 14461.4 2541.62   2
   7  -8   2 30691.7 3697.04   2
  -7   8  -2 27743.5 2900.90   4
  -7   8  -3 7256.75 1543.97   4
   7  -8   3 5235.33 1798.86   2
  -7   8  -4 218.409 667.181   4
   7  -8   4-109.302 365.094   2
  -7   8  -5 4396.50 1257.38   4
   7  -8   5 4510.16 1596.83   2
  -7   8  -6-252.779 470.486   4
   7  -8   6 1156.51 1034.43   2
  -7   8  -7 10415.7 1971.62   4
   7  -8   7 11018.0 2464.73   2
   7  -8   7 9772.53 2061.25   6
  -7   8  -8 23188.0 3078.84   4
   7  -8   8 28200.0 3385.02   6
   7  -8   8 23416.9 3620.42   2
  -7   8  -9 13482.3 2403.52   4
   7  -8   9 9655.78 2083.88   6
   7  -8   9 10775.9 2508.65   2
  -7   8 -10 4250.37 1408.77   4
   7  -8  10-5.51238 716.545   6
   7  -8  10 4859.78 2027.61   2
  -7   8 -11 2491.09 1300.80   4
  -7   7  11 7554.13 1850.24   5
  -7   7  10 17271.5 2829.07   5
  -7   7  10 11602.7 1689.39   4
   7  -7 -10 16468.5 2719.71   2
   7  -7  -9 41214.8 4271.79   2
  -7   7   9 41043.1 3173.38   4
  -7   7   9 44034.4 4410.83   5
  -7   7   8 7785.65 1344.22   4
   7  -7  -8 6633.93 1859.24   2
  -7   7   7 56.4151 132.834   4
   7  -7  -7 260.800 416.946   2
   7  -7  -6 22343.5 2946.74   2
  -7   7   6 18195.5 2157.09   4
  -7   7   5 2318.60 752.125   4
   7  -7  -5-650.257 621.482   2
  -7   7   4 16220.4 2046.76   4
   7  -7  -4 13564.1 2363.86   2
  -7   7   3 8454.13 1533.71   4
   7  -7  -3 7809.97 1738.35   2
   7  -7  -3 7853.69 1557.57   6
  -7   7   2 12723.5 1855.32   4
   7  -7  -2 11489.4 2071.68   2
   7  -7  -2 10413.3 1836.58   6
  -7   7   1 1447.49 643.629   4
   7  -7  -1 943.656 631.056   2
   7  -7  -1 1316.39 774.708   6
   7  -7   0 67944.9 5193.17   2
  -7   7   0 68621.6 4358.68   4
   7  -7   0 70199.6 4588.66   6
   7  -7   1 38254.1 3861.92   2
  -7   7  -1 33677.3 3159.03   4
   7  -7   1 34032.3 3265.25   6
   7  -7   2 51228.8 4563.23   2
  -7   7  -2 44926.6 3667.75   4
   7  -7   2 52493.1 4069.23   6
  -7   7  -3 1338.85 724.435   4
   7  -7   3 992.366 875.359   2
   7  -7   3 600.114 554.848   6
  -7   7  -4 392.494 450.783   4
   7  -7   4 451.219 496.014   2
   7  -7   4 229.569 531.855   6
  -7   7  -5 6234.51 1469.87   4
   7  -7   5 6597.14 1690.12   2
   7  -7   5 8032.86 1711.30   6
  -7   7  -6 194.375 435.303   4
   7  -7   6 1333.84 940.953   2
   7  -7   6 997.646 644.647   6
  -7   7  -7 577.914 566.852   4
   7  -7   7 2432.87 1296.28   2
   7  -7   7 2569.42 1113.92   6
  -7   7  -8 9426.96 1929.21   4
   7  -7   8 11483.0 2207.10   6
   7  -7   8 9361.25 2183.64   2
  -7   7  -9 4908.59 1439.17   4
   7  -7   9 5150.24 1455.55   6
   7  -7   9 7280.06 2025.86   2
  -7   7 -10 4474.00 1392.57   4
   7  -7  10 7847.62 2103.69   2
  -7   7 -11 31841.8 3723.88   4
   7  -7  11 38937.7 4693.77   2
  -7   7 -12 1204.57 1021.71   4
   7  -7  12 2656.86 1328.05   2
  -7   7 -13-197.406 530.026   4
   7  -7  13-807.088 932.671   2
  -7   6  12 13541.3 2419.64   5
   7  -6 -12 17065.0 2683.71   2
  -7   6  11 12945.5 2345.89   5
   7  -6 -11 13884.2 2308.53   2
   7  -6 -10 22308.4 2985.38   2
  -7   6  10 19826.0 2890.94   5
  -7   6   9 5851.71 1567.76   5
  -7   6   9 5700.15 1189.16   4
   7  -6  -9 3561.36 1229.16   2
   7  -6  -8 48622.5 4259.01   2
  -7   6   8 47474.7 3244.70   4
   7  -6  -7 17744.4 2542.02   2
  -7   6   7 16503.1 1934.44   4
   7  -6  -6 45913.3 4109.52   2
  -7   6   6 42126.9 3129.50   4
   7  -6  -6 47021.2 3806.22   6
  -7   6   5 1027.26 515.336   4
   7  -6  -5-4.55131 322.175   2
   7  -6  -5 433.419 685.795   6
  -7   6   4 7635.36 1404.58   4
   7  -6  -4 7044.09 1598.93   2
   7  -6  -4 8562.26 1666.76   6
  -7   6   3 5987.01 1318.46   4
   7  -6  -3 6659.65 1518.62   2
   7  -6  -3 7376.96 1552.05   6
  -7   6   2 1978.26 826.957   4
   7  -6  -2 881.694 562.732   2
   7  -6  -2 2174.78 961.873   6
   7  -6  -1 28529.2 3162.25   2
  -7   6   1 28073.6 2703.76   4
   7  -6  -1 29608.0 2980.33   6
  -7   6   0 1693.42 670.113   4
   7  -6   0 1845.39 873.168   2
   7  -6   0 2028.32 901.008   6
   7  -6   1 37570.2 3667.35   2
  -7   6  -1 41043.0 3432.39   4
   7  -6   1 37160.7 3444.73   6
  -7   6  -2 3214.55 1002.68   4
   7  -6   2 1996.11 959.934   2
   7  -6   2 2659.09 946.571   6
  -7   6  -3 11884.3 1925.05   4
   7  -6   3 9522.60 1864.03   2
   7  -6   3 11762.3 1970.54   6
  -7   6  -4 65.5097 530.388   4
   7  -6   4-193.010 545.061   2
   7  -6   4 759.161 781.675   6
  -7   6  -5-831.768 524.743   4
   7  -6   5-338.977 598.028   2
   7  -6   5 108.649 259.377   6
   7  -6   6 24767.0 3170.36   2
  -7   6  -6 23118.7 2879.01   4
   7  -6   6 25943.5 3120.12   6
  -7   6  -7 22533.7 2862.46   4
   7  -6   7 25446.7 3314.21   2
   7  -6   7 22338.9 3077.37   6
  -7   6  -8 41590.3 3997.43   4
   7  -6   8 45058.7 4522.38   2
   7  -6   8 42278.8 4142.14   6
  -7   6  -9 2349.25 972.880   4
   7  -6   9 1617.78 1164.47   2
  -7   6 -10 28456.0 3425.50   4
   7  -6  10 30984.3 3928.46   2
  -7   6 -11 8406.75 1959.03   4
   7  -6  11 10870.4 2419.61   2
  -7   6 -12 9445.98 2172.61   4
   7  -6  12 14032.2 2811.83   2
  -7   6 -13 14314.3 2608.05   4
   7  -6  13 12001.7 2730.05   2
  -7   6 -14 14830.3 2643.22   4
   7  -6  14 17071.7 3262.91   2
   7  -6  15 1079.29 893.688   2
  -7   5  14 734.125 738.858   5
   7  -5 -14 77.1591 717.676   2
  -7   5  13 17038.5 2702.76   5
   7  -5 -13 15303.8 2435.00   2
  -7   5  12 2247.91 1031.08   5
   7  -5 -12 4045.84 1328.97   2
  -7   5  11 2840.05 1068.03   5
   7  -5 -11 974.043 739.804   2
  -7   5  10 3503.47 1380.81   5
   7  -5 -10 4060.32 1201.27   2
   7  -5  -9 47331.9 4076.16   2
  -7   5   9 48241.0 3076.44   4
  -7   5   9 52887.0 4393.77   5
  -7   5   8 3453.87 934.036   4
   7  -5  -8 3195.05 1093.29   2
   7  -5  -7 139666. 6865.22   2
  -7   5   7 137530. 5295.44   4
   7  -5  -7 138920. 6783.26   6
  -7   5   6 803.352 492.609   4
   7  -5  -6 2097.61 826.809   2
   7  -5  -6 1234.31 652.896   6
  -7   5   5 4836.77 1014.25   4
   7  -5  -5 2717.24 988.100   2
   7  -5  -5 3392.67 1102.64   6
  -7   5   4 4642.53 1115.29   4
   7  -5  -4 3753.62 1109.89   2
   7  -5  -4 4929.94 1416.46   6
  -7   5   3 2834.65 962.837   4
   7  -5  -3 1688.30 754.655   2
   7  -5  -3 928.358 687.819   6
  -7   5   2 2315.80 878.997   4
   7  -5  -2 724.787 381.219   2
   7  -5  -2 1433.24 893.224   6
   7  -5  -1 21360.1 2625.87   2
  -7   5   1 23809.6 2453.20   4
   7  -5  -1 24132.7 2782.70   6
  -7   5   0 7890.90 1538.41   4
   7  -5   0 8412.21 1621.74   2
   7  -5   0 8306.44 1730.61   6
  -7   5  -1 2157.68 813.735   4
   7  -5   1 2175.97 937.034   2
   7  -5   1 3158.99 1079.53   6
   7  -5   2 30448.2 3157.08   2
  -7   5  -2 26935.4 2865.30   4
   7  -5   2 31923.3 3318.60   6
   7  -5   3 44880.3 3847.28   2
  -7   5  -3 53078.9 4078.68   4
   7  -5   3 44513.9 3961.15   6
  -7   5  -4 12032.8 1945.53   4
   7  -5   4 9928.05 1841.65   2
   7  -5   4 10790.9 2053.69   6
  -7   5  -5 5563.16 1508.54   4
   7  -5   5 4445.94 1322.67   2
   7  -5   5 6484.39 1666.63   6
  -7   5  -6-284.379 650.764   4
   7  -5   6-353.484 679.913   2
   7  -5   6 1401.58 850.625   6
   7  -5   7 56641.4 4597.35   2
  -7   5  -7 48515.8 4299.59   4
   7  -5   7 47709.7 4381.15   6
  -7   5  -8 546.617 462.115   4
   7  -5   8 298.904 616.301   6
   7  -5   8-763.168 622.534   2
  -7   5  -9-429.203 641.507   4
   7  -5   9 730.778 883.919   2
  -7   5 -10-399.261 683.512   4
   7  -5  10-1109.61 929.527   2
  -7   5 -11 12238.4 2375.08   4
   7  -5  11 18897.5 3027.13   2
  -7   5 -12 1915.76 1127.00   4
   7  -5  12 2885.86 1324.11   2
  -7   5 -13 59190.5 5305.51   4
   7  -5  13 72600.8 6303.49   2
  -7   5 -14-1504.83 838.382   4
   7  -5  14-1000.04 1287.26   2
   7  -4 -15 63735.5 5202.39   2
  -7   4  15 70173.3 5725.83   5
  -7   4  14 136.922 504.599   5
   7  -4 -14 474.458 464.931   2
   7  -4 -13 20185.5 2837.43   2
  -7   4  13 20239.3 2926.14   5
  -7   4  12 4278.86 1320.92   5
   7  -4 -12 5883.64 1551.48   2
  -7   4  11 61.6791 561.868   5
   7  -4 -11 1673.08 825.176   2
  -7   4  10 1884.97 805.825   5
   7  -4 -10 946.818 593.566   2
  -7   4   9 2820.99 1035.92   5
  -7   4   9 2460.90 792.066   4
   7  -4  -9 2468.38 1022.14   2
   7  -4  -8 36739.8 3311.98   2
  -7   4   8 39204.5 2749.59   4
   7  -4  -8 40713.6 3834.67   6
  -7   4   7 659.332 357.840   4
   7  -4  -7 543.830 463.951   6
  -7   4   6 2503.57 752.940   4
   7  -4  -6 2773.51 929.030   2
   7  -4  -6 2548.55 1082.22   6
   7  -4  -5 16595.1 2223.18   2
  -7   4   5 21132.3 2210.35   4
   7  -4  -5 23721.3 2848.79   6
  -7   4   4 611.054 404.817   4
   7  -4  -4 1753.94 762.936   2
   7  -4  -4 810.065 743.226   6
  -7   4   3 2179.45 788.388   4
   7  -4  -3 209.780 410.988   2
   7  -4  -3 2170.21 814.699   6
  -7   4   2 6121.14 1336.24   4
   7  -4  -2 7860.81 1496.10   2
   7  -4  -2 6840.58 1529.01   6
   7  -4  -1 92090.7 5022.94   2
  -7   4   1 91116.6 4938.47   4
   7  -4  -1 90973.6 5542.10   6
  -7   4   0 93.4647 534.862   4
   7  -4   0-521.345 404.716   2
   7  -4   0 441.484 654.502   6
   7  -4   1 27206.4 2797.07   2
  -7   4  -1 32119.5 3084.80   4
   7  -4   1 24705.0 2945.88   6
   7  -4   2 30567.7 2938.78   2
  -7   4  -2 36805.5 3405.37   4
   7  -4   2 34934.6 3561.60   6
   7  -4   3 26120.4 2770.04   2
  -7   4  -3 30447.4 3221.94   4
   7  -4   3 26949.8 3117.04   6
  -7   4  -4 915.143 703.399   4
   7  -4   4 127.417 332.054   2
   7  -4   4 140.900 665.830   6
   7  -4   5 83843.4 5122.29   2
  -7   4  -5 92079.6 5832.06   4
   7  -4   5 85158.4 5695.69   6
  -7   4  -6 11314.3 2075.98   4
   7  -4   6 13268.2 2056.55   2
   7  -4   6 13152.9 2356.41   6
  -7   4  -7 8561.51 1838.18   4
   7  -4   7 8002.72 1725.60   2
   7  -4   7 8444.76 1981.07   6
  -7   4  -8 725.286 836.352   4
   7  -4   8 1998.12 1219.40   6
   7  -4   8 2234.61 1036.23   2
  -7   4  -9 11336.3 2260.66   4
   7  -4   9 17785.5 2914.50   6
   7  -4   9 15647.5 2483.36   2
  -7   4 -10 491.685 846.130   4
   7  -4  10 825.374 948.257   2
  -7   4 -11 43.7184 225.285   4
   7  -4  11 542.831 485.867   2
  -7   4 -12 19814.3 3080.34   4
   7  -4  12 21033.0 3156.41   7
  -7   4 -13 1522.31 1171.31   4
   7  -4  13 4202.80 1599.25   7
  -7   4 -14 220.494 691.437   4
   7  -4  14-12.3909 666.710   7
   7  -4  14-24.6518 804.863   5
   7  -3 -16 63777.5 5421.55   2
  -7   3  16 83378.8 6353.01   5
  -7   3  15 1045.68 935.160   5
   7  -3 -15 1373.77 818.156   2
   7  -3 -14 37077.0 3842.91   2
  -7   3  14 32047.6 3711.24   5
  -7   3  13 112.581 572.200   5
   7  -3 -13 1186.57 923.504   2
  -7   3  12 1842.08 1002.79   5
   7  -3 -12 598.573 554.127   2
  -7   3  11 2386.77 1010.23   5
   7  -3 -11 1231.67 736.418   2
  -7   3  10 3179.81 1095.90   5
   7  -3 -10 4414.59 1153.80   2
   7  -3 -10 1466.00 505.036   3
   7  -3  -9 17226.9 2215.72   2
  -7   3   9 12626.2 2017.27   5
   7  -3  -9 13890.8 1561.58   3
  -7   3   8 1589.27 713.248   5
   7  -3  -8 790.930 518.641   2
  -7   3   8 454.954 518.612   4
   7  -3  -8 1633.48 909.152   6
   7  -3  -7 15081.7 2057.01   2
  -7   3   7 15192.8 1763.38   4
   7  -3  -7 17741.3 2550.70   6
   7  -3  -6 61448.9 4075.65   2
  -7   3   6 61904.8 3649.84   4
   7  -3  -6 67577.4 4917.42   6
   7  -3  -5 7032.20 1325.32   2
  -7   3   5 7840.72 1330.33   4
   7  -3  -5 7235.99 1628.82   6
   7  -3  -4 11791.8 1764.79   2
  -7   3   4 10411.6 1648.16   4
   7  -3  -4 12741.3 2188.30   6
   7  -3  -3 14821.0 1904.34   2
  -7   3   3 12087.9 1806.28   4
   7  -3  -3 11892.1 2074.13   6
   7  -3  -2 44857.7 3294.23   2
  -7   3   2 49385.1 3636.91   4
   7  -3  -2 49945.3 4178.14   6
  -7   3   1 8998.09 1624.18   4
   7  -3  -1 9097.55 1452.14   2
   7  -3  -1 8870.36 1789.15   6
  -7   3   0 6334.17 1375.61   4
   7  -3   0 10110.6 1553.72   2
   7  -3   0 8845.96 1807.26   6
  -7   3  -1 734.231 651.339   4
   7  -3   1 789.831 492.899   2
   7  -3   1 852.453 638.091   6
  -7   3  -2 3323.94 1074.71   4
   7  -3   2 3525.32 921.404   2
   7  -3   2 2980.55 1181.17   6
  -7   3  -3 464.596 671.625   4
   7  -3   3 119.595 324.433   2
   7  -3   3-9.54453 510.669   6
   7  -3   4 119665. 5480.38   2
  -7   3  -4 117894. 6697.19   4
   7  -3   4 129418. 7064.50   6
  -7   3  -5 6124.93 1597.93   4
   7  -3   5 6906.34 1407.13   2
   7  -3   5 7766.18 2002.19   6
   7  -3   6 67466.1 4362.98   2
  -7   3  -6 68260.2 5412.08   4
   7  -3   6 72801.5 5505.24   6
  -7   3  -7 371.992 568.801   4
   7  -3   7 1612.34 871.586   6
  -7   3  -8 6703.63 1817.22   4
   7  -3   8 7281.14 1952.18   6
  -7   3  -9 237.880 1031.69   4
   7  -3   9 30.2051 659.940   6
  -7   3 -10-523.219 552.326   4
   7  -3  10 600.234 660.780   6
  -7   3 -11 15252.1 2880.11   4
   7  -3  11 12484.1 2465.09   7
  -7   3 -12 5718.37 1880.10   4
   7  -3  12 4323.68 1665.62   7
  -7   3 -13 5674.62 1937.89   4
   7  -3  13 5506.15 1891.66   7
   7  -3  14 10330.4 2560.25   7
   7  -3  14 11177.2 2337.18   5
   7  -2 -16 6742.50 1819.87   2
  -7   2  16 4082.70 1479.80   5
  -7   2  15 6421.33 1822.22   5
   7  -2 -15 3465.21 1344.03   2
   7  -2 -15 4287.84 1094.43   3
  -7   2  14 8968.27 1880.46   5
   7  -2 -14 6621.81 1782.20   2
   7  -2 -14 5922.60 1260.63   3
  -7   2  13 797.132 777.299   5
   7  -2 -13 1769.00 885.995   2
   7  -2 -13 975.632 501.360   3
  -7   2  12 14450.0 2255.13   5
   7  -2 -12 14996.8 2360.51   2
   7  -2 -12 13235.6 1776.20   3
  -7   2  11 2700.45 982.686   5
   7  -2 -11 1201.77 804.236   2
   7  -2 -11 3480.59 860.803   3
   7  -2 -10 47968.2 3851.72   2
   7  -2 -10 38918.3 2842.06   3
  -7   2  10 41988.2 3584.56   5
  -7   2   9 640.598 449.505   5
   7  -2  -9 591.888 498.208   2
   7  -2  -9 132.690 245.641   3
   7  -2  -8 41787.7 3395.21   2
  -7   2   8 36380.1 2683.86   4
   7  -2  -8 42379.2 2864.51   3
   7  -2  -8 38782.5 3845.72   6
  -7   2   8 39414.1 3342.08   5
   7  -2  -7 15710.7 1990.60   2
  -7   2   7 17748.8 1950.45   4
   7  -2  -7 15053.5 2402.23   6
  -7   2   7 16660.5 2078.24   5
   7  -2  -6 4254.89 1027.01   2
  -7   2   6 3120.77 872.246   4
   7  -2  -6 2678.89 1235.21   6
   7  -2  -5 17170.8 2023.26   2
  -7   2   5 17563.1 2100.06   4
   7  -2  -5 19077.8 2637.59   6
   7  -2  -4 75556.3 4101.04   2
  -7   2   4 72580.7 4326.90   4
   7  -2  -4 78310.3 5375.27   6
   7  -2  -3 3927.17 945.740   2
  -7   2   3 3032.39 937.123   4
   7  -2  -3 3108.76 1271.91   6
   7  -2  -2 88952.3 4306.94   2
  -7   2   2 82981.0 4913.83   4
   7  -2  -2 88004.2 5619.93   6
   7  -2  -1 599.566 380.280   2
  -7   2   1-27.9877 124.935   4
   7  -2  -1-69.2917 579.407   6
   7  -2   0 6185.74 1071.38   2
  -7   2   0 7701.12 1641.40   4
   7  -2   0 4514.78 1298.13   6
   7  -2   1-229.515 348.955   2
  -7   2  -1-358.802 456.673   4
  -7   2  -2 7735.04 1714.46   4
   7  -2   2 11510.4 2139.61   6
  -7   2  -3 13192.2 2351.04   4
   7  -2   3 14591.5 2376.92   6
  -7   2  -4 16252.8 2652.83   4
   7  -2   4 17247.2 2577.52   6
  -7   2  -5 3573.35 1345.16   4
   7  -2   5 4321.47 1510.62   6
  -7   2  -6 3703.19 1343.24   4
   7  -2   6 3131.88 1158.20   6
  -7   2  -7-110.972 809.066   4
   7  -2   7-131.385 269.991   6
  -7   2  -8 1961.33 1001.77   4
   7  -2   8 4746.40 1524.93   6
  -7   2  -9-1080.39 1160.90   4
   7  -2   9 605.797 586.873   6
  -7   2 -10 42094.3 4887.26   4
   7  -2  10 49755.4 5130.02   6
  -7   2 -11 914.811 1082.94   4
   7  -2  11 991.383 1097.48   7
   7  -2  11-684.002 899.127   6
  -7   2 -12 52859.7 5506.31   4
   7  -2  12 44350.8 4655.28   7
   7  -2  13 1417.99 886.553   7
  -7   1  17 3368.94 1485.98   5
   7  -1 -17 1979.70 892.436   3
  -7   1  16 10124.4 2294.20   5
   7  -1 -16 9862.35 1780.61   3
  -7   1  15 12074.7 2492.40   5
   7  -1 -15 9415.11 1752.01   3
  -7   1  14 715.223 989.514   5
   7  -1 -14-98.4224 433.471   3
   7  -1 -13 19566.9 2785.15   2
  -7   1  13 21063.8 3201.37   1
   7  -1 -13 19934.0 2284.93   3
  -7   1  13 21900.9 2894.43   5
  -7   1  12 1950.23 888.506   5
   7  -1 -12 2828.79 1276.92   2
   7  -1 -12 1133.15 645.772   3
  -7   1  12 1352.69 828.397   1
  -7   1  11 45.5800 445.859   1
  -7   1  11 1490.90 734.075   5
   7  -1 -11 1141.45 647.589   2
   7  -1 -11 831.532 453.719   3
   7  -1 -10 29058.9 3050.16   2
   7  -1 -10 33925.7 2792.35   3
  -7   1  10 30866.5 3402.37   1
  -7   1  10 33344.7 3170.04   5
  -7   1   9 7050.10 1500.18   5
   7  -1  -9 9238.13 1733.43   2
   7  -1  -9 9917.12 1499.75   3
  -7   1   9 11748.4 2052.60   1
  -7   1   8 3.33494 387.765   5
   7  -1  -8-187.502 446.116   2
  -7   1   8 292.572 576.907   1
   7  -1  -8 534.491 367.846   3
   7  -1  -8-100.284 604.746   6
  -7   1   7 4681.02 1173.73   5
  -7   1   7 3563.73 1130.36   1
   7  -1  -7 4920.81 1125.92   2
  -7   1   7 3976.08 944.145   4
   7  -1  -7 3218.62 1165.47   6
  -7   1   6 4303.81 1073.07   5
   7  -1  -6 4462.90 1063.61   2
  -7   1   6 4842.85 1230.00   4
   7  -1  -6 4288.04 1452.68   6
  -7   1   6 5366.53 1323.84   1
   7  -1  -5 56444.1 3508.98   2
  -7   1   5 52113.5 3771.96   4
  -7   1   5 54262.8 4013.79   1
   7  -1  -5 52939.6 4477.65   6
  -7   1   5 57406.3 3645.41   5
   7  -1  -4 16962.6 1867.11   2
  -7   1   4 16938.3 2228.57   4
  -7   1   4 13124.0 1992.33   1
   7  -1  -4 13907.3 2258.44   6
  -7   1   3 107934. 5743.42   4
  -7   1   3 106632. 5400.62   1
   7  -1  -3 112050. 6493.40   6
  -7   1   2 17323.9 2423.21   4
  -7   1   2 17356.8 2201.12   1
   7  -1  -2 16002.1 2470.66   6
  -7   1   1-873.107 804.847   1
  -7   1   1 1438.00 886.824   4
   7  -1  -1 1520.71 943.831   6
  -7   1   0 1710.02 786.878   4
   7  -1   0 1646.08 964.359   6
  -7   1   0 1490.52 626.415   1
  -7   1  -1 1090.96 924.724   4
   7  -1   1 1460.35 811.225   6
  -7   1  -1 820.109 538.630   1
  -7   1  -2 18349.9 2147.15   1
  -7   1  -2 18479.2 2893.39   4
   7  -1   2 17450.2 2660.94   6
  -7   1  -3 556.665 855.551   4
  -7   1  -3 1710.69 764.664   1
   7  -1   3 320.729 606.709   6
  -7   1  -4 42391.6 3328.45   1
  -7   1  -4 44120.6 4616.94   4
   7  -1   4 44331.4 4370.86   6
  -7   1  -5 4684.21 1111.39   1
  -7   1  -5 6240.43 1953.89   4
   7  -1   5 6534.24 1771.81   6
  -7   1  -6 1422.84 700.226   1
  -7   1  -6 2515.33 1379.45   4
   7  -1   6 1781.57 927.508   6
  -7   1  -7 19103.4 3359.53   4
   7  -1   7 24895.0 3377.16   6
  -7   1  -8-1940.97 1089.70   4
   7  -1   8 566.684 648.422   6
  -7   1  -9 3163.13 1679.39   4
   7  -1   9 6533.30 1859.50   6
  -7   1 -10 27998.9 3958.71   4
   7  -1  10 35955.0 4446.04   6
   7  -1  11 26825.0 4020.06   6
  -7   0  16 6759.33 2034.12   1
   7   0 -16 3024.84 1011.69   3
  -7   0  15 3231.71 1397.13   1
   7   0 -15 2909.78 998.080   3
  -7   0  14 2568.75 1151.13   1
   7   0 -14 4179.89 1122.28   3
  -7   0  13 15868.3 2773.31   1
   7   0 -13 10340.8 1741.51   3
  -7   0  12 14430.0 2775.62   1
   7   0 -12 19886.9 2389.32   3
   7   0 -11 63895.0 4145.59   3
  -7   0  11 65264.9 5443.89   1
   7   0 -10 14934.4 1998.33   3
  -7   0  10 13598.4 2454.53   1
  -7   0   9 5488.12 1588.91   1
   7   0  -9 5879.69 1211.31   3
  -7   0   8 452.271 719.254   1
   7   0  -8-365.283 355.787   3
   7   0  -8-1182.30 811.369   6
  -7   0   7 6148.93 1600.99   1
  -7   0   7 7489.67 1400.03   4
   7   0  -7 6158.91 1560.18   6
  -7   0   6 9681.95 1693.56   4
   7   0  -6 8592.41 1816.86   6
  -7   0   6 8565.53 1788.15   1
  -7   0   5 13956.1 2090.78   4
  -7   0   5 11737.7 2036.73   1
   7   0  -5 10469.7 2115.02   6
  -7   0   4-614.516 928.641   1
  -7   0   4-1160.61 622.560   4
   7   0  -4-866.662 653.622   6
  -7   0   3 126.671 934.670   1
  -7   0   3 2543.04 1078.12   4
   7   0  -3 3262.64 1202.30   6
  -7   0   2 7004.21 1693.74   1
   7   0  -2 6593.68 1632.27   6
  -7   0   1 19980.4 2557.38   1
   7   0  -1 14260.3 2371.89   6
  -7   0   0 10481.4 1822.64   1
   7   0   0 8620.51 1901.61   6
   7   0   1 10817.2 2077.85   6
  -7   0  -1 9762.63 1787.19   1
   7   0   2 7757.33 1869.54   6
  -7   0  -2 5404.11 1372.40   1
  -7   0  -3 88024.4 5265.14   1
   7   0   3 90172.8 6248.11   6
  -7   0  -4 12546.2 1960.18   1
   7   0   4 12251.9 2378.86   6
  -7   0  -5 11547.6 1972.02   1
   7   0   5 14588.6 2559.75   6
  -7   0  -6-283.644 494.293   1
   7   0   6 759.181 682.450   6
  -7   0  -7 7316.78 1638.96   1
   7   0   7 4816.97 1648.13   6
  -7   0  -8 5404.24 1465.60   1
   7   0   8 2456.15 1164.77   6
  -7   0  -9 30463.4 3546.19   1
   7   0   9 38727.9 4588.05   6
  -7  -1  15 947.315 1432.14   1
  -7  -1  14 13417.4 2838.82   1
   7   1 -14 15136.0 2206.56   3
  -7  -1  13 8928.24 2316.67   1
   7   1 -13 7723.06 1619.69   3
   7   1 -12 28557.0 3028.42   3
  -7  -1  12 24519.5 3683.87   1
   7   1 -11 33837.2 3192.85   3
  -7  -1  11 30579.9 3863.56   1
  -7  -1  10 15219.8 2745.05   1
   7   1 -10 9973.99 1699.31   3
  -7  -1   9-1108.35 720.164   1
   7   1  -9 384.191 495.627   3
  -7  -1   8-452.610 562.967   1
   7   1  -7 1319.79 981.801   6
  -7  -1   7 1895.72 897.402   1
  -7  -1   6-366.441 700.332   1
   7   1  -6 1478.16 860.264   6
  -7  -1   5 49587.0 4572.96   1
   7   1  -5 59799.5 4979.86   6
  -7  -1   4 11069.0 2306.21   1
   7   1  -4 9006.54 2013.24   6
  -7  -1   3 2262.61 1244.65   1
   7   1  -3 2728.40 1205.17   6
  -7  -1   2 13361.5 2400.50   1
   7   1  -2 11174.0 2144.29   6
  -7  -1   1 6198.87 1678.49   1
   7   1  -1 7456.14 1764.26   6
  -7  -1   0 156.383 406.874   1
   7   1   0 199.877 380.688   6
   7   1   1 17728.8 2766.03   6
  -7  -1  -1 16393.9 2504.77   1
   7   1   2 1513.67 1016.17   6
  -7  -1  -2 1937.14 1025.68   1
  -7  -1  -3 19446.5 2747.41   1
   7   1   3 20149.4 2972.31   6
  -7  -1  -4 7163.25 1734.18   1
   7   1   4 7331.58 1861.97   6
  -7  -1  -5 6196.11 1600.45   1
   7   1   5 9157.57 2063.73   6
  -7  -1  -6 15888.0 2603.34   1
   7   1   6 15327.4 2774.78   6
  -7  -1  -7 5326.81 1440.70   1
   7   1   7 5496.41 1779.44   6
  -7  -1  -8 19869.4 2925.34   1
   7   1   8 20623.0 3384.24   6
  -7  -2  12 3466.92 1517.75   1
  -7  -2  11-122.217 1095.52   1
  -7  -2  10 842.922 1108.53   1
  -7  -2   9 26045.4 3729.14   1
  -7  -2   8-105.313 673.839   1
  -7  -2   7-1212.21 613.995   1
  -7  -2   6 18620.7 2987.21   1
   7   2  -6 18260.8 2849.82   6
  -7  -2   5 34402.2 4060.21   1
   7   2  -5 32123.0 3767.40   6
  -7  -2   4 9473.13 2191.64   1
   7   2  -4 11647.6 2277.03   6
  -7  -2   3 1081.65 908.831   1
   7   2  -3 1026.91 668.881   6
  -7  -2   2 6348.72 1791.08   1
   7   2  -2 6617.12 1869.61   6
  -7  -2   1 4281.10 1512.89   1
   7   2  -1 6380.84 1759.12   6
   7   2   0 17918.4 2867.15   6
  -7  -2   0 16890.1 2887.14   1
  -7  -2  -1 42861.0 4402.75   1
   7   2   1 37403.0 4161.44   6
   7   2   2 8797.88 2139.82   6
  -7  -2  -2 9345.62 2153.11   1
   7   2   3 2706.05 1257.48   6
  -7  -2  -3 2849.06 1224.36   1
  -7  -2  -4 2107.33 963.351   1
   7   2   4 5276.21 1845.79   6
  -7  -2  -5 10485.2 2150.70   1
   7   2   5 12875.3 2615.78   6
   7   3  -5 1481.67 1245.32   6
   7   3  -4 74.7958 655.624   6
   7   3  -3 19875.9 3092.78   6
   7   3  -2-366.273 524.478   6
   7   3  -1 14977.8 2707.67   6
  -8   8   8 2447.41 1069.65   4
  -8   8   7 3289.29 1152.45   4
  -8   8   6 8289.93 1702.05   4
  -8   8   5 610.401 699.711   4
  -8   8   4 980.928 558.707   4
   8  -8  -4 975.279 1100.44   2
  -8   8   3 8024.83 1547.94   4
   8  -8  -3 6449.78 1880.94   2
  -8   8   2 1423.08 881.478   4
   8  -8  -2 857.176 749.361   2
  -8   8   1 4575.20 1247.08   4
   8  -8  -1 3492.95 1254.09   2
  -8   8   0-774.082 813.118   4
   8  -8   0-29.7065 870.798   2
  -8   8  -1 21625.5 2785.89   4
   8  -8   1 23250.0 3272.36   2
  -8   8  -2 23990.7 2979.85   4
   8  -8   2 24457.6 3475.20   2
  -8   8  -3 2458.91 1004.82   4
   8  -8   3 6.27688 941.173   2
   8  -8   4 31240.7 3985.24   2
  -8   8  -4 35336.6 3685.82   4
  -8   8  -5 13618.7 2316.48   4
   8  -8   5 5832.45 1788.59   2
   8  -8   6 2495.34 1424.42   2
   8  -8   6 1743.03 1027.87   6
   8  -8   7 26991.6 3432.23   6
   8  -8   7 24556.9 3656.51   2
   8  -8   8 960.200 1131.67   6
   8  -8   9 1926.30 1072.23   6
  -8   7   8 392.635 497.551   4
   8  -7  -8 1726.15 1046.20   2
  -8   7   7 1737.70 684.798   4
   8  -7  -7 326.630 687.651   2
  -8   7   6 4840.96 1238.30   4
   8  -7  -6 6261.60 1815.83   2
  -8   7   5 1476.31 712.275   4
   8  -7  -5 766.302 596.189   2
   8  -7  -4 62862.7 5194.33   2
  -8   7   4 61566.1 4232.95   4
   8  -7  -4 63445.8 4770.90   6
  -8   7   3 953.147 753.019   4
   8  -7  -3 1685.98 957.233   2
   8  -7  -3 1519.82 983.737   6
  -8   7   2 306.938 318.057   4
   8  -7  -2 42.8394 465.173   2
   8  -7  -2-312.476 393.736   6
  -8   7   1 13235.4 2101.37   4
   8  -7  -1 15597.6 2519.03   2
   8  -7  -1 12641.4 2270.34   6
  -8   7   0 6092.58 1504.74   4
   8  -7   0 7851.26 1800.52   2
   8  -7   0 6828.31 1573.51   6
  -8   7  -1 9283.63 1808.58   4
   8  -7   1 11355.5 2240.40   2
   8  -7   1 8806.06 1939.46   6
  -8   7  -2 1754.54 768.029   4
   8  -7   2 770.247 598.346   2
   8  -7   2 1213.26 705.946   6
  -8   7  -3 3574.75 1118.24   4
   8  -7   3 3331.10 1232.51   2
   8  -7   3 3790.34 1217.93   6
  -8   7  -4 9983.80 1905.28   4
   8  -7   4 9100.26 2018.20   2
   8  -7   4 7913.88 1958.22   6
  -8   7  -5 7928.29 1808.31   4
   8  -7   5 6972.50 1838.72   2
   8  -7   5 7416.08 1745.23   6
   8  -7   6 67383.4 5708.71   2
  -8   7  -6 61433.6 5001.96   4
   8  -7   6 70776.1 5553.81   6
  -8   7  -7 8932.11 1965.08   4
   8  -7   7 9705.65 2355.51   2
   8  -7   7 10691.1 2274.29   6
  -8   7  -8 62.0658 673.897   4
   8  -7   8 1018.42 882.525   2
   8  -7   8 1051.17 1127.87   6
   8  -7   9 1612.35 951.851   2
   8  -7   9 2862.72 1387.17   6
   8  -7  10 13498.9 2897.69   2
   8  -7  10 10925.0 2486.44   6
   8  -7  11 250.185 674.884   2
  -8   6  10-87.4547 486.531   5
   8  -6 -10 169.773 806.115   2
  -8   6   9 1331.69 786.392   5
   8  -6  -9 330.836 432.507   2
   8  -6  -8 27059.6 3307.39   2
  -8   6   8 30810.0 2708.74   4
  -8   6   7 13125.0 1858.51   4
   8  -6  -7 15077.3 2489.31   2
   8  -6  -7 16927.3 2521.28   6
  -8   6   6 1632.96 750.087   4
   8  -6  -6 1904.84 863.449   2
   8  -6  -6 520.361 768.607   6
   8  -6  -5 37079.3 3800.70   2
  -8   6   5 36880.3 3190.46   4
   8  -6  -5 39605.5 3910.41   6
  -8   6   4-298.201 720.591   4
   8  -6  -4-839.878 801.731   2
   8  -6  -4 625.891 990.910   6
   8  -6  -3 28217.3 3310.05   2
  -8   6   3 25728.7 2772.82   4
   8  -6  -3 27726.4 3325.22   6
   8  -6  -2 53953.5 4532.05   2
  -8   6   2 53486.0 4002.99   4
   8  -6  -2 51268.8 4479.49   6
  -8   6   1 8844.97 1691.47   4
   8  -6  -1 6347.28 1666.97   2
   8  -6  -1 9376.98 1930.39   6
   8  -6   0 19374.4 2673.35   2
  -8   6   0 21298.7 2630.18   4
   8  -6   0 23568.3 2959.20   6
  -8   6  -1 2385.81 884.057   4
   8  -6   1 2969.22 1178.83   2
   8  -6   1 1201.63 975.891   6
  -8   6  -2 10771.1 2068.51   4
   8  -6   2 9536.19 2004.40   2
   8  -6   2 8846.62 1929.21   6
  -8   6  -3-204.028 539.606   4
   8  -6   3 1070.23 1012.43   2
   8  -6   3 224.108 403.636   6
  -8   6  -4 2161.40 912.458   4
   8  -6   4 399.420 696.249   2
   8  -6   4 1904.64 874.693   6
  -8   6  -5 5539.11 1562.91   4
   8  -6   5 5091.56 1567.76   2
   8  -6   5 6671.87 1854.43   6
  -8   6  -6 11921.1 2172.30   4
   8  -6   6 9424.26 2167.05   2
   8  -6   6 12101.9 2387.35   6
  -8   6  -7 1041.52 1006.30   4
   8  -6   7 1784.96 947.419   2
   8  -6   7 326.725 554.438   6
  -8   6  -8 10260.4 2176.36   4
   8  -6   8 10456.9 2273.82   2
   8  -6   8 10133.7 2565.87   6
   8  -6   9 25.6898 801.179   2
   8  -6   9 1132.32 775.555   6
   8  -6  10 142.033 1204.25   2
   8  -6  10 1880.04 1327.65   6
   8  -6  11 3463.61 1412.80   2
   8  -6  12 34198.8 4507.10   2
  -8   5  12 1921.17 974.306   5
   8  -5 -12 2571.25 1143.54   2
  -8   5  11 16659.6 2738.94   5
   8  -5 -11 14278.5 2478.75   2
  -8   5  10 6696.44 1641.68   5
   8  -5 -10 7956.77 1847.10   2
  -8   5   9 72.7743 455.204   5
   8  -5  -9 331.002 878.112   2
   8  -5  -8 26038.0 3139.72   2
  -8   5   8 26862.3 2562.77   4
  -8   5   7 682.739 764.143   4
   8  -5  -7 75.0874 386.376   2
   8  -5  -7-146.489 535.888   6
  -8   5   6 1500.86 821.888   4
   8  -5  -6 2135.48 943.020   6
  -8   5   5 176.892 361.700   4
   8  -5  -5 1135.50 721.888   2
   8  -5  -5 105.780 722.895   6
  -8   5   4 11698.6 1771.96   4
   8  -5  -4 11042.4 1969.13   2
   8  -5  -4 13017.0 2395.42   6
   8  -5  -3 53545.0 4275.60   2
  -8   5   3 49478.2 3743.92   4
   8  -5  -3 51280.5 4524.30   6
   8  -5  -2 57511.0 4420.82   2
  -8   5   2 60899.7 4273.28   4
   8  -5  -2 60049.5 4854.08   6
   8  -5  -1 17988.9 2516.67   2
  -8   5   1 19587.9 2453.53   4
   8  -5  -1 19920.7 2839.79   6
  -8   5   0 7266.28 1574.43   4
   8  -5   0 5348.27 1446.34   2
   8  -5   0 5109.10 1580.61   6
  -8   5  -1 7367.72 1622.63   4
   8  -5   1 6089.22 1445.84   2
   8  -5   1 6616.98 1726.56   6
  -8   5  -2 414.393 532.372   4
   8  -5   2 679.912 727.456   2
   8  -5   2 801.186 799.738   6
  -8   5  -3 1390.99 751.885   4
   8  -5   3 1630.70 956.452   2
   8  -5   3 748.736 803.423   6
   8  -5   4 24103.4 2984.93   2
  -8   5  -4 15909.1 2552.69   4
   8  -5   4 23466.4 3291.35   6
  -8   5  -5 2034.73 972.026   4
   8  -5   5 1468.16 836.356   2
   8  -5   5 696.844 910.247   6
  -8   5  -6 8742.19 2169.05   4
   8  -5   6 9254.16 1898.27   2
   8  -5   6 9241.51 2170.35   6
   8  -5   7 41749.7 4160.73   2
  -8   5  -7 32607.4 3895.30   4
   8  -5   7 38175.7 4207.42   6
  -8   5  -8 3244.75 1401.63   4
   8  -5   8 1620.48 1077.63   2
  -8   5  -9 11295.0 2385.80   4
   8  -5   9 10606.9 2167.03   2
   8  -5   9 16552.5 2967.53   6
   8  -5  10 4811.22 2011.84   6
  -8   4  13 3778.17 1494.00   5
   8  -4 -13 2891.95 1247.93   2
   8  -4 -12 19612.3 2792.67   2
  -8   4  12 23351.2 3164.35   5
  -8   4  11 13809.4 2493.18   5
   8  -4 -11 13286.2 2291.82   2
   8  -4 -10 53002.0 4449.10   2
  -8   4  10 55513.3 4691.45   5
   8  -4  -9 34832.2 3473.82   2
  -8   4   9 36303.8 3699.46   5
   8  -4  -8 21294.9 2681.81   2
   8  -4  -8 20872.7 3078.81   6
  -8   4   8 19743.7 2709.26   5
   8  -4  -7 3464.94 1058.22   2
  -8   4   7 3302.11 899.396   4
   8  -4  -7 1652.34 1065.60   6
  -8   4   6 1266.19 693.563   4
   8  -4  -6 1366.28 729.438   2
   8  -4  -6 1256.02 753.210   6
  -8   4   5 895.395 616.657   4
   8  -4  -5 1302.27 727.529   2
   8  -4  -5 2659.97 1231.15   6
  -8   4   4-7.09290 308.226   4
   8  -4  -4 662.484 546.893   2
   8  -4  -4-167.210 293.945   6
   8  -4  -3 21772.1 2601.58   2
  -8   4   3 21188.6 2552.95   4
   8  -4  -3 19924.7 2917.18   6
  -8   4   2-7.80856 337.863   4
   8  -4  -2-640.423 655.784   2
   8  -4  -2-1134.95 709.804   6
  -8   4   1-77.9801 829.435   4
   8  -4  -1 743.076 732.373   2
   8  -4  -1 1738.49 932.955   6
  -8   4   0 5980.42 1506.39   4
   8  -4   0 4402.49 1340.23   2
   8  -4   0 4610.55 1422.85   6
  -8   4  -1 15664.6 2358.31   4
   8  -4   1 15708.7 2264.51   2
   8  -4   1 14312.9 2450.34   6
   8  -4   2 152.464 540.913   2
   8  -4   2-486.489 672.633   6
   8  -4   3 24816.0 2775.62   2
  -8   4  -3 18251.3 2696.93   4
   8  -4   3 20207.8 3023.84   6
   8  -4   4 41300.4 3625.81   2
  -8   4  -4 44471.2 4325.75   4
   8  -4   4 41068.3 4271.22   6
   8  -4   5 19370.3 2524.91   2
  -8   4  -5 24393.5 3243.52   4
   8  -4   5 19523.6 3009.82   6
  -8   4  -6 24573.1 3404.44   4
   8  -4   6 21753.1 3332.33   6
  -8   4  -7 2315.17 1083.85   4
   8  -4   7 3676.04 1574.32   6
  -8   4  -8 8640.00 2204.94   4
   8  -4   8 10110.7 2485.77   6
  -8   4  -9 4914.43 1748.98   4
   8  -4   9 7569.97 2003.74   6
  -8   3  14-1695.22 1084.30   5
   8  -3 -14-999.409 1088.94   2
  -8   3  13 3959.44 1394.76   5
   8  -3 -13 2735.90 1235.80   2
  -8   3  12 9061.32 1894.71   5
   8  -3 -12 7174.52 1667.37   2
   8  -3 -11 52694.6 4453.91   2
  -8   3  11 49328.8 4348.32   5
  -8   3  10 5971.53 1453.22   5
   8  -3 -10 5953.52 1470.24   2
   8  -3  -9 27737.9 3052.41   2
  -8   3   9 27348.4 3208.93   5
  -8   3   8 1451.18 772.172   5
   8  -3  -8 283.928 473.872   2
   8  -3  -8 608.845 661.736   6
  -8   3   7 1045.84 622.852   5
   8  -3  -7 776.813 621.176   2
  -8   3   7 1127.49 596.246   4
   8  -3  -7 618.302 706.491   6
   8  -3  -6 842.363 602.435   2
  -8   3   6 109.808 457.365   4
   8  -3  -6 10.9109 553.172   6
   8  -3  -5 4600.06 1155.29   2
  -8   3   5 2824.87 1032.20   4
   8  -3  -5 4897.11 1535.06   6
   8  -3  -4 8841.02 1565.06   2
  -8   3   4 7483.68 1466.39   4
   8  -3  -4 8013.89 1858.29   6
   8  -3  -3 24165.1 2578.77   2
  -8   3   3 22733.7 2644.10   4
   8  -3  -3 26826.0 3456.74   6
   8  -3  -2 39945.6 3267.24   2
  -8   3   2 43210.3 3744.47   4
   8  -3  -2 37552.4 4007.32   6
   8  -3  -1 11300.2 1745.60   2
  -8   3   1 12040.3 2109.76   4
   8  -3  -1 12504.2 2359.69   6
  -8   3   0 23274.4 2861.12   4
   8  -3   0 22698.2 3078.19   6
  -8   3  -1 3014.76 1227.73   4
   8  -3   1 1099.81 1028.85   6
  -8   3  -2 1458.79 859.949   4
   8  -3   2 1340.77 863.680   6
  -8   3  -3 40654.5 4205.27   4
   8  -3   3 45840.9 4590.53   6
  -8   3  -4-509.382 473.835   4
   8  -3   4-41.8573 276.975   6
  -8   3  -5 3441.82 1270.54   4
   8  -3   5 5626.16 1624.60   6
  -8   3  -6 2391.88 1145.66   4
   8  -3   6 3519.73 1395.53   6
  -8   3  -7 1199.63 992.687   4
   8  -3   7 338.634 718.991   6
  -8   3  -8 4914.77 1699.29   4
   8  -3   8 5854.19 1852.46   6
   8  -2 -15 62.6211 874.823   2
  -8   2  14 2394.48 1168.95   5
   8  -2 -14-998.307 1551.06   2
  -8   2  13 1383.26 761.225   5
   8  -2 -13-895.681 664.354   2
  -8   2  12 2584.47 1186.12   5
   8  -2 -12 1796.43 1017.99   2
   8  -2 -12 1919.93 897.629   3
  -8   2  11 2362.49 1034.44   5
   8  -2 -11 877.562 1064.04   2
   8  -2 -11 461.658 455.297   3
  -8   2  10 3402.81 1155.22   5
   8  -2 -10 3218.75 1248.57   2
  -8   2   9 7069.93 1687.89   5
   8  -2  -9 9385.72 1741.17   2
  -8   2   8 5509.11 1353.21   5
   8  -2  -8 5032.63 1259.57   2
   8  -2  -8 5541.87 1560.76   6
  -8   2   7 13636.2 2005.66   5
   8  -2  -7 10894.7 1774.19   2
   8  -2  -7 13333.5 2458.53   6
  -8   2   6 1491.67 692.895   5
  -8   2   6 1783.32 780.189   4
   8  -2  -6 2144.72 1130.93   6
  -8   2   5 35225.5 3188.09   4
   8  -2  -5 31832.2 3829.17   6
  -8   2   4 10821.4 1844.05   4
   8  -2  -4 11515.9 2282.64   6
  -8   2   3 42829.2 3756.57   4
   8  -2  -3 35121.5 3983.95   6
  -8   2   2-636.860 644.835   4
   8  -2  -2-323.804 491.968   6
  -8   2   1 3990.18 1219.16   4
   8  -2  -1 2748.39 1204.96   6
  -8   2   0 527.528 589.831   4
   8  -2   0-323.041 431.887   6
  -8   2  -1 44141.1 4425.91   4
   8  -2   1 46573.7 4602.43   6
  -8   2  -2 15917.9 2749.28   4
   8  -2   2 12957.9 2416.43   6
  -8   2  -3 50732.7 5017.33   4
   8  -2   3 57564.8 5275.30   6
  -8   2  -4 1058.51 1244.93   4
   8  -2   4 100.256 447.029   6
  -8   2  -5 895.878 1133.35   4
   8  -2   5 1719.56 1029.20   6
  -8   2  -6 6823.20 2112.49   4
   8  -2   6 4689.85 1587.39   6
  -8   2  -7 8068.87 2229.47   4
   8  -2   7 7868.95 2064.89   6
   8  -1 -14-446.601 876.907   3
   8  -1 -13 3487.57 1071.01   3
   8  -1 -12 11342.9 1802.69   3
   8  -1 -11 26933.7 2750.63   3
   8  -1  -8 12137.4 2398.93   6
   8  -1  -7 6092.81 1680.33   6
  -8   1   6 1999.67 918.215   4
   8  -1  -6 3843.12 1471.22   6
  -8   1   5 10358.6 1936.13   4
   8  -1  -5 14058.9 2526.97   6
  -8   1   4 22521.2 2854.36   4
   8  -1  -4 20018.9 3090.97   6
  -8   1   3 1904.39 875.884   4
   8  -1  -3 726.163 882.070   6
  -8   1   2 1834.72 836.169   4
   8  -1  -2 1788.79 1044.09   6
  -8   1   1 18515.1 2775.10   4
   8  -1  -1 16166.4 2738.16   6
  -8   1   0 17821.2 2878.20   4
   8  -1   0 17466.1 2978.02   6
  -8   1  -1 2272.71 1186.72   4
   8  -1   1 3117.42 1296.04   6
  -8   1  -2 65474.9 5804.43   4
   8  -1   2 62012.1 5498.94   6
  -8   1  -3-13.8016 1062.96   4
   8  -1   3 248.151 848.449   6
  -8   1  -4 1635.20 1068.49   4
   8  -1   4 1923.77 1158.38   6
  -8   1  -5 1207.68 1072.77   4
   8  -1   5 1344.94 857.244   6
   8  -1   6 1462.24 932.146   6
   8   0 -12 32241.3 3184.54   3
   8   0 -11-467.654 629.279   3
   8   0  -8 17316.9 2869.25   6
   8   0  -7 964.139 734.908   6
   8   0  -6 76054.1 6014.14   6
  -8   0   5 157.722 814.820   4
   8   0  -5 1126.37 794.693   6
  -8   0   4 11155.4 2092.33   4
   8   0  -4 10490.2 2287.80   6
  -8   0   3 2260.04 1128.47   4
   8   0  -3 12.2611 477.227   6
  -8   0   2 10741.0 2152.97   4
   8   0  -2 7896.50 1926.51   6
  -8   0   1 2172.06 1113.45   4
   8   0  -1 1734.08 1173.21   6
  -8   0   0 1984.72 1219.05   4
   8   0   0 960.941 899.200   6
  -8   0  -1 260.918 918.671   4
   8   0   1-827.073 664.065   6
  -8   0  -2 989.223 977.795   4
   8   0   2 2263.22 1077.31   6
  -8   0  -3 1007.91 959.180   4
   8   0   3 683.642 877.650   6
  -8  -1   4 100.174 434.053   4
   8   1  -4-342.886 886.314   6
   8   1  -3 927.367 765.205   6
   8   1  -2-225.802 900.809   6
   8   1  -1-688.735 614.346   6
  -9   7   6 172.189 534.763   4
  -9   7   5 3355.98 1190.62   4
   9  -7  -5 3787.77 1401.40   6
  -9   7   4 2013.39 837.236   4
   9  -7  -4 399.373 439.033   2
  -9   7   3 2943.48 1116.02   4
   9  -7  -3 5632.72 1738.47   6
  -9   7   2 6118.65 1518.48   4
   9  -7  -2 7930.99 1934.22   2
   9  -7  -2 8255.82 1883.84   6
  -9   7   1-214.054 567.360   4
   9  -7  -1 1293.85 981.853   2
  -9   7   0 19470.9 2741.40   4
   9  -7   0 19693.5 2945.02   2
   9  -7   0 21772.6 3191.07   6
  -9   7  -1 29915.7 3418.47   4
   9  -7   1 25485.5 3434.80   2
   9  -7   1 32693.4 3920.68   6
   9  -7   2 7747.93 2018.57   2
   9  -7   2 10064.0 2407.96   6
   9  -7   3-1467.36 1109.73   2
   9  -7   3 608.753 760.169   6
   9  -7   4 5071.69 1726.95   2
   9  -7   4 1690.83 1108.00   6
   9  -7   5 17788.4 2964.65   2
   9  -7   5 17096.0 2910.99   6
   9  -7   6 4095.66 1744.86   2
   9  -7   7 2777.75 1416.45   2
   9  -6  -7 9311.85 1960.09   2
   9  -6  -7 12509.2 2532.59   6
  -9   6   6 2407.86 859.135   4
   9  -6  -6 2045.39 945.103   2
   9  -6  -6 2326.23 1205.63   6
  -9   6   5 1461.82 875.277   4
   9  -6  -5-966.254 701.705   2
   9  -6  -5-264.424 919.323   6
  -9   6   4-450.162 499.310   4
   9  -6  -4-527.274 811.753   2
   9  -6  -4 681.685 876.860   6
   9  -6  -3 36460.6 3883.60   2
  -9   6   3 37006.9 3473.43   4
   9  -6  -3 33574.6 4003.68   6
  -9   6   2 1847.03 785.636   4
   9  -6  -2 253.937 556.043   2
   9  -6  -2 277.246 641.786   6
  -9   6   1 14039.1 2275.98   4
   9  -6  -1 16905.5 2716.44   2
   9  -6  -1 15370.3 2809.35   6
  -9   6   0 12351.2 2248.43   4
   9  -6   0 11306.7 2125.99   2
   9  -6   0 12266.9 2490.08   6
  -9   6  -1 7928.80 1808.57   4
   9  -6   1 6897.89 1717.52   2
   9  -6   1 10044.9 2403.42   6
  -9   6  -2 1751.11 1207.87   4
   9  -6   2 1190.71 785.935   2
   9  -6   2 450.057 1043.14   6
   9  -6   3 48728.9 4547.27   2
  -9   6  -3 53848.1 4831.06   4
   9  -6   3 50831.1 5030.49   6
   9  -6   4 2015.51 954.787   2
   9  -6   4 745.891 1053.29   6
   9  -6   5 13267.7 2425.71   2
   9  -6   5 11185.2 2414.38   6
   9  -6   6 2275.36 1283.94   2
   9  -5  -9 10598.3 2080.00   2
  -9   5   8 21429.4 2982.59   5
   9  -5  -8 22547.6 3136.33   2
   9  -5  -8 20975.6 3276.49   6
   9  -5  -7 5074.83 1641.63   2
   9  -5  -7 7014.90 1881.11   6
  -9   5   6 15430.8 2177.22   4
   9  -5  -6 16077.4 2482.82   2
   9  -5  -6 9813.23 2396.19   6
  -9   5   5 12184.3 1974.48   4
   9  -5  -5 14442.7 2339.63   2
   9  -5  -5 14808.2 2622.91   6
  -9   5   4 7477.34 1720.31   4
   9  -5  -4 7879.76 1738.62   2
   9  -5  -4 6972.48 2131.72   6
  -9   5   3 18384.8 2506.31   4
   9  -5  -3 17393.0 2640.45   2
   9  -5  -3 16779.9 2821.88   6
  -9   5   2 1802.65 942.965   4
   9  -5  -2 1617.42 806.882   2
   9  -5  -2 1059.40 1099.03   6
  -9   5   1-635.512 595.534   4
   9  -5  -1-1212.88 918.368   2
   9  -5  -1-1374.61 819.253   6
  -9   5   0 1083.05 821.692   4
   9  -5   0 4.78050 476.786   2
   9  -5   0 1028.25 1114.88   6
  -9   5  -1-1173.89 913.245   4
   9  -5   1-181.986 522.990   2
   9  -5   1 628.132 840.860   6
   9  -5   2 34566.6 3637.39   2
  -9   5  -2 36393.9 4012.23   4
   9  -5   2 39006.0 4497.32   6
  -9   5  -3 10545.7 2292.20   4
   9  -5   3 10086.0 2447.78   6
  -9   5  -4 31159.9 3825.28   4
   9  -5   4 30406.9 4055.82   6
   9  -4 -11 521.281 791.796   2
  -9   4  10 21718.7 3152.26   5
   9  -4 -10 23952.4 3124.76   2
  -9   4   9 11822.4 2300.33   5
   9  -4  -9 10930.9 2108.67   2
  -9   4   8 1970.04 907.788   5
   9  -4  -8 2747.60 1369.48   2
   9  -4  -8 1512.96 884.408   6
   9  -4  -7 7168.21 1797.39   2
   9  -4  -7 6044.96 1854.54   6
   9  -4  -6 26826.2 3112.72   2
  -9   4   6 25016.8 2677.33   4
   9  -4  -6 27743.2 3790.25   6
   9  -4  -5 7756.90 1682.71   2
  -9   4   5 6081.03 1443.63   4
   9  -4  -5 2235.43 1387.07   6
   9  -4  -4 51835.8 4211.67   2
  -9   4   4 55571.9 4304.70   4
   9  -4  -4 55861.7 5292.59   6
   9  -4  -3 4003.27 1418.86   2
  -9   4   3 3112.39 1084.75   4
   9  -4  -3 6486.55 1930.03   6
  -9   4   2-649.328 836.374   4
   9  -4  -2 24.7694 825.468   6
  -9   4   1 1852.27 947.765   4
   9  -4  -1 1020.78 703.399   6
  -9   4   0 2544.41 1110.61   4
   9  -4   0 4565.09 1575.12   6
  -9   4  -1-123.651 538.370   4
   9  -4   1 1046.69 880.744   6
  -9   4  -2 5268.47 1559.14   4
   9  -4   2 6246.45 1837.07   6
  -9   4  -3 323.375 837.272   4
   9  -4   3-878.889 755.683   6
  -9   3  11 349.138 753.943   5
   9  -3 -11 477.395 540.167   2
  -9   3  10 3160.35 1224.39   5
   9  -3 -10 4325.86 1431.51   2
  -9   3   9-113.841 332.295   5
  -9   3   8 4044.99 1340.59   5
  -9   3   7 12997.5 2250.41   5
  -9   3   6 11186.3 1962.47   5
   9  -3  -6 10517.4 2318.25   6
  -9   3   5 29599.5 3149.66   4
   9  -3  -5 25858.1 3788.45   6
  -9   3   4 13198.2 2176.60   4
   9  -3  -4 15195.3 2936.32   6
  -9   3   3 3886.06 1479.82   4
   9  -3  -3 2153.63 1224.55   6
  -9   3   2 567.155 614.424   4
   9  -3  -2-926.823 935.482   6
  -9   3   1 4544.97 1511.73   4
   9  -3  -1 1659.18 1311.03   6
  -9   3   0 4565.07 1582.58   4
   9  -3   0 4525.26 1518.88   6
  -9   3  -1-422.345 495.150   4
   9  -3   1 1020.25 1099.05   6
  -9   3  -2 40405.8 4307.78   4
  -9   3  -3 5099.13 1588.92   4
  -9   2   4-863.307 750.830   4
  -9   2   3 14707.3 2488.91   4
  -9   2   2 7917.77 1859.98   4
  -9   2   1 771.264 1041.29   4
  -9   2   0 5816.58 1706.02   4
  -9   2  -1 37754.4 4307.52   4
  -9   1   4 9746.94 2130.74   4
  -9   1   3 1193.05 962.986   4
  -9   1   2 5943.64 1706.61   4
  -9   1   1 10867.9 2414.97   4
   0   0   0    0.00    0.00   0
TITL ew_nor_120 in P-1
REM P-1 (#2 in standard setting)
CELL 0.71073   7.392964   7.959731  17.605970  97.2971  94.3058 117.2892
ZERR    3.00   0.000352   0.000384   0.000841   0.0040   0.0039   0.0048
LATT  1
SFAC C H N O Sn I
UNIT 30.00 30.00 6.00 6.00 3.00 12.00
TREF
HKLF 4
END
;
_shelx_hkl_checksum              80294
loop_
_symmetry_equiv_pos_as_xyz
'x, y, z'
'-x, -y, -z'
loop_
_atom_site_label
_atom_site_type_symbol
_atom_site_fract_x
_atom_site_fract_y
_atom_site_fract_z
_atom_site_U_iso_or_equiv
_atom_site_adp_type
_atom_site_occupancy
_atom_site_calc_flag
Sn4 Sn 0.68390(5) 0.39075(5) 0.74916(2) 0.01568(9) Uani 1 d
I1 I 0.36581(5) 0.09266(5) 0.80218(2) 0.02298(10) Uani 1 d
I2 I 0.91780(5) 0.52715(5) 0.89826(2) 0.01983(9) Uani 1 d
I3 I 0.45942(5) 0.31953(5) 0.60300(2) 0.02324(10) Uani 1 d
I4 I 0.88123(6) 0.18197(5) 0.69555(2) 0.02593(10) Uani 1 d
N1 N 0.5972(7) 0.6968(6) 0.8396(3) 0.0188(10) Uani 1 d
O1 O 0.5463(5) 0.5769(5) 0.7709(2) 0.0206(9) Uani 1 d
C2 C 0.4775(8) 0.6394(7) 0.8942(4) 0.0240(14) Uani 1 d
H2 H 0.3585 0.5169 0.8842 0.029 Uiso 1 calc
C3 C 0.5273(9) 0.7590(8) 0.9652(4) 0.0286(14) Uani 1 d
H3 H 0.4435 0.7189 1.0044 0.034 Uiso 1 calc
C4 C 0.6995(8) 0.9367(8) 0.9784(4) 0.0253(14) Uani 1 d
H4 H 0.7364 1.0201 1.0271 0.03 Uiso 1 calc
C5 C 0.8187(8) 0.9927(8) 0.9200(4) 0.0239(13) Uani 1 d
H5 H 0.9363 1.1159 0.9279 0.029 Uiso 1 calc
C6 C 0.7655(8) 0.8686(7) 0.8506(4) 0.0227(13) Uani 1 d
H6 H 0.8477 0.9046 0.8106 0.027 Uiso 1 calc
N7 N 1.0141(6) 0.6787(6) 0.6624(3) 0.0188(10) Uani 1 d
O7 O 0.9398(6) 0.6515(5) 0.7299(2) 0.0279(10) Uani 1 d
C8 C 0.9290(8) 0.7430(7) 0.6102(4) 0.0239(13) Uani 1 d
H8 H 0.8137 0.7608 0.6198 0.029 Uiso 1 calc
C9 C 1.0100(9) 0.7820(8) 0.5437(4) 0.0311(15) Uani 1 d
H9 H 0.9486 0.8242 0.5063 0.037 Uiso 1 calc
C10 C 1.1793(9) 0.7610(7) 0.5301(4) 0.0271(14) Uani 1 d
H10 H 1.2367 0.7894 0.484 0.032 Uiso 1 calc
C11 C 1.2653(9) 0.6975(8) 0.5853(4) 0.0269(14) Uani 1 d
H11 H 1.3834 0.6831 0.5772 0.032 Uiso 1 calc
C12 C 1.1799(8) 0.6556(7) 0.6515(3) 0.0224(13) Uani 1 d
H12 H 1.2373 0.6109 0.6891 0.027 Uiso 1 calc
loop_
_atom_site_aniso_label
_atom_site_aniso_U_11
_atom_site_aniso_U_22
_atom_site_aniso_U_33
_atom_site_aniso_U_23
_atom_site_aniso_U_13
_atom_site_aniso_U_12
Sn4 0.01538(19) 0.01523(18) 0.0147(2) 0.00035(15) 0.00191(15) 0.00646(16)
I1 0.01885(19) 0.02019(19) 0.0221(2) 0.00293(16) 0.00328(16) 0.00294(16)
I2 0.01806(18) 0.02122(19) 0.0177(2) -0.00026(15) -0.00213(15) 0.00881(16)
I3 0.0256(2) 0.0231(2) 0.0169(2) -0.00071(15) -0.00233(16) 0.00995(17)
I4 0.0318(2) 0.0275(2) 0.0270(2) 0.00495(17) 0.00997(18) 0.02040(19)
N1 0.021(2) 0.016(2) 0.020(3) -0.0018(19) 0.003(2) 0.010(2)
O1 0.022(2) 0.023(2) 0.019(2) -0.0035(17) -0.0039(17) 0.0154(17)
C2 0.016(3) 0.014(3) 0.040(4) 0.001(3) 0.008(3) 0.006(2)
C3 0.029(3) 0.039(4) 0.028(4) 0.009(3) 0.013(3) 0.022(3)
C4 0.024(3) 0.027(3) 0.026(4) -0.001(3) 0.002(3) 0.014(3)
C5 0.024(3) 0.020(3) 0.028(4) 0.005(3) 0.003(3) 0.010(3)
C6 0.023(3) 0.020(3) 0.032(4) 0.011(3) 0.011(3) 0.013(3)
N7 0.019(2) 0.013(2) 0.016(3) -0.0005(19) 0.003(2) 0.002(2)
O7 0.030(2) 0.019(2) 0.019(2) -0.0028(17) 0.0137(19) -0.0016(18)
C8 0.020(3) 0.011(3) 0.040(4) 0.003(3) 0.000(3) 0.008(2)
C9 0.030(3) 0.022(3) 0.033(4) 0.011(3) -0.006(3) 0.006(3)
C10 0.040(4) 0.018(3) 0.018(3) 0.007(2) 0.010(3) 0.007(3)
C11 0.029(3) 0.028(3) 0.031(4) 0.010(3) 0.017(3) 0.016(3)
C12 0.019(3) 0.023(3) 0.027(4) 0.011(3) 0.004(3) 0.009(3)
loop_
_atom_type_symbol
_atom_type_description
_atom_type_scat_dispersion_real
_atom_type_scat_dispersion_imag
_atom_type_scat_source
C C 0.0033 0.0016 'International Tables Vol C Tables 4.2.6.8 and 6.1.1.4'
H H 0 0 'International Tables Vol C Tables 4.2.6.8 and 6.1.1.4'
N N 0.0061 0.0033 'International Tables Vol C Tables 4.2.6.8 and 6.1.1.4'
O O 0.0106 0.006 'International Tables Vol C Tables 4.2.6.8 and 6.1.1.4'
Sn Sn -0.6537 1.4246 'International Tables Vol C Tables 4.2.6.8 and 6.1.1.4'
I I -0.4742 1.8119 'International Tables Vol C Tables 4.2.6.8 and 6.1.1.4'
loop_
_exptl_crystal_face_index_h
_exptl_crystal_face_index_k
_exptl_crystal_face_index_l
_exptl_crystal_face_perp_dist
0 0 1 0.0229
0 1 0 0.067
1 0 -1 0.2065
1 -2 0 0.0854
-1 0 1 0.2
-1 1 1 0.1296
0 0 -1 0.0121
0 -1 0 0.1154
loop_
_geom_angle_atom_site_label_1
_geom_angle_atom_site_label_2
_geom_angle_atom_site_label_3
_geom_angle
O1 Sn4 O7 82.78(15)
O1 Sn4 I1 91.88(11)
O7 Sn4 I1 169.17(10)
O1 Sn4 I4 168.89(10)
O7 Sn4 I4 89.70(11)
I1 Sn4 I4 96.83(5)
O1 Sn4 I3 79.61(10)
O7 Sn4 I3 93.77(12)
I1 Sn4 I3 94.53(3)
I4 Sn4 I3 92.80(3)
O1 Sn4 I2 91.99(10)
O7 Sn4 I2 79.83(12)
I1 Sn4 I2 90.99(3)
I4 Sn4 I2 94.73(4)
I3 Sn4 I2 170.075(18)
C2 N1 C6 122.4(5)
C2 N1 O1 118.7(4)
C6 N1 O1 118.9(4)
N1 O1 Sn4 120.7(3)
N1 C2 C3 119.8(5)
N1 C2 H2 120.1
C3 C2 H2 120.1
C4 C3 C2 119.4(5)
C4 C3 H3 120.3
C2 C3 H3 120.3
C3 C4 C5 119.3(6)
C3 C4 H4 120.4
C5 C4 H4 120.4
C6 C5 C4 119.6(5)
C6 C5 H5 120.2
C4 C5 H5 120.2
N1 C6 C5 119.7(5)
N1 C6 H6 120.2
C5 C6 H6 120.2
C12 N7 O7 119.1(5)
C12 N7 C8 122.0(5)
O7 N7 C8 118.7(4)
N7 O7 Sn4 125.3(3)
N7 C8 C9 119.4(5)
N7 C8 H8 120.3
C9 C8 H8 120.3
C8 C9 C10 120.6(6)
C8 C9 H9 119.7
C10 C9 H9 119.7
C9 C10 C11 118.7(6)
C9 C10 H10 120.7
C11 C10 H10 120.7
C12 C11 C10 120.1(5)
C12 C11 H11 120
C10 C11 H11 120
N7 C12 C11 119.2(5)
N7 C12 H12 120.4
C11 C12 H12 120.4
loop_
_geom_bond_atom_site_label_1
_geom_bond_atom_site_label_2
_geom_bond_distance
Sn4 O1 2.162(3)
Sn4 O7 2.162(4)
Sn4 I1 2.7943(12)
Sn4 I4 2.7951(12)
Sn4 I3 2.7968(10)
Sn4 I2 2.8165(9)
N1 C2 1.335(7)
N1 C6 1.339(6)
N1 O1 1.352(5)
C2 C3 1.382(8)
C2 H2 0.95
C3 C4 1.377(8)
C3 H3 0.95
C4 C5 1.388(8)
C4 H4 0.95
C5 C6 1.373(7)
C5 H5 0.95
C6 H6 0.95
N7 C12 1.344(6)
N7 O7 1.348(5)
N7 C8 1.353(7)
C8 C9 1.361(8)
C8 H8 0.95
C9 C10 1.370(8)
C9 H9 0.95
C10 C11 1.389(8)
C10 H10 0.95
C11 C12 1.373(8)
C11 H11 0.95
C12 H12 0.95
loop_
_geom_torsion_atom_site_label_1
_geom_torsion_atom_site_label_2
_geom_torsion_atom_site_label_3
_geom_torsion_atom_site_label_4
_geom_torsion
C2 N1 O1 Sn4 -95.6(5)
C6 N1 O1 Sn4 84.5(5)
C6 N1 C2 C3 -0.5(8)
O1 N1 C2 C3 179.5(5)
N1 C2 C3 C4 0.5(8)
C2 C3 C4 C5 0.5(8)
C3 C4 C5 C6 -1.3(8)
C2 N1 C6 C5 -0.3(8)
O1 N1 C6 C5 179.6(5)
C4 C5 C6 N1 1.3(8)
C12 N7 O7 Sn4 -97.8(5)
C8 N7 O7 Sn4 87.4(5)
C12 N7 C8 C9 1.4(8)
O7 N7 C8 C9 176.2(5)
N7 C8 C9 C10 -1.5(8)
C8 C9 C10 C11 0.6(8)
C9 C10 C11 C12 0.5(9)
O7 N7 C12 C11 -175.0(5)
C8 N7 C12 C11 -0.3(8)
C10 C11 C12 N7 -0.7(8)
