#------------------------------------------------------------------------------
#$Date: 2019-11-23 05:06:09 +0200 (Sat, 23 Nov 2019) $
#$Revision: 232192 $
#$URL: file:///home/coder/svn-repositories/cod/cif/4/34/71/4347153.cif $
#------------------------------------------------------------------------------
#
# This file is available in the Crystallography Open Database (COD),
# http://www.crystallography.net/
#
# All data on this site have been placed in the public domain by the
# contributors.
#
data_4347153
loop_
_publ_author_name
'Huang, Daria L.'
'Beltr\'an-Suito, Rodrigo'
'Thomsen, Julianne M.'
'Hashmi, Sara M.'
'Materna, Kelly L.'
'Sheehan, Stafford W.'
'Mercado, Brandon Q.'
'Brudvig, Gary W.'
'Crabtree, Robert H.'
_publ_section_title
;
 New Ir Bis-Carbonyl Precursor for Water Oxidation Catalysis.
;
_journal_issue                   5
_journal_name_full               'Inorganic chemistry'
_journal_page_first              2427
_journal_page_last               2435
_journal_paper_doi               10.1021/acs.inorgchem.5b02809
_journal_volume                  55
_journal_year                    2016
_chemical_formula_moiety         'C10 H10 Ir N O3, 0.5(C4 H10 O2)'
_chemical_formula_sum            'C12 H15 Ir N O4'
_chemical_formula_weight         429.45
_space_group_crystal_system      triclinic
_space_group_IT_number           2
_space_group_name_Hall           '-P 1'
_space_group_name_H-M_alt        'P -1'
_atom_sites_solution_hydrogens   mixed
_audit_creation_method           SHELXL-2014/7
_cell_angle_alpha                97.700(7)
_cell_angle_beta                 108.239(8)
_cell_angle_gamma                90.640(6)
_cell_formula_units_Z            2
_cell_length_a                   8.2220(2)
_cell_length_b                   8.8397(3)
_cell_length_c                   9.5097(7)
_cell_measurement_reflns_used    18890
_cell_measurement_temperature    93(2)
_cell_measurement_theta_max      27.5
_cell_measurement_theta_min      3.0
_cell_volume                     649.49(6)
_computing_cell_refinement
'CrystalClear-SM Expert 2.0 r15 (Rigaku, 2011)'
_computing_data_collection
'CrystalClear-SM Expert 2.0 r15 (Rigaku, 2011)'
_computing_data_reduction
'CrystalClear-SM Expert 2.0 r15 (Rigaku, 2011)'
_computing_molecular_graphics
;
Dolomanov, O.V.; Bourhis, L.J.; Gildea, R.J.; Howard, J.A.K.; Puschmann, H., 
OLEX2: A complete structure solution, refinement and analysis program
(2009). J. Appl. Cryst., 42, 339-341.
;
_computing_publication_material  'SHELXL-2013 (Sheldrick, 2013)'
_computing_structure_refinement  'SHELXL-2014/7 (Sheldrick, 2014)'
_computing_structure_solution    'SHELXS-2013 (Sheldrick, 2013)'
_diffrn_ambient_temperature      93(2)
_diffrn_detector_area_resol_mean 10
_diffrn_measured_fraction_theta_full 0.998
_diffrn_measured_fraction_theta_max 0.999
_diffrn_measurement_device_type  'Rigaku R-AXIS RAPID imaging plate'
_diffrn_measurement_method       \w
_diffrn_radiation_type           MoK\a
_diffrn_radiation_wavelength     0.71075
_diffrn_reflns_av_R_equivalents  0.0234
_diffrn_reflns_av_unetI/netI     0.0142
_diffrn_reflns_Laue_measured_fraction_full 0.998
_diffrn_reflns_Laue_measured_fraction_max 0.999
_diffrn_reflns_limit_h_max       10
_diffrn_reflns_limit_h_min       -10
_diffrn_reflns_limit_k_max       11
_diffrn_reflns_limit_k_min       -11
_diffrn_reflns_limit_l_max       12
_diffrn_reflns_limit_l_min       -12
_diffrn_reflns_number            19760
_diffrn_reflns_point_group_measured_fraction_full 0.998
_diffrn_reflns_point_group_measured_fraction_max 0.999
_diffrn_reflns_theta_full        25.242
_diffrn_reflns_theta_max         27.470
_diffrn_reflns_theta_min         3.014
_diffrn_source                   'Sealed Tube'
_exptl_absorpt_coefficient_mu    10.284
_exptl_absorpt_correction_T_max  0.627
_exptl_absorpt_correction_T_min  0.327
_exptl_absorpt_correction_type   multi-scan
_exptl_absorpt_process_details   'Jacobson, R. (1998) Private Communication'
_exptl_crystal_colour            Red
_exptl_crystal_density_diffrn    2.196
_exptl_crystal_density_method    'not measured'
_exptl_crystal_description       Plate
_exptl_crystal_F_000             406
_exptl_crystal_size_max          0.200
_exptl_crystal_size_mid          0.200
_exptl_crystal_size_min          0.050
_refine_diff_density_max         0.983
_refine_diff_density_min         -0.607
_refine_diff_density_rms         0.103
_refine_ls_extinction_method     none
_refine_ls_goodness_of_fit_ref   1.020
_refine_ls_hydrogen_treatment    mixed
_refine_ls_matrix_type           full
_refine_ls_number_parameters     169
_refine_ls_number_reflns         2985
_refine_ls_number_restraints     0
_refine_ls_restrained_S_all      1.020
_refine_ls_R_factor_all          0.0135
_refine_ls_R_factor_gt           0.0130
_refine_ls_shift/su_max          0.001
_refine_ls_shift/su_mean         0.000
_refine_ls_structure_factor_coef Fsqd
_refine_ls_weighting_details
'w=1/[\s^2^(Fo^2^)+(0.0140P)^2^+1.3401P] where P=(Fo^2^+2Fc^2^)/3'
_refine_ls_weighting_scheme      calc
_refine_ls_wR_factor_gt          0.0310
_refine_ls_wR_factor_ref         0.0312
_reflns_Friedel_coverage         0.000
_reflns_number_gt                2936
_reflns_number_total             2985
_reflns_threshold_expression     'I > 2\s(I)'
_cod_data_source_file            ic5b02809_si_002.cif
_cod_data_source_block           spider-14084
_cod_original_cell_volume        649.48(6)
_cod_database_code               4347153
_shelx_shelxl_version_number     2014/7
_shelx_space_group_comment
; 
The symmetry employed for this shelxl refinement is uniquely defined 
by the following loop, which should always be used as a source of 
symmetry information in preference to the above space-group names. 
They are only intended as comments. 
;
_shelx_estimated_absorpt_t_min   0.233
_shelx_estimated_absorpt_t_max   0.627
_shelx_res_file
; 
  
    spider-14084.res created by SHELXL-2014/7 
  
TITL spider-14084 DH-2-55 
CELL 0.71075 8.222 8.8397 9.5097 97.7 108.239 90.64 
ZERR 2 0.0002 0.0003 0.0007 0.007 0.008 0.006 
LATT 1 
SFAC C H Ir N O 
UNIT 24 30 2 2 8 
  
EQIV $1 1-X,1-Y,1-Z 
EQIV $2 -1+X,+Y,-1+Z 
EQIV $3 +X,+Y,-1+Z 
HTAB C4 O2_$1 
HTAB C4 O1_$2 
HTAB O4 O3_$3 
  
L.S. 10 
SIZE 0.2 0.2 0.05 
TEMP -180 
BOND $H 
CONF 
ACTA 
MORE -1 
  
WGHT    0.013970    1.340143 
FVAR       0.36345 
IR1   3    0.523930    0.335930    0.891422    11.00000    0.00862    0.01097 = 
         0.01041    0.00309    0.00262   -0.00013 
O1    5    0.835151    0.379284    1.164059    11.00000    0.01445    0.02470 = 
         0.01541    0.00243    0.00008    0.00109 
O2    5    0.727103    0.469036    0.721949    11.00000    0.02122    0.03455 = 
         0.02290    0.00719    0.01072   -0.00603 
O3    5    0.374404    0.240314    0.988247    11.00000    0.01285    0.02235 = 
         0.01250    0.00546    0.00193   -0.00513 
N1    4    0.295431    0.303333    0.715636    11.00000    0.01068    0.01544 = 
         0.01192    0.00307    0.00304   -0.00060 
C1    1    0.716282    0.360769    1.060090    11.00000    0.01631    0.01338 = 
         0.01628    0.00283    0.00833    0.00196 
C2    1    0.650134    0.420299    0.789306    11.00000    0.01390    0.01883 = 
         0.01449    0.00337    0.00158    0.00023 
C3    1    0.265482    0.353235    0.581407    11.00000    0.01520    0.02245 = 
         0.01686    0.00802    0.00615   -0.00070 
AFIX  43 
H3    2    0.356595    0.404458    0.561905    11.00000   -1.20000 
AFIX   0 
C4    1    0.108133    0.332207    0.472986    11.00000    0.01950    0.02544 = 
         0.01327    0.00771    0.00279    0.00010 
AFIX  43 
H4    2    0.090843    0.367966    0.379808    11.00000   -1.20000 
AFIX   0 
C5    1   -0.026389    0.257513    0.501361    11.00000    0.01422    0.02320 = 
         0.01639    0.00420    0.00019   -0.00081 
AFIX  43 
H5    2   -0.136973    0.242524    0.428525    11.00000   -1.20000 
AFIX   0 
C6    1    0.004962    0.205969    0.637604    11.00000    0.01112    0.01992 = 
         0.01725    0.00315    0.00378   -0.00286 
AFIX  43 
H6    2   -0.084241    0.153494    0.658671    11.00000   -1.20000 
AFIX   0 
C7    1    0.166981    0.230643    0.744320    11.00000    0.01471    0.01069 = 
         0.01311    0.00206    0.00548   -0.00057 
C8    1    0.209490    0.180454    0.897722    11.00000    0.01239    0.01417 = 
         0.01201    0.00425    0.00357   -0.00132 
C9    1    0.079919    0.241286    0.974078    11.00000    0.01604    0.02540 = 
         0.01592    0.00353    0.00743    0.00083 
AFIX 137 
H9A   2    0.114940    0.218214    1.076974    11.00000   -1.50000 
H9B   2   -0.033848    0.192390    0.918803    11.00000   -1.50000 
H9C   2    0.075724    0.352196    0.975337    11.00000   -1.50000 
AFIX   0 
C10   1    0.205020    0.005482    0.879147    11.00000    0.02437    0.01433 = 
         0.01815    0.00452    0.00609   -0.00114 
AFIX 137 
H10A  2    0.285794   -0.031476    0.827072    11.00000   -1.50000 
H10B  2    0.088918   -0.035976    0.820589    11.00000   -1.50000 
H10C  2    0.237488   -0.028046    0.977896    11.00000   -1.50000 
AFIX   0 
  
O4    5    0.526124    0.221135    0.286033    11.00000    0.02247    0.02804 = 
         0.01652    0.01000    0.00231   -0.00324 
H4A   2    0.480681    0.222602    0.204665    11.00000    0.03457 
C11   1    0.438888    0.098550    0.321590    11.00000    0.01589    0.02522 = 
         0.01378    0.00573    0.00336   -0.00023 
AFIX  23 
H11A  2    0.421924    0.008289    0.243618    11.00000   -1.20000 
H11B  2    0.324921    0.129383    0.325783    11.00000   -1.20000 
AFIX   0 
C12   1    0.546380    0.058999    0.472333    11.00000    0.01484    0.02258 = 
         0.01202    0.00331    0.00146   -0.00131 
AFIX  23 
H12A  2    0.574953    0.153124    0.546552    11.00000   -1.20000 
H12B  2    0.655215    0.018454    0.463884    11.00000   -1.20000 
AFIX   0 
HKLF 4 
  
REM  spider-14084 DH-2-55 
REM R1 =  0.0130 for    2936 Fo > 4sig(Fo)  and  0.0135 for all    2985 data 
REM    169 parameters refined using      0 restraints 
  
END 
  
WGHT      0.0125      0.7584 
  
REM Highest difference peak  0.983,  deepest hole -0.607,  1-sigma level  0.103 
Q1    1   0.4837  0.4200  0.9159  11.00000  0.05    0.98 
Q2    1   0.5731  0.2501  0.8683  11.00000  0.05    0.88 
Q3    1   0.5014  0.3467  0.7985  11.00000  0.05    0.70 
Q4    1   0.5504  0.3296  0.9795  11.00000  0.05    0.69 
Q5    1   0.3772  0.3199  0.5423  11.00000  0.05    0.62 
Q6    1   0.1868  0.2154  0.8212  11.00000  0.05    0.58 
Q7    1   0.4046  0.3453  0.8630  11.00000  0.05    0.52 
Q8    1   0.6344  0.3231  0.8985  11.00000  0.05    0.52 
Q9    1   0.6593  0.3188  0.9331  11.00000  0.05    0.48 
Q10   1   0.4741  0.0572  0.3919  11.00000  0.05    0.47 
Q11   1   0.0949  0.2083  0.6974  11.00000  0.05    0.44 
Q12   1   0.5000  0.0000  0.5000  10.50000  0.05    0.44 
Q13   1   0.0561  0.2743  0.4830  11.00000  0.05    0.43 
Q14   1   0.1525  0.2221  0.9400  11.00000  0.05    0.43 
Q15   1   0.2118  0.2797  0.7333  11.00000  0.05    0.41 
Q16   1   0.6076  0.4516  0.9271  11.00000  0.05    0.40 
Q17   1  -0.0196  0.2567  0.5816  11.00000  0.05    0.40 
Q18   1   0.2707  0.3320  0.6545  11.00000  0.05    0.38 
Q19   1   0.1607  0.3690  0.5417  11.00000  0.05    0.37 
Q20   1   0.3684  0.0238  0.2834  11.00000  0.05    0.37 
;
_shelx_res_checksum              17708
_shelx_hkl_file
; 
   0   1  -1 3346.52   80.73 
   0  -1   1 3500.68   83.38 
   0   1  -1 3345.10   80.99 
   0   1  -1 3430.11   81.43 
   0   1  -1 3325.52   78.87 
   0  -1   1 3471.61   83.70 
   0  -1   1 3469.37   82.32 
   0  -1   1 3304.60   78.41 
  -1   1   0  719.79   12.55 
  -1   1   0  783.31   14.50 
  -1   1   0  792.96   13.59 
  -1   1   0  839.95   12.48 
   1  -1   0  763.80   14.32 
   1  -1   0  783.87   11.60 
   1  -1   0  784.82   14.22 
   1  -1   0  724.98   12.64 
   0  -1  -1  154.81    2.57 
   0  -1  -1  160.24    2.73 
   0  -1  -1  155.42    2.64 
   0   1   1  155.15    2.91 
   0   1   1  155.85    2.66 
   0   1   1  159.98    2.75 
   0   1   1  159.79    3.16 
   1   1  -1 2264.59   46.91 
  -1  -1   1 2274.77   47.10 
  -1  -1   1 2269.70   47.11 
  -1  -1   1 2255.80   49.86 
   1   1  -1 2290.39   48.57 
   1   1  -1 2253.60   46.82 
   1   1  -1 2211.71   48.64 
   1   1   0  262.81    3.48 
   1   1   0  249.43    5.16 
   1   1   0  271.55    3.31 
   1   1   0  257.21    3.48 
  -1  -1   0  256.78    3.47 
  -1  -1   0  248.37    4.42 
  -1   1   1   28.26    0.97 
  -1   1   1   29.04    0.70 
  -1   1   1   27.89    1.22 
  -1   1   1   31.27    1.00 
  -1   1   1   30.97    0.86 
   1  -1  -1   27.96    0.97 
   1  -1  -1   27.37    0.98 
   1  -1  -1   24.93    1.19 
   1   0   1 1262.95   21.69 
   1   0   1 1145.70   21.53 
  -1   0  -1 1226.92   21.02 
  -1   0  -1 1147.17   21.72 
   1   0   1 1226.84   21.06 
  -1   0  -1 1253.08   21.51 
   1   0   1 1251.48   21.28 
   1  -1   1 2483.38   54.50 
  -1   1  -1 2451.83   53.62 
   1  -1   1 2442.61   53.49 
   1  -1   1 2334.28   55.79 
   1  -1   1 2455.66   53.96 
  -1   1  -1 2481.18   54.65 
  -1   1  -1 2454.27   53.93 
  -1   1  -1 2497.54   58.06 
  -1   0   2   25.75    1.05 
  -1   0   2   20.75    1.08 
  -1   0   2   24.56    1.13 
   1   0  -2   25.94    1.08 
   1   0  -2   21.53    1.12 
   1   0  -2   25.93    0.99 
   0   0   2  120.03    2.06 
   0   0  -2  119.92    1.87 
   0   0  -2  122.56    2.60 
   0   0  -2  124.50    2.40 
   0   0  -2  122.46    1.47 
   0   0   2  125.49    2.40 
   0   0   2  126.63    1.90 
   0   2   0 1765.37   38.90 
   0  -2   0 1767.97   39.32 
   0   2   0 1685.19   38.40 
   0  -2   0 1771.02   39.04 
   0  -2   0 1790.98   40.74 
   0  -2   0 1739.74   38.76 
   0   2   0 1799.73   40.50 
   0   2   0 1779.51   39.48 
  -1  -1   2 1638.11   32.64 
  -1  -1   2 1638.99   34.61 
  -1  -1   2 1705.24   34.57 
   1   1  -2 1638.37   32.60 
   1   1  -2 1638.91   34.29 
   1   1  -2 1696.32   34.19 
   1   1  -2 1700.81   34.53 
   0  -1   2 1863.09   36.48 
   0  -1   2 1704.22   34.39 
   0  -1   2 1659.04   33.56 
   0  -1   2 1666.72   35.21 
   0   1  -2 1697.71   34.28 
   0   1  -2 1645.77   34.82 
   0   1  -2 1640.47   33.26 
   0   1  -2 1678.26   33.86 
  -1  -1  -1  387.34    5.38 
   1   1   1  386.72    5.47 
   1   1   1  387.94    5.37 
   1   1   1  408.26    6.04 
   1   1   1  396.84    7.75 
   1   1   1  396.22    6.83 
  -1  -1  -1  397.74    5.61 
   0  -2   1  151.57    2.59 
   0  -2   1  154.78    3.12 
   0   2  -1  158.62    3.41 
   0  -2   1  152.33    2.65 
   0   2  -1  153.09    2.57 
   0   2  -1  151.80    3.12 
   0   2  -1  160.82    4.12 
   0  -2   1  157.82    3.89 
  -2   0   1   24.91    0.82 
   2   0  -1   26.75    0.83 
   2   0  -1   28.61    1.00 
  -2   0   1   27.68    0.94 
  -2   0   1   23.72    0.93 
   2   0  -1   26.63    0.87 
  -1   2   0  817.09   16.00 
  -1   2   0  782.38   13.95 
  -1   2   0  813.58   18.22 
   1  -2   0  794.79   16.25 
  -1   2   0  755.20   14.77 
   1  -2   0  806.52   15.86 
   1  -2   0  831.95   14.84 
   1  -2   0  768.31   16.30 
   2   0   0 2053.80   41.15 
  -2   0   0 1954.66   39.28 
  -2   0   0 1849.89   38.67 
   2   0   0 1840.33   38.55 
   2   0   0 2059.39   42.92 
   2   0   0 1975.19   41.04 
   2   0   0 1803.07   38.83 
   1  -1  -2 2758.39   63.56 
  -1   1   2 2777.23   64.27 
  -1   1   2 2724.65   65.39 
  -1   1   2 2603.15   61.31 
  -1   1   2 2641.63   61.08 
   1  -1  -2 2761.57   64.84 
   1  -1  -2 2727.77   62.77 
   1  -1  -2 2651.65   62.45 
   1   2  -1  528.78   10.69 
  -1  -2   1  492.20    8.12 
  -1  -2   1  503.06    8.33 
  -1  -2   1  519.85   10.67 
   1   2  -1  508.49    8.34 
   1   2  -1  514.64    8.64 
   1   2  -1  504.90    8.33 
  -1  -2   1  509.37    9.19 
   0  -1  -2 1627.04   33.06 
   0  -1  -2 1694.72   33.84 
   0   1   2 1646.68   35.56 
   0   1   2 1842.12   35.32 
   0  -1  -2 1650.13   34.40 
   0   1   2 1645.96   34.22 
   0   1   2 1621.91   32.87 
   0  -1  -2 1646.01   34.13 
  -1  -2   0    6.52    1.76 
   1   2   0    6.91    1.69 
   1   2   0    7.50    0.88 
   1   2   0    8.05    0.77 
   1   2   0    7.91    0.93 
  -1  -2   0    8.69    0.77 
  -1  -2   0    9.34    0.58 
  -1  -2   0    7.85    0.92 
   0  -2  -1 2535.12   61.66 
   0  -2  -1 2549.53   63.16 
   0  -2  -1 2758.96   66.07 
   0   2   1 2540.95   63.06 
   0   2   1 2554.83   62.64 
   0   2   1 2552.29   62.19 
   0   2   1 2695.90   67.19 
   0  -2  -1 2618.39   65.35 
  -2  -1   1 2192.15   44.28 
   2   1  -1 2202.88   44.50 
   2   1  -1 2223.17   44.81 
   2   1  -1 2028.09   45.51 
  -2  -1   1 2198.18   44.43 
  -2  -1   1 1840.12   44.28 
   2  -1  -1   24.23    1.72 
  -2   1   1   27.07    1.72 
  -2   1   1   23.17    0.92 
  -2   1   1   26.42    1.60 
   2  -1  -1   25.07    1.42 
   2  -1  -1   24.92    1.62 
  -2   1   0   19.44    1.20 
   2  -1   0   17.06    1.37 
   2  -1   0   14.94    0.51 
  -2   1   0   17.18    1.38 
   2  -1   0   14.63    1.21 
  -2   1   0   15.66    1.20 
  -2   1   0   15.24    0.57 
  -1   2   1 9388.89  334.08 
   1  -2  -1 9026.73  316.93 
   1  -2  -1 9207.45  333.99 
   1  -2  -1 9999.00  357.48 
   1  -2  -1 9197.07  333.32 
  -1   2   1 9017.18  327.56 
  -1   2   1 9069.93  318.85 
  -1   2   1 9244.95  335.68 
   2   0  -2   39.44    0.93 
   2   0  -2   39.79    0.97 
  -2   0   2   40.88    0.95 
   2   0  -2   40.78    0.96 
  -2   0   2   37.28    0.92 
  -2   0   2   40.23    1.08 
  -1   2  -1   14.43    1.27 
   1  -2   1   21.05    2.04 
  -1   2  -1   15.57    1.02 
  -1   2  -1   13.74    1.31 
  -1   2  -1   17.92    1.32 
   1  -2   1   19.77    1.01 
   1  -2   1   16.17    1.32 
   1  -2   1   13.67    1.27 
  -2  -1   0  688.69   13.84 
   2   1   0  640.32   13.52 
  -1   0  -2   10.16    0.71 
  -1   0  -2    7.55    0.68 
  -1   0  -2    7.92    1.08 
   1   0   2    9.55    0.67 
   1   0   2    8.70    0.72 
   1   0   2   10.90    0.54 
   1   0   2    8.22    0.67 
   0  -2   2  323.58    6.17 
   0  -2   2  300.98    5.69 
   0   2  -2  320.57    6.27 
   0   2  -2  317.31    6.01 
   0   2  -2  311.21    5.80 
   0   2  -2  325.02    6.49 
   0  -2   2  316.50    5.99 
   0  -2   2  336.82    5.73 
   2   1  -2 2248.67   49.14 
  -2  -1   2 2315.99   50.50 
  -2  -1   2 2091.46   47.28 
   2   1  -2 2202.18   49.54 
  -2  -1   2 2328.00   50.75 
   2   1  -2 2328.82   50.65 
  -1   1  -2 3564.37   90.09 
  -1   1  -2 3503.59   87.55 
  -1   1  -2 3468.70   90.47 
   1  -1   2 3564.37   90.30 
   1  -1   2 3532.83   88.39 
  -1   1  -2 3509.16   90.49 
   1  -1   2 3543.68   89.70 
   1  -1   2 3422.04   87.93 
  -1  -2   2 1961.95   41.59 
  -1  -2   2 1872.28   41.46 
  -1  -2   2 1909.29   41.04 
   1   2  -2 1941.10   41.23 
   1   2  -2 1883.95   41.53 
   1   2  -2 1894.77   41.97 
   1   2  -2 1896.00   41.02 
  -1  -2   2 1896.58   40.99 
  -2   0  -1 1840.96   40.97 
   2   0   1 1820.34   39.62 
   2   0   1 1872.27   39.28 
   2   0   1 1952.77   38.59 
   2   0   1 1952.81   38.90 
  -2   0  -1 1955.79   38.58 
  -2   0  -1 1924.81   38.41 
   2  -1  -2 2117.41   47.34 
   2  -1  -2 2102.02   49.37 
   2  -1  -2 2320.30   47.96 
   2  -1  -2 2170.12   50.62 
  -2   1   2 2094.59   47.11 
  -2   1   2 2179.12   50.61 
  -2   1   2 2089.96   49.05 
  -2   1   2 2250.54   46.56 
  -1  -2  -1 1401.64   31.30 
  -1  -2  -1 1400.08   29.54 
  -1  -2  -1 1496.71   28.95 
  -1  -2  -1 1484.20   30.16 
   1   2   1 1484.11   29.74 
   1   2   1 1435.24   33.64 
   1   2   1 1422.68   30.06 
   1   2   1 1464.67   29.80 
   1   0  -3   79.27    2.29 
   1   0  -3   79.58    1.69 
   1   0  -3   81.87    2.20 
  -1   0   3   77.72    2.32 
  -1   0   3   79.95    2.26 
  -1   0   3   73.82    2.25 
   2  -1   1 1513.35   29.75 
  -2   1  -1 1462.25   29.25 
  -2   1  -1 1489.48   30.39 
  -2   1  -1 1432.23   28.66 
  -2   1  -1 1440.77   30.01 
   2  -1   1 1457.22   29.17 
   2  -1   1 1518.16   32.22 
   2  -1   1 1489.54   30.31 
   1   1  -3  361.74    6.20 
   1   1  -3  359.59    5.94 
   1   1  -3  349.68    5.86 
  -1  -1   3  351.17    6.11 
  -1  -1   3  356.52    5.94 
  -1  -1   3  356.25    6.68 
   1   1  -3  354.66    6.65 
  -1  -1  -2 1434.26   28.15 
  -1  -1  -2 1483.89   32.57 
  -1  -1  -2 1427.63   28.04 
   1   1   2 1457.84   31.00 
   1   1   2 1441.76   28.43 
   1   1   2 1611.15   28.89 
   1   1   2 1437.88   28.15 
   2  -2   0 1950.39   48.13 
  -2   2   0 2185.06   44.79 
   2  -2   0 1848.55   43.45 
  -2   2   0 1859.51   43.55 
   2  -2   0 1996.63   48.46 
   2  -2   0 2051.35   41.66 
  -2   2   0 1953.44   47.98 
  -2   2   0 1957.56   47.33 
   2   2  -1  299.83    4.35 
  -2  -2   1  292.02    4.25 
   2   2  -1  299.09    4.42 
   2   2  -1  292.75    7.02 
   2   2  -1  306.73    5.15 
  -2  -2   1  306.94    7.80 
  -2  -2   1  295.11    4.38 
  -1   2   2  568.41   11.34 
  -1   2   2  567.95   10.92 
   1  -2  -2  582.56   12.41 
  -1   2   2  566.96   10.87 
  -1   2   2  589.77   12.43 
   0   0   3  322.32    6.56 
   0   0   3  324.35    6.01 
   0   0   3  338.92    5.55 
   0   0  -3  328.71    6.03 
   0   0  -3  337.25    6.71 
   0   0  -3  326.01    5.42 
   0   0  -3  329.30    4.36 
  -2   2   1 2502.93   55.38 
  -2   2   1 2351.12   61.76 
   2  -2  -1 2393.15   60.41 
  -2   2   1 2486.05   60.29 
  -2   2   1 2347.38   59.52 
   2  -2  -1 2332.15   60.87 
   2  -2  -1 2568.38   56.95 
   2  -2  -1 2502.56   60.46 
   0   1  -3  660.77   11.15 
   0   1  -3  651.90   12.83 
   0   1  -3  651.94   11.51 
   0   1  -3  651.97   11.44 
   0  -1   3  636.21   10.28 
   0  -1   3  648.66   11.44 
   0  -1   3  652.84   12.76 
   0  -1   3  645.05   11.43 
  -2  -1  -1  449.60    6.28 
  -2  -1  -1  466.48    6.32 
   2   1   1  474.66    6.39 
   2   1   1  469.40    6.48 
   2   1   1  494.74    8.89 
   2   1   1  488.26    9.18 
   0  -2  -2 1700.99   38.02 
   0   2   2 1709.24   37.97 
   0   2   2 1681.77   37.23 
   0   2   2 1716.60   37.94 
   0   2   2 1706.34   38.05 
   0   2   2 1729.10   40.29 
   0  -2  -2 1725.42   38.35 
   0  -2  -2 1728.05   37.67 
   0  -3   0 2771.14   70.18 
   0   3   0 2765.20   69.91 
   0   3   0 2727.83   71.10 
   0   3   0 2766.77   71.95 
   0  -3   0 2683.54   69.70 
   0  -3   0 2787.76   72.51 
   0  -3   0 2851.80   75.35 
   0   3   0 2710.58   70.13 
   1  -2   2 1245.29   24.71 
   1  -2   2 1212.58   26.81 
  -1   2  -2 1254.22   25.97 
  -1   2  -2 1235.33   24.52 
  -1   2  -2 1206.47   27.34 
   1  -2   2 1238.73   25.52 
  -1   2  -2 1234.51   25.43 
   1  -2   2 1256.58   24.76 
   0  -3   1 1402.38   30.73 
   0  -3   1 1439.40   32.11 
   0   3  -1 1435.96   30.28 
   0   3  -1 1427.25   31.19 
   0   3  -1 1436.34   33.35 
   0   3  -1 1445.04   31.24 
   0  -3   1 1434.72   32.74 
   0  -3   1 1439.07   30.37 
   2   2  -2 3249.41   79.46 
  -2  -2   2 3042.55   81.30 
   2   2  -2 3278.58   79.44 
  -2  -2   2 3314.23   80.22 
  -2  -2   2 3217.74   78.76 
   2   2  -2 3104.74   81.47 
   2   2  -2 3182.68   81.45 
   2   0  -3  616.91   10.96 
  -2   0   3  624.23   11.43 
   2   0  -3  606.18   10.76 
   2   0  -3  626.49   11.83 
  -2   0   3  619.80   11.01 
  -2   0   3  617.20   11.78 
   1  -1  -3 1272.60   24.85 
  -1   1   3 1241.43   25.87 
  -1   1   3 1298.74   27.17 
   1  -1  -3 1274.93   26.06 
   1  -1  -3 1255.96   25.39 
  -1   1   3 1250.38   25.19 
   1  -1  -3 1261.73   25.48 
  -2  -2   0  333.24    7.21 
   2   2   0  345.68    6.12 
   2   2   0  323.86    5.42 
   2   2   0  338.87    8.93 
   2   2   0  346.22    4.86 
  -2  -2   0  325.33    5.47 
  -2  -2   0  344.25    4.80 
  -2  -1   3  270.53    5.11 
  -2  -1   3  263.36    4.44 
   2   1  -3  266.51    5.06 
   2   1  -3  266.00    4.43 
   2   1  -3  264.15    4.59 
  -2  -1   3  272.15    5.62 
   1  -3   0 3567.22  102.52 
  -1   3   0 3493.56   96.50 
   1  -3   0 3810.93  102.06 
  -1   3   0 3484.21   94.16 
   1  -3   0 3551.79  100.08 
  -1   3   0 3428.33   98.42 
  -1   3   0 3560.89  100.27 
   1  -3   0 3530.67   97.52 
   1   3  -1  570.97    9.99 
  -1  -3   1  574.84   10.08 
  -1  -3   1  555.40   10.56 
  -1  -3   1  606.57   13.88 
  -1  -3   1  588.39   12.02 
   1   3  -1  607.87   12.30 
   1   3  -1  556.98   10.56 
   1   3  -1  564.07   13.28 
  -3   0   1  289.06    4.78 
  -3   0   1  280.77    4.45 
   3   0  -1  283.87    5.21 
  -3   0   1  281.29    5.21 
   3   0  -1  280.66    4.41 
   3   0  -1  286.06    4.76 
   3   0  -1  296.09    5.87 
  -2   2  -1    4.04    1.19 
   2  -2   1    9.03    0.71 
   2  -2   1    4.54    0.68 
   2  -2   1    4.79    1.21 
  -2   2  -1    9.60    0.92 
  -2   2  -1    3.74    0.70 
  -2   2  -1    8.27    0.68 
  -1  -2   3 2260.83   52.85 
   1   2  -3 2244.62   52.24 
   1   2  -3 2240.55   53.88 
   1   2  -3 2226.50   52.16 
   1   2  -3 2280.12   53.12 
  -1  -2   3 2257.32   51.86 
  -1  -2   3 2291.48   53.92 
  -1  -2   3 2225.96   51.94 
   0   1   3 2331.61   54.84 
   0  -1  -3 2362.37   55.52 
   0   1   3 2339.33   57.28 
   0  -1  -3 2357.28   55.22 
   0   1   3 2439.65   50.07 
   0  -1  -3 2345.09   56.87 
   0  -1  -3 2486.83   53.65 
   0   1   3 2319.82   54.50 
  -1  -3   0  829.81   17.45 
  -1  -3   0  840.48   16.96 
  -1  -3   0  815.15   20.27 
   1   3   0  836.70   16.82 
   1   3   0  830.12   20.12 
   1   3   0  821.46   17.31 
   1   3   0  865.83   17.72 
  -1  -3   0  819.71   16.76 
   1  -3   1  950.41   19.29 
   1  -3   1  951.97   20.45 
   1  -3   1  998.76   21.54 
   1  -3   1  943.38   18.93 
  -1   3  -1  958.71   19.49 
  -1   3  -1  945.24   19.14 
  -1   3  -1  943.89   20.29 
  -1   3  -1  925.82   22.29 
  -2   2   2 2141.32   52.29 
  -2   2   2 2095.92   52.79 
  -2   2   2 2299.96   50.52 
  -2   2   2 2192.26   51.72 
   2  -2  -2 2088.70   52.47 
   2  -2  -2 2168.31   52.17 
   2  -2  -2 2201.94   53.31 
  -2   2   2 2132.18   47.24 
   0  -3  -1  929.30   21.48 
   0   3   1  961.97   22.18 
   0  -3  -1  955.69   21.90 
   0   3   1  912.84   21.08 
   0   3   1 1003.23   23.34 
   0   3   1  965.19   21.25 
   0  -3  -1  945.88   22.14 
   0  -3  -1  969.66   21.18 
   0   2  -3  686.31   12.74 
   0  -2   3  706.26   12.99 
   0  -2   3  706.12   13.14 
   0  -2   3  689.79   12.75 
   0  -2   3  688.00   14.12 
   0   2  -3  692.77   13.70 
   0   2  -3  697.89   12.88 
   0   2  -3  707.55   14.43 
   3   0  -2  336.52    5.20 
   3   0  -2  338.16    5.88 
  -3   0   2  327.33    5.76 
  -3   0   2  344.54    5.79 
   1  -3  -1 3187.13   90.27 
  -1   3   1 3137.08   85.40 
  -1   3   1 3160.14   89.98 
  -1   3   1 3342.30   93.23 
   1  -3  -1 3269.69   92.13 
   1  -3  -1 3199.93   86.32 
  -1   3   1 3128.62   88.76 
   1  -3  -1 3435.40   93.27 
  -2   1   3 2401.61   58.42 
   2  -1  -3 2570.89   58.17 
   2  -1  -3 2396.21   58.67 
   2  -1  -3 2433.26   59.24 
   2  -1  -3 2377.59   56.38 
  -2   1   3 2459.82   60.06 
  -2   1   3 2341.27   54.30 
  -3   1   1   34.37    1.73 
   3  -1  -1   28.73    2.00 
  -3   1   1   28.63    2.10 
   3  -1  -1   30.97    0.34 
  -3   1   1   28.41    1.21 
   3  -1  -1   31.87    1.80 
   3  -1  -1   33.46    1.23 
   0   3  -2  301.75    6.76 
   0   3  -2  304.99    5.58 
   0  -3   2  306.63    7.01 
   0  -3   2  310.94    5.66 
   0  -3   2  320.40    6.85 
   0   3  -2  310.82    6.53 
   0  -3   2  317.25    6.58 
   0   3  -2  315.13    7.47 
  -3  -1   1 1023.66   23.02 
   3   1  -1 1008.74   21.75 
  -3  -1   1 1066.14   18.28 
   3   1  -1 1072.27   18.30 
   3   1  -1 1101.75   18.49 
  -3  -1   1 1129.40   18.90 
  -3   0   0 1642.69   34.77 
  -3   0   0 1785.61   35.72 
   3   0   0 1788.37   37.49 
   3   0   0 1859.49   37.08 
   3   0   0 1743.78   38.31 
   3   0   0 1645.15   34.76 
   3   0   0 1683.51   37.90 
  -1  -3   2    6.97    0.87 
  -1  -3   2    7.50    0.72 
   1   3  -2    6.77    0.70 
  -1  -3   2   10.44    0.70 
   1   3  -2    5.99    1.36 
   1   3  -2   12.51    1.11 
   1   3  -2    6.72    1.58 
  -1  -3   2    7.11    1.49 
  -2   0  -2 1331.17   25.54 
   2   0   2 1319.16   25.74 
   2   0   2 1338.23   25.60 
   2   0   2 1287.12   26.53 
   2   0   2 1336.29   25.97 
  -2   0  -2 1326.56   25.78 
  -2   0  -2 1313.40   27.60 
  -3  -1   2 1094.36   23.54 
  -3  -1   2 1085.83   20.33 
  -3  -1   2 1115.92   20.61 
   3   1  -2 1105.97   21.81 
   3   1  -2 1108.34   20.47 
   3   1  -2 1096.77   20.41 
  -2   1  -2 3408.23   90.12 
  -2   1  -2 3553.71   90.05 
   2  -1   2 3628.84   91.76 
   2  -1   2 3562.93   92.62 
  -2   1  -2 3374.21   86.53 
   2  -1   2 3385.74   86.82 
   2  -1   2 3265.31   87.01 
  -2   1  -2 3489.80   89.50 
   1   2   2 1922.93   47.29 
   1   2   2 1923.36   40.92 
   1   2   2 1893.93   41.03 
   1   2   2 1940.42   47.56 
   1   2   2 1865.24   41.50 
  -1  -2  -2 1933.17   39.93 
  -1  -2  -2 1872.06   40.90 
  -1  -2  -2 1852.16   41.08 
   3  -1   0   12.28    0.99 
   3  -1   0    6.68    0.57 
   3  -1   0    5.10    1.20 
  -3   1   0    6.41    1.24 
  -3   1   0    7.43    0.98 
   3  -1   0    9.88    1.30 
  -3   1   0    6.54    1.14 
  -1   0  -3  301.19    5.64 
  -1   0  -3  299.45    4.94 
   1   0   3  315.48    3.64 
  -1   0  -3  301.45    5.52 
   1   0   3  296.65    5.53 
   1   0   3  309.09    5.02 
   1   0   3  304.55    6.60 
  -1   1  -3 1440.40   29.35 
  -1   1  -3 1353.78   27.67 
  -1   1  -3 1390.04   29.01 
  -1   1  -3 1407.51   30.80 
   1  -1   3 1372.93   27.94 
   1  -1   3 1371.50   27.45 
   1  -1   3 1388.06   29.00 
   1  -1   3 1393.49   30.39 
   3  -1  -2 1550.80   27.22 
   3  -1  -2 1453.90   33.18 
  -3   1   2 1460.51   33.31 
  -3   1   2 1455.75   32.23 
  -3   1   2 1532.45   27.66 
   3  -1  -2 1458.38   32.53 
   3  -1  -2 1436.54   30.82 
   2   2  -3 2551.92   61.82 
  -2  -2   3 2489.23   58.13 
   2   2  -3 2438.52   60.36 
   2   2  -3 2496.97   59.48 
  -2  -2   3 2481.29   62.37 
  -2  -2   3 2537.37   60.30 
   2   2  -3 2492.16   58.08 
   2   2   1  991.04   19.06 
   2   2   1 1034.63   19.51 
   2   2   1 1024.40   24.36 
   2   2   1 1020.33   17.56 
  -2  -2  -1 1031.94   17.80 
  -2  -2  -1  977.76   18.68 
  -2  -2  -1 1024.93   22.06 
   3   1   0  823.56   18.93 
  -3  -1   0  896.40   19.02 
  -1  -3  -1  794.68   17.33 
   1   3   1  811.94   17.25 
   1   3   1  837.23   17.01 
   1   3   1  836.09   18.74 
   1   3   1  806.03   17.54 
  -1  -3  -1  815.00   16.19 
  -1  -3  -1  808.95   20.17 
  -1  -3  -1  803.32   17.19 
  -1   2   3  215.10    4.84 
  -1   2   3  214.59    4.31 
   1  -2  -3  210.37    4.32 
   1  -2  -3  227.33    5.55 
   1  -2  -3  213.97    4.98 
  -1   2   3  217.00    4.39 
  -1   2   3  222.21    5.46 
  -1   2   3  217.03    5.09 
  -2   3   0 1279.30   25.95 
  -2   3   0 1261.03   30.68 
   2  -3   0 1256.96   30.51 
   2  -3   0 1324.66   30.77 
   2  -3   0 1322.67   26.95 
   2  -3   0 1363.62   34.04 
  -2   3   0 1325.62   30.60 
  -2   3   0 1337.35   33.21 
   1  -3   2   96.49    3.23 
   1  -3   2   99.42    2.83 
  -1   3  -2   95.58    2.31 
  -1   3  -2  105.37    4.32 
  -1   3  -2   92.39    2.90 
   1  -3   2   99.95    2.87 
   1  -3   2   97.57    2.36 
  -1   3  -2   98.05    3.23 
   2   1   2  360.99    8.36 
   2   1   2  381.35    7.35 
  -2  -1  -2  376.24    6.04 
   2   1   2  366.39    5.60 
  -2  -1  -2  375.75    5.70 
   2   1   2  374.19    5.76 
   2   3  -1  515.45   12.88 
   2   3  -1  502.36    8.87 
  -2  -3   1  517.07    9.44 
  -2  -3   1  501.32    8.88 
  -2  -3   1  514.72   13.58 
   2   3  -1  519.77    9.56 
  -2  -3   1  497.49    8.61 
   2   3  -1  508.83    8.78 
   3   0  -3 2696.90   66.67 
   3   0  -3 2940.66   68.80 
  -3   0   3 2771.27   67.09 
   3   0  -3 2671.47   66.14 
  -3   0   3 2700.62   66.77 
  -3   0   3 2673.82   66.50 
   2  -3  -1  790.54   19.93 
   2  -3  -1  825.80   20.05 
   2  -3  -1  806.79   18.55 
  -2   3   1  796.57   18.15 
  -2   3   1  791.37   15.53 
  -2   3   1  857.05   20.53 
   2  -3  -1  787.80   15.61 
  -2   3   1  776.43   19.73 
   1   1  -4  835.35   15.27 
   1   1  -4  834.63   17.02 
   1   1  -4  834.52   17.24 
   1   1  -4  821.89   17.26 
  -1  -1   4  829.88   17.06 
  -1  -1   4  867.08   18.15 
  -1  -1   4  845.94   17.37 
  -1   0   4 1248.24   26.93 
  -1   0   4 1242.18   26.62 
  -1   0   4 1248.20   26.12 
   1   0  -4 1247.07   26.80 
   1   0  -4 1235.73   26.67 
   1   0  -4 1259.50   26.91 
  -1  -1  -3 3007.05   73.27 
  -1  -1  -3 3006.74   73.54 
  -1  -1  -3 2784.39   71.81 
   1   1   3 2787.08   73.60 
   1   1   3 2875.57   70.64 
   1   1   3 2951.05   72.22 
   3  -2  -1 1175.28   28.67 
   3  -2  -1 1223.73   29.41 
   3  -2  -1 1215.50   27.43 
  -3   2   1 1206.64   29.25 
  -3   2   1 1252.63   28.19 
  -3   2   1 1200.04   29.29 
  -2   2  -2 1016.76   20.57 
  -2   2  -2 1037.33   22.97 
  -2   2  -2  994.32   20.71 
   2  -2   2  994.66   23.06 
   2  -2   2  979.37   19.75 
   2  -2   2  985.37   20.51 
  -2   2  -2  989.85   20.28 
   2  -2   2  991.49   20.25 
  -1   2  -3 1056.46   21.97 
  -1   2  -3 1025.51   23.07 
   1  -2   3 1065.34   22.07 
  -1   2  -3 1053.31   21.32 
  -1   2  -3 1028.80   21.45 
   1  -2   3 1041.90   21.64 
   1  -2   3 1042.09   21.82 
   1  -2   3 1049.94   22.31 
  -1   3   2   20.53    2.06 
   1  -3  -2   22.13    1.54 
   1  -3  -2   17.30    2.38 
   1  -3  -2   20.85    1.86 
  -1   3   2   15.56    2.47 
   1  -3  -2   19.79    1.50 
  -1   3   2   19.66    1.89 
  -1   3   2   20.51    1.52 
  -2  -3   2  466.37    8.62 
  -2  -3   2  481.44    8.90 
  -2  -3   2  472.31   10.02 
   2   3  -2  481.24    9.05 
  -2  -3   2  490.72   11.69 
   2   3  -2  465.68    8.51 
   2   3  -2  483.81   11.35 
   2   3  -2  475.56    8.74 
  -3  -1   3   35.36    1.72 
  -3  -1   3   35.12    1.53 
   3   1  -3   34.81    1.48 
   3   1  -3   35.81    1.49 
   3   1  -3   36.22    1.04 
  -3  -1   3   35.89    1.47 
   0   2   3  670.12   13.50 
   0  -2  -3  679.53   13.87 
   0  -2  -3  687.21   12.70 
   0   2   3  686.17   13.85 
   0   2   3  696.29   12.61 
   0   2   3  715.35   15.70 
   3   0   1 2370.00   57.07 
  -3   0  -1 2570.76   58.04 
  -3   0  -1 2503.06   54.13 
   3   0   1 2492.51   54.01 
   3   0   1 2311.88   56.05 
   3   0   1 2562.79   57.79 
   3   0   1 2348.31   59.09 
   3   2  -1  492.37    7.28 
   3   2  -1  492.21    7.11 
  -3  -2   1  481.80    7.02 
  -3  -2   1  467.27   12.00 
   3   2  -1  467.46    9.79 
  -3  -2   1  495.79    7.32 
   0  -3  -2  252.12    6.06 
   0  -3  -2  267.96    6.81 
   0   3   2  267.72    6.50 
   0   3   2  250.82    5.31 
   0   3   2  267.73    6.87 
   0   3   2  274.27    7.26 
   0  -3  -2  266.63    7.46 
   0  -3  -2  262.11    5.49 
  -3   2   0  951.22   21.40 
  -3   2   0  940.07   22.06 
   3  -2   0  943.22   21.07 
  -3   2   0  968.20   16.67 
  -3   2   0  947.28   19.81 
   3  -2   0  970.08   16.55 
   3  -2   0  975.72   21.80 
   3  -2   0  973.54   22.57 
  -3  -2   2 1720.91   36.06 
  -3  -2   2 1757.39   36.36 
   3   2  -2 1750.98   36.12 
   3   2  -2 1774.04   40.37 
   3   2  -2 1740.30   36.37 
  -3  -2   2 1755.22   42.07 
   1   3  -3  510.36   10.41 
   1   3  -3  497.26   10.96 
   1   3  -3  504.21   10.75 
   1   3  -3  499.78   10.06 
  -1  -3   3  511.30   10.38 
  -1  -3   3  509.38   10.11 
  -1  -3   3  501.96    9.36 
  -1  -3   3  488.32   10.07 
  -2   2   3  368.61    7.40 
  -2   2   3  369.97    6.97 
  -2   2   3  362.62    7.56 
   2  -2  -3  367.06    7.49 
  -2   2   3  366.22    7.38 
  -2   2   3  363.27    6.74 
   2  -2  -3  368.56    7.94 
   2  -2  -3  362.52    7.35 
   3  -1   1  658.89   11.96 
  -3   1  -1  661.34   12.27 
  -3   1  -1  694.39   13.48 
  -3   1  -1  686.69   12.84 
   3  -1   1  664.24   13.63 
  -3   1  -1  675.06   12.15 
   3  -1   1  697.47   13.38 
   3  -1   1  682.10   12.08 
  -2   3  -1 1326.32   30.89 
   2  -3   1 1340.07   27.58 
   2  -3   1 1313.73   30.21 
   2  -3   1 1322.58   30.94 
  -2   3  -1 1345.05   29.86 
  -2   3  -1 1292.75   27.24 
  -2   3  -1 1284.90   29.67 
   2  -3   1 1337.41   34.05 
  -2   0   4 1408.15   31.22 
   2   0  -4 1408.73   30.99 
   2   0  -4 1390.29   29.72 
   2   0  -4 1403.29   30.98 
  -2   0   4 1402.48   30.77 
  -2   0   4 1401.06   31.01 
   2   3   0 1113.76   23.20 
   2   3   0 1159.93   22.87 
   2   3   0 1117.97   28.99 
  -2  -3   0 1123.74   27.06 
  -2  -3   0 1165.26   22.88 
  -2  -3   0 1132.89   23.66 
  -2  -3   0 1163.39   24.21 
   2   3   0 1166.78   24.70 
  -2  -1   4  335.36    7.02 
   2   1  -4  332.41    6.98 
   2   1  -4  340.42    7.13 
  -2  -1   4  341.03    7.04 
  -2  -1   4  327.33    6.27 
   2   1  -4  332.89    7.03 
   0   3  -3  686.06   13.25 
   0  -3   3  681.02   13.18 
   0  -3   3  720.27   15.07 
   0   3  -3  707.74   13.66 
   0  -3   3  724.36   15.52 
   0  -3   3  706.05   13.67 
   0   3  -3  699.19   15.20 
   0   3  -3  701.53   14.38 
   3  -1  -3 1601.93   36.97 
   3  -1  -3 1627.28   35.61 
  -3   1   3 1655.93   33.44 
  -3   1   3 1575.65   36.57 
  -3   1   3 1626.45   37.20 
   3  -1  -3 1622.41   37.14 
   3  -1  -3 1640.75   32.35 
   0   1  -4    7.15    0.75 
   0   1  -4    5.90    1.20 
   0   1  -4    7.59    0.88 
   0   1  -4    6.28    0.89 
   0  -1   4    7.03    0.80 
   0  -1   4    5.54    1.16 
   0  -1   4    7.30    0.87 
   0  -1   4    4.72    0.51 
   0   0  -4  805.18   17.20 
   0   0  -4  796.18   16.17 
   0   0   4  793.16   16.01 
   0   0   4  787.68   17.02 
   0   0  -4  789.79   15.93 
   0   0   4  788.24   16.02 
   0   0  -4  800.29   12.52 
  -3   2   2  268.44    3.57 
   3  -2  -2  263.00    5.33 
  -3   2   2  264.95    7.49 
  -3   2   2  272.07    6.60 
  -3   2   2  262.95    7.21 
  -3   2   2  257.89    3.85 
   3  -2  -2  271.84    7.63 
   3  -2  -2  262.58    7.16 
   1   2  -4  446.37    9.31 
  -1  -2   4  436.29    9.25 
   1   2  -4  443.44    8.18 
   1   2  -4  442.25    8.62 
   1   2  -4  455.30    9.90 
  -1  -2   4  449.98    7.70 
  -1  -2   4  442.94    8.64 
  -1  -2   4  438.66    8.18 
   1  -1  -4  461.58    9.66 
   1  -1  -4  459.65    8.63 
   1  -1  -4  470.70    7.81 
   1  -1  -4  471.19    9.65 
  -1   1   4  466.04    9.88 
  -1   1   4  454.97    9.59 
  -1   1   4  459.08    9.88 
   0  -4   1 1116.04   25.60 
   0  -4   1 1131.01   24.34 
   0   4  -1 1120.97   27.34 
   0  -4   1 1090.33   25.71 
   0   4  -1 1102.48   25.41 
   0   4  -1 1099.05   26.09 
   0   4  -1 1131.45   24.30 
   0  -4   1 1080.82   24.23 
   0  -4   0  253.54    7.16 
   0  -4   0  255.46    5.98 
   0  -4   0  274.60    6.55 
   0   4   0  255.87    6.14 
   0   4   0  264.42    6.02 
   0   4   0  262.88    7.11 
   0   4   0  268.89    6.27 
   0  -4   0  275.94    6.18 
   2  -3  -2   11.10    2.46 
  -2   3   2   16.01    1.41 
  -2   3   2   13.24    2.53 
  -2   3   2   13.87    2.51 
   2  -3  -2   12.83    2.17 
   2  -3  -2   13.51    2.45 
  -2   3   2   14.53    1.31 
   2  -3  -2   13.90    1.25 
   3   1   1  127.83    1.49 
   3   1   1  128.85    1.64 
  -3  -1  -1  129.92    1.67 
   3   1   1  140.81    4.24 
   3   1   1  132.11    3.72 
  -3  -2   0    8.04    1.87 
   3   2   0    5.59    1.25 
   3   2   0    7.09    1.02 
   2  -1  -4  724.18   14.03 
  -2   1   4  744.62   15.86 
   2  -1  -4  719.91   14.17 
   2  -1  -4  735.07   13.54 
   2  -1  -4  715.45   15.49 
  -2   1   4  724.12   14.34 
  -2   1   4  714.56   14.43 
   2   3  -3  904.66   18.30 
   2   3  -3  919.20   18.58 
  -2  -3   3  883.60   18.06 
  -2  -3   3  869.52   18.65 
   2   3  -3  909.99   20.57 
  -2  -3   3  909.44   18.58 
  -2  -3   3  922.10   19.56 
   2   3  -3  925.59   18.65 
   3   2  -3 1980.24   44.53 
   3   2  -3 1973.98   46.95 
  -3  -2   3 1960.70   44.23 
  -3  -2   3 2010.16   45.47 
   3   2  -3 1967.24   45.48 
   3   2  -3 1958.32   43.89 
  -3  -2   3 1942.89   46.33 
  -1   4   0  542.02   14.50 
   1  -4   0  556.28   12.68 
  -1   4   0  534.62   13.71 
  -1   4   0  516.16   11.62 
   1  -4   0  507.26   11.49 
   1  -4   0  538.77   13.59 
  -1   4   0  505.66   11.81 
   1  -4   0  545.68   12.75 
  -1  -4   1 2289.21   60.11 
  -1  -4   1 2356.36   58.20 
  -1  -4   1 2355.19   58.87 
  -1  -4   1 2328.11   59.61 
   1   4  -1 2239.31   60.93 
   1   4  -1 2363.45   58.58 
   1   4  -1 2311.23   59.64 
   2   2  -4  683.78   13.80 
   2   2  -4  698.99   14.90 
  -2  -2   4  677.06   13.85 
  -2  -2   4  685.53   13.92 
  -2  -2   4  677.01   12.97 
   2   2  -4  674.47   12.87 
   2   2  -4  685.15   13.96 
   3  -2   1  284.88    7.23 
   3  -2   1  280.54    4.83 
  -3   2  -1  277.33    5.96 
  -3   2  -1  278.08    4.94 
  -3   2  -1  282.21    6.66 
   3  -2   1  284.84    6.04 
  -3   2  -1  284.11    5.74 
   3  -2   1  282.90    6.75 
   0   2  -4  701.60   14.13 
   0  -2   4  696.09   13.16 
   0  -2   4  712.54   14.88 
   0  -2   4  714.84   15.55 
   0  -2   4  723.52   14.97 
   0   2  -4  700.99   14.70 
   0   2  -4  708.81   14.93 
   0   2  -4  710.46   14.31 
   1  -4   1 1092.55   27.86 
  -1   4  -1 1080.94   23.95 
   1  -4   1 1036.96   24.66 
   1  -4   1 1039.23   22.11 
  -1   4  -1 1093.31   24.71 
  -1   4  -1 1056.23   25.05 
  -1   4  -1 1062.98   25.06 
   1  -4   1 1094.51   24.22 
   2   2   2 2203.46   57.44 
   2   2   2 2184.30   48.22 
   2   2   2 2222.87   48.72 
   2   2   2 2073.99   46.57 
   2   2   2 2195.79   56.88 
  -2  -2  -2 2125.65   48.16 
  -2  -2  -2 2194.48   48.14 
   0   1   4 1096.73   23.30 
   0  -1  -4 1087.36   23.21 
   0   1   4 1101.47   24.76 
   0  -1  -4 1108.51   23.48 
   0  -1  -4 1108.53   24.80 
   0   1   4 1114.99   23.67 
  -1  -3  -2  442.76   10.07 
   1   3   2  462.85    8.51 
   1   3   2  469.52   12.20 
  -1  -3  -2  453.74   10.01 
  -1  -3  -2  475.71    9.58 
  -1  -3  -2  470.79    8.83 
   1   3   2  451.00   10.07 
   1   3   2  480.75    9.56 
   0   4  -2 1516.93   35.54 
   0  -4   2 1479.93   34.66 
   0  -4   2 1515.47   35.38 
   0   4  -2 1516.66   34.79 
   0  -4   2 1455.10   34.63 
   0   4  -2 1472.99   34.59 
   0   4  -2 1513.24   35.77 
   0  -4   2 1412.06   32.99 
  -2   1  -3 1208.89   25.20 
   2  -1   3 1210.52   25.16 
   2  -1   3 1212.40   26.37 
   2  -1   3 1188.76   25.25 
   2  -1   3 1203.82   24.85 
  -2   1  -3 1206.13   24.90 
  -2   1  -3 1169.86   22.78 
  -2   1  -3 1231.00   27.19 
  -1  -4   0  635.14   15.21 
   1   4   0  619.79   14.34 
   1   4   0  640.05   14.51 
   1   4   0  612.02   13.57 
   1   4   0  637.34   17.14 
  -1  -4   0  623.39   13.91 
  -1  -4   0  617.28   13.67 
  -1  -4   0  619.30   13.13 
  -2   0  -3   86.75    2.16 
  -2   0  -3   84.48    3.23 
  -2   0  -3   84.86    2.07 
   2   0   3   89.45    3.08 
   2   0   3   85.70    2.07 
   2   0   3   89.95    2.09 
   2   0   3   85.70    2.16 
   1   2   3 1675.93   41.31 
  -1  -2  -3 1685.72   37.68 
  -1  -2  -3 1683.56   37.37 
   1   2   3 1704.65   42.41 
   1   2   3 1682.57   37.25 
   1   2   3 1687.96   38.01 
   1   2   3 1658.73   35.02 
  -1  -2  -3 1779.14   34.93 
   1   4  -2 2037.36   52.86 
  -1  -4   2 2027.85   48.86 
  -1  -4   2 1957.38   50.52 
  -1  -4   2 1994.54   50.01 
   1   4  -2 2016.11   48.27 
   1   4  -2 1994.00   50.32 
   1   4  -2 2013.09   48.70 
  -1  -4   2 2008.47   47.98 
   2   3   1 1493.39   39.74 
  -2  -3  -1 1494.28   32.18 
   2   3   1 1463.87   33.19 
  -2  -3  -1 1568.38   32.74 
  -2  -3  -1 1467.73   32.90 
   2   3   1 1522.29   32.71 
   2   3   1 1494.15   32.74 
  -2  -3  -1 1462.44   38.36 
  -1   3  -3   78.38    3.15 
   1  -3   3   83.56    2.29 
  -1   3  -3   82.64    2.25 
  -1   3  -3   85.89    3.13 
   1  -3   3   76.64    2.97 
   1  -3   3   88.55    3.43 
   1  -3   3   82.42    3.02 
  -1   3  -3   88.01    4.09 
   0   4   1    2.95    1.81 
   0   4   1    4.01    1.62 
   0   4   1    2.94    1.71 
   0  -4  -1    3.22    1.81 
   0  -4  -1    2.38    1.65 
   0  -4  -1    1.72    1.74 
   0   4   1    2.65    1.64 
   0  -4  -1    2.25    0.95 
  -1   4   1  402.41   10.33 
  -1   4   1  409.27   11.62 
  -1   4   1  386.19   11.26 
   1  -4  -1  407.77   11.80 
   1  -4  -1  390.69   11.49 
   1  -4  -1  406.65   11.48 
   1  -4  -1  402.62   10.32 
  -1   4   1  405.61    9.51 
  -2   3  -2  601.15   11.40 
   2  -3   2  584.76   11.72 
   2  -3   2  601.19   13.13 
  -2   3  -2  600.83   12.96 
   2  -3   2  589.78   15.64 
  -2   3  -2  600.11   13.59 
  -2   3  -2  607.58   13.35 
   2  -3   2  608.77   13.05 
   3   0  -4 2052.35   49.11 
  -3   0   4 2028.64   48.73 
  -3   0   4 2048.13   49.00 
  -3   0   4 2060.39   48.51 
   3   0  -4 2083.43   49.62 
   3   0  -4 2067.61   47.44 
   4   0  -1  124.65    3.73 
   4   0  -1  125.00    3.26 
  -4   0   1  121.27    2.39 
   4   0  -1  113.32    2.96 
  -4   0   1  119.40    2.23 
  -4   0   1  117.27    3.03 
   4   0  -1  123.13    2.27 
  -4   0   2  243.31    5.18 
  -4   0   2  234.57    4.40 
  -4   0   2  250.82    5.26 
   4   0  -2  241.69    3.79 
   4   0  -2  250.15    4.95 
   4   0  -2  243.56    5.28 
   4   0  -2  234.15    4.39 
   3   1  -4  597.30   12.08 
   3   1  -4  589.95   11.08 
   3   1  -4  606.73   12.25 
  -3  -1   4  610.38   12.91 
  -3  -1   4  593.69   11.21 
  -3  -1   4  599.64   12.15 
  -3   2   3  129.26    4.12 
   3  -2  -3  140.53    3.61 
   3  -2  -3  142.27    4.24 
   3  -2  -3  147.88    4.89 
  -3   2   3  147.80    4.90 
  -3   2   3  139.25    2.81 
  -3   2   3  139.31    2.79 
  -3   2   3  149.37    3.63 
  -3   3   1  218.06    6.00 
  -3   3   1  224.07    7.71 
  -3   3   1  227.41    7.09 
   3  -3  -1  226.09    4.29 
   3  -3  -1  221.78    7.85 
  -3   3   1  223.75    3.67 
   3  -3  -1  224.39    7.67 
   3  -3  -1  232.55    7.21 
   1  -3  -3  533.49   11.26 
  -1   3   3  529.96   12.69 
   1  -3  -3  529.85   12.73 
   1  -3  -3  545.62   13.02 
  -1   3   3  505.90   12.11 
  -1   3   3  513.86   11.63 
  -1   3   3  533.76   13.05 
  -1   3   3  531.48   10.59 
   4  -1  -1  652.88   13.52 
   4  -1  -1  627.18   14.33 
  -4   1   1  638.06   13.52 
   4  -1  -1  677.47   10.09 
   4  -1  -1  680.82   10.93 
  -4   1   1  630.76   14.46 
   4  -1  -1  674.26   14.64 
  -1   1  -4   19.09    1.50 
  -1   1  -4   20.78    1.88 
  -1   1  -4   21.07    1.30 
   1  -1   4   18.94    0.86 
   1  -1   4   19.48    1.54 
   1  -1   4   17.41    1.91 
  -1   1  -4   17.83    1.60 
   1  -1   4   20.50    1.53 
   3  -3   0 1462.09   29.54 
  -3   3   0 1480.07   29.35 
   3  -3   0 1478.42   37.91 
   3  -3   0 1390.89   34.98 
  -3   3   0 1392.03   35.17 
   3  -3   0 1484.46   35.50 
  -3   3   0 1465.98   37.61 
  -3   3   0 1525.61   38.27 
  -4  -1   2  353.88    8.32 
   4   1  -2  374.21    6.02 
   4   1  -2  379.50    7.39 
   4   1  -2  379.73    6.51 
  -4  -1   2  378.84    6.48 
  -4  -1   2  370.02    5.99 
   3   0   2  478.76    8.75 
   3   0   2  486.54    8.12 
  -3   0  -2  468.71    7.60 
  -3   0  -2  470.24   10.55 
  -3   0  -2  482.64    8.08 
   3   0   2  473.01    7.72 
   3   0   2  466.79    9.79 
   1   0   4  908.36   18.55 
   1   0   4  917.30   20.44 
   1   0   4  915.90   17.88 
  -1   0  -4  915.02   17.86 
  -1   0  -4  899.59   18.31 
  -1   0  -4  926.80   20.71 
  -3   1  -2 2684.91   65.98 
   3  -1   2 2750.74   69.97 
   3  -1   2 2717.54   67.99 
   3  -1   2 2672.64   65.67 
   3  -1   2 2739.40   65.96 
  -3   1  -2 2716.54   65.49 
  -3   1  -2 2728.00   67.03 
  -3   1  -2 2698.53   68.93 
   3   3  -2  155.83    2.91 
   3   3  -2  158.81    4.41 
   3   3  -2  151.08    3.34 
  -3  -3   2  158.85    6.23 
  -3  -3   2  148.22    2.82 
  -3  -3   2  153.35    3.41 
   3   3  -2  152.07    5.30 
   4  -1  -2 1660.70   40.68 
   4  -1  -2 1648.60   38.43 
   4  -1  -2 1667.77   39.72 
  -4   1   2 1677.99   41.04 
  -4   1   2 1669.06   38.55 
  -3  -3   1   56.44    4.41 
   3   3  -1   63.58    1.71 
   3   3  -1   62.06    1.24 
   3   3  -1   61.68    1.86 
   3   3  -1   65.34    3.93 
  -3  -3   1   60.32    1.72 
  -3  -3   1   61.13    1.24 
  -4  -1   1 1752.33   41.66 
  -4  -1   1 1807.23   34.44 
  -4  -1   1 1632.35   34.28 
   4   1  -1 1596.31   33.61 
   4   1  -1 1627.67   39.30 
   4   1  -1 1816.56   34.60 
  -2   2  -3 1201.93   26.21 
   2  -2   3 1181.92   27.72 
   2  -2   3 1208.05   25.90 
   2  -2   3 1200.71   26.15 
   2  -2   3 1194.46   26.01 
  -2   2  -3 1215.77   27.15 
  -2   2  -3 1175.20   25.46 
  -2   2  -3 1183.84   25.21 
   3   2   1  602.05    8.43 
   3   2   1  626.16   16.03 
   3   2   1  629.49    9.17 
  -3  -2  -1  614.28    8.47 
   3   2   1  634.12   11.21 
  -3  -2  -1  640.85   15.48 
  -1   4  -2 1094.49   25.49 
  -1   4  -2 1104.97   24.16 
   1  -4   2 1138.59   28.43 
   1  -4   2 1133.46   23.91 
   1  -4   2 1104.05   24.05 
  -1   4  -2 1151.88   29.78 
   1  -4   2 1107.53   25.58 
  -1   4  -2 1119.20   25.51 
   1   3  -4 2394.69   59.92 
   1   3  -4 2393.91   58.60 
   1   3  -4 2334.33   60.40 
  -1  -3   4 2405.94   60.35 
  -1  -3   4 2295.06   56.13 
  -1  -3   4 2409.42   59.20 
   1   3  -4 2353.86   57.33 
  -1  -3   4 2427.65   62.66 
  -1   2   4   52.02    1.93 
  -1   2   4   57.08    2.78 
   1  -2  -4   55.38    1.90 
   1  -2  -4   54.99    2.59 
   1  -2  -4   50.34    2.73 
  -1   2   4   52.34    1.88 
  -1   2   4   52.74    1.88 
   1  -2  -4   49.74    2.05 
   2   1   3 2770.70   74.39 
   2   1   3 2766.01   66.77 
  -2  -1  -3 2732.70   73.92 
  -2  -1  -3 2748.56   66.34 
   2   1   3 2730.94   66.97 
  -2  -1  -3 2755.41   66.64 
   2   1   3 2863.24   64.43 
   2   1   3 3084.79   68.43 
   2  -4   0   97.10    4.84 
   2  -4   0  118.74    5.74 
   2  -4   0  115.62    5.35 
  -2   4   0  101.34    3.95 
  -2   4   0   99.81    3.14 
  -2   4   0   97.48    4.92 
  -2   4   0  104.33    5.26 
   2  -4   0  112.06    3.27 
   3  -1  -4  219.76    4.75 
  -3   1   4  226.08    4.49 
   3  -1  -4  220.95    4.29 
  -3   1   4  221.54    4.76 
  -3   1   4  216.20    4.58 
   3  -1  -4  228.04    5.85 
   3  -1  -4  215.45    4.69 
   4   0   0 1398.87   32.63 
   4   0   0 1472.56   31.06 
   4   0   0 1477.65   28.53 
  -4   0   0 1428.05   29.29 
   4   0   0 1438.34   29.40 
   4   0   0 1489.75   32.33 
  -4   0   0 1445.45   27.94 
   0   3   3  941.42   20.86 
   0   3   3  888.73   20.58 
   0   3   3  903.53   19.93 
   0  -3  -3  899.14   20.65 
   0  -3  -3  929.11   19.66 
   0  -3  -3  932.58   20.88 
   0   3   3  873.68   19.41 
   0   3   3  911.64   22.30 
   2  -3  -3 1042.50   23.95 
   2  -3  -3 1056.49   25.45 
   2  -3  -3 1056.98   26.39 
  -2   3   3 1066.36   24.86 
  -2   3   3 1052.86   24.12 
  -2   3   3 1048.74   22.91 
  -2   3   3 1034.11   22.89 
  -2   3   3 1070.30   26.46 
   4   0  -3 1228.30   27.97 
   4   0  -3 1210.52   25.80 
  -4   0   3 1282.51   27.25 
  -4   0   3 1218.87   26.02 
   4   0  -3 1243.96   24.29 
  -2  -4   1 1670.61   45.77 
  -2  -4   1 1622.31   38.70 
   2   4  -1 1612.33   37.34 
   2   4  -1 1611.34   43.40 
   2   4  -1 1640.28   36.74 
   2   4  -1 1655.38   39.99 
  -2  -4   1 1648.89   36.53 
  -2  -4   1 1634.41   37.47 
   3  -3  -2    4.18    2.02 
  -3   3   2    1.50    2.11 
  -3   3   2    4.55    2.01 
  -3   3   2    4.13    0.69 
  -3   3   2    5.35    0.76 
  -3   3   2    3.56    1.74 
   3  -3  -2    6.28    1.69 
   3  -3  -2    1.78    2.11 
   2  -2  -4   43.82    2.82 
   2  -2  -4   50.06    2.09 
  -2   2   4   43.00    1.87 
  -2   2   4   44.46    1.88 
  -2   2   4   42.83    2.07 
   2  -2  -4   41.39    1.94 
  -2   2   4   43.07    1.87 
   2  -2  -4   43.96    1.86 
   1   4   1    7.15    1.58 
   1   4   1    8.65    2.37 
  -1  -4  -1    4.57    1.07 
   1   4   1    6.72    1.70 
   1   4   1    6.74    1.06 
  -1  -4  -1    6.35    1.40 
  -1  -4  -1    5.73    2.36 
  -1  -4  -1    4.72    1.68 
   4  -1   0   43.66    1.36 
   4  -1   0   47.05    1.56 
  -4   1   0   47.28    1.80 
  -4   1   0   43.73    2.31 
   4  -1   0   46.43    2.27 
   4  -1   0   41.20    2.42 
   4  -1   0   51.00    1.83 
  -2   4   1  209.84    8.03 
   2  -4  -1  211.10    6.17 
   2  -4  -1  230.07    8.23 
   2  -4  -1  201.54    5.97 
   2  -4  -1  215.67    5.42 
  -2   4   1  204.21    6.03 
  -2   4   1  203.51    5.28 
  -2   4   1  225.10    7.63 
  -3  -2   4  317.39    6.75 
   3   2  -4  326.44    7.34 
  -3  -2   4  329.63    7.89 
  -3  -2   4  315.27    5.91 
   3   2  -4  329.10    7.42 
   3   2  -4  318.37    5.94 
   3   2  -4  324.73    6.86 
   2   4  -2 1561.36   34.38 
   2   4  -2 1569.43   35.07 
   2   4  -2 1547.94   40.29 
   2   4  -2 1529.33   35.33 
  -2  -4   2 1559.61   40.87 
  -2  -4   2 1555.19   34.75 
  -2  -4   2 1549.02   33.90 
  -2  -4   2 1529.11   34.99 
  -1   2  -4 1912.76   47.27 
   1  -2   4 1966.81   47.09 
  -1   2  -4 1953.12   45.65 
   1  -2   4 1980.96   44.69 
  -1   2  -4 1955.78   48.04 
  -1   2  -4 1963.72   46.87 
   1  -2   4 1966.48   45.87 
   1  -2   4 2004.85   48.78 
  -1  -4   3  196.69    5.19 
  -1  -4   3  182.47    3.91 
   1   4  -3  190.80    4.00 
  -1  -4   3  189.12    4.36 
  -1  -4   3  189.23    5.82 
   1   4  -3  197.94    5.09 
   1   4  -3  192.32    4.64 
   1   4  -3  187.41    4.64 
   0   3  -4 1256.05   29.62 
   0  -3   4 1294.00   29.30 
   0  -3   4 1274.63   28.13 
   0  -3   4 1278.77   28.19 
   0   3  -4 1261.91   27.30 
   0   3  -4 1287.19   29.27 
   0   3  -4 1254.03   27.88 
   0  -3   4 1249.23   27.11 
  -4  -1   3   23.85    1.33 
  -4  -1   3   32.48    2.00 
  -4  -1   3   24.52    1.30 
   4   1  -3   23.05    1.35 
   4   1  -3   27.87    1.30 
   4   1  -3   26.36    1.29 
   2   3  -4 1797.61   41.94 
   2   3  -4 1777.83   41.83 
  -2  -3   4 1808.46   42.47 
  -2  -3   4 1826.71   43.91 
  -2  -3   4 1767.77   41.33 
   2   3  -4 1840.00   43.91 
   2   3  -4 1775.81   42.01 
   0   4  -3   88.43    2.75 
   0   4  -3   98.97    4.61 
   0   4  -3   94.96    2.63 
   0   4  -3   93.71    2.58 
   0  -4   3   93.93    2.63 
   0  -4   3   93.01    2.78 
   0  -4   3   94.99    2.83 
   0  -4   3   90.84    2.54 
  -2   4  -1 1430.16   32.44 
  -2   4  -1 1421.99   38.51 
   2  -4   1 1463.47   40.11 
   2  -4   1 1465.51   32.53 
   2  -4   1 1481.97   37.50 
  -2   4  -1 1398.11   34.87 
  -2   4  -1 1472.70   35.06 
   2  -4   1 1434.02   35.63 
   3   3  -3 1427.83   33.17 
   3   3  -3 1439.71   30.99 
   3   3  -3 1427.81   30.56 
  -3  -3   3 1411.84   30.44 
  -3  -3   3 1432.41   35.70 
  -3  -3   3 1437.78   31.24 
   3   3  -3 1464.57   35.09 
   3   1   2  594.90    9.65 
   3   1   2  587.56   13.38 
   3   1   2  601.50    9.81 
  -3  -1  -2  603.19    9.84 
   3   1   2  607.73   14.37 
   3   1   2  582.16   10.51 
  -3  -1  -2  588.44    9.52 
   3  -3   1 2622.81   68.77 
   3  -3   1 2566.97   71.85 
   3  -3   1 2543.89   60.41 
  -3   3  -1 2528.66   66.55 
  -3   3  -1 2605.08   71.41 
  -3   3  -1 2546.94   69.06 
  -3   3  -1 2508.26   61.62 
   3  -3   1 2550.74   69.18 
  -1  -1   5  989.61   20.76 
  -1  -1   5 1010.77   21.05 
  -1  -1   5 1035.57   22.16 
   1   1  -5 1032.44   19.86 
   1   1  -5 1004.83   20.87 
   1   1  -5 1000.44   21.22 
   1   1  -5  985.12   20.75 
  -3   2  -2  744.45   15.23 
  -3   2  -2  746.14   16.16 
  -3   2  -2  745.29   15.92 
   3  -2   2  731.86   15.61 
   3  -2   2  735.18   14.57 
   3  -2   2  748.87   17.94 
  -3   2  -2  740.13   15.12 
   3  -2   2  737.21   15.04 
   1  -4  -2 1163.31   28.36 
  -1   4   2 1161.94   29.95 
   1  -4  -2 1137.13   29.53 
   1  -4  -2 1131.20   29.27 
  -1   4   2 1136.16   28.10 
  -1   4   2 1096.64   28.13 
   1  -4  -2 1092.14   26.27 
  -1   4   2 1066.58   25.79 
   3   3   0 1378.63   25.48 
   3   3   0 1330.78   29.49 
   3   3   0 1302.73   35.80 
   3   3   0 1341.18   26.92 
  -3  -3   0 1313.30   33.06 
  -3  -3   0 1336.60   26.95 
  -3  -3   0 1385.64   25.59 
   0   2   4   23.86    2.34 
   0  -2  -4   20.05    1.84 
   0  -2  -4   22.69    1.29 
   0   2   4   22.58    1.79 
   0  -2  -4   25.24    2.19 
   0   2   4   21.90    0.74 
   0   2   4   23.86    1.78 
   0  -2  -4   23.24    1.79 
  -1  -1  -4 1197.22   25.47 
  -1  -1  -4 1179.50   25.07 
  -1  -1  -4 1190.76   26.25 
   1   1   4 1189.78   25.27 
   1   1   4 1172.13   25.30 
   1   1   4 1184.56   26.36 
   4   1   0 1378.45   34.97 
  -4  -1   0 1504.82   34.75 
   1   0  -5 1368.01   26.61 
   1   0  -5 1361.27   29.89 
   1   0  -5 1330.56   30.84 
   1   0  -5 1373.42   31.40 
  -1   0   5 1376.11   31.59 
  -1   0   5 1377.61   32.23 
  -1   0   5 1362.04   31.17 
   4  -1  -3 1673.20   38.47 
   4  -1  -3 1699.58   41.18 
   4  -1  -3 1714.88   41.62 
   4  -1  -3 1801.76   34.97 
  -4   1   3 1665.65   40.79 
  -4   1   3 1762.76   36.20 
  -4   1   3 1718.48   39.25 
   2   1  -5 1894.26   43.07 
  -2  -1   5 1893.06   46.63 
   2   1  -5 1896.29   45.51 
   2   1  -5 1837.03   42.86 
  -2  -1   5 1843.46   44.50 
  -2  -1   5 1884.37   45.54 
   2   1  -5 1876.85   45.33 
   4  -2  -1 1311.89   31.17 
   4  -2  -1 1279.62   31.66 
  -4   2   1 1266.45   31.68 
   4  -2  -1 1269.76   32.27 
  -4   2   1 1285.05   32.55 
  -4   2   1 1302.09   30.76 
   2   0  -5  851.84   18.78 
  -2   0   5  845.52   18.90 
  -2   0   5  853.19   18.87 
   2   0  -5  839.50   18.70 
   2   0  -5  846.27   18.08 
  -2   0   5  846.18   18.74 
  -2  -4   0  583.92   11.74 
  -2  -4   0  575.99   17.01 
   2   4   0  578.56   12.93 
   2   4   0  580.67   11.72 
   2   4   0  579.48   12.92 
   2   4   0  572.44   16.77 
  -2  -4   0  578.86   12.65 
  -2  -4   0  580.06   12.90 
   0   4   2  741.97   18.60 
   0   4   2  687.48   17.41 
   0  -4  -2  720.96   18.01 
   0  -4  -2  740.28   18.62 
   0  -4  -2  752.35   19.22 
   0   4   2  741.55   19.34 
   0   4   2  714.74   17.70 
   0  -4  -2  732.12   17.39 
  -4  -2   2 1561.08   31.68 
   4   2  -2 1569.95   31.72 
   4   2  -2 1590.96   37.68 
   4   2  -2 1594.96   31.99 
  -4  -2   2 1562.15   31.44 
  -4  -2   2 1464.01   37.12 
   4  -2  -2  207.37    6.16 
  -4   2   2  199.20    6.19 
   4  -2  -2  207.25    6.04 
  -4   2   2  212.57    7.07 
  -4   2   2  220.35    6.22 
   4  -2  -2  223.97    7.14 
   4   2  -1 1440.14   25.57 
  -4  -2   1 1534.26   27.15 
   4   2  -1 1543.45   27.90 
   4   2  -1 1387.55   33.63 
  -4  -2   1 1389.01   36.76 
  -2  -4   3   26.94    1.80 
  -2  -4   3   24.26    1.79 
   2   4  -3   25.16    1.85 
   2   4  -3   24.12    2.80 
   2   4  -3   26.35    1.77 
   2   4  -3   26.11    2.44 
  -2  -4   3   26.80    2.72 
  -2  -4   3   27.85    1.50 
  -2  -3  -2  585.35   10.70 
   2   3   2  592.71   11.35 
   2   3   2  577.33   13.74 
   2   3   2  562.12   11.93 
   2   3   2  584.43   10.71 
  -2  -3  -2  568.18   11.92 
   4  -2   0 1467.09   36.01 
   4  -2   0 1558.05   30.20 
  -4   2   0 1505.36   36.41 
  -4   2   0 1497.64   38.29 
  -4   2   0 1530.27   30.94 
   4  -2   0 1564.60   37.41 
  -4   2   0 1536.68   36.78 
   4  -2   0 1493.14   38.11 
   1   2  -5   56.12    2.77 
  -1  -2   5   55.01    1.86 
  -1  -2   5   54.77    2.82 
  -1  -2   5   53.88    3.04 
   1   2  -5   53.36    3.02 
   1   2  -5   47.65    1.85 
   1   2  -5   53.40    2.12 
  -2   4   2 2761.63   75.11 
  -2   4   2 2740.66   78.01 
  -2   4   2 2757.33   81.20 
   2  -4  -2 2863.61   82.20 
   2  -4  -2 2867.02   76.48 
   2  -4  -2 2775.95   81.74 
   2  -4  -2 2757.20   81.18 
  -2   4   2 2780.69   77.20 
   2  -3   3   89.40    4.10 
   2  -3   3   78.12    3.19 
   2  -3   3   84.16    2.37 
  -2   3  -3   84.06    2.45 
  -2   3  -3   90.30    3.21 
  -2   3  -3   90.10    3.23 
   2  -3   3   84.50    2.99 
  -2   3  -3   89.17    4.41 
   0   1  -5  435.07    8.57 
   0   1  -5  440.08    8.80 
   0   1  -5  446.34    8.37 
   0   1  -5  455.74   10.71 
   0  -1   5  451.46    8.79 
   0  -1   5  448.38    8.85 
   0  -1   5  452.56    9.45 
   2   2  -5    1.20    1.24 
   2   2  -5    2.65    0.97 
   2   2  -5    2.98    1.18 
  -2  -2   5    1.63    1.20 
   2   2  -5    1.11    1.20 
  -2  -2   5    1.87    1.19 
  -2  -2   5    1.70    1.30 
  -4  -2   3 1390.92   34.63 
  -4  -2   3 1317.22   27.55 
   4   2  -3 1337.95   27.72 
   4   2  -3 1317.49   27.12 
   4   2  -3 1340.01   30.38 
  -4  -2   3 1312.89   27.11 
  -3   2   4  169.38    4.67 
   3  -2  -4  174.86    4.80 
   3  -2  -4  174.66    5.66 
   3  -2  -4  175.73    5.45 
  -3   2   4  170.63    3.65 
  -3   2   4  176.26    5.69 
  -3   2   4  164.58    5.47 
   3  -2  -4  168.00    4.10 
   4   0   1  800.38   18.28 
   4   0   1  824.70   14.19 
   4   0   1  824.00   17.01 
   4   0   1  828.47   15.68 
  -4   0  -1  821.20   16.13 
  -4   0  -1  827.15   14.17 
   4   0   1  831.40   17.39 
  -1  -3  -3  141.74    3.83 
   1   3   3  148.23    6.04 
   1   3   3  142.00    3.80 
  -1  -3  -3  140.92    4.16 
   1   3   3  144.34    5.61 
   1   3   3  145.02    3.53 
  -1  -3  -3  138.22    3.33 
   1   3   3  144.03    4.15 
   0   0   5 2025.96   49.56 
   0   0   5 2017.82   47.85 
   0   0  -5 2054.24   50.26 
   0   0  -5 2025.75   49.53 
   0   0  -5 2041.71   49.70 
   0   0  -5 2054.47   42.25 
   0   0  -5 2087.84   41.01 
   0   0   5 1998.85   50.73 
   1  -1  -5   30.52    1.29 
  -1   1   5   28.89    1.59 
   1  -1  -5   29.19    2.25 
  -1   1   5   31.62    2.20 
   1  -1  -5   29.33    2.22 
   1  -1  -5   28.86    2.23 
  -1   1   5   33.58    2.26 
   2   2   3 1076.58   21.94 
   2   2   3 1067.92   20.96 
   2   2   3 1089.51   20.01 
  -2  -2  -3 1059.44   20.89 
   2   2   3 1094.56   24.98 
  -2  -2  -3 1064.91   21.43 
   2   2   3 1048.96   26.35 
   1  -4   3  512.95   11.58 
  -1   4  -3  490.13   10.14 
   1  -4   3  491.22   10.14 
   1  -4   3  494.24   11.44 
   1  -4   3  487.49   12.56 
  -1   4  -3  490.56   13.91 
  -1   4  -3  484.81   11.53 
  -1   4  -3  478.94   10.03 
   3  -3  -3  943.74   22.40 
   3  -3  -3  916.48   21.68 
   3  -3  -3  944.25   22.86 
  -3   3   3  977.41   19.90 
  -3   3   3  965.09   18.88 
  -3   3   3  980.69   21.81 
  -3   3   3  952.99   22.63 
  -3   3   3  958.18   22.38 
  -4   1  -1  490.68   10.46 
  -4   1  -1  496.99    8.98 
   4  -1   1  509.18    9.18 
   4  -1   1  499.22   10.49 
   4  -1   1  502.58    9.03 
   4  -1   1  489.39   10.79 
   2  -1  -5  100.63    3.26 
   2  -1  -5  106.87    3.99 
   2  -1  -5  104.78    2.64 
   2  -1  -5   98.02    3.86 
  -2   1   5   96.05    3.92 
  -2   1   5  104.42    3.55 
  -2   1   5  107.93    4.09 
   4   0  -4 2222.85   51.76 
  -4   0   4 2163.25   51.37 
  -4   0   4 2212.91   55.09 
   4   0  -4 2231.48   55.14 
   4   0  -4 2220.54   54.73 
  -4   0   4 2224.65   54.88 
   4   0  -4 2192.94   55.10 
   2  -4   2 1168.86   31.06 
  -2   4  -2 1118.77   26.90 
  -2   4  -2 1148.15   28.42 
   2  -4   2 1136.96   27.15 
   2  -4   2 1112.80   26.94 
  -2   4  -2 1138.68   27.48 
   2  -4   2 1198.26   26.33 
  -2   4  -2 1121.06   25.55 
   0   5  -1  188.74    7.50 
   0  -5   1  186.14    6.32 
   0   5  -1  185.82    6.09 
   0  -5   1  186.96    4.76 
   0  -5   1  168.86    5.02 
   0  -5   1  188.89    6.73 
   0   5  -1  184.60    4.81 
   0   5  -1  177.75    6.63 
  -1   3  -4  969.33   24.21 
   1  -3   4  998.47   22.02 
   1  -3   4  994.52   22.58 
   1  -3   4  987.03   22.30 
   1  -3   4  996.75   22.74 
  -1   3  -4  975.54   22.05 
  -1   3  -4  991.24   23.22 
  -1   3  -4  987.31   22.44 
  -4  -1   4  787.57   16.56 
  -4  -1   4  791.32   16.63 
  -4  -1   4  788.65   17.26 
   4   1  -4  789.98   16.54 
   4   1  -4  816.06   16.47 
   4   1  -4  783.47   16.41 
  -3  -1   5 1631.21   39.47 
  -3  -1   5 1647.26   38.96 
   3   1  -5 1631.23   38.68 
   3   1  -5 1637.72   36.98 
   3   1  -5 1601.17   37.46 
  -3  -1   5 1597.39   36.55 
  -3   0   5 1022.57   23.28 
   3   0  -5 1044.17   22.16 
   3   0  -5 1024.94   21.96 
   3   0  -5 1035.99   23.41 
  -3   0   5 1045.50   22.24 
  -3   0   5 1024.18   21.82 
   3   0  -5 1045.65   21.14 
   0  -5   0   80.64    4.44 
   0  -5   0   72.82    4.09 
   0   5   0   79.30    3.21 
   0   5   0   82.00    4.31 
   0   5   0   84.26    4.19 
   0   5   0   88.51    4.78 
   0  -5   0   80.93    4.75 
   0  -5   0   68.86    3.06 
   3   3  -4 2702.58   69.06 
   3   3  -4 2745.71   69.56 
   3   3  -4 2696.81   70.61 
  -3  -3   4 2662.42   71.08 
  -3  -3   4 2724.07   69.40 
   3   3  -4 2727.18   70.11 
  -3  -3   4 2735.94   69.94 
  -4   2   3   34.48    2.58 
  -4   2   3   31.93    0.73 
  -4   2   3   32.91    2.73 
  -4   2   3   32.82    0.81 
   4  -2  -3   35.48    3.12 
   4  -2  -3   38.71    2.69 
   4  -2  -3   31.30    2.54 
  -4   2   3   32.34    3.08 
   0   2  -5  153.11    5.01 
   0   2  -5  151.08    4.50 
   0   2  -5  152.28    4.68 
   0  -2   5  159.71    4.71 
   0   2  -5  152.14    4.70 
   0  -2   5  149.84    3.61 
   0  -2   5  151.24    3.06 
   0  -2   5  154.12    5.17 
  -4  -2   0  101.53    3.22 
   4   2   0   90.07    4.97 
  -3  -2  -2  780.69   13.12 
  -3  -2  -2  780.75   13.88 
   3   2   2  775.77   15.26 
   3   2   2  789.12   20.21 
   3   2   2  792.69   13.27 
   3   2   2  814.41   19.90 
   3   2   2  769.19   13.77 
   1   4   2  206.04    5.88 
   1   4   2  218.32    6.20 
   1   4   2  215.64    5.85 
  -1  -4  -2  218.23    6.02 
  -1  -4  -2  209.06    4.35 
  -1  -4  -2  211.46    6.31 
  -1  -4  -2  226.57    6.19 
   1   4   2  200.78    6.43 
  -3  -3  -1 1401.38   37.72 
   3   3   1 1413.79   39.06 
   3   3   1 1456.15   27.75 
  -3  -3  -1 1455.11   27.79 
  -3  -3  -1 1429.98   28.41 
   3   3   1 1413.70   31.24 
   3   3   1 1422.24   28.29 
   3  -3   2  978.58   22.83 
   3  -3   2  971.22   20.24 
   3  -3   2  994.81   22.37 
  -3   3  -2  975.85   22.94 
  -3   3  -2  991.55   22.44 
  -3   3  -2  989.07   21.21 
  -3   3  -2  994.37   22.92 
   3  -3   2 1004.74   26.05 
  -2  -4  -1   67.03    4.84 
  -2  -4  -1   57.92    2.46 
  -2  -4  -1   53.83    2.54 
  -2  -4  -1   55.55    2.61 
   2   4   1   63.36    5.05 
   2   4   1   62.54    2.50 
   2   4   1   65.95    2.74 
   2   4   1   60.21    2.56 
  -2   1  -4   24.25    1.65 
  -2   1  -4   24.21    1.12 
   2  -1   4   22.93    1.62 
  -2   1  -4   26.67    2.34 
   2  -1   4   24.10    1.16 
   2  -1   4   24.55    2.13 
   2  -1   4   25.46    1.56 
  -2   1  -4   25.47    1.14 
   1  -5   0  544.92   15.27 
  -1   5   0  554.69   16.18 
  -1   5   0  540.53   15.19 
  -1   5   0  549.27   13.95 
  -1   5   0  545.49   13.08 
   1  -5   0  525.07   12.79 
   1  -5   0  542.37   16.20 
   1  -5   0  559.29   14.55 
   4   1   1  163.52    3.19 
   4   1   1  171.18    4.72 
   4   1   1  168.44    5.90 
  -1  -5   1  854.75   20.91 
  -1  -5   1  847.24   19.79 
  -1  -5   1  862.78   20.70 
   1   5  -1  862.26   21.59 
   1   5  -1  846.88   19.74 
   1   5  -1  849.26   20.37 
   1   5  -1  804.93   22.05 
  -1  -5   1  824.24   18.60 
   1   4  -4  252.36    6.63 
   1   4  -4  250.81    7.35 
   1   4  -4  243.12    5.48 
  -1  -4   4  260.35    5.56 
  -1  -4   4  256.55    7.60 
   1   4  -4  265.18    7.37 
  -1  -4   4  258.70    5.48 
  -1  -4   4  259.47    6.70 
   3  -4   0   47.55    1.79 
  -3   4   0   47.98    1.67 
  -3   4   0   45.82    2.74 
   3  -4   0   45.07    4.34 
   3  -4   0   47.83    3.78 
  -3   4   0   40.73    3.73 
   3  -4   0   44.65    2.70 
  -3   4   0   41.64    4.15 
  -3   4   1  599.61   11.46 
  -3   4   1  607.17   16.51 
  -3   4   1  569.10   14.53 
   3  -4  -1  612.58   15.23 
   3  -4  -1  584.38   12.54 
   3  -4  -1  593.77   16.99 
  -3   4   1  592.75   15.06 
   3  -4  -1  578.57   14.08 
  -1   3   4 1024.18   23.28 
   1  -3  -4 1046.01   25.29 
   1  -3  -4 1000.31   24.48 
   1  -3  -4 1047.31   24.20 
  -1   3   4 1020.01   22.15 
  -1   3   4 1036.21   25.07 
  -1   3   4 1009.70   22.38 
  -1   3   4 1011.75   24.56 
  -1   5  -1   35.81    3.97 
   1  -5   1   32.86    3.66 
   1  -5   1   34.19    2.16 
   1  -5   1   37.14    2.20 
   1  -5   1   37.75    2.64 
  -1   5  -1   30.12    2.13 
  -1   5  -1   26.76    2.12 
  -1   5  -1   33.64    2.77 
   1   2   4   10.33    1.82 
   1   2   4    6.89    0.49 
   1   2   4    5.48    1.14 
   1   2   4    5.43    1.94 
  -1  -2  -4    6.27    1.17 
  -1  -2  -4    4.07    1.20 
   1   2   4    4.05    1.18 
   2   0   4  782.31   15.92 
  -2   0  -4  764.92   15.28 
  -2   0  -4  785.88   18.33 
  -2   0  -4  783.24   15.93 
   2   0   4  784.33   15.60 
   2   0   4  770.96   12.65 
   2   0   4  766.76   16.40 
   4  -1  -4  118.97    2.24 
   4  -1  -4  127.41    4.35 
   4  -1  -4  119.53    3.08 
  -4   1   4  108.09    4.13 
  -4   1   4  123.24    3.14 
  -4   1   4  117.89    3.00 
   4  -1  -4  116.03    4.14 
   3  -1   3 1639.46   35.28 
  -3   1  -3 1670.87   37.72 
  -3   1  -3 1602.07   37.08 
  -3   1  -3 1602.44   35.03 
   3  -1   3 1669.07   37.49 
   3  -1   3 1645.35   40.33 
   3  -1   3 1669.30   39.19 
  -3   1  -3 1648.10   36.45 
   0   5  -2  743.91   17.84 
   0   5  -2  742.83   18.79 
   0   5  -2  729.11   17.56 
   0   5  -2  717.23   19.61 
   0  -5   2  734.87   17.62 
   0  -5   2  714.64   17.75 
   0  -5   2  704.96   17.15 
   0  -5   2  693.91   18.13 
   3   0   3    9.93    0.86 
  -3   0  -3    9.86    0.88 
  -3   0  -3    8.40    1.80 
   3   0   3   12.42    1.25 
   3   0   3    8.57    1.63 
   3   0   3   10.73    0.94 
  -3   0  -3   11.05    1.24 
   3   4  -2 1085.31   25.56 
   3   4  -2 1057.82   27.86 
   3   4  -2 1089.24   22.24 
   3   4  -2 1098.30   22.81 
  -3  -4   2 1095.66   30.27 
  -3  -4   2 1079.14   22.12 
  -3  -4   2 1086.27   22.72 
  -4   2  -1   88.55    2.92 
  -4   2  -1   88.77    2.37 
  -4   2  -1  100.96    3.83 
   4  -2   1   97.15    2.96 
   4  -2   1   91.84    2.41 
   4  -2   1   91.54    2.89 
  -4   2  -1   93.51    2.63 
   4  -2   1   94.26    3.76 
   0  -1  -5   94.37    2.51 
   0   1   5   96.70    2.55 
   0  -1  -5   96.50    4.05 
   0  -1  -5  101.47    3.46 
   0   1   5   98.79    3.40 
   0   1   5  101.93    4.21 
   2  -3  -4  759.29   17.95 
  -2   3   4  774.18   17.57 
  -2   3   4  755.35   16.78 
  -2   3   4  768.57   17.49 
  -2   3   4  757.61   17.24 
  -2   3   4  772.95   19.54 
   2  -3  -4  781.30   19.63 
   2  -3  -4  781.09   17.63 
  -1  -5   2 1544.27   37.54 
  -1  -5   2 1445.75   37.10 
   1   5  -2 1515.55   39.19 
   1   5  -2 1495.78   37.60 
  -1  -5   2 1523.09   35.15 
   1   5  -2 1551.29   35.77 
   1   5  -2 1538.42   37.48 
  -1  -5   2 1497.42   39.63 
   3   4  -1 1151.46   26.84 
   3   4  -1 1170.24   24.88 
   3   4  -1 1180.84   23.61 
   3   4  -1 1123.50   30.75 
  -3  -4   1 1166.03   33.24 
  -3  -4   1 1189.88   23.65 
  -3  -4   1 1173.48   24.90 
   4  -3  -1  108.13    3.64 
   4  -3  -1  117.77    4.02 
   4  -3  -1  109.47    1.44 
  -4   3   1  129.64    5.64 
  -4   3   1  121.35    3.77 
   4  -3  -1  113.07    4.02 
  -4   3   1  115.94    4.14 
   1  -4  -3 1237.81   32.02 
   1  -4  -3 1263.52   32.79 
  -1   4   3 1130.61   27.64 
  -1   4   3 1199.56   28.72 
  -1   4   3 1223.85   31.49 
  -1   4   3 1232.23   30.98 
  -1   4   3 1237.80   32.36 
  -3  -2   5    3.50    1.27 
   3   2  -5    3.37    0.76 
   3   2  -5    4.44    1.31 
   3   2  -5    2.68    1.24 
   3   2  -5    3.16    0.82 
  -3  -2   5    2.23    0.80 
  -3  -2   5    2.83    1.48 
   0   4  -4  243.11    6.77 
   0   4  -4  247.02    7.67 
   0   4  -4  241.49    6.88 
   0  -4   4  241.36    6.90 
   0  -4   4  221.12    6.31 
   0  -4   4  240.57    6.57 
   0  -4   4  242.08    6.85 
   0   4  -4  233.27    6.53 
   1   3  -5 1191.88   27.46 
   1   3  -5 1142.23   27.37 
   1   3  -5 1172.19   27.13 
  -1  -3   5 1164.12   27.08 
  -1  -3   5 1187.43   24.63 
  -1  -3   5 1130.15   26.14 
   1   3  -5 1124.74   25.94 
  -1  -3   5 1166.09   28.12 
  -3   1   5  109.16    3.31 
   3  -1  -5  106.01    4.07 
   3  -1  -5  105.25    3.21 
   3  -1  -5  100.93    3.00 
   3  -1  -5  104.45    3.09 
  -3   1   5  107.84    4.06 
  -3   1   5  108.47    3.09 
   1   5   0  224.11    6.71 
   1   5   0  212.65    7.04 
   1   5   0  218.38    6.51 
  -1  -5   0  211.77    6.72 
  -1  -5   0  230.69    6.67 
  -1  -5   0  233.11    9.21 
  -1  -5   0  227.23    7.35 
   1   5   0  226.22    7.32 
  -4  -2   4  115.44    4.11 
  -4  -2   4  102.14    3.02 
   4   2  -4  106.08    3.00 
   4   2  -4  107.54    3.06 
  -4  -2   4  108.20    3.02 
   4   2  -4  104.96    3.41 
   2  -2   4 1302.15   29.73 
   2  -2   4 1293.31   30.00 
   2  -2   4 1313.52   29.54 
  -2   2  -4 1307.86   29.48 
  -2   2  -4 1296.88   29.11 
  -2   2  -4 1257.29   27.96 
  -2   2  -4 1316.69   30.00 
   2  -2   4 1242.95   29.29 
   4   3  -2  264.72    6.75 
  -4  -3   2  255.76    4.28 
  -4  -3   2  257.88    9.40 
  -4  -3   2  246.01    4.02 
   4   3  -2  251.19    4.07 
   4   3  -2  254.63    4.25 
   4   3  -2  250.35    6.11 
   2   4  -4  214.85    6.42 
  -2  -4   4  223.33    5.76 
  -2  -4   4  224.26    6.11 
   2   4  -4  231.09    5.76 
   2   4  -4  224.49    5.82 
   2   4  -4  219.50    6.98 
  -2  -4   4  217.47    5.81 
  -2  -4   4  217.84    5.58 
  -1   5   1 1908.39   50.35 
  -1   5   1 1747.89   49.13 
  -1   5   1 1720.44   45.56 
   1  -5  -1 1747.54   49.33 
   1  -5  -1 1873.34   49.86 
   1  -5  -1 1722.89   45.62 
  -1   5   1 1763.55   50.02 
   1  -5  -1 1824.82   51.15 
   0  -5  -1  594.06   15.98 
   0  -5  -1  584.36   16.78 
   0  -5  -1  555.01   15.00 
   0  -5  -1  570.14   16.36 
   0   5   1  583.22   15.81 
   0   5   1  577.51   14.26 
   0   5   1  593.53   16.30 
   0   5   1  560.72   15.53 
  -2  -3   5 1027.73   24.75 
  -2  -3   5  963.29   20.59 
   2   3  -5  999.03   22.65 
   2   3  -5 1003.03   22.64 
   2   3  -5 1009.21   23.71 
  -2  -3   5 1004.12   22.86 
   2   3  -5  970.87   20.57 
  -4   3   2   32.71    2.28 
  -4   3   2   40.11    3.13 
   4  -3  -2   34.62    2.32 
  -4   3   2   32.23    3.65 
   4  -3  -2   28.81    3.67 
   4  -3  -2   31.74    2.03 
   4  -3   0  862.94   22.06 
   4  -3   0  864.31   22.79 
   4  -3   0  852.19   21.35 
  -4   3   0  836.75   21.05 
  -4   3   0  829.40   14.47 
  -4   3   0  862.14   22.73 
  -4   3   0  860.09   21.50 
   4  -3   0  827.92   14.68 
  -3   4  -1 1205.18   32.61 
  -3   4  -1 1171.21   29.84 
   3  -4   1 1245.40   30.06 
   3  -4   1 1227.84   26.05 
   3  -4   1 1179.15   30.01 
  -3   4  -1 1220.54   29.86 
  -3   4  -1 1204.06   27.47 
   3  -4   1 1234.53   34.07 
  -3   4   2  835.75   21.08 
  -3   4   2  816.00   23.31 
  -3   4   2  820.24   17.12 
  -3   4   2  818.94   21.75 
   3  -4  -2  804.73   21.86 
   3  -4  -2  816.75   16.79 
   3  -4  -2  846.07   21.09 
   3  -4  -2  832.06   23.50 
   0  -3  -4 1377.15   31.23 
   0  -3  -4 1336.32   29.22 
   0  -3  -4 1380.69   33.39 
   0   3   4 1383.62   33.41 
   0   3   4 1340.52   33.84 
   0   3   4 1349.67   30.20 
   0   3   4 1307.37   31.82 
   0   3   4 1359.26   30.87 
   3  -2   3 1255.48   27.72 
  -3   2  -3 1275.22   28.77 
  -3   2  -3 1270.79   29.16 
  -3   2  -3 1235.74   27.44 
   3  -2   3 1232.31   30.66 
   3  -2   3 1278.65   28.68 
   3  -2   3 1249.49   28.40 
  -3   2  -3 1252.57   28.24 
  -3  -4   3    0.92    1.78 
  -3  -4   3    2.13    0.93 
   3   4  -3    0.17    1.44 
   3   4  -3    0.73    0.90 
   3   4  -3    0.44    1.07 
   3   4  -3    1.63    0.89 
  -3  -4   3    3.62    0.87 
  -2   4   3  860.44   23.40 
  -2   4   3  869.98   22.08 
  -2   4   3  857.33   21.04 
  -2   4   3  855.52   20.25 
  -2   4   3  875.74   21.06 
   2  -4  -3  884.67   23.55 
   2  -4  -3  886.49   21.00 
   2  -4  -3  863.98   23.31 
   4   3  -1   57.96    2.76 
   4   3  -1   62.84    1.07 
  -4  -3   1   63.51    1.47 
  -4  -3   1   69.68    4.82 
  -4  -3   1   61.65    1.06 
   4   3  -1   66.28    2.91 
   4   3  -1   66.33    1.45 
   1  -5   2  415.71   12.55 
  -1   5  -2  418.54   13.31 
  -1   5  -2  409.09   10.96 
   1  -5   2  406.95   10.94 
   1  -5   2  422.28   10.40 
   1  -5   2  422.00    9.53 
  -1   5  -2  409.18    9.55 
  -1   5  -2  406.46   10.77 
   0   4   3 1552.49   41.89 
   0  -4  -3 1545.67   37.81 
   0   4   3 1538.68   39.17 
   0  -4  -3 1528.89   38.05 
   0   4   3 1534.09   37.89 
   0   4   3 1524.42   41.73 
   0  -4  -3 1563.41   39.82 
   1  -1   5  404.99    6.15 
   1  -1   5  418.78    9.35 
  -1   1  -5  412.04    8.93 
  -1   1  -5  413.89    9.54 
  -1   1  -5  424.20    7.25 
  -1   1  -5  419.21    9.29 
   1  -1   5  418.20    9.46 
   1  -1   5  410.58   10.41 
  -1   2   5  565.08   13.27 
  -1   2   5  559.62   13.72 
   1  -2  -5  575.85   13.41 
  -1   2   5  569.26   11.96 
   1  -2  -5  555.21   13.20 
   1  -2  -5  561.12   11.94 
   1  -2  -5  591.49   11.66 
   2   1   4 1599.88   36.35 
  -2  -1  -4 1566.69   39.72 
   2   1   4 1644.37   36.51 
  -2  -1  -4 1616.06   36.01 
  -2  -1  -4 1634.85   36.32 
   2   1   4 1613.98   40.77 
  -5   0   2  535.20   11.85 
   5   0  -2  528.22    9.04 
   5   0  -2  510.63    9.54 
   5   0  -2  529.07   11.74 
   5   0  -2  527.55   12.42 
  -5   0   2  552.24    9.89 
  -5   0   2  505.13    9.43 
   2  -2  -5 1286.37   28.52 
   2  -2  -5 1239.62   28.42 
   2  -2  -5 1253.83   30.92 
  -2   2   5 1267.23   30.92 
  -2   2   5 1283.93   30.37 
   2  -2  -5 1285.04   29.55 
  -2   2   5 1230.89   28.61 
  -4  -3   3  466.07   13.29 
   4   3  -3  443.50    8.31 
   4   3  -3  479.73   11.68 
   4   3  -3  447.83   10.76 
   4   3  -3  451.35    8.49 
  -4  -3   3  447.04    8.39 
  -4  -3   3  437.65    8.25 
   3   1   3 1377.90   28.33 
  -3  -1  -3 1355.94   27.31 
  -3  -1  -3 1377.27   28.19 
   3   1   3 1323.98   33.15 
   3   1   3 1352.57   27.65 
   3   1   3 1370.67   27.57 
   3   1   3 1379.65   33.67 
  -1   0  -5 1634.10   37.95 
   1   0   5 1624.51   37.87 
   1   0   5 1640.19   38.47 
   1   0   5 1617.03   38.66 
  -1   0  -5 1591.05   40.06 
  -1   0  -5 1637.52   38.45 
   0   3  -5 1251.77   29.57 
   0   3  -5 1276.18   29.43 
   0   3  -5 1262.56   28.48 
   0  -3   5 1237.49   29.69 
   0  -3   5 1269.74   30.92 
   0  -3   5 1333.24   29.09 
   0  -3   5 1283.63   28.81 
   0   3  -5 1286.03   31.20 
   2  -5   0  574.16   16.46 
   2  -5   0  572.72   14.17 
   2  -5   0  601.00   14.21 
  -2   5   0  560.60   14.48 
  -2   5   0  565.60   16.64 
  -2   5   0  592.52   14.67 
  -2   5   0  570.59   13.57 
   2  -5   0  568.84   17.39 
  -3  -4   0 1281.29   25.47 
  -3  -4   0 1259.80   36.75 
  -3  -4   0 1257.85   28.79 
   3   4   0 1302.49   30.17 
   3   4   0 1226.79   28.10 
   3   4   0 1241.12   35.47 
   3   4   0 1281.90   25.55 
   5   0  -1    1.57    0.84 
   5   0  -1    0.92    0.88 
   5   0  -1    3.20    0.58 
   5   0  -1    3.79    1.18 
  -5   0   1    3.27    0.59 
  -5   0   1    1.20    0.85 
   5   0  -1    3.16    0.67 
   1   5  -3 1801.11   48.83 
   1   5  -3 1748.49   46.58 
   1   5  -3 1810.13   45.10 
   1   5  -3 1800.36   43.48 
  -1  -5   3 1801.19   43.42 
  -1  -5   3 1762.59   47.11 
  -1  -5   3 1732.62   43.18 
  -1  -5   3 1785.88   44.75 
   5  -1  -2 1628.20   38.60 
   5  -1  -2 1516.85   28.19 
   5  -1  -2 1684.65   39.33 
  -5   1   2 1671.42   38.86 
  -5   1   2 1653.41   42.20 
   5  -1  -2 1657.21   42.30 
   5  -1  -2 1656.01   29.39 
   0  -5   3 1406.84   32.93 
   0   5  -3 1416.51   34.19 
   0   5  -3 1438.23   38.18 
   0   5  -3 1408.12   33.24 
   0   5  -3 1381.64   32.44 
   0  -5   3 1378.88   34.98 
   0  -5   3 1336.12   32.52 
   0  -5   3 1432.32   33.38 
   5   1  -2  318.07    7.00 
  -5  -1   2  322.83    5.24 
  -5  -1   2  329.32    7.92 
   5   1  -2  333.07    6.98 
  -5  -1   2  339.25    7.18 
   5   1  -2  323.73    5.27 
  -2   4  -3  745.48   17.18 
   2  -4   3  709.40   15.33 
   2  -4   3  730.77   17.56 
   2  -4   3  732.42   16.40 
  -2   4  -3  736.10   17.89 
  -2   4  -3  719.04   20.16 
  -2   4  -3  705.58   15.35 
   2  -4   3  757.80   20.29 
  -2  -5   1  323.78   11.43 
  -2  -5   1  297.86    6.83 
  -2  -5   1  303.78    7.84 
  -2  -5   1  305.57    7.10 
   2   5  -1  298.06    7.69 
   2   5  -1  305.94    7.02 
   2   5  -1  293.66    8.44 
   2   5  -1  302.13    8.66 
   4   2   1  302.21   10.03 
   4   2   1  341.61    9.26 
   4  -1   2 1212.75   24.81 
  -4   1  -2 1208.68   27.80 
   4  -1   2 1198.10   27.48 
   4  -1   2 1195.66   25.77 
  -4   1  -2 1192.89   25.87 
  -4   1  -2 1204.41   24.62 
   4  -1   2 1224.63   26.53 
   2   5  -2 1226.04   30.67 
   2   5  -2 1236.94   27.02 
  -2  -5   2 1206.49   28.46 
  -2  -5   2 1209.12   33.49 
  -2  -5   2 1219.72   30.11 
  -2  -5   2 1218.33   26.52 
   2   5  -2 1208.12   28.59 
   2   5  -2 1208.40   32.85 
   4   0   2  387.76    8.05 
   4   0   2  384.10    7.60 
  -4   0  -2  384.19    6.19 
   4   0   2  405.38    9.84 
   4   0   2  387.57    6.80 
   4   0   2  377.26    6.13 
  -4   0  -2  391.51    6.90 
  -3   3   4 1122.47   24.82 
  -3   3   4 1134.95   29.78 
  -3   3   4 1157.66   25.07 
  -3   3   4 1139.54   27.73 
   3  -3  -4 1151.30   30.17 
   3  -3  -4 1123.25   29.63 
   3  -3  -4 1157.17   28.09 
  -3   3   4 1166.30   30.25 
   4  -2  -4 1065.48   20.65 
  -4   2   4 1118.84   26.34 
  -4   2   4 1147.31   28.21 
  -4   2   4 1192.87   23.93 
   4  -2  -4 1113.92   26.54 
   4  -2  -4 1138.64   28.06 
   4  -2  -4 1123.75   26.39 
   5  -1  -1  730.56   15.62 
  -5   1   1  707.04   16.27 
  -5   1   1  749.54   16.14 
   5  -1  -1  730.11   12.97 
   5  -1  -1  704.63   16.22 
   5  -1  -1  752.82   12.30 
   5  -1  -1  730.50   15.50 
   1  -2   5  331.54    8.03 
  -1   2  -5  312.48    7.14 
  -1   2  -5  324.18    7.91 
  -1   2  -5  340.61    8.18 
   1  -2   5  332.54    8.11 
  -1   2  -5  330.23    7.72 
   1  -2   5  330.62    7.28 
   1  -2   5  330.53    6.58 
   5   0  -3  780.93   16.16 
   5   0  -3  800.69   17.18 
   5   0  -3  786.43   17.48 
  -5   0   3  789.06   16.99 
  -5   0   3  788.63   16.24 
  -5   0   3  779.96   17.37 
   5   0  -3  810.46   14.27 
   2  -5   1    4.32    1.40 
   2  -5   1    6.61    1.55 
   2  -5   1    5.15    1.82 
  -2   5  -1    9.08    2.73 
  -2   5  -1    3.49    1.57 
  -2   5  -1    5.52    1.35 
  -2   5  -1    7.58    1.51 
   2  -5   1    3.61    1.38 
  -2   5   1 2216.06   65.98 
   2  -5  -1 2231.92   65.75 
   2  -5  -1 2428.10   70.68 
  -2   5   1 2342.90   62.43 
   2  -5  -1 2312.51   61.72 
   2  -5  -1 2190.94   64.98 
  -2   5   1 2273.29   67.24 
  -2   5   1 2209.16   65.56 
   1   5   1  904.57   22.95 
  -1  -5  -1  902.46   23.18 
  -1  -5  -1  901.14   22.16 
  -1  -5  -1  928.03   24.11 
  -1  -5  -1  886.17   22.56 
   1   5   1  907.57   23.70 
   1   5   1  952.49   21.98 
   1   5   1  923.91   23.29 
   4   0  -5 1135.30   26.45 
   4   0  -5 1174.10   24.66 
   4   0  -5 1159.77   26.89 
  -4   0   5 1143.63   26.78 
   4   0  -5 1163.08   26.62 
  -4   0   5 1121.10   26.68 
  -4   0   5 1154.53   25.86 
   2   3   3  107.55    3.19 
   2   3   3  103.46    3.88 
  -2  -3  -3  105.35    3.17 
   2   3   3  102.08    4.02 
   2   3   3   99.60    3.80 
   2   3   3  112.68    2.80 
  -2  -3  -3  108.05    2.79 
  -4  -1   5 1830.31   44.55 
  -4  -1   5 1837.08   45.08 
  -4  -1   5 1850.33   45.34 
   4   1  -5 1823.78   44.75 
   4   1  -5 1869.33   44.37 
   4   1  -5 1824.97   44.47 
   5   1  -1 1070.14   19.88 
  -5  -1   1 1074.01   19.87 
  -5  -1   1 1044.07   23.48 
  -5  -1   1 1036.33   17.58 
   5   1  -1 1043.88   24.84 
   5   1  -1 1022.52   17.39 
  -1   4  -4   34.14    2.55 
  -1   4  -4   30.83    1.78 
  -1   4  -4   28.12    2.64 
  -1   4  -4   30.89    2.23 
   1  -4   4   34.64    2.58 
   1  -4   4   25.11    1.76 
   1  -4   4   26.49    2.58 
   1  -4   4   34.11    2.57 
  -5  -1   3   38.92    2.77 
  -5  -1   3   44.88    1.96 
   5   1  -3   43.85    1.72 
   5   1  -3   44.21    1.97 
   5   1  -3   45.08    1.95 
  -4   3   3 1449.82   29.56 
  -4   3   3 1343.77   33.63 
  -4   3   3 1413.80   27.00 
   4  -3  -3 1391.73   35.03 
  -4   3   3 1390.17   35.75 
  -4   3   3 1418.18   35.81 
   4  -3  -3 1212.72   31.31 
   4  -3  -3 1418.82   35.85 
   4  -3   1 1475.46   38.35 
  -4   3  -1 1439.77   35.53 
  -4   3  -1 1439.17   31.90 
  -4   3  -1 1420.98   36.71 
  -4   3  -1 1459.00   38.43 
   4  -3   1 1477.35   39.29 
   4  -3   1 1457.44   30.38 
   4  -3   1 1468.16   35.70 
   4   3   0  924.49   20.31 
   4   3   0  843.66   24.54 
  -4  -3   0  899.47   22.52 
   2   1  -6 1164.80   24.70 
  -2  -1   6 1155.87   27.59 
   2   1  -6 1160.65   27.51 
  -2  -1   6 1178.48   28.10 
  -2  -1   6 1191.69   27.31 
   2   1  -6 1174.89   28.10 
   2   1  -6 1181.74   26.18 
  -3  -3   5 1377.24   34.93 
   3   3  -5 1346.90   31.12 
   3   3  -5 1360.98   32.26 
   3   3  -5 1329.63   32.42 
  -3  -3   5 1327.04   30.99 
  -3  -3   5 1341.28   31.48 
   3   3  -5 1345.80   31.42 
  -2   3  -4  643.23   13.64 
  -2   3  -4  668.35   15.75 
  -2   3  -4  675.85   17.41 
   2  -3   4  658.94   15.04 
  -2   3  -4  663.00   14.94 
   2  -3   4  643.89   15.51 
   2  -3   4  641.63   14.79 
   2  -3   4  643.33   13.64 
   0  -2  -5  492.19   12.63 
   0  -2  -5  495.29   10.20 
   0  -2  -5  486.81    8.22 
   0  -2  -5  497.04   11.52 
   0   2   5  503.27   11.66 
   0   2   5  493.90   10.14 
   0   2   5  497.34   13.18 
   5  -1  -3  617.03    9.00 
   5  -1  -3  620.59   13.97 
   5  -1  -3  627.26   15.53 
   5  -1  -3  638.68   13.74 
  -5   1   3  622.08    9.66 
  -5   1   3  624.39   13.98 
  -5   1   3  619.34   15.42 
  -3   2   5 1051.26   23.61 
   3  -2  -5 1081.23   23.37 
   3  -2  -5  998.49   23.18 
  -3   2   5 1043.84   23.90 
   3  -2  -5 1065.03   24.14 
  -3   2   5 1077.83   26.70 
   3  -2  -5 1095.06   25.12 
  -1   5   2  858.50   23.64 
  -1   5   2  874.56   24.40 
  -1   5   2  847.43   21.58 
   1  -5  -2  927.62   25.81 
   1  -5  -2  873.92   24.41 
   1  -5  -2  878.46   22.17 
   1  -5  -2  855.63   22.54 
  -1   5   2  885.92   23.54 
   2   4   2  306.36    7.87 
   2   4   2  321.42    7.48 
  -2  -4  -2  334.05   11.52 
  -2  -4  -2  309.59    6.81 
  -2  -4  -2  326.43    7.18 
   2   4   2  331.90    7.17 
  -2  -4  -2  303.44    7.74 
   2   4   2  328.50   11.49 
  -1  -1   6 1242.99   29.69 
  -1  -1   6 1214.21   29.08 
  -1  -1   6 1242.98   30.82 
   1   1  -6 1228.42   29.83 
   1   1  -6 1277.20   26.94 
   1   1  -6 1238.51   29.69 
   1   1  -6 1248.83   29.51 
   2   0  -6   30.12    2.62 
   2   0  -6   29.11    2.28 
   2   0  -6   28.06    1.35 
  -2   0   6   28.11    2.46 
  -2   0   6   22.80    2.56 
   2   0  -6   24.52    2.54 
  -2   0   6   29.22    2.60 
  -3  -3  -2  215.77    3.83 
  -3  -3  -2  217.92    4.99 
   3   3   2  220.97    5.12 
   3   3   2  229.41    8.26 
   3   3   2  224.43    4.77 
   3   3   2  221.61    6.69 
   3   3   2  222.48    3.91 
  -1  -1  -5  115.73    4.83 
   1   1   5  117.60    4.81 
  -1  -1  -5  110.04    3.59 
  -1  -1  -5  109.44    2.68 
   1   1   5  113.20    3.59 
   1   1   5  104.33    2.62 
   3   4  -4  502.58   12.60 
  -3  -4   4  499.98   11.91 
  -3  -4   4  515.44   11.20 
  -3  -4   4  507.50   11.44 
   3   4  -4  511.50   11.35 
   3   4  -4  511.68   11.16 
   3   4  -4  508.07   13.59 
   2   5   0   49.02    4.85 
  -2  -5   0   46.01    3.09 
  -2  -5   0   43.99    2.92 
   2   5   0   44.38    2.46 
  -2  -5   0   47.80    5.22 
  -2  -5   0   47.81    2.47 
   2   5   0   50.48    2.19 
   2   5   0   46.15    3.01 
  -4   2  -2  163.36    4.17 
   4  -2   2  151.73    4.01 
  -4   2  -2  163.24    4.77 
  -4   2  -2  167.25    4.73 
   4  -2   2  168.60    4.41 
   4  -2   2  156.59    3.79 
   4  -2   2  158.80    4.67 
  -4   2  -2  149.14    3.97 
  -4  -3   4 1827.69   43.15 
   4   3  -4 1910.00   44.53 
  -4  -3   4 1907.60   48.89 
  -4  -3   4 1885.39   44.33 
   4   3  -4 1866.18   45.39 
   4   3  -4 1868.57   44.33 
   4   3  -4 1938.84   49.17 
   5   0   0  828.70   16.42 
  -5   0   0  803.68   14.37 
   5   0   0  794.22   18.85 
  -5   0   0  800.74   15.01 
   5   0   0  813.31   14.50 
   5   0   0  859.62   19.29 
   5   0   0  813.92   15.12 
   2   5  -3 1545.10   36.94 
   2   5  -3 1536.92   41.86 
   2   5  -3 1551.23   37.65 
  -2  -5   3 1476.11   35.67 
  -2  -5   3 1500.04   41.02 
  -2  -5   3 1527.35   36.89 
  -2  -5   3 1543.33   36.82 
   2   5  -3 1501.89   36.44 
  -3   3  -3   81.93    3.73 
   3  -3   3   74.88    4.39 
  -3   3  -3   73.48    3.23 
   3  -3   3   71.78    2.92 
   3  -3   3   73.57    3.25 
  -3   3  -3   74.80    3.23 
   3  -3   3   77.24    3.43 
  -3   3  -3   73.52    3.50 
  -3   4  -2 1490.66   38.63 
  -3   4  -2 1474.53   34.93 
  -3   4  -2 1452.76   36.61 
  -3   4  -2 1490.43   38.59 
   3  -4   2 1444.30   36.33 
   3  -4   2 1455.42   40.99 
   3  -4   2 1504.40   38.73 
   3  -4   2 1482.49   33.92 
  -3   4   3 1365.40   38.44 
   3  -4  -3 1369.74   38.08 
  -3   4   3 1367.87   36.28 
  -3   4   3 1307.62   29.91 
  -3   4   3 1379.42   38.96 
   3  -4  -3 1374.79   38.16 
   3  -4  -3 1408.50   37.36 
  -3   4   3 1361.27   32.30 
   1   0  -6  362.66    9.10 
  -1   0   6  367.66    8.25 
   1   0  -6  381.51    6.28 
   1   0  -6  374.23    9.62 
  -1   0   6  362.21    7.84 
   1   0  -6  364.86    5.82 
  -1   0   6  368.87    9.25 
   1   0  -6  364.93    7.78 
   4   1   2   36.75    0.95 
   4   1   2   37.25    1.11 
   4   1   2   44.64    2.66 
   4   1   2   34.16    1.74 
  -4  -1  -2   36.94    0.93 
  -4  -1  -2   39.38    1.15 
   4   1   2   45.83    3.13 
   0   5   2  993.29   24.67 
   0  -5  -2  965.02   25.50 
   0  -5  -2 1039.80   25.30 
   0  -5  -2  993.41   26.85 
   0  -5  -2 1026.73   27.78 
   0   5   2 1003.96   26.78 
   0   5   2  976.22   26.64 
   0   5   2 1020.77   28.31 
   5  -1   0   17.61    1.45 
   5  -1   0   19.26    1.53 
  -5   1   0   18.38    2.29 
   5  -1   0   20.30    0.95 
   5  -1   0   20.40    1.36 
  -5   1   0   20.08    1.31 
   5  -1   0   27.03    2.37 
  -1  -4  -3 1369.36   34.91 
  -1  -4  -3 1365.57   30.92 
  -1  -4  -3 1428.07   32.99 
   1   4   3 1367.21   35.56 
   1   4   3 1342.18   37.30 
   1   4   3 1417.20   34.67 
   1   4   3 1383.20   35.88 
   1   4   3 1372.46   33.01 
   4  -1  -5  106.09    3.95 
   4  -1  -5  106.90    2.71 
   4  -1  -5  107.71    3.23 
  -4   1   5  104.13    3.22 
  -4   1   5  113.74    3.25 
  -4   1   5  113.03    3.15 
   4  -1  -5  108.23    3.12 
   1  -5   3  814.40   20.17 
   1  -5   3  802.17   18.08 
   1  -5   3  813.82   18.03 
   1  -5   3  846.47   22.31 
  -1   5  -3  819.88   20.68 
  -1   5  -3  804.33   18.08 
  -1   5  -3  809.80   20.39 
  -1   5  -3  808.53   20.20 
   1   3   4 1371.10   33.25 
  -1  -3  -4 1381.18   33.29 
  -1  -3  -4 1461.22   34.15 
  -1  -3  -4 1448.63   28.85 
   1   3   4 1412.25   33.36 
   1   3   4 1434.19   32.05 
   1   3   4 1379.89   34.07 
   1   3   4 1450.88   39.04 
   5  -2  -2  259.25    6.97 
   5  -2  -2  258.44    6.33 
  -5   2   2  275.61    8.91 
  -5   2   2  272.37    7.72 
   5  -2  -2  258.28    7.62 
  -5   2   1 1663.61   43.32 
   5  -2  -1 1687.13   43.47 
   5  -2  -1 1680.21   44.28 
   5  -2  -1 1690.98   41.25 
  -5   2   1 1676.19   43.90 
  -5   2   1 1692.57   43.15 
  -2  -2   6  725.02   18.00 
   2   2  -6  727.51   17.49 
   2   2  -6  687.07   16.29 
   2   2  -6  724.33   15.49 
   2   2  -6  736.77   15.75 
  -2  -2   6  713.81   16.64 
  -2  -2   6  713.90   15.34 
  -4  -2   5  104.87    3.16 
  -4  -2   5  108.69    3.64 
  -4  -2   5  107.60    3.63 
   4   2  -5   98.05    3.54 
   4   2  -5  106.27    3.57 
   4   2  -5  110.17    3.70 
  -1  -2   6  426.27   11.29 
   1   2  -6  416.44   10.38 
   1   2  -6  419.67    9.15 
  -1  -2   6  414.71   10.36 
   1   2  -6  422.38   10.99 
   1   2  -6  426.79    8.98 
  -1  -2   6  438.64   10.76 
   5   2  -2 1767.40   37.50 
   5   2  -2 1768.34   43.95 
   5   2  -2 1735.02   35.01 
  -5  -2   2 1757.60   35.44 
  -5  -2   2 1683.88   46.40 
  -5  -2   2 1768.80   37.43 
   2  -5   2  273.07    7.91 
  -2   5  -2  263.12    8.62 
   2  -5   2  254.58    6.65 
   2  -5   2  242.26    8.09 
   2  -5   2  260.85    8.43 
  -2   5  -2  248.80    7.13 
  -2   5  -2  255.54    8.16 
  -2   5  -2  241.18    7.63 
  -1  -4   5 1012.68   22.41 
  -1  -4   5 1073.83   25.46 
   1   4  -5 1040.91   24.88 
   1   4  -5 1050.14   25.83 
   1   4  -5 1018.10   23.63 
   1   4  -5 1025.49   22.65 
  -1  -4   5 1053.89   24.30 
  -1  -4   5 1031.94   26.15 
   2  -5  -2 2011.16   55.67 
   2  -5  -2 2059.63   56.11 
  -2   5   2 1955.21   58.27 
  -2   5   2 2068.91   55.94 
   2  -5  -2 2042.06   54.95 
   2  -5  -2 1985.54   58.60 
  -2   5   2 1996.31   55.54 
  -2   5   2 2029.35   58.18 
   3   2   3  863.87   15.78 
  -3  -2  -3  851.98   15.67 
  -3  -2  -3  837.80   15.77 
   3   2   3  877.37   16.09 
   3   2   3  870.39   22.10 
   3   2   3  842.02   15.98 
   3   2   3  861.82   22.79 
   2   2   4   66.62    2.26 
  -2  -2  -4   66.94    2.28 
   2   2   4   62.75    1.41 
   2   2   4   63.97    2.91 
   2   2   4   64.81    2.36 
   2   2   4   72.56    4.25 
  -2  -2  -4   64.18    2.35 
   5   0  -4  855.49   17.65 
  -5   0   4  851.38   19.82 
   5   0  -4  875.36   16.41 
   5   0  -4  881.54   20.18 
  -5   0   4  870.73   17.84 
  -5   0   4  901.58   19.06 
   5   0  -4  868.56   20.84 
  -3  -1   6 1336.33   32.30 
  -3  -1   6 1369.26   33.61 
   3   1  -6 1299.58   31.57 
  -3  -1   6 1325.77   32.05 
   3   1  -6 1307.59   31.83 
   3   1  -6 1328.62   31.52 
  -3  -4  -1  197.79    4.52 
   3   4   1  185.75    5.14 
   3   4   1  201.63    4.52 
  -3  -4  -1  190.24    8.60 
  -3  -4  -1  190.41    3.87 
   3   4   1  191.88    8.85 
   3   4   1  189.87    3.88 
   1  -3   5 1195.86   28.79 
  -1   3  -5 1166.27   29.91 
  -1   3  -5 1186.51   28.66 
  -1   3  -5 1181.45   28.19 
   1  -3   5 1182.33   28.23 
   1  -3   5 1179.77   28.99 
   1  -3   5 1228.94   27.13 
  -1   3  -5 1207.50   28.13 
   5   1   0 1869.46   46.05 
   5   1   0 1879.63   46.33 
   5   1   0 1793.66   48.58 
  -5  -2   3 1003.92   20.01 
   5   2  -3 1020.71   21.67 
   5   2  -3  970.88   18.83 
   5   2  -3  990.78   19.74 
  -5  -2   3  981.50   19.07 
  -5  -2   3  958.72   25.99 
  -3   0   6   38.68    1.94 
   3   0  -6   33.91    1.94 
   3   0  -6   31.78    1.89 
   3   0  -6   35.52    1.88 
  -3   0   6   31.95    2.59 
  -3   0   6   34.46    1.91 
   3   0  -6   34.80    2.21 
  -5  -1   4  519.52   12.40 
  -5  -1   4  500.84   10.57 
  -5  -1   4  490.68    9.78 
   5   1  -4  498.30   10.52 
   5   1  -4  512.88   10.18 
   5   1  -4  507.00    9.98 
   2   4  -5  851.57   19.42 
   2   4  -5  882.26   21.21 
   2   4  -5  868.80   20.12 
   2   4  -5  867.08   18.84 
  -2  -4   5  863.64   18.74 
  -2  -4   5  845.38   19.83 
  -2  -4   5  859.69   22.46 
  -2  -4   5  907.04   20.70 
  -4   4   1  433.84   11.65 
  -4   4   1  405.56   10.67 
   4  -4  -1  426.35   11.52 
   4  -4  -1  419.36   13.17 
  -4   4   1  422.79    7.27 
   4  -4  -1  415.78   13.37 
   4  -4  -1  417.92    7.89 
  -4   4   1  430.68   13.40 
   2  -1  -6  360.76    6.96 
   2  -1  -6  349.41    8.63 
   2  -1  -6  358.69    9.68 
   2  -1  -6  360.90    9.56 
  -2   1   6  363.95    9.47 
  -2   1   6  362.29    9.49 
  -2   1   6  353.62    9.24 
   5   2  -1 1038.61   25.08 
  -5  -2   1 1025.04   26.58 
  -1  -5   4  784.38   17.33 
   1   5  -4  804.72   17.68 
  -1  -5   4  816.93   21.33 
  -1  -5   4  812.24   19.96 
   1   5  -4  788.41   21.18 
  -1  -5   4  839.43   20.05 
   1   5  -4  816.20   21.32 
   1   5  -4  806.13   19.63 
   0   1  -6 1170.79   24.68 
   0   1  -6 1179.18   26.22 
   0   1  -6 1210.51   29.82 
   0  -1   6 1207.40   28.60 
   0  -1   6 1187.91   30.00 
   0  -1   6 1179.32   26.27 
   0   1  -6 1231.52   29.28 
  -1   4   4  823.63   21.64 
   1  -4  -4  823.68   21.32 
   1  -4  -4  841.34   21.26 
   1  -4  -4  821.14   21.54 
  -1   4   4  783.41   21.11 
  -1   4   4  798.01   20.40 
  -1   4   4  818.01   19.52 
  -1   4   4  768.71   18.44 
   5  -2  -3   12.31    2.31 
   5  -2  -3   11.89    2.63 
  -5   2   3   13.49    1.41 
   5  -2  -3   11.06    1.42 
  -5   2   3   16.42    2.72 
   4  -4   0   41.66    3.85 
   4  -4   0   38.25    4.47 
  -4   4   0   44.05    2.88 
  -4   4   0   44.00    3.81 
  -4   4   0   49.33    4.35 
   4  -4   0   43.59    1.83 
  -4   4   0   45.64    1.43 
   4  -4   0   39.36    2.99 
   1  -1  -6  268.40    6.20 
   1  -1  -6  263.84    7.43 
   1  -1  -6  272.50    7.51 
  -1   1   6  274.07    7.50 
  -1   1   6  259.74    7.44 
  -1   1   6  265.72    8.12 
   1  -1  -6  278.89    5.18 
  -4  -4   2  713.84   13.19 
  -4  -4   2  699.98   18.96 
   4   4  -2  718.52   14.40 
  -4  -4   2  708.34   14.22 
   4   4  -2  711.62   17.23 
   4   4  -2  728.82   13.32 
   4   4  -2  741.15   17.65 
   5  -2   0  968.31   17.47 
   5  -2   0  979.92   19.47 
  -5   2   0  937.21   21.10 
  -5   2   0  918.02   23.59 
  -5   2   0  942.42   22.15 
   5  -2   0  945.49   23.57 
   5  -2   0  973.40   22.60 
   5  -2   0  936.92   23.87 
   0  -4   5  678.33   16.58 
   0   4  -5  688.86   17.83 
   0   4  -5  648.58   16.73 
   0   4  -5  683.17   16.93 
   0   4  -5  679.41   16.67 
   0  -4   5  702.56   16.15 
   0  -4   5  678.06   17.10 
   0  -4   5  686.28   16.76 
  -2   4   4  542.44   13.50 
  -2   4   4  555.51   13.66 
  -2   4   4  545.14   13.79 
   2  -4  -4  538.73   13.44 
  -2   4   4  553.50   14.21 
   2  -4  -4  535.83   13.40 
   2  -4  -4  574.37   15.19 
  -2   4   4  559.39   14.04 
   5  -1  -4  141.96    5.12 
  -5   1   4  140.72    4.60 
  -5   1   4  137.95    3.90 
   5  -1  -4  142.56    4.76 
  -5   1   4  138.74    3.26 
   5  -1  -4  138.95    2.45 
   5  -1  -4  137.78    3.83 
   3  -5   0  683.64   17.74 
   3  -5   0  653.61   19.70 
   3  -5   0  690.83   20.99 
  -3   5   0  670.88   19.81 
  -3   5   0  681.61   16.17 
  -3   5   0  702.72   20.90 
  -3   5   0  669.96   20.65 
   3  -5   0  669.01   15.07 
   0   0   6  315.12    8.30 
   0   0   6  320.86    9.49 
   0   0  -6  327.69    8.44 
   0   0   6  321.85    6.89 
   0   0  -6  332.01    6.91 
   0   0  -6  328.59    7.59 
   3  -1   4   85.08    3.65 
   3  -1   4   83.45    2.78 
  -3   1  -4   84.68    3.87 
  -3   1  -4   79.17    2.94 
  -3   1  -4   82.11    2.76 
   3  -1   4   84.45    2.90 
   3  -1   4   78.82    2.97 
   2  -3  -5  656.11   17.30 
  -2   3   5  667.55   17.33 
  -2   3   5  630.90   16.83 
  -2   3   5  647.68   16.18 
  -2   3   5  641.48   15.38 
   2  -3  -5  657.38   17.32 
  -2   3   5  632.49   14.09 
  -1   3   5  906.58   20.41 
  -1   3   5  888.20   22.26 
  -1   3   5  900.89   23.31 
   1  -3  -5  892.64   22.76 
   1  -3  -5  887.64   22.27 
   1  -3  -5  933.47   21.05 
  -1   3   5  886.67   22.25 
  -1   3   5  891.32   19.41 
  -3  -2   6  610.43   12.96 
   3   2  -6  606.50   12.96 
  -3  -2   6  630.88   14.90 
  -3  -2   6  641.10   16.03 
   3   2  -6  616.79   14.79 
   3   2  -6  625.45   14.96 
   3   2  -6  633.94   14.20 
  -4   4   2  712.35   13.01 
  -4   4   2  720.73   21.12 
  -4   4   2  740.17   20.85 
   4  -4  -2  741.51   18.96 
  -4   4   2  724.86   18.82 
  -4   4   2  709.39   13.06 
   4  -4  -2  719.61   20.23 
   4  -4  -2  681.79   20.72 
   0   5  -4  424.60   11.19 
   0   5  -4  432.53   11.90 
   0  -5   4  418.59   11.13 
   0  -5   4  409.73    9.59 
   0  -5   4  427.42   11.77 
   0  -5   4  450.81   11.92 
   0   5  -4  412.16   12.76 
   0   5  -4  447.25   11.78 
   3  -5  -1 1326.47   35.51 
   3  -5  -1 1411.83   37.77 
   3  -5  -1 1411.22   36.96 
  -3   5   1 1349.07   36.00 
  -3   5   1 1292.25   30.73 
  -3   5   1 1400.73   37.74 
  -3   5   1 1332.99   35.27 
   3  -5  -1 1364.92   32.29 
   1   5   2 1173.88   31.32 
   1   5   2 1169.46   30.53 
   1   5   2 1234.07   31.99 
   1   5   2 1150.66   30.27 
  -1  -5  -2 1199.77   31.34 
  -1  -5  -2 1198.35   31.72 
  -1  -5  -2 1182.99   30.86 
  -1  -5  -2 1162.52   28.76 
   3   0   4  748.75   15.20 
  -3   0  -4  750.22   15.08 
   3   0   4  761.33   14.84 
   3   0   4  785.87   16.11 
   3   0   4  764.58   18.57 
  -3   0  -4  787.15   19.63 
  -3   0  -4  789.27   16.04 
  -4  -4   3   10.36    1.88 
   4   4  -3    7.80    1.14 
  -4  -4   3    6.36    1.03 
  -4  -4   3    6.38    1.13 
   4   4  -3    4.77    2.01 
   4   4  -3    9.71    2.33 
   4   4  -3   11.60    1.03 
   3   5  -2  666.59   19.66 
   3   5  -2  683.44   15.06 
  -3  -5   2  704.45   17.41 
  -3  -5   2  687.89   14.59 
  -3  -5   2  725.68   22.34 
  -3  -5   2  684.11   15.05 
   3   5  -2  694.06   14.79 
   3   5  -2  713.57   17.71 
  -2  -5  -1  818.75   20.29 
   2   5   1  811.61   20.13 
  -2  -5  -1  816.68   19.52 
  -2  -5  -1  825.30   25.55 
  -2  -5  -1  825.03   19.61 
   2   5   1  820.38   25.17 
   2   5   1  848.78   19.94 
   2   5   1  821.81   20.42 
   0   2  -6  415.30   10.34 
   0  -2   6  422.31   10.50 
   0  -2   6  411.30   10.33 
   0  -2   6  416.08   11.41 
   0   2  -6  393.01    9.76 
   0   2  -6  415.09   10.69 
   0   2  -6  414.37   11.04 
   4  -3  -4 1507.72   41.60 
   4  -3  -4 1458.85   39.98 
   4  -3  -4 1505.37   36.64 
  -4   3   4 1527.45   34.11 
  -4   3   4 1499.58   31.92 
  -4   3   4 1485.93   38.82 
  -4   3   4 1491.88   41.75 
  -4   3   4 1484.47   40.39 
  -4  -4   1 1378.28   27.19 
  -4  -4   1 1399.67   30.49 
   4   4  -1 1368.78   27.08 
  -4  -4   1 1312.31   36.50 
   4   4  -1 1364.44   36.15 
   4   4  -1 1414.04   30.73 
   4   4  -1 1398.14   33.80 
   4   3   1 1867.61   55.86 
   4   3   1 1945.04   46.37 
  -4  -3  -1 1967.15   52.58 
   0  -6   1  795.18   20.10 
   0  -6   1  829.25   22.57 
   0   6  -1  816.74   22.85 
   0  -6   1  854.98   23.54 
   0  -6   1  853.59   22.77 
   0   6  -1  815.68   22.62 
   0   6  -1  844.78   21.38 
   0   6  -1  843.70   22.44 
  -2   1  -5  322.59    9.31 
  -2   1  -5  328.11    7.79 
  -2   1  -5  326.72    5.23 
  -2   1  -5  320.48    7.85 
   2  -1   5  331.16    5.49 
   2  -1   5  321.29    8.96 
   2  -1   5  329.87    7.72 
   2  -1   5  330.04    7.90 
  -4   3  -2  785.49   19.69 
  -4   3  -2  809.28   18.66 
   4  -3   2  795.82   21.77 
  -4   3  -2  798.54   20.27 
   4  -3   2  819.71   16.75 
   4  -3   2  809.19   20.13 
  -4   3  -2  794.33   17.26 
   4  -3   2  809.62   18.62 
  -2  -5   4  828.66   19.99 
  -2  -5   4  852.69   21.06 
   2   5  -4  868.17   20.18 
   2   5  -4  832.51   19.76 
   2   5  -4  870.46   23.58 
   2   5  -4  854.12   20.18 
  -2  -5   4  858.90   23.33 
  -2  -5   4  846.79   19.91 
  -3   1   6  949.27   23.53 
  -3   1   6  935.69   22.43 
   3  -1  -6  933.27   23.41 
   3  -1  -6  933.12   20.47 
   3  -1  -6  947.38   23.24 
   3  -1  -6  954.90   20.14 
  -3   1   6  924.73   23.00 
   3   5  -1  883.04   20.35 
  -3  -5   1  894.05   21.85 
  -3  -5   1  898.32   18.73 
   3   5  -1  880.87   18.62 
   3   5  -1  904.28   22.58 
   3   5  -1  905.77   23.50 
  -3  -5   1  894.32   20.54 
  -3  -5   1  943.01   28.94 
  -4  -2  -2  985.17   17.11 
  -4  -2  -2 1014.54   16.74 
   4   2   2 1018.33   20.98 
   4   2   2 1040.78   28.37 
   4   2   2  975.64   16.35 
   4   2   2 1010.10   24.06 
   4   2   2 1009.46   17.56 
   1   2   5  633.26   14.91 
  -1  -2  -5  586.78   13.73 
  -1  -2  -5  610.66   13.76 
  -1  -2  -5  607.61   13.61 
   1   2   5  591.72   13.59 
   1   2   5  620.49   13.80 
  -2  -3   6  117.76    4.52 
   2   3  -6  120.43    5.17 
   2   3  -6  113.85    4.20 
   2   3  -6  117.84    3.45 
   2   3  -6  116.83    4.57 
  -2  -3   6  121.28    3.97 
  -2  -3   6  122.73    3.55 
   1   3  -6  458.53   11.55 
   1   3  -6  466.30   12.10 
   1   3  -6  464.05   11.03 
   1   3  -6  475.70   12.66 
  -1  -3   6  471.39   12.16 
  -1  -3   6  463.22   11.61 
  -1  -3   6  468.10   10.77 
   5   2  -4    3.46    1.03 
  -5  -2   4    5.91    1.10 
  -5  -2   4    1.99    1.03 
  -5  -2   4    4.64    1.92 
   5   2  -4    6.70    1.08 
   5   2  -4    7.17    1.27 
   0  -4  -4 1464.59   35.47 
   0  -4  -4 1418.28   37.54 
   0   4   4 1448.55   35.15 
   0  -4  -4 1417.23   34.06 
   0   4   4 1475.92   35.34 
   0   4   4 1412.75   38.26 
   0   4   4 1418.65   37.60 
   0   4   4 1410.99   39.52 
   5   0   1 1198.23   22.50 
   5   0   1 1154.73   29.01 
  -5   0  -1 1191.58   22.32 
  -5   0  -1 1163.73   24.64 
   5   0   1 1157.47   24.54 
   5   0   1 1204.72   26.61 
   5   0   1 1214.36   26.89 
   2   0   5 1607.06   39.42 
  -2   0  -5 1630.79   42.17 
   2   0   5 1606.02   38.49 
   2   0   5 1625.75   38.08 
  -2   0  -5 1604.77   37.76 
  -2   0  -5 1595.40   36.42 
   4  -2  -5 1325.87   28.53 
  -4   2   5 1316.00   34.07 
  -4   2   5 1302.12   28.89 
   4  -2  -5 1296.22   33.98 
  -4   2   5 1353.26   34.91 
   4  -2  -5 1352.93   32.86 
   4  -2  -5 1370.38   35.20 
   3  -2   4 1629.65   38.49 
   3  -2   4 1588.84   41.98 
   3  -2   4 1641.44   38.46 
   3  -2   4 1661.26   39.52 
  -3   2  -4 1642.06   39.87 
  -3   2  -4 1686.21   42.66 
  -3   2  -4 1677.70   39.71 
  -3   2  -4 1641.31   38.11 
   5  -1   1  255.60    6.57 
   5  -1   1  252.72    6.93 
   5  -1   1  263.24    5.29 
   5  -1   1  252.96    6.46 
   5  -1   1  256.74    4.93 
  -5   1  -1  259.62    6.49 
  -5   1  -1  253.79    4.87 
   0  -6   0 1103.46   30.88 
   0  -6   0 1126.76   31.76 
   0  -6   0 1111.42   30.85 
   0   6   0 1077.92   27.09 
   0   6   0 1132.83   31.70 
   0   6   0 1089.27   30.44 
   0   6   0 1079.10   31.11 
   0  -6   0 1084.10   26.96 
  -3   5  -1   64.36    5.40 
  -3   5  -1   58.66    4.61 
  -3   5  -1   66.56    2.82 
  -3   5  -1   65.15    4.99 
   3  -5   1   63.27    2.69 
   3  -5   1   77.89    6.03 
   3  -5   1   65.54    4.66 
   3  -5   1   72.05    5.08 
  -3  -5   3 1118.41   29.39 
  -3  -5   3 1144.80   26.52 
   3   5  -3 1174.10   32.55 
   3   5  -3 1181.39   26.92 
   3   5  -3 1137.61   26.59 
  -3  -5   3 1160.44   26.59 
   3   5  -3 1174.96   30.12 
  -3  -5   3 1192.09   27.73 
   2  -4   4   37.73    2.62 
   2  -4   4   30.78    2.75 
   2  -4   4   31.95    2.93 
   2  -4   4   35.14    3.20 
  -2   4  -4   28.10    2.56 
  -2   4  -4   28.98    2.88 
  -2   4  -4   37.92    2.78 
  -2   4  -4   35.69    2.97 
  -1   5   3  276.14    9.28 
   1  -5  -3  298.11   10.71 
   1  -5  -3  319.59   10.88 
  -1   5   3  301.78    8.38 
  -1   5   3  307.55    9.70 
  -1   5   3  298.17   10.61 
   1  -5  -3  302.19    8.27 
  -4  -3   5  661.62   14.83 
   4   3  -5  684.47   16.59 
   4   3  -5  656.54   14.90 
   4   3  -5  666.91   14.58 
  -4  -3   5  642.90   17.12 
   4   3  -5  678.74   15.05 
  -4  -3   5  673.46   15.01 
   0   6  -2   38.81    2.41 
   0   6  -2   39.83    3.95 
   0  -6   2   40.53    3.57 
   0   6  -2   46.73    3.59 
   0  -6   2   44.74    3.58 
   0  -6   2   37.20    3.82 
   0   6  -2   39.50    3.13 
   0  -6   2   37.73    2.83 
  -1   6  -1  884.15   24.09 
  -1   6  -1  934.33   25.73 
  -1   6  -1  948.13   28.40 
  -1   6  -1  887.61   22.52 
   1  -6   1  899.79   23.89 
   1  -6   1  940.07   27.69 
   1  -6   1  930.42   25.65 
   1  -6   1  903.86   22.87 
   1  -6   0 1051.38   30.00 
   1  -6   0 1011.46   28.84 
  -1   6   0 1012.53   25.13 
  -1   6   0 1044.80   29.57 
  -1   6   0 1065.46   28.15 
   1  -6   0 1086.14   29.03 
   1  -6   0 1062.02   31.33 
  -1   6   0 1033.87   29.73 
  -1  -6   1  648.91   20.10 
   1   6  -1  627.96   16.31 
   1   6  -1  636.56   18.31 
  -1  -6   1  612.59   14.66 
  -1  -6   1  627.41   15.05 
   1   6  -1  619.76   14.79 
   1   6  -1  624.07   14.31 
  -1  -6   1  624.55   14.28 
   2  -2   5  323.47    6.93 
   2  -2   5  315.34    6.43 
   2  -2   5  325.67    8.87 
   2  -2   5  320.61    8.09 
  -2   2  -5  326.18    8.14 
  -2   2  -5  327.46    7.56 
  -2   2  -5  322.07    6.94 
  -2   2  -5  317.67    6.60 
  -3  -4   5 1463.37   35.24 
  -3  -4   5 1488.49   40.14 
  -3  -4   5 1444.42   33.49 
   3   4  -5 1466.32   33.84 
   3   4  -5 1487.16   35.50 
   3   4  -5 1435.13   37.47 
   3   4  -5 1466.24   35.06 
   4  -4   1  894.93   21.22 
   4  -4   1  936.49   26.49 
   4  -4   1  905.82   18.20 
  -4   4  -1  895.26   22.52 
  -4   4  -1  899.00   25.42 
  -4   4  -1  937.62   19.55 
  -4   4  -1  874.16   21.17 
   4  -4   1  921.09   25.54 
  -5  -2   0   46.90    3.40 
   5   2   0   46.22    4.13 
   4  -1   3 1856.93   42.55 
  -4   1  -3 1854.82   45.37 
  -4   1  -3 1839.05   47.12 
  -4   1  -3 1854.68   42.30 
   4  -1   3 1800.34   45.09 
   4  -1   3 1819.25   45.02 
   4  -1   3 1866.71   45.41 
  -5   3   1   73.99    4.68 
   5  -3  -1   74.67    4.98 
  -5   3   1   70.02    4.68 
   5  -3  -1   75.27    4.62 
  -5   3   1   77.78    5.02 
   5  -3  -1   72.28    4.77 
  -3   5   2 1100.00   29.73 
  -3   5   2 1135.32   26.80 
   3  -5  -2 1121.33   30.05 
   3  -5  -2 1105.15   31.71 
   3  -5  -2 1141.26   34.07 
   3  -5  -2 1121.09   26.30 
  -3   5   2 1084.20   31.33 
  -3   5   2 1147.26   34.30 
   3  -3  -5  487.71   13.87 
  -3   3   5  482.92   10.60 
  -3   3   5  528.14   14.61 
  -3   3   5  506.70   11.80 
   3  -3  -5  497.31   12.24 
  -3   3   5  484.13   11.00 
   3  -3  -5  488.89   12.50 
  -3   3   5  485.95   13.92 
  -1  -6   2    8.13    1.50 
  -1  -6   2    1.29    2.03 
   1   6  -2    1.44    1.72 
   1   6  -2    2.62    2.30 
   1   6  -2   -1.98    2.28 
   1   6  -2    0.50    1.77 
  -1  -6   2    2.92    1.67 
  -1  -6   2    2.38    1.14 
  -4   0  -3   54.98    1.98 
  -4   0  -3   55.52    1.79 
   4   0   3   55.68    2.20 
   4   0   3   55.48    3.04 
   4   0   3   54.91    1.77 
   4   0   3   49.71    2.00 
   5  -3  -2  194.73    5.79 
  -5   3   2  197.56    6.24 
   5  -3  -2  210.81    6.35 
   5  -3  -2  201.82    7.68 
  -5   3   2  190.00    5.85 
  -5   3   2  204.12    7.62 
   0  -1  -6   73.54    3.53 
   0  -1  -6   76.82    3.63 
   0   1   6   79.72    4.48 
   0  -1  -6   73.02    4.28 
   0   1   6   73.67    3.52 
   0   1   6   69.00    3.64 
   0   3   5 1025.27   25.47 
   0   3   5 1027.31   26.85 
   0  -3  -5 1043.90   23.64 
   0  -3  -5 1014.92   20.44 
   0  -3  -5 1048.14   25.92 
   0   3   5 1075.09   28.67 
   0   3   5 1021.19   20.72 
   0   3   5 1025.06   25.24 
  -3   4  -3  729.90   17.42 
   3  -4   3  742.20   21.47 
   3  -4   3  727.62   16.18 
   3  -4   3  735.77   17.00 
  -3   4  -3  736.22   16.39 
   3  -4   3  746.40   16.78 
  -3   4  -3  773.99   19.20 
  -3   4  -3  732.45   17.06 
  -3   4   4  499.79   12.84 
   3  -4  -4  532.83   14.64 
   3  -4  -4  505.69   15.55 
   3  -4  -4  470.06   12.61 
  -3   4   4  488.99   13.59 
  -3   4   4  496.12   11.48 
  -3   4   4  502.52   15.44 
  -3   4   4  495.94   11.83 
  -2   5  -3 1121.36   28.23 
   2  -5   3 1171.08   29.89 
   2  -5   3 1147.45   30.12 
   2  -5   3 1200.81   28.86 
   2  -5   3 1181.81   30.32 
  -2   5  -3 1151.51   30.30 
  -2   5  -3 1123.13   33.70 
  -2   5  -3 1165.51   29.98 
  -2   5   3   21.58    3.97 
   2  -5  -3   20.91    2.61 
   2  -5  -3   26.39    2.34 
  -2   5   3   22.50    3.17 
   2  -5  -3   20.76    3.83 
  -2   5   3   25.83    1.68 
  -2   5   3   21.51    2.63 
  -2   5   3   23.89    2.83 
  -5  -3   2  439.32    6.86 
  -5  -3   2  401.29   13.74 
   5   3  -2  457.64    9.98 
   5   3  -2  448.70    7.01 
   5   3  -2  444.82   12.45 
   5   3  -2  432.76    6.78 
   3   1   4 1868.74   43.68 
   3   1   4 1863.39   39.99 
   3   1   4 1890.95   50.15 
   3   1   4 1836.39   41.99 
   3   1   4 1835.88   47.07 
   3   1   4 1838.98   37.57 
  -3  -1  -4 1875.65   42.50 
  -3  -1  -4 1820.43   42.70 
  -4  -1   6  995.70   23.95 
  -4  -1   6 1024.80   24.81 
  -4  -1   6  991.33   23.72 
   4   1  -6 1008.69   23.11 
   4   1  -6 1000.84   24.00 
   4   1  -6  987.70   23.61 
  -4   4   3  499.28    9.05 
  -4   4   3  498.78   16.29 
  -4   4   3  506.82   13.50 
  -4   4   3  502.53   15.07 
   4  -4  -3  515.23   16.08 
  -4   4   3  522.75   10.70 
   4  -4  -3  480.79   12.54 
   4  -4  -3  496.03   13.33 
  -4  -4   4  773.86   16.76 
  -4  -4   4  778.72   16.90 
  -4  -4   4  774.75   22.06 
   4   4  -4  766.70   16.78 
   4   4  -4  809.27   20.85 
   4   4  -4  770.02   19.32 
   4   4  -4  780.70   16.95 
   5   1   1  505.25   11.31 
   5   1   1  513.80   14.75 
   5   1   1  498.23   12.08 
  -5   2   4  500.54    7.85 
  -5   2   4  528.69   13.87 
   5  -2  -4  524.19   13.80 
   5  -2  -4  530.48   14.77 
   5  -2  -4  545.69   13.98 
  -5   2   4  531.49    8.73 
  -5   2   4  509.72   14.73 
   0  -5  -3  601.79   14.98 
   0  -5  -3  615.93   16.23 
   0   5   3  598.38   14.62 
   0   5   3  645.03   18.79 
   0   5   3  631.23   16.91 
   0   5   3  600.04   15.13 
   0  -5  -3  609.68   15.15 
  -4   0   6  116.13    4.33 
   4   0  -6  114.06    4.78 
   4   0  -6  116.75    3.63 
   4   0  -6  111.29    4.68 
  -4   0   6  113.11    4.72 
  -4   0   6  116.06    4.75 
   4   0  -6  122.86    4.02 
   5   3  -3 1008.27   24.74 
  -5  -3   3  945.62   28.10 
  -5  -3   3  972.94   19.06 
   5   3  -3  972.49   19.00 
   5   3  -3  996.42   24.59 
   5   3  -3  996.38   20.14 
  -5  -3   3  973.09   19.87 
   5   0  -5  301.09    5.97 
  -5   0   5  306.61    7.00 
   5   0  -5  299.66    7.92 
  -5   0   5  300.40    7.77 
   5   0  -5  325.92    8.39 
  -5   0   5  323.50    8.46 
   5   0  -5  313.08    7.07 
  -1  -6   0  969.35   26.66 
  -1  -6   0  931.24   25.14 
   1   6   0  954.06   25.08 
   1   6   0  971.41   28.63 
   1   6   0  935.39   23.61 
   1   6   0  956.13   26.48 
  -1  -6   0  942.08   24.97 
  -1  -6   0 1019.31   30.73 
   2  -2  -6 1072.22   25.74 
  -2   2   6 1083.22   25.52 
  -2   2   6 1070.37   26.99 
   2  -2  -6 1100.29   25.30 
   2  -2  -6 1094.66   25.67 
   2  -2  -6 1051.61   24.77 
  -2   2   6 1040.24   24.65 
   5  -2   1  225.29    6.91 
   5  -2   1  211.14    5.58 
   5  -2   1  215.05    4.20 
  -5   2  -1  211.52    6.72 
  -5   2  -1  209.19    5.08 
  -5   2  -1  223.11    5.30 
  -5   2  -1  207.21    4.09 
   5  -2   1  212.13    5.21 
   1  -5   4 1027.30   25.33 
   1  -5   4  962.88   25.33 
   1  -5   4  984.89   24.78 
  -1   5  -4  988.46   25.82 
   1  -5   4  995.75   25.05 
  -1   5  -4  979.67   24.69 
  -1   5  -4  987.74   25.26 
  -1   5  -4  997.52   25.37 
  -4  -4   0 1220.34   22.24 
  -4  -4   0 1171.55   32.25 
   4   4   0 1252.82   29.98 
   4   4   0 1157.20   35.32 
   4   4   0 1235.38   22.52 
   5   1  -5 1920.11   45.99 
   5   1  -5 1878.80   46.67 
  -5  -1   5 1867.25   47.23 
  -5  -1   5 1858.86   46.35 
  -5  -1   5 1881.39   48.36 
   5   1  -5 1905.69   47.53 
  -3  -5   0   37.28    1.73 
   3   5   0   38.01    1.79 
   3   5   0   36.99    2.46 
   3   5   0   33.32    1.92 
  -3  -5   0   37.82    2.77 
   3   5   0   33.38    5.06 
  -3  -5   0   39.33    2.55 
  -3  -5   0   41.70    3.50 
   2   4   3  966.84   21.93 
   2   4   3  931.93   23.29 
   2   4   3  986.72   21.58 
  -2  -4  -3  982.68   21.65 
   2   4   3  963.17   28.22 
  -2  -4  -3  970.98   23.29 
  -2  -4  -3 1012.65   21.20 
   2   4   3  987.14   28.85 
  -3  -3   6    1.61    1.77 
   3   3  -6    3.50    0.92 
   3   3  -6    1.58    0.90 
   3   3  -6    1.26    1.02 
   3   3  -6    3.82    1.47 
  -3  -3   6    2.61    1.47 
  -3  -3   6    0.39    0.92 
   1  -6   2   24.09    2.22 
  -1   6  -2   23.30    2.21 
   1  -6   2   21.77    2.19 
   1  -6   2   27.00    2.79 
   1  -6   2   20.27    3.93 
  -1   6  -2   20.97    2.18 
  -1   6  -2   23.37    3.10 
  -1   6  -2   22.32    2.77 
   0   3  -6  236.61    7.10 
   0  -3   6  244.83    5.90 
   0  -3   6  252.57    5.62 
   0   3  -6  241.77    6.04 
   0  -3   6  245.96    6.21 
   0  -3   6  244.25    8.33 
   0   3  -6  265.77    8.36 
   0   3  -6  256.71    6.03 
   4  -2   3  886.93   20.05 
  -4   2  -3  884.84   20.08 
   4  -2   3  888.71   20.38 
   4  -2   3  875.67   19.09 
  -4   2  -3  888.94   20.56 
  -4   2  -3  878.62   19.08 
  -4   2  -3  878.28   20.83 
   4  -2   3  884.15   22.80 
   1  -6  -1  673.22   17.88 
   1  -6  -1  671.04   16.67 
   1  -6  -1  638.96   20.40 
   1  -6  -1  642.20   19.43 
  -1   6   1  664.24   17.59 
  -1   6   1  635.49   19.69 
  -1   6   1  698.36   19.38 
  -1   6   1  640.81   20.53 
  -1   4  -5  600.06   15.06 
  -1   4  -5  581.04   16.92 
   1  -4   5  606.25   13.79 
   1  -4   5  627.77   15.72 
   1  -4   5  606.99   15.14 
   1  -4   5  590.21   14.44 
  -1   4  -5  597.60   15.56 
  -1   4  -5  607.84   15.95 
   5  -3   0  599.69   17.78 
   5  -3   0  601.81   16.88 
  -5   3   0  612.45   16.59 
   5  -3   0  619.14   10.45 
  -5   3   0  612.13   16.29 
  -5   3   0  628.85   11.28 
  -5   3   0  625.52   17.91 
   5  -3   0  627.88   16.50 
   2   1   5  301.23    7.02 
  -2  -1  -5  297.07    7.51 
   2   1   5  309.25    7.71 
  -2  -1  -5  296.77    6.89 
  -2  -1  -5  310.48    7.11 
   2   1   5  294.81    6.97 
   0   6   1  617.04   15.81 
   0   6   1  597.89   17.56 
   0   6   1  583.44   15.46 
   0   6   1  610.21   18.30 
   0  -6  -1  595.26   15.69 
   0  -6  -1  585.82   17.28 
   0  -6  -1  592.55   16.01 
   0  -6  -1  597.81   15.08 
   1  -2  -6 1397.32   31.26 
  -1   2   6 1342.01   35.53 
   1  -2  -6 1370.90   34.18 
   1  -2  -6 1373.53   32.63 
   1  -2  -6 1345.13   31.89 
  -1   2   6 1314.93   31.45 
  -1   2   6 1329.98   33.87 
  -3  -3  -3    3.09    1.14 
  -3  -3  -3    1.42    0.65 
   3   3   3    2.51    0.66 
   3   3   3   -0.16    2.22 
   3   3   3    3.80    1.19 
   3   3   3    0.05    2.23 
   3   3   3    1.77    1.02 
   5   3  -1    3.01    1.49 
   5   3  -1    3.06    1.33 
  -5  -3   1    1.79    1.47 
  -1   1  -6 1650.03   38.88 
  -1   1  -6 1683.60   33.17 
  -1   1  -6 1660.41   43.89 
   1  -1   6 1685.54   42.07 
   1  -1   6 1646.50   39.10 
   1  -1   6 1666.71   43.98 
  -1   1  -6 1688.31   41.89 
  -2  -3  -4  622.91   13.15 
   2   3   4  631.52   15.59 
   2   3   4  633.35   14.36 
   2   3   4  635.32   18.60 
   2   3   4  612.45   13.79 
   2   3   4  631.81   12.76 
  -2  -3  -4  642.19   14.21 
   3   4   2  116.94    2.66 
  -3  -4  -2  120.62    4.25 
   3   4   2  123.52    3.77 
   3   4   2  125.40    5.29 
   3   4   2  123.05    4.30 
  -3  -4  -2  120.32    2.71 
  -3  -4  -2  122.08    5.11 
   5  -3  -3  917.65   23.12 
  -5   3   3  988.63   28.06 
   5  -3  -3  934.72   22.57 
  -5   3   3  968.52   23.56 
  -5   3   3  954.01   25.95 
   5  -3  -3  982.37   27.60 
  -1  -6   3  438.43   12.21 
  -1  -6   3  454.93   12.25 
  -1  -6   3  451.49   14.09 
   1   6  -3  452.69   12.59 
   1   6  -3  438.21   11.50 
   1   6  -3  452.07   14.38 
   1   6  -3  440.23   12.06 
  -1  -6   3  441.29   13.22 
   3  -3   4  848.49   18.51 
   3  -3   4  847.14   20.49 
   3  -3   4  840.10   21.91 
   3  -3   4  829.84   19.50 
  -3   3  -4  840.70   20.51 
  -3   3  -4  834.86   19.68 
  -3   3  -4  859.54   20.84 
  -3   3  -4  839.16   20.77 
   4   1   3  528.34    9.18 
  -4  -1  -3  505.57    9.10 
  -4  -1  -3  523.60    9.60 
   4   1   3  518.80   14.35 
   4   1   3  519.93   10.22 
   4   1   3  517.76   11.72 
   4   1   3  521.46    9.41 
   4   2  -6 1005.64   24.22 
  -4  -2   6 1041.13   26.67 
  -4  -2   6 1044.76   24.93 
  -4  -2   6 1038.78   24.62 
   4   2  -6 1036.83   24.87 
   4   2  -6 1033.50   24.43 
   4   2  -6 1044.53   24.91 
  -2   6   0  789.74   24.05 
  -2   6   0  757.40   20.07 
  -2   6   0  781.64   20.56 
   2  -6   0  782.91   24.06 
   2  -6   0  829.93   25.76 
   2  -6   0  793.55   20.72 
   2  -6   0  792.35   20.69 
  -2   6   0  801.09   25.65 
   0   6  -3  668.50   20.45 
   0   6  -3  668.55   18.03 
   0   6  -3  656.58   18.74 
   0   6  -3  678.84   15.79 
   0  -6   3  635.56   18.44 
   0  -6   3  666.61   18.01 
   0  -6   3  640.32   18.21 
   0  -6   3  650.95   15.47 
  -3  -5   4  355.41    9.62 
   3   5  -4  384.38   11.05 
  -3  -5   4  347.19    7.60 
   3   5  -4  383.75   12.00 
  -3  -5   4  364.29    8.90 
   3   5  -4  355.42    7.66 
   3   5  -4  369.60    8.99 
  -3   5  -2  248.15    9.35 
   3  -5   2  249.46    6.30 
   3  -5   2  246.91    6.70 
   3  -5   2  250.54   10.84 
   3  -5   2  252.92    9.44 
  -3   5  -2  245.28   10.42 
  -3   5  -2  244.21    6.65 
  -3   5  -2  237.37    6.39 
   5  -1  -5  314.07    9.07 
   5  -1  -5  306.44    5.58 
   5  -1  -5  306.38    8.57 
  -5   1   5  296.67    6.95 
  -5   1   5  305.13    8.59 
   5  -1  -5  309.03    7.20 
  -5   1   5  314.63    9.10 
   3  -2  -6  998.35   23.16 
   3  -2  -6 1000.59   26.51 
  -3   2   6  989.14   26.00 
  -3   2   6  960.74   23.53 
   3  -2  -6  986.18   22.84 
   1   0   6  574.55   13.60 
   1   0   6  567.28   13.37 
   1   0   6  577.51   15.63 
  -1   0  -6  565.43   13.69 
  -1   0  -6  580.27   13.62 
  -1   0  -6  581.21   15.53 
   2  -3   5 1487.95   37.61 
  -2   3  -5 1503.88   36.99 
   2  -3   5 1453.13   35.43 
   2  -3   5 1524.25   38.95 
   2  -3   5 1528.90   37.89 
  -2   3  -5 1512.33   38.32 
  -2   3  -5 1573.74   40.82 
  -2   3  -5 1542.99   38.01 
  -4   1   6  728.40   16.92 
   4  -1  -6  715.92   16.98 
  -4   1   6  775.87   19.62 
  -4   1   6  733.11   18.91 
   4  -1  -6  735.20   18.96 
   4  -1  -6  732.69   15.87 
   4  -1  -6  750.82   19.23 
   2  -6   1  612.94   18.52 
   2  -6   1  596.77   18.47 
   2  -6   1  573.66   13.49 
   2  -6   1  600.64   20.24 
  -2   6  -1  587.22   18.35 
  -2   6  -1  590.73   20.14 
  -2   6  -1  588.68   13.85 
  -2   6  -1  613.05   18.63 
   2   6  -2   95.47    6.25 
  -2  -6   2   92.98    5.05 
  -2  -6   2   84.87    4.31 
   2   6  -2   85.34    5.71 
   2   6  -2   93.44    3.96 
  -2  -6   2   93.00    3.92 
  -2  -6   2   98.88    6.66 
   2   6  -2   88.66    4.29 
   1  -2   6  174.81    5.76 
   1  -2   6  171.53    5.69 
   1  -2   6  161.79    5.00 
  -1   2  -6  169.72    5.81 
  -1   2  -6  172.69    6.59 
  -1   2  -6  175.64    5.68 
  -1   2  -6  181.38    5.89 
   1  -2   6  168.95    3.22 
  -1  -5   5   26.99    2.70 
   1   5  -5   24.86    3.28 
   1   5  -5   23.55    2.07 
   1   5  -5   21.74    2.79 
   1   5  -5   21.83    2.89 
  -1  -5   5   28.86    2.93 
  -1  -5   5   24.69    2.72 
  -1  -5   5   23.75    3.40 
   5   3  -4  940.29   21.19 
   5   3  -4  939.10   19.74 
   5   3  -4  912.11   19.23 
   5   3  -4  951.19   21.77 
  -5  -3   4  905.93   19.05 
  -5  -3   4  929.43   19.53 
  -5  -3   4  918.55   23.54 
   1   4   4 1170.83   29.08 
   1   4   4 1179.60   30.26 
   1   4   4 1163.27   28.05 
  -1  -4  -4 1210.47   29.62 
   1   4   4 1181.25   34.31 
  -1  -4  -4 1151.65   29.72 
   1   4   4 1200.75   29.39 
  -1  -4  -4 1207.43   25.87 
   5   2  -5  410.04    9.42 
  -5  -2   5  411.34    9.42 
  -5  -2   5  432.69   11.86 
  -5  -2   5  403.62    9.43 
   5   2  -5  408.80    9.41 
   5   2  -5  421.84    9.81 
  -2  -6   1  317.82    8.04 
  -2  -6   1  334.19    8.94 
  -2  -6   1  338.08   10.20 
   2   6  -1  347.16   13.10 
   2   6  -1  326.93    8.91 
   2   6  -1  335.17    9.78 
   2   6  -1  323.07   10.63 
  -2  -6   1  345.13   10.55 
   2   5   2  884.72   21.49 
  -2  -5  -2  912.81   21.33 
  -2  -5  -2  909.12   28.03 
  -2  -5  -2  901.60   21.92 
  -2  -5  -2  884.09   22.44 
   2   5   2  878.91   22.59 
   2   5   2  929.05   28.49 
   2   5   2  911.37   22.89 
   6   0  -2  874.49   17.14 
  -6   0   2  807.56   15.95 
   6   0  -2  885.02   16.69 
   6   0  -2  864.82   21.69 
   6   0  -2  846.88   16.55 
  -6   0   2  830.15   19.51 
   6   0  -2  821.22   19.31 
  -2   6   1  628.43   20.56 
  -2   6   1  643.10   17.13 
  -2   6   1  632.71   20.11 
  -2   6   1  608.42   16.95 
   2  -6  -1  621.39   19.89 
   2  -6  -1  622.24   17.27 
   2  -6  -1  660.42   21.25 
   2  -6  -1  637.47   17.45 
  -3   5   3  246.82    8.24 
  -3   5   3  241.45   10.66 
   3  -5  -3  238.96   10.60 
   3  -5  -3  245.94    7.33 
  -3   5   3  245.49    9.22 
  -3   5   3  229.40   10.18 
  -3   5   3  222.08    6.32 
   3  -5  -3  248.16   10.49 
   2   5  -5    8.97    2.06 
  -2  -5   5   10.77    2.82 
  -2  -5   5    8.35    2.01 
  -2  -5   5    7.33    2.10 
  -2  -5   5    8.00    2.01 
   2   5  -5   10.55    1.98 
   2   5  -5    7.96    1.72 
   2   5  -5    8.91    2.38 
   4  -4   2 1299.60   33.52 
  -4   4  -2 1330.20   31.48 
  -4   4  -2 1325.55   34.10 
  -4   4  -2 1333.24   36.96 
  -4   4  -2 1294.29   35.67 
   4  -4   2 1317.24   36.02 
   4  -4   2 1307.38   29.56 
   4  -4   2 1325.05   38.08 
   1   4  -6 1227.94   29.02 
  -1  -4   6 1219.02   29.82 
  -1  -4   6 1193.79   30.07 
  -1  -4   6 1251.03   29.46 
   1   4  -6 1188.91   29.94 
   1   4  -6 1236.59   31.73 
   1   4  -6 1207.04   29.33 
  -1  -4   6 1246.48   29.27 
   2   4  -6 1076.45   26.97 
  -2  -4   6 1089.85   27.14 
  -2  -4   6 1081.68   26.30 
   2   4  -6 1090.48   27.41 
   2   4  -6 1064.93   27.91 
   2   4  -6 1080.47   26.71 
  -2  -4   6 1067.02   26.27 
  -1  -6  -1  667.73   19.08 
  -1  -6  -1  621.45   17.49 
   1   6   1  651.01   15.79 
   1   6   1  658.13   19.13 
   1   6   1  658.16   18.99 
   1   6   1  672.17   21.23 
  -1  -6  -1  640.35   15.50 
  -1  -6  -1  643.77   20.96 
   6   0  -3 1558.02   35.92 
   6   0  -3 1602.15   33.83 
   6   0  -3 1623.60   41.21 
   6   0  -3 1618.66   42.32 
  -6   0   3 1614.35   40.99 
  -6   0   3 1546.71   35.46 
  -6   0   3 1633.94   35.58 
  -2  -1   7  615.33   16.39 
  -2  -1   7  601.79   13.66 
   2   1  -7  611.53   13.71 
  -2  -1   7  598.63   15.53 
   2   1  -7  608.65   15.41 
   2   1  -7  609.91   12.54 
   2   1  -7  608.83   15.89 
   6  -1  -2 1110.39   18.35 
  -6   1   2 1046.27   27.02 
  -6   1   2 1072.59   24.07 
   6  -1  -2 1098.46   27.71 
   6  -1  -2 1094.81   24.37 
   6  -1  -2 1001.38   26.59 
   6  -1  -2 1001.46   16.82 
   5   2   1  283.84    8.56 
   5   2   1  270.49    8.10 
   4   3   2  636.99   13.60 
   4   3   2  629.42    9.56 
  -4  -3  -2  630.08    9.57 
  -4  -3  -2  660.65   11.19 
   4   3   2  656.01   11.09 
   4   3   2  648.27   19.01 
   4   3   2  650.88   17.35 
   1   5   3  692.08   17.98 
   1   5   3  705.23   18.16 
  -1  -5  -3  677.89   18.54 
  -1  -5  -3  663.00   15.96 
  -1  -5  -3  692.02   18.11 
   1   5   3  690.31   19.03 
   1   5   3  710.42   18.99 
   1   5   3  641.74   17.56 
   0   5  -5   59.77    2.97 
   0   5  -5   61.82    4.55 
   0   5  -5   53.56    2.68 
   0   5  -5   58.99    4.20 
   0  -5   5   59.70    3.68 
   0  -5   5   69.84    4.23 
   0  -5   5   55.89    4.30 
   0  -5   5   63.09    2.72 
   4  -3  -5  501.17   15.20 
  -4   3   5  496.57   12.54 
  -4   3   5  507.80   10.71 
  -4   3   5  501.44   13.47 
  -4   3   5  504.21   10.59 
  -4   3   5  519.24   15.54 
   4  -3  -5  514.36   13.78 
   4  -3  -5  502.04   12.66 
   0   2   6 1175.49   29.18 
   0   2   6 1167.22   28.78 
   0   2   6 1161.67   31.86 
   0  -2  -6 1190.55   31.01 
   0  -2  -6 1183.72   29.35 
   0  -2  -6 1152.74   28.67 
   2   6  -3  880.05   22.11 
  -2  -6   3  914.53   24.30 
   2   6  -3  877.06   22.98 
  -2  -6   3  920.76   22.16 
   2   6  -3  887.35   21.85 
   2   6  -3  897.82   22.11 
  -2  -6   3  895.08   26.56 
  -2  -6   3  865.99   21.78 
   6   1  -2  173.04    3.27 
   6   1  -2  170.83    4.52 
  -6  -1   2  171.04    3.27 
  -6  -1   2  183.81    4.89 
   6   1  -2  172.23    6.15 
  -6  -1   2  164.10    4.74 
   6   1  -2  157.95    4.68 
  -3  -2  -4  287.94    5.91 
   3   2   4  302.20    6.16 
   3   2   4  300.88    4.86 
   3   2   4  299.48    5.16 
   3   2   4  311.40    8.15 
   3   2   4  304.17    5.94 
   3   2   4  310.45    8.41 
  -3  -2  -4  295.22    5.91 
  -4   3  -3   12.99    1.89 
  -4   3  -3   14.20    1.99 
   4  -3   3   21.38    2.88 
   4  -3   3   12.92    1.76 
   4  -3   3   15.86    2.26 
   4  -3   3   13.52    1.87 
  -4   3  -3   11.22    2.23 
  -4   3  -3   14.89    1.48 
   5  -1   2  982.55   23.55 
  -5   1  -2  936.58   22.42 
  -5   1  -2  947.51   19.89 
   5  -1   2  955.82   21.64 
   5  -1   2  953.07   23.27 
   5  -1   2  974.41   20.26 
   5  -1   2  962.93   21.27 
  -6   0   1    2.04    0.74 
  -6   0   1    1.11    0.73 
   6   0  -1    1.24    0.71 
   6   0  -1    1.38    0.73 
   6   0  -1   -0.55    1.58 
   6   0  -1    1.61    0.72 
   6   0  -1    3.15    1.02 
  -1   6  -3  388.87   11.95 
   1  -6   3  388.72   13.11 
  -1   6  -3  378.76   14.57 
  -1   6  -3  374.11   11.88 
   1  -6   3  376.71    9.79 
   1  -6   3  372.56   11.90 
   1  -6   3  379.10    9.31 
  -1   6  -3  387.80   10.01 
  -5   3  -1  788.29   17.21 
   5  -3   1  791.76   15.10 
  -5   3  -1  772.59   21.36 
  -5   3  -1  775.38   18.37 
   5  -3   1  800.45   22.36 
   5  -3   1  788.92   21.74 
   5  -3   1  814.21   19.70 
  -5   3  -1  813.51   19.58 
   4  -5  -1  812.12   16.94 
   4  -5  -1  766.01   20.59 
  -4   5   1  795.36   21.14 
  -4   5   1  821.37   25.82 
  -4   5   1  795.06   16.48 
  -4   5   1  777.51   20.78 
   4  -5  -1  789.14   22.20 
   4  -5  -1  819.56   25.23 
  -2   0   7   81.53    4.45 
   2   0  -7   72.97    4.39 
   2   0  -7   79.91    3.89 
   2   0  -7   76.61    2.81 
   2   0  -7   78.84    2.73 
   2   0  -7   75.04    2.96 
  -2   0   7   76.51    2.94 
  -2   0   7   81.52    4.36 
   5   0   2  739.57   19.36 
  -5   0  -2  722.75   15.22 
   5   0   2  728.05   13.14 
   5   0   2  737.71   15.51 
   5   0   2  725.80   16.52 
  -5   0  -2  718.51   12.94 
   5   0   2  717.58   15.24 
  -6  -1   3   97.72    3.89 
   6   1  -3   93.85    2.43 
   6   1  -3   98.04    4.12 
   6   1  -3   94.86    2.75 
  -6  -1   3   97.02    3.95 
  -6  -1   3   91.41    2.37 
   1   3   5 1170.12   32.11 
   1   3   5 1125.93   27.22 
  -1  -3  -5 1118.98   27.29 
   1   3   5 1148.08   27.52 
  -1  -3  -5 1174.48   27.80 
   1   3   5 1123.81   21.70 
   1   3   5 1189.33   30.29 
   1  -6  -2   92.56    4.54 
   1  -6  -2   84.27    5.54 
  -1   6   2   91.82    6.42 
  -1   6   2  106.11    6.16 
  -1   6   2   82.39    4.58 
  -1   6   2   91.61    5.63 
   1  -6  -2   87.21    6.20 
   1  -6  -2   95.93    6.36 
  -5  -3   0 1078.65   27.47 
   5   3   0 1055.72   24.77 
   5   3   0  995.35   30.63 
  -1  -1   7  675.91   17.26 
   1   1  -7  674.02   17.28 
   1   1  -7  678.32   17.12 
   1   1  -7  674.21   15.50 
  -1  -1   7  680.56   16.97 
   1   1  -7  694.36   14.40 
  -1  -1   7  670.43   18.45 
   6  -1  -3  638.38   17.12 
   6  -1  -3  595.67   13.92 
   6  -1  -3  641.50   14.64 
  -6   1   3  603.84   13.99 
  -6   1   3  627.12   17.07 
  -4  -4   5  963.73   26.82 
  -4  -4   5  944.87   21.97 
   4   4  -5  960.26   24.87 
   4   4  -5  999.74   23.15 
   4   4  -5  969.79   22.60 
  -4  -4   5  977.20   22.91 
   4   4  -5  977.44   22.32 
  -2  -6   0  531.14   19.42 
   2   6   0  518.04   14.77 
  -2  -6   0  512.20   13.27 
  -2  -6   0  512.80   14.15 
  -2  -6   0  521.02   14.87 
   2   6   0  517.37   12.83 
   2   6   0  531.85   15.11 
   2   6   0  514.25   13.15 
   4  -5   0  912.45   20.84 
  -4   5   0  911.97   19.55 
  -4   5   0  979.34   29.44 
  -4   5   0  989.10   26.05 
   4  -5   0  962.96   29.25 
  -4   5   0  938.17   27.47 
   4  -5   0  978.99   26.23 
   4  -5   0  935.13   27.58 
  -6   1   1 1069.57   25.97 
  -6   1   1 1047.39   23.33 
   6  -1  -1 1055.01   21.11 
   6  -1  -1 1072.99   20.07 
   6  -1  -1 1072.04   23.77 
   6  -1  -1 1029.64   24.40 
   6  -1  -1 1072.37   26.00 
   2  -4  -5    1.84    1.80 
   2  -4  -5    2.13    2.30 
   2  -4  -5    2.96    1.47 
  -2   4   5    1.97    2.34 
  -2   4   5    4.28    1.80 
  -2   4   5    1.89    1.51 
  -2   4   5    3.40    1.49 
  -2   4   5    2.80    1.64 
   3   5   1  309.78    6.94 
   3   5   1  310.55    9.94 
   3   5   1  302.28    8.27 
  -3  -5  -1  282.97    7.89 
  -3  -5  -1  300.42   12.63 
  -3  -5  -1  309.65    6.94 
   3   5   1  295.44    7.99 
  -2   6  -2  160.41    8.88 
  -2   6  -2  156.90    6.04 
  -2   6  -2  139.59    5.33 
   2  -6   2  138.46    5.44 
  -2   6  -2  156.69    7.24 
   2  -6   2  145.89    6.98 
   2  -6   2  158.98    6.30 
   2  -6   2  157.61    5.71 
   1   1   6   33.77    3.64 
   1   1   6   23.33    2.41 
   1   1   6   32.05    2.39 
  -1  -1  -6   30.92    3.42 
  -1  -1  -6   27.28    2.45 
  -1  -1  -6   26.86    2.35 
  -2  -2   7 1381.62   36.97 
  -2  -2   7 1332.86   31.95 
  -2  -2   7 1377.74   35.63 
   2   2  -7 1349.95   32.06 
   2   2  -7 1394.80   36.01 
   2   2  -7 1390.63   35.71 
   2   2  -7 1412.48   32.76 
  -4   4   4  239.16    5.89 
  -4   4   4  238.27    9.93 
   4  -4  -4  242.11   10.00 
   4  -4  -4  252.63    9.19 
   4  -4  -4  242.77    7.75 
  -4   4   4  240.77    7.76 
  -4   4   4  252.24    6.72 
  -4   4   4  249.16    9.18 
  -1   4   5   56.21    3.95 
   1  -4  -5   51.74    2.86 
   1  -4  -5   50.79    4.21 
   1  -4  -5   60.12    3.56 
  -1   4   5   49.70    2.89 
  -1   4   5   57.83    4.25 
  -1   4   5   51.92    3.43 
  -1   4   5   57.61    4.31 
   3   1  -7  467.74   12.92 
  -3  -1   7  482.78   11.00 
  -3  -1   7  490.24   11.52 
  -3  -1   7  486.59   13.08 
   3   1  -7  488.25   11.10 
   3   1  -7  497.13   12.49 
   3   1  -7  479.83   10.91 
  -4  -4  -1  417.17    6.40 
   4   4   1  419.90    6.36 
  -4  -4  -1  418.95   14.72 
  -4  -4  -1  417.70    6.38 
   4   4   1  413.02   15.82 
   4   4   1  414.11    9.91 
   4   4   1  420.63    6.49 
   4   5  -2 1166.07   24.54 
   4   5  -2 1176.28   30.04 
   4   5  -2 1099.87   24.64 
   4   5  -2 1118.84   32.76 
  -4  -5   2 1149.47   24.26 
  -4  -5   2 1145.68   36.71 
  -4  -5   2 1077.94   24.16 
   0  -6  -2   76.48    4.94 
   0  -6  -2   70.17    3.61 
   0  -6  -2   70.03    5.64 
   0   6   2   77.73    5.26 
   0   6   2   73.20    3.89 
   0   6   2   68.15    3.62 
   0   6   2   65.22    5.35 
   0  -6  -2   67.31    3.72 
   2   2   5  287.37    6.80 
  -2  -2  -5  276.04    6.77 
  -2  -2  -5  280.95    6.80 
   2   2   5  270.90    6.72 
   2   2   5  285.22   10.14 
   2   2   5  279.72    7.72 
  -4  -3   6    5.66    1.61 
  -4  -3   6    4.73    1.40 
  -4  -3   6    5.07    1.64 
   4   3  -6    4.81    1.69 
   4   3  -6    4.13    1.84 
   4   3  -6    3.75    1.62 
   4   3  -6    4.66    1.84 
   1   0  -7  113.96    4.93 
   1   0  -7  110.90    2.39 
   1   0  -7  111.07    5.10 
   1   0  -7  109.93    5.07 
   1   0  -7  111.14    2.67 
  -1   0   7  117.69    5.08 
  -1   0   7  112.09    4.98 
  -1   0   7  108.54    5.62 
  -5   3   4  994.48   25.04 
  -5   3   4 1010.42   18.46 
  -5   3   4 1029.24   18.21 
  -5   3   4 1027.35   27.82 
  -5   3   4 1038.40   26.82 
   5  -3  -4 1019.40   27.37 
   5  -3  -4 1030.95   28.37 
   5  -3  -4 1007.28   26.16 
  -1   3  -6  533.49   16.00 
  -1   3  -6  540.58   15.12 
   1  -3   6  549.99   14.32 
   1  -3   6  543.26   14.89 
   1  -3   6  518.81   11.74 
   1  -3   6  530.57   12.10 
  -1   3  -6  531.84   11.93 
  -1   3  -6  527.82   13.91 
  -5   4   1  802.00   21.26 
   5  -4  -1  807.05   23.77 
   5  -4  -1  850.43   25.36 
   5  -4  -1  805.34   23.68 
  -5   4   1  854.00   25.40 
  -5   4   1  808.06   24.03 
  -5   2   5 1631.48   37.26 
  -5   2   5 1620.56   42.09 
   5  -2  -5 1600.88   40.75 
   5  -2  -5 1602.44   34.26 
  -5   2   5 1576.77   40.17 
   5  -2  -5 1613.61   41.75 
   5  -2  -5 1656.67   40.95 
   6   1  -1 1508.06   38.41 
   6   1  -1 1450.13   26.45 
   6   1  -1 1462.40   27.12 
  -6  -1   1 1428.64   26.45 
   6   1  -1 1490.73   37.53 
   6   1  -1 1543.60   36.55 
  -6  -1   1 1476.28   26.99 
  -1  -2   7 1399.23   36.19 
   1   2  -7 1379.56   35.81 
   1   2  -7 1388.57   32.06 
  -1  -2   7 1385.69   35.31 
   1   2  -7 1367.25   34.92 
   1   2  -7 1394.17   34.23 
  -1  -2   7 1379.55   37.01 
   3   0  -7  441.17   12.51 
   3   0  -7  445.18    9.67 
  -3   0   7  456.31   10.58 
  -3   0   7  465.18   12.87 
  -3   0   7  444.33   12.21 
   3   0  -7  438.21   10.25 
   3   0  -7  456.05   11.25 
  -4  -5   3  679.68   22.09 
  -4  -5   3  641.32   14.15 
   4   5  -3  649.58   13.74 
   4   5  -3  637.83   16.42 
   4   5  -3  655.34   17.35 
   4   5  -3  652.21   14.39 
  -4  -5   3  653.70   13.86 
   0   4  -6 1310.72   34.64 
   0  -4   6 1300.96   33.14 
   0  -4   6 1265.50   33.85 
   0  -4   6 1314.47   31.12 
   0  -4   6 1282.77   31.07 
   0   4  -6 1286.67   30.95 
   0   4  -6 1251.98   34.01 
   0   4  -6 1312.73   33.37 
   4  -5  -2  251.85    8.31 
   4  -5  -2  259.21   11.36 
   4  -5  -2  246.83   10.35 
   4  -5  -2  239.55    5.82 
  -4   5   2  235.58   10.47 
  -4   5   2  225.77    5.78 
  -4   5   2  237.75    8.20 
  -4   5   2  237.87   11.08 
  -1  -6   4  909.26   23.25 
   1   6  -4  904.55   23.44 
   1   6  -4  957.07   24.84 
   1   6  -4  901.15   22.93 
   1   6  -4  918.53   23.56 
  -1  -6   4  910.12   23.65 
  -1  -6   4  944.93   24.57 
  -1  -6   4  905.08   22.22 
   4   2   3  977.32   18.25 
   4   2   3  938.95   19.32 
  -4  -2  -3  949.16   17.80 
  -4  -2  -3  956.85   18.38 
   4   2   3  963.32   19.22 
   4   2   3  935.22   26.60 
   4   2   3  975.69   26.27 
   4   2   3  962.20   18.56 
   1  -5  -4  110.12    6.43 
   1  -5  -4  104.63    6.31 
  -1   5   4  101.62    6.28 
  -1   5   4  111.70    5.19 
   1  -5  -4  119.74    5.95 
  -1   5   4  105.32    6.01 
  -1   5   4  105.69    5.91 
  -1   5   4  112.54    6.26 
   5  -2   2   11.58    2.37 
  -5   2  -2    9.72    1.42 
   5  -2   2   13.38    1.38 
   5  -2   2    9.72    1.43 
   5  -2   2    8.60    2.02 
  -5   2  -2   11.41    2.01 
  -5   2  -2   14.44    1.93 
  -5   2  -2    9.36    1.74 
   6   0  -4 1043.20   26.84 
  -6   0   4 1024.95   23.91 
  -6   0   4 1016.40   23.09 
  -6   0   4 1000.04   25.00 
   6   0  -4 1006.95   23.09 
   6   0  -4 1096.49   26.61 
  -2   6   2   10.89    3.83 
  -2   6   2   12.66    3.80 
  -2   6   2   11.98    3.46 
   2  -6  -2   13.70    2.65 
   2  -6  -2   11.99    3.76 
   2  -6  -2   13.86    3.71 
  -2   6   2   11.15    2.53 
   2  -6  -2   13.53    3.78 
  -3  -4   6  489.41   14.53 
  -3  -4   6  488.87   12.58 
  -3  -4   6  498.78   12.62 
   3   4  -6  503.96   13.37 
   3   4  -6  485.00   11.60 
   3   4  -6  484.12   12.44 
   3   4  -6  497.90   12.72 
  -2   5  -4 1042.16   27.64 
  -2   5  -4 1031.32   26.64 
  -2   5  -4 1019.43   26.32 
   2  -5   4 1049.98   26.89 
   2  -5   4 1019.08   27.17 
  -2   5  -4  998.00   27.42 
   2  -5   4 1004.56   28.06 
   2  -5   4 1035.23   25.82 
  -5   4   2  973.25   29.16 
   5  -4  -2  982.59   26.24 
   5  -4  -2  992.40   25.49 
  -5   4   2  969.20   26.04 
   5  -4  -2  999.44   29.46 
  -5   4   2  992.63   26.01 
  -2   5   4  184.68    6.98 
  -2   5   4  183.77    6.98 
  -2   5   4  190.12    9.05 
   2  -5  -4  184.18    8.99 
   2  -5  -4  193.52    7.91 
   2  -5  -4  193.88    9.13 
  -2   5   4  185.82    8.87 
  -2   5   4  186.85    7.27 
  -4   2   6 1053.42   28.43 
   4  -2  -6 1027.86   25.06 
   4  -2  -6 1051.74   28.69 
   4  -2  -6 1038.40   23.45 
   4  -2  -6 1054.90   28.22 
  -4   2   6 1051.52   28.61 
  -4   2   6 1040.94   24.20 
   6  -2  -2   49.67    4.25 
   6  -2  -2   47.31    3.37 
   6  -2  -2   53.46    2.70 
  -6   2   2   46.01    4.34 
  -6   2   2   49.28    3.31 
  -3  -2   7 1168.19   28.44 
   3   2  -7 1129.36   26.86 
   3   2  -7 1144.10   26.95 
  -3  -2   7 1116.50   28.39 
   3   2  -7 1144.82   28.90 
   3   2  -7 1152.08   28.80 
  -3  -2   7 1158.18   27.14 
   4   5  -1  864.27   27.06 
  -4  -5   1  885.31   19.74 
   4   5  -1  928.46   20.31 
  -4  -5   1  892.71   17.50 
  -4  -5   1  884.06   29.86 
   4   5  -1  893.40   23.07 
   4   5  -1  901.70   17.65 
   5   1   2    1.33    0.47 
  -5  -1  -2    0.82    0.32 
  -5  -1  -2    2.47    0.47 
   5   1   2    1.85    1.85 
   5   1   2    0.95    0.27 
   5   1   2    2.10    1.37 
   5   1   2    3.28    1.07 
   2  -3  -6  216.37    6.26 
   2  -3  -6  204.20    8.01 
  -2   3   6  209.94    7.97 
  -2   3   6  214.28    6.80 
   2  -3  -6  220.00    6.39 
  -2   3   6  208.15    7.56 
  -2   3   6  214.94    6.25 
   0   6  -4 1428.12   42.20 
   0  -6   4 1410.19   39.02 
   0   6  -4 1418.49   38.25 
   0  -6   4 1429.81   37.94 
   0  -6   4 1368.72   35.42 
   0   6  -4 1463.91   38.03 
   0   6  -4 1443.04   36.37 
   0  -6   4 1449.33   39.20 
  -6  -1   4  724.64   18.62 
  -6  -1   4  772.17   17.90 
   6   1  -4  780.20   17.46 
   6   1  -4  787.34   16.15 
   6   1  -4  786.59   17.87 
  -6  -1   4  778.30   16.46 
   5   4  -2  394.70   13.10 
  -5  -4   2  378.49   14.61 
  -5  -4   2  396.38    7.35 
   5   4  -2  395.05    6.43 
   5   4  -2  391.72    7.39 
  -5  -4   2  387.88    6.33 
   5   4  -2  404.28   11.13 
  -5  -3   5  119.72    3.87 
   5   3  -5  130.90    5.56 
   5   3  -5  123.21    3.96 
   5   3  -5  126.49    3.98 
   5   3  -5  128.54    4.89 
  -5  -3   5  124.15    3.96 
  -5  -3   5  123.05    6.09 
  -3  -5   5   75.50    5.38 
  -3  -5   5   71.20    3.67 
   3   5  -5   71.88    2.71 
   3   5  -5   69.32    4.72 
   3   5  -5   76.90    5.00 
   3   5  -5   72.85    3.68 
  -3  -5   5   71.54    2.71 
   5   4  -3  184.11    3.83 
   5   4  -3  184.24    3.91 
   5   4  -3  189.13    7.18 
  -5  -4   3  184.63    3.89 
   5   4  -3  181.99    6.92 
  -5  -4   3  185.51    3.80 
  -5  -4   3  192.76    7.17 
   3  -1   5   16.82    1.85 
   3  -1   5   15.53    2.55 
   3  -1   5   12.68    1.73 
  -3   1  -5   14.21    2.80 
  -3   1  -5   13.76    1.75 
  -3   1  -5   15.89    1.87 
   3  -1   5   14.97    1.22 
  -5   4   0   12.25    0.98 
  -5   4   0    9.95    2.75 
   5  -4   0    9.83    3.24 
  -5   4   0    9.90    3.07 
   5  -4   0    5.49    0.91 
  -5   4   0    7.79    3.06 
   5  -4   0    9.32    3.09 
   5  -4   0    8.49    2.71 
   4  -5   1  207.88    7.31 
   4  -5   1  209.17    5.00 
   4  -5   1  207.78    6.96 
   4  -5   1  192.49    6.25 
  -4   5  -1  208.24    9.61 
  -4   5  -1  189.95    6.76 
  -4   5  -1  197.15    6.11 
  -4   5  -1  187.29    6.19 
  -2   1   7  923.10   23.76 
   2  -1  -7  925.19   18.84 
   2  -1  -7  914.20   23.42 
  -2   1   7  924.06   24.09 
   2  -1  -7  915.20   22.95 
  -2   1   7  915.43   23.79 
   2  -1  -7  889.84   23.40 
  -3   4  -4   96.89    3.49 
   3  -4   4   88.51    5.63 
   3  -4   4   99.67    3.49 
   3  -4   4   94.45    4.14 
   3  -4   4  101.75    4.43 
  -3   4  -4   89.47    4.53 
  -3   4  -4   94.78    4.49 
  -3   4  -4   87.26    5.44 
  -3   4   5   10.03    2.24 
  -3   4   5    8.44    2.05 
  -3   4   5    8.78    1.87 
   3  -4  -5    8.44    2.05 
   3  -4  -5    9.31    1.59 
   3  -4  -5    7.30    2.00 
  -3   4   5    9.84    1.97 
  -3   4   5   11.26    1.85 
  -5  -1   6  655.46   16.16 
   5   1  -6  664.93   13.65 
  -5  -1   6  658.63   16.21 
   5   1  -6  657.25   16.22 
   5   1  -6  652.11   16.02 
  -5  -1   6  663.63   16.63 
   5   0  -6    9.82    1.31 
  -5   0   6   10.43    1.98 
   5   0  -6    7.24    1.96 
  -5   0   6    6.93    2.08 
  -5   0   6    6.75    1.68 
   5   0  -6    5.90    1.27 
   5   0  -6    9.29    2.06 
  -3   6   0 1038.39   32.55 
  -3   6   0 1048.38   26.81 
   3  -6   0 1058.36   32.29 
   3  -6   0 1108.37   34.49 
  -3   6   0 1131.13   34.80 
   3  -6   0 1155.54   31.61 
   3  -6   0 1082.02   27.14 
  -3   6   0 1071.49   32.70 
  -3   5  -3  755.12   20.97 
   3  -5   3  763.61   20.34 
   3  -5   3  740.44   20.61 
   3  -5   3  719.63   17.42 
   3  -5   3  750.91   23.62 
  -3   5  -3  745.73   18.69 
  -3   5  -3  743.10   20.29 
  -3   5  -3  760.67   23.69 
   6  -2  -1  873.14   22.40 
   6  -2  -1  900.06   23.93 
   6  -2  -1  879.06   22.39 
  -6   2   1  901.93   22.82 
  -6   2   1  880.23   22.49 
   6   2  -2 1511.16   28.60 
  -6  -2   2 1418.11   30.01 
  -6  -2   2 1498.99   28.34 
  -6  -2   2 1545.20   40.85 
   6   2  -2 1364.57   29.04 
   6   2  -2 1486.25   37.33 
   6   2  -3  674.57   13.30 
  -6  -2   3  631.51   11.49 
  -6  -2   3  655.41   13.01 
   6   2  -3  631.27   11.55 
   6   2  -3  656.06   14.98 
  -6  -2   3  654.91   18.43 
   2  -4   5  452.50   10.75 
   2  -4   5  452.56   12.49 
  -2   4  -5  460.47   12.52 
  -2   4  -5  465.77   13.35 
  -2   4  -5  452.61   10.69 
  -2   4  -5  479.39   14.92 
   2  -4   5  452.86   12.18 
   2  -4   5  460.71   12.28 
  -6   1   4    2.05    0.54 
  -6   1   4    3.32    1.87 
  -6   1   4    3.60    1.41 
   6  -1  -4    4.98    1.48 
   6  -1  -4    2.43    0.43 
   6  -1  -4    2.76    1.85 
   6  -1  -4    3.68    2.01 
  -1   3   6  297.43    7.64 
  -1   3   6  299.20    9.30 
   1  -3  -6  299.21    7.76 
  -1   3   6  298.33    7.53 
  -1   3   6  297.57   10.23 
   1  -3  -6  302.11    9.38 
   1  -3  -6  313.56    7.54 
   6   0   0  501.81   13.05 
   6   0   0  513.00    9.12 
   6   0   0  508.53    8.35 
  -6   0   0  506.38    8.30 
  -6   0   0  512.13    9.00 
   6   0   0  520.34   13.22 
   6   0   0  516.26   10.63 
   2   6  -4 1573.52   45.94 
   2   6  -4 1550.58   40.39 
  -2  -6   4 1572.01   41.37 
  -2  -6   4 1555.49   42.30 
  -2  -6   4 1502.08   44.09 
  -2  -6   4 1524.60   39.54 
   2   6  -4 1505.44   39.64 
   2   6  -4 1590.61   41.87 
  -6   1   0  170.85    4.05 
   6  -1   0  189.30    4.14 
   6  -1   0  192.10    6.68 
   6  -1   0  179.69    4.92 
   6  -1   0  186.89    3.68 
   6  -1   0  179.93    5.09 
  -6   1   0  174.07    4.87 
  -6   2   3   94.38    4.57 
   6  -2  -3  104.29    4.50 
  -6   2   3   89.52    3.99 
   6  -2  -3   95.43    5.45 
   6  -2  -3   97.80    4.00 
   0   4   5   38.91    2.86 
   0   4   5   49.84    3.60 
   0   4   5   46.17    3.69 
   0   4   5   42.07    2.21 
   0   4   5   52.42    3.06 
   0  -4  -5   51.09    3.68 
   0  -4  -5   42.35    3.67 
   0  -4  -5   39.33    2.21 
  -3   6   1  167.54    5.90 
  -3   6   1  181.47    7.04 
   3  -6  -1  193.56    6.31 
  -3   6   1  208.62    9.82 
  -3   6   1  215.52   10.64 
   3  -6  -1  208.77   10.40 
   3  -6  -1  201.41    9.87 
   3  -6  -1  212.31   10.38 
   3   0   5 1470.32   34.38 
   3   0   5 1471.79   34.04 
  -3   0  -5 1475.69   34.07 
  -3   0  -5 1425.25   38.91 
  -3   0  -5 1462.42   34.30 
   3   0   5 1477.02   38.91 
   3   0   5 1449.16   28.20 
   3   6  -2   54.22    3.85 
   3   6  -2   55.12    2.94 
   3   6  -2   53.28    3.27 
   3   6  -2   68.58    4.52 
  -3  -6   2   65.91    4.22 
  -3  -6   2   57.64    3.31 
  -3  -6   2   64.61    4.34 
  -3  -6   2   65.01    2.95 
   0   1  -7  918.43   19.08 
   0   1  -7  913.80   21.16 
   0   1  -7  905.76   24.25 
   0   1  -7  919.41   20.81 
   0  -1   7  915.09   21.14 
   0  -1   7  905.51   24.51 
   0  -1   7  921.16   20.94 
   4  -1   4  187.28    4.70 
   4  -1   4  196.37    5.08 
  -4   1  -4  191.40    4.76 
   4  -1   4  189.74    6.29 
  -4   1  -4  197.02    5.15 
  -4   1  -4  194.13    6.90 
   4  -1   4  195.21    5.88 
   1  -5   5  120.77    5.41 
   1  -5   5  111.32    4.05 
   1  -5   5  131.10    5.84 
   1  -5   5  116.77    4.08 
  -1   5  -5  123.71    4.17 
  -1   5  -5  119.66    6.93 
  -1   5  -5  121.44    4.12 
  -1   5  -5  120.38    5.81 
   0  -5  -4    5.05    2.14 
   0   5   4    3.13    1.38 
   0   5   4    4.60    2.50 
   0  -5  -4    2.95    2.22 
   0   5   4    3.20    1.75 
   0   5   4    1.25    2.59 
   0   5   4    1.35    2.18 
   0  -5  -4    2.87    1.71 
   2   3  -7  230.24    6.59 
  -2  -3   7  223.98    7.75 
  -2  -3   7  228.76    8.66 
   2   3  -7  224.75    6.14 
   2   3  -7  217.77    7.52 
   2   3  -7  210.35    7.81 
  -2  -3   7  221.28    7.43 
   3  -2   5  323.66    8.26 
   3  -2   5  345.23    9.74 
   3  -2   5  330.07    8.70 
   3  -2   5  323.09    8.72 
  -3   2  -5  316.85    7.41 
  -3   2  -5  327.71    8.35 
  -3   2  -5  337.98   10.11 
  -3   2  -5  336.05    8.67 
  -1   1   7 1227.93   29.48 
   1  -1  -7 1233.87   29.45 
   1  -1  -7 1211.58   32.21 
   1  -1  -7 1276.86   24.57 
   1  -1  -7 1305.61   26.50 
  -1   1   7 1251.42   33.68 
  -1   1   7 1242.08   29.75 
   1  -1  -7 1229.65   29.74 
  -4  -5   4   20.03    4.26 
  -4  -5   4   23.45    2.05 
  -4  -5   4   30.82    2.15 
   4   5  -4   27.48    2.16 
   4   5  -4   20.94    3.78 
   4   5  -4   27.43    2.06 
   4   5  -4   27.06    3.45 
  -3   3   6    4.26    2.52 
   3  -3  -6    5.66    1.77 
  -3   3   6    4.94    1.52 
  -3   3   6    3.09    1.71 
  -3   3   6    1.63    2.48 
   3  -3  -6    4.35    2.47 
   3  -3  -6    3.21    2.39 
   3  -1  -7 1114.02   27.18 
   3  -1  -7 1128.93   27.42 
  -3   1   7 1118.70   29.83 
   3  -1  -7 1141.41   25.65 
   3  -1  -7 1146.89   27.33 
  -3   1   7 1082.02   28.32 
  -3   1   7 1138.45   27.46 
   5   4  -1 1123.90   30.75 
   5   4  -1 1131.89   28.27 
  -5  -4   1 1064.85   33.83 
  -3   6  -1 1013.06   28.38 
   3  -6   1 1065.84   26.12 
   3  -6   1 1036.97   33.34 
   3  -6   1  982.71   29.67 
   3  -6   1 1046.21   31.65 
  -3   6  -1 1011.37   29.70 
  -3   6  -1 1023.68   26.53 
  -3   6  -1 1009.17   31.19 
   5  -4  -3  507.88   14.28 
   5  -4  -3  490.28   15.57 
   5  -4  -3  523.94   17.13 
  -5   4   3  498.82   16.65 
  -5   4   3  489.42   13.32 
  -5   4   3  509.14   14.44 
   2   6   1 1083.51   29.67 
   2   6   1 1083.92   28.04 
   2   6   1 1087.06   27.42 
  -2  -6  -1 1095.78   27.94 
  -2  -6  -1 1116.00   35.60 
  -2  -6  -1 1059.87   27.77 
   2   6   1 1123.84   35.67 
  -2  -6  -1 1074.74   29.60 
  -4   0  -4  273.27    5.65 
  -4   0  -4  283.91    9.26 
   4   0   4  287.56    6.62 
  -4   0  -4  269.28    6.76 
   4   0   4  273.77    5.65 
   4   0   4  273.41    6.88 
   4   0   4  285.47    8.57 
   1   6   2  214.92    8.57 
  -1  -6  -2  232.39   10.74 
   1   6   2  210.98    8.52 
  -1  -6  -2  216.98    7.89 
  -1  -6  -2  223.57    8.57 
  -1  -6  -2  227.12    6.65 
   1   6   2  224.88    7.96 
   1   6   2  218.41    8.39 
  -1  -3   7   46.17    4.70 
   1   3  -7   53.65    4.18 
   1   3  -7   61.27    3.22 
   1   3  -7   54.67    2.78 
  -1  -3   7   65.11    4.30 
  -1  -3   7   56.93    2.78 
   1   3  -7   66.23    4.55 
  -3  -6   1  213.95    7.78 
   3   6  -1  221.48    5.93 
  -3  -6   1  256.46   12.51 
   3   6  -1  228.46    8.24 
  -3  -6   1  234.31    6.11 
   3   6  -1  240.25    8.44 
   3   6  -1  220.71    7.17 
  -3  -6   1  234.86    7.26 
   5   4  -4  663.74   18.29 
   5   4  -4  657.40   13.93 
  -5  -4   4  652.64   21.29 
   5   4  -4  646.38   17.57 
  -5  -4   4  664.06   14.05 
  -5  -4   4  645.83   13.56 
   5   4  -4  648.34   13.54 
   3   6  -3 1053.06   32.25 
  -3  -6   3 1062.65   26.56 
  -3  -6   3 1112.72   29.32 
   3   6  -3 1111.01   30.36 
  -3  -6   3 1062.31   25.62 
  -3  -6   3 1027.18   28.40 
   3   6  -3 1057.26   26.49 
   3   6  -3 1064.81   25.70 
  -5  -2   6  901.42   21.89 
  -5  -2   6  885.15   21.57 
  -5  -2   6  886.87   23.67 
   5   2  -6  903.63   21.62 
   5   2  -6  915.09   21.80 
   5   2  -6  905.52   21.69 
   2  -1   6  355.36   10.82 
   2  -1   6  372.46    9.34 
   2  -1   6  329.53    4.49 
  -2   1  -6  342.85    8.80 
  -2   1  -6  356.14    9.39 
  -2   1  -6  371.42   11.15 
   2  -1   6  356.00    8.90 
   0   0   7   44.61    3.31 
   0   0   7   45.05    2.82 
   0   0  -7   46.60    3.41 
   0   0  -7   46.50    2.33 
   0   0  -7   48.43    4.04 
   0   0   7   43.30    2.39 
   0  -2   7 1008.98   25.90 
   0   2  -7 1000.63   25.61 
   0   2  -7 1003.30   23.02 
   0   2  -7 1017.99   27.18 
   0   2  -7  955.65   23.67 
   0  -2   7  998.20   27.13 
   0  -2   7 1007.37   23.30 
   6   2  -1  836.87   23.11 
  -6  -2   1  862.95   22.32 
  -3   5   4  196.81    6.54 
  -3   5   4  186.81    6.01 
  -3   5   4  201.46    9.70 
  -3   5   4  213.30   10.17 
   3  -5  -4  211.60    9.79 
  -3   5   4  194.81    6.35 
   3  -5  -4  217.01    9.83 
   3  -5  -4  178.74    6.35 
   6   1   0 1217.61   28.49 
   6   1   0 1252.40   29.85 
   6   1   0 1221.57   33.31 
   4   1  -7   21.98    1.58 
  -4  -1   7   24.40    2.84 
   4   1  -7   22.93    2.77 
   4   1  -7   19.68    2.91 
  -4  -1   7   17.81    2.78 
  -4  -1   7   21.99    2.89 
   5  -1  -6  989.01   23.26 
   5  -1  -6  966.72   24.33 
   5  -1  -6  943.12   25.19 
   5  -1  -6  979.50   20.77 
  -5   1   6  987.85   22.57 
  -5   1   6  967.34   25.14 
  -5   1   6  977.96   25.97 
  -4   5   3    2.26    0.92 
   4  -5  -3    1.52    1.59 
  -4   5   3    0.73    1.03 
  -4   5   3    2.32    2.70 
   4  -5  -3    1.06    2.73 
   4  -5  -3    0.44    2.72 
  -4   5   3    4.11    1.61 
  -4   5   3    0.65    2.81 
   3   4   3  656.78   12.97 
   3   4   3  617.44   17.39 
   3   4   3  647.39   14.15 
   3   4   3  647.20   16.25 
  -3  -4  -3  653.99   12.92 
   3   4   3  643.97   21.59 
  -3  -4  -3  652.23   16.05 
   6   2  -4   25.65    1.74 
  -6  -2   4   23.01    1.73 
   6   2  -4   28.55    1.52 
   6   2  -4   20.29    2.06 
  -6  -2   4   23.59    1.54 
  -6  -2   4   23.37    3.50 
  -2   6  -3   22.19    3.68 
   2  -6   3   30.79    3.60 
   2  -6   3   25.31    4.45 
   2  -6   3   24.50    3.57 
   2  -6   3   26.19    2.81 
  -2   6  -3   23.57    3.08 
  -2   6  -3   18.25    3.56 
  -2   6  -3   25.76    4.82 
   4  -2   4 1324.80   35.58 
   4  -2   4 1361.52   33.99 
   4  -2   4 1372.53   32.31 
  -4   2  -4 1349.80   33.09 
  -4   2  -4 1350.39   34.92 
  -4   2  -4 1357.07   31.95 
   4  -2   4 1373.53   33.42 
  -4   2  -4 1370.72   31.89 
   2   4   4 1137.50   27.55 
   2   4   4 1191.05   27.64 
  -2  -4  -4 1201.24   27.90 
   2   4   4 1176.89   35.69 
  -2  -4  -4 1159.07   29.06 
   2   4   4 1129.04   34.53 
   2   4   4 1105.87   28.45 
   4   0  -7  292.27    9.20 
   4   0  -7  303.21    9.35 
   4   0  -7  289.61    7.63 
   4   0  -7  286.90    6.37 
  -4   0   7  304.73    8.88 
  -4   0   7  279.99    9.15 
  -4   0   7  297.51    9.36 
   1   2   6 1210.22   29.69 
  -1  -2  -6 1222.14   30.82 
   1   2   6 1216.61   30.31 
   1   2   6 1235.98   34.75 
  -1  -2  -6 1241.08   30.47 
  -1  -2  -6 1198.00   29.31 
   5   3   1 1186.06   33.31 
   5   3   1 1141.58   25.77 
   5   3   1 1116.47   34.81 
  -5   3  -2 1182.23   30.97 
   5  -3   2 1218.56   29.23 
  -5   3  -2 1154.87   29.56 
  -5   3  -2 1188.27   28.74 
  -5   3  -2 1216.73   28.57 
   5  -3   2 1180.81   33.62 
   5  -3   2 1179.38   25.98 
   5  -3   2 1198.07   32.37 
   4   5   0   35.02    1.62 
   4   5   0   36.50    2.28 
   4   5   0   40.63    5.56 
  -4  -5   0   36.99    1.60 
  -4  -5   0   41.44    5.57 
   4   5   0   36.64    2.11 
  -4  -5   0   38.84    2.30 
  -4   4  -3 1098.18   27.13 
  -4   4  -3 1052.73   29.52 
  -4   4  -3 1055.36   26.99 
   4  -4   3 1032.22   30.90 
   4  -4   3 1068.31   25.07 
   4  -4   3 1046.67   28.31 
   4  -4   3 1064.61   26.90 
  -4   4  -3 1032.31   28.04 
  -6   2   0 1070.58   25.25 
  -6   2   0 1059.10   27.72 
   6  -2   0 1027.56   22.69 
   6  -2   0 1061.31   20.36 
   6  -2   0 1083.08   28.20 
   6  -2   0 1036.15   28.02 
   6  -2   0 1073.43   25.51 
   1  -6   4  803.72   21.52 
   1  -6   4  753.13   22.64 
  -1   6  -4  802.39   22.38 
   1  -6   4  816.15   20.03 
   1  -6   4  783.23   22.35 
  -1   6  -4  817.04   20.01 
  -1   6  -4  806.49   22.49 
  -1   6  -4  767.09   25.19 
   3   3  -7  289.43    8.46 
   3   3  -7  294.22    9.00 
   3   3  -7  293.98    9.36 
   3   3  -7  299.11    9.18 
  -3  -3   7  294.73    8.88 
  -3  -3   7  295.79   10.12 
  -3  -3   7  298.99    9.15 
   2   0   6  309.49    7.95 
   2   0   6  317.38    8.31 
  -2   0  -6  322.76    8.37 
   2   0   6  309.55   10.51 
  -2   0  -6  317.50    8.45 
  -2   0  -6  309.31    7.88 
   2  -2   6   95.77    5.02 
  -2   2  -6   93.87    5.30 
  -2   2  -6   91.93    3.09 
   2  -2   6   90.57    3.10 
  -2   2  -6   94.33    2.93 
   2  -2   6   90.57    2.96 
   2  -2   6   94.52    2.23 
  -2   2  -6   88.85    2.98 
   0   7  -1 1148.87   30.41 
   0   7  -1 1195.48   35.65 
   0   7  -1 1206.78   35.59 
   0   7  -1 1202.36   37.47 
   0  -7   1 1214.88   35.60 
   0  -7   1 1172.63   32.14 
   0  -7   1 1258.99   37.36 
   0  -7   1 1208.97   31.32 
   3  -6  -2   14.40    4.41 
   3  -6  -2   15.15    4.30 
   3  -6  -2   12.70    2.27 
  -3   6   2   17.74    2.25 
   3  -6  -2   16.82    4.21 
  -3   6   2   15.55    3.84 
  -3   6   2   16.56    2.82 
  -3   6   2   12.00    4.28 
  -1   6   3  217.42    7.06 
  -1   6   3  222.36   10.19 
  -1   6   3  221.42   10.12 
   1  -6  -3  242.89   10.15 
   1  -6  -3  239.43   10.42 
   1  -6  -3  216.21    9.38 
   1  -6  -3  222.18    7.19 
  -1   6   3  222.09    9.26 
  -5   4  -1  346.40    7.32 
  -5   4  -1  387.14   12.63 
  -5   4  -1  357.43   12.47 
   5  -4   1  359.38    7.68 
   5  -4   1  339.29   10.46 
   5  -4   1  343.38   10.80 
   5  -4   1  366.81   12.56 
  -5   4  -1  357.51   10.86 
  -6   0   5   83.78    3.36 
   6   0  -5   92.32    4.94 
   6   0  -5   88.22    3.79 
  -6   0   5   87.81    4.35 
   6   0  -5   90.55    2.30 
   6   0  -5   93.75    4.37 
  -6   0   5   86.30    3.79 
   2   5   3  315.20    9.74 
   2   5   3  320.04    8.49 
   2   5   3  319.22   10.50 
   2   5   3  309.74   13.33 
   2   5   3  316.38    9.14 
  -2  -5  -3  327.55    8.59 
  -2  -5  -3  329.91    9.02 
  -2  -5  -3  338.28    9.84 
  -3  -1  -5  422.63    9.35 
  -3  -1  -5  425.54   10.96 
   3   1   5  428.15   13.22 
  -3  -1  -5  433.92    9.25 
   3   1   5  421.85    9.31 
   3   1   5  422.07    9.25 
   3   3   4  308.47   11.72 
   3   3   4  304.49   12.13 
  -3  -3  -4  308.64    7.88 
  -3  -3  -4  308.67    6.40 
   3   3   4  309.73    6.00 
   3   3   4  313.36    7.86 
   3   3   4  314.93    6.47 
   0  -3  -6  394.52   11.11 
   0  -3  -6  381.06   10.97 
   0   3   6  391.13   10.97 
   0   3   6  405.81   13.40 
   0   3   6  392.26   11.11 
   0   3   6  393.25   12.43 
   0  -3  -6  376.11    6.75 
   4   2  -7  539.57   13.58 
  -4  -2   7  533.86   14.04 
   4   2  -7  515.02   13.91 
   4   2  -7  509.69   12.97 
  -4  -2   7  507.83   13.76 
  -4  -2   7  525.45   12.71 
   4   2  -7  521.63   13.63 
  -1   4  -6 1108.23   26.39 
  -1   4  -6 1140.45   31.04 
   1  -4   6 1128.09   26.81 
   1  -4   6 1092.23   26.35 
   1  -4   6 1104.49   29.85 
   1  -4   6 1121.46   26.95 
  -1   4  -6 1125.63   27.01 
  -1   4  -6 1076.95   31.06 
   6  -2  -4  504.01   14.15 
   6  -2  -4  480.78   12.95 
  -6   2   4  511.88   15.81 
   6  -2  -4  517.46   14.81 
  -6   2   4  512.88   14.12 
   5   2   2  867.40   18.87 
   5   2   2  817.38   25.43 
   5   2   2  858.77   23.03 
   5   2   2  845.26   18.96 
   6   1  -5  997.24   21.59 
  -6  -1   5  986.75   25.19 
  -6  -1   5  958.08   22.31 
  -6  -1   5  991.30   24.04 
   6   1  -5  982.15   23.67 
   6   1  -5  944.27   22.32 
  -1  -5   6  572.40   14.53 
  -1  -5   6  585.36   14.10 
  -1  -5   6  594.43   15.33 
   1   5  -6  575.84   17.13 
   1   5  -6  576.24   13.96 
   1   5  -6  611.48   17.43 
   1   5  -6  582.36   15.83 
  -1  -5   6  593.04   15.91 
   0   7  -2  956.33   30.70 
   0   7  -2  965.26   27.96 
   0   7  -2  915.19   28.38 
   0   7  -2  964.63   27.72 
   0  -7   2  964.21   28.66 
   0  -7   2  917.50   24.85 
   0  -7   2  988.38   27.78 
   0  -7   2  962.56   28.03 
  -2  -5   6  609.76   16.32 
   2   5  -6  609.63   16.07 
   2   5  -6  603.22   14.71 
  -2  -5   6  614.10   16.16 
  -2  -5   6  619.66   16.18 
   2   5  -6  613.84   16.49 
  -2  -5   6  619.66   18.61 
   2   5  -6  589.76   14.98 
   0  -7   0  663.76   18.32 
   0  -7   0  662.07   20.03 
   0  -7   0  620.42   20.35 
   0   7   0  639.05   22.09 
   0   7   0  672.76   20.31 
   0   7   0  650.70   17.93 
   0  -7   0  620.37   17.36 
   0   7   0  645.63   17.64 
   1  -7   1  774.93   24.82 
   1  -7   1  784.27   20.52 
   1  -7   1  815.95   22.83 
   1  -7   1  797.89   24.59 
  -1   7  -1  755.75   22.92 
  -1   7  -1  822.99   27.40 
  -1   7  -1  809.32   24.74 
  -1   7  -1  771.60   24.54 
   2  -6  -3  447.35   16.08 
  -2   6   3  418.47   14.42 
   2  -6  -3  420.20   12.83 
   2  -6  -3  431.24   15.29 
  -2   6   3  432.71   16.27 
  -2   6   3  411.06   15.83 
   2  -6  -3  422.22   15.70 
  -2   6   3  419.16   13.03 
   3   5   2 1005.06   23.70 
   3   5   2 1036.31   25.49 
  -3  -5  -2 1028.20   25.16 
  -3  -5  -2 1028.07   32.95 
  -3  -5  -2 1004.59   23.41 
   3   5   2 1054.95   29.78 
   3   5   2 1000.00   25.17 
   4   4  -6  851.84   21.15 
  -4  -4   6  874.30   21.36 
   4   4  -6  873.15   22.90 
  -4  -4   6  871.77   22.42 
  -4  -4   6  859.18   20.98 
   4   4  -6  824.68   20.02 
   4   4  -6  864.63   20.98 
  -4   5  -2  165.08    7.32 
  -4   5  -2  175.48    5.27 
   4  -5   2  186.08    8.33 
   4  -5   2  166.15    7.19 
   4  -5   2  174.45    6.67 
   4  -5   2  169.39    4.88 
  -4   5  -2  182.46    8.91 
  -4   5  -2  159.45    8.39 
  -6   3   2  405.83   13.08 
   6  -3  -2  397.07   12.94 
  -6   3   2  397.36   13.65 
  -6   3   2  391.39   13.21 
   6  -3  -2  389.56   10.31 
   6  -3  -2  388.55   13.44 
   4   1   4  722.66   14.87 
  -4  -1  -4  711.56   14.86 
  -4  -1  -4  701.16   13.53 
   4   1   4  748.01   13.97 
   4   1   4  701.47   20.20 
   4   1   4  707.72   13.78 
   4   1   4  707.37   19.39 
   4   1   4  723.63   15.05 
   3  -3   5  480.64   12.69 
   3  -3   5  492.81   12.61 
  -3   3  -5  484.02   11.88 
  -3   3  -5  510.00   12.74 
  -3   3  -5  507.52   12.11 
   3  -3   5  509.96   13.57 
   3  -3   5  503.07   11.44 
  -3   3  -5  490.65   11.38 
   5  -3  -5  297.57    9.75 
  -5   3   5  279.61    5.56 
  -5   3   5  289.97   10.86 
  -5   3   5  288.40    6.30 
  -5   3   5  302.68   11.30 
   5  -3  -5  297.09   10.87 
   5  -3  -5  293.48   10.99 
   1  -7   0  250.49   11.11 
  -1   7   0  243.96   12.01 
  -1   7   0  249.58   11.08 
  -1   7   0  247.73   10.69 
  -1   7   0  237.39    7.36 
   1  -7   0  250.39   11.66 
   1  -7   0  238.93    7.70 
   1  -7   0  246.01   10.75 
   1   7  -1 1167.39   32.33 
   1   7  -1 1191.27   32.79 
   1   7  -1 1142.87   30.54 
  -1  -7   1 1175.07   30.56 
  -1  -7   1 1121.51   33.43 
  -1  -7   1 1200.35   37.20 
  -1  -7   1 1168.48   32.31 
   1   7  -1 1131.78   35.05 
  -3  -6   0  731.55   19.84 
   3   6   0  760.67   19.85 
   3   6   0  757.62   26.35 
   3   6   0  736.83   16.99 
  -3  -6   0  789.38   27.79 
  -3  -6   0  794.91   20.35 
  -3  -6   0  751.00   17.12 
   3   6   0  725.81   20.33 
  -1  -7   2  673.03   17.97 
  -1  -7   2  701.48   19.17 
  -1  -7   2  684.54   20.37 
  -1  -7   2  725.88   19.99 
   1   7  -2  711.18   19.81 
   1   7  -2  694.90   19.17 
   1   7  -2  674.67   20.25 
   1   7  -2  702.81   22.42 
   6  -3  -1    5.59    2.37 
   6  -3  -1    5.20    2.76 
   6  -3  -1    3.25    2.56 
  -6   3   1    5.61    1.67 
  -6   3   1    7.11    2.57 
  -6   3   1    9.31    2.35 
   3  -6   2  381.56   10.18 
  -3   6  -2  372.37   13.17 
  -3   6  -2  365.85   13.36 
   3  -6   2  352.62   13.69 
  -3   6  -2  373.51   10.60 
   3  -6   2  382.80   12.05 
  -3   6  -2  377.72   15.20 
   3  -6   2  373.37   12.93 
  -2   2   7  406.70   12.73 
  -2   2   7  414.62   10.63 
   2  -2  -7  436.99   10.68 
   2  -2  -7  401.59   12.53 
  -2   2   7  406.46   12.46 
   2  -2  -7  411.24   12.37 
   2  -2  -7  429.28   11.69 
   0   6   3  113.96    6.15 
   0   6   3  114.24    7.22 
   0  -6  -3  102.67    5.71 
   0   6   3   97.20    4.53 
   0   6   3  106.14    6.52 
   0  -6  -3  102.45    6.49 
   0  -6  -3  113.63    7.11 
   0  -6  -3  104.45    4.68 
   3   6  -4 1193.53   33.30 
   3   6  -4 1200.93   35.84 
   3   6  -4 1194.10   30.91 
   3   6  -4 1188.94   29.79 
  -3  -6   4 1183.42   35.52 
  -3  -6   4 1162.87   29.26 
  -3  -6   4 1219.62   31.05 
  -3  -6   4 1202.73   32.92 
   4  -4  -5  100.25    6.88 
   4  -4  -5  114.29    7.08 
  -4   4   5  100.67    3.67 
  -4   4   5  102.14    3.62 
  -4   4   5  108.35    7.33 
  -4   4   5  104.25    5.62 
   4  -4  -5   99.94    4.13 
  -4   4   5   93.25    7.10 
   4   4   2   13.73    4.22 
   4   4   2   17.76    1.73 
  -4  -4  -2   16.09    1.10 
  -4  -4  -2   13.30    0.84 
   4   4   2   13.97    3.93 
   4   4   2   15.18    0.85 
   4   4   2   14.61    1.09 
   0  -1  -7 1112.18   25.90 
   0   1   7 1119.69   31.50 
   0   1   7 1119.82   28.88 
   0   1   7 1109.40   26.05 
   0  -1  -7 1138.63   30.77 
   0  -1  -7 1115.05   28.74 
   2   3   5 1313.21   25.44 
  -2  -3  -5 1384.90   32.99 
   2   3   5 1363.48   39.30 
   2   3   5 1400.12   33.19 
   2   3   5 1349.60   33.46 
   2   3   5 1389.23   37.19 
  -2  -3  -5 1386.30   33.90 
   1   6  -5  698.96   18.17 
  -1  -6   5  713.89   19.45 
  -1  -6   5  679.24   18.87 
  -1  -6   5  700.89   18.19 
  -1  -6   5  704.44   19.14 
   1   6  -5  712.54   19.69 
   1   6  -5  703.54   19.19 
   1   6  -5  705.90   21.23 
   0   3  -7   69.81    4.65 
   0   3  -7   76.67    4.15 
   0   3  -7   72.86    5.26 
   0   3  -7   74.89    4.78 
   0  -3   7   84.95    4.73 
   0  -3   7   76.45    5.29 
   0  -3   7   78.30    4.68 
   5   4   0 1097.57   27.07 
   5   4   0 1047.25   29.90 
  -5  -4   0 1063.23   33.10 
  -6   1   5  275.64    6.60 
  -6   1   5  291.82    9.71 
   6  -1  -5  278.12    9.61 
   6  -1  -5  291.90    5.23 
   6  -1  -5  281.95    8.49 
  -6   1   5  285.80    8.43 
   6  -1  -5  284.95    9.41 
   4  -1  -7 1017.82   24.90 
   4  -1  -7 1028.02   24.94 
   4  -1  -7 1013.01   24.10 
  -4   1   7 1023.50   25.02 
  -4   1   7 1027.32   24.98 
  -4   1   7 1002.51   25.80 
   4  -1  -7 1002.37   24.21 
  -5   1  -3  850.16   19.09 
   5  -1   3  848.69   19.00 
   5  -1   3  831.08   17.20 
   5  -1   3  854.55   21.36 
  -5   1  -3  847.36   17.29 
  -5   1  -3  823.80   19.42 
   5  -1   3  858.28   20.42 
   6   3  -3  874.90   16.87 
   6   3  -3  888.88   20.92 
   6   3  -3  886.14   17.68 
  -6  -3   3  816.81   25.97 
   6   3  -3  857.85   22.03 
  -6  -3   3  877.39   17.60 
  -6  -3   3  850.81   16.60 
  -4  -3  -3   67.27    1.77 
   4   3   3   75.66    6.32 
   4   3   3   72.38    2.72 
  -4  -3  -3   68.93    2.61 
   4   3   3   64.77    2.37 
   4   3   3   76.81    3.72 
   4   3   3   65.61    1.78 
   6   3  -2  618.00   17.57 
   6   3  -2  673.70   15.32 
  -6  -3   2  605.47   19.41 
   6  -1   1   37.22    3.66 
   6  -1   1   33.86    1.54 
   6  -1   1   35.82    1.85 
   6  -1   1   39.65    3.19 
   6  -1   1   32.88    3.21 
  -6   1  -1   34.41    2.52 
  -6   1  -1   37.79    1.53 
   6   0   1  982.00   24.31 
   6   0   1 1012.98   19.85 
   6   0   1  970.78   22.15 
   6   0   1  976.30   26.79 
  -6   0  -1 1007.55   19.93 
  -6   0  -1  977.69   17.80 
   6   0   1  991.79   18.09 
  -4   3   6   22.17    4.09 
   4  -3  -6   23.77    4.03 
  -4   3   6   25.74    3.77 
   4  -3  -6   26.25    2.95 
   4  -3  -6   34.57    3.81 
  -4   3   6   24.91    2.06 
  -4   3   6   22.64    2.27 
  -5   0  -3   74.38    2.43 
   5   0   3   75.66    1.93 
   5   0   3   74.18    2.42 
   5   0   3   74.62    3.84 
   5   0   3   76.54    4.66 
  -5   0  -3   76.81    1.93 
   5   0   3   81.61    3.30 
  -4  -5   5  217.41    5.07 
   4   5  -5  215.91    6.68 
   4   5  -5  215.99    5.03 
  -4  -5   5  215.82    9.49 
   4   5  -5  226.72    8.55 
   4   5  -5  213.48    6.60 
  -4  -5   5  218.23    6.58 
  -1   7  -2  842.88   22.13 
   1  -7   2  864.61   27.85 
   1  -7   2  856.11   24.64 
   1  -7   2  880.49   23.10 
   1  -7   2  839.42   22.58 
  -1   7  -2  896.48   29.76 
  -1   7  -2  829.93   22.40 
  -1   7  -2  856.15   22.87 
   6  -3  -3 1198.37   31.43 
  -6   3   3 1261.65   37.46 
   6  -3  -3 1250.85   37.18 
   6  -3  -3 1224.38   34.68 
  -6   3   3 1207.43   31.87 
  -1  -5  -4    6.56    1.99 
   1   5   4    0.09    2.83 
   1   5   4   -0.07    2.90 
  -1  -5  -4    2.03    1.31 
  -1  -5  -4    3.53    1.82 
   1   5   4    1.72    1.64 
   1   5   4    4.37    1.83 
   1   5   4    3.01    2.01 
   4  -3   4  283.15    6.59 
   4  -3   4  275.66    9.93 
  -4   3  -4  287.82    8.75 
  -4   3  -4  277.27    7.78 
  -4   3  -4  300.62    8.33 
   4  -3   4  286.21    7.87 
  -4   3  -4  296.06    8.91 
   4  -3   4  292.47    8.74 
   6   2   0   68.88    5.09 
   6   2   0   58.74    4.01 
   2   1   6   29.50    2.31 
  -2  -1  -6   24.38    2.62 
   2   1   6   33.24    2.55 
   2   1   6   30.69    2.46 
  -2  -1  -6   35.78    2.31 
  -2  -1  -6   26.79    2.48 
  -3   2   7  152.38    4.43 
  -3   2   7  145.73    5.03 
  -3   2   7  148.07    5.03 
   3  -2  -7  140.58    5.10 
   3  -2  -7  145.17    5.26 
   3  -2  -7  146.90    6.96 
   3  -2  -7  142.00    4.57 
   5   3  -6   49.92    3.79 
   5   3  -6   46.93    3.36 
   5   3  -6   45.26    2.05 
   5   3  -6   46.82    3.11 
  -5  -3   6   48.27    4.24 
  -5  -3   6   49.61    2.05 
  -5  -3   6   47.71    3.05 
   5   4  -5  755.24   20.19 
  -5  -4   5  734.41   22.57 
  -5  -4   5  706.75   16.40 
  -5  -4   5  749.00   16.94 
   5   4  -5  732.91   16.85 
   5   4  -5  734.48   19.63 
   5   4  -5  717.26   16.47 
   5  -4  -4  109.70    7.33 
   5  -4  -4   98.58    4.89 
  -5   4   4  103.23    7.43 
  -5   4   4  110.97    2.65 
  -5   4   4  109.13    4.85 
  -5   4   4  106.28    2.37 
  -5   4   4  108.99    6.64 
   5  -4  -4  104.74    4.52 
   1   4   5  199.44    9.43 
   1   4   5  182.16    4.67 
   1   4   5  199.07    6.50 
  -1  -4  -5  181.33    6.80 
  -1  -4  -5  196.49    3.97 
   1   4   5  185.12    8.84 
  -1  -4  -5  207.13    6.60 
   1   4   5  180.88    6.68 
   0  -5   6  393.69   11.95 
   0  -5   6  413.21   12.57 
   0   5  -6  405.83   12.15 
   0   5  -6  402.95   12.92 
   0  -5   6  405.71   11.03 
   0  -5   6  404.73   12.80 
   0   5  -6  398.14   12.40 
   0   5  -6  393.37   13.43 
   2  -3   6  447.26   12.34 
   2  -3   6  436.21   11.91 
  -2   3  -6  447.97   12.03 
  -2   3  -6  436.29   11.10 
  -2   3  -6  445.85   11.07 
   2  -3   6  447.95   10.91 
  -2   3  -6  429.69   12.32 
   2  -3   6  443.54    9.87 
   1  -2  -7  367.81   11.26 
   1  -2  -7  394.48    8.42 
  -1   2   7  388.59   11.47 
  -1   2   7  374.70   10.17 
  -1   2   7  373.24   11.33 
   1  -2  -7  366.66   11.20 
   1  -2  -7  370.11   11.60 
   6   2  -5  201.19    5.36 
   6   2  -5  206.93    5.72 
  -6  -2   5  197.46    4.34 
   6   2  -5  207.06    5.72 
  -6  -2   5  215.80    8.19 
  -6  -2   5  200.85    5.67 
   2   6  -5  236.86   10.14 
  -2  -6   5  227.25    7.78 
  -2  -6   5  229.87    8.48 
   2   6  -5  209.90    7.74 
  -2  -6   5  223.21    7.98 
   2   6  -5  222.20    7.95 
   2   6  -5  232.16    6.83 
  -2  -6   5  238.47    9.86 
  -1  -7   0  499.63   13.61 
  -1  -7   0  480.94   14.84 
   1   7   0  497.02   14.46 
   1   7   0  486.76   16.02 
   1   7   0  490.87   14.84 
   1   7   0  466.32   13.85 
  -1  -7   0  487.87   18.55 
  -1  -7   0  481.95   15.74 
  -5   2   6  883.58   22.09 
   5  -2  -6  907.16   22.78 
   5  -2  -6  894.96   18.80 
  -5   2   6  896.64   20.31 
   5  -2  -6  891.78   25.22 
  -5   2   6  899.39   22.75 
   5  -2  -6  905.37   23.59 
   2   4  -7  533.07   13.21 
   2   4  -7  526.93   15.03 
   2   4  -7  545.44   14.69 
  -2  -4   7  534.90   15.10 
  -2  -4   7  523.45   13.59 
  -2  -4   7  516.30   14.76 
   2   4  -7  515.41   14.49 
   0  -6   5  968.09   26.51 
   0  -6   5  976.57   27.17 
   0  -6   5  940.81   23.58 
   0   6  -5  969.98   25.00 
   0   6  -5  973.40   29.93 
   0   6  -5  967.58   26.63 
   0   6  -5  979.62   26.98 
   0  -6   5  977.69   26.92 
   5  -2   3  338.73    7.82 
  -5   2  -3  334.97    9.51 
  -5   2  -3  344.76    9.10 
  -5   2  -3  334.03    7.82 
   5  -2   3  342.16    8.54 
   5  -2   3  339.26   10.88 
   5  -2   3  335.44    8.99 
  -1   7   1   64.21    5.36 
  -1   7   1   38.37    3.36 
  -1   7   1   42.27    3.62 
   1  -7  -1   46.01    4.79 
   1  -7  -1   34.54    3.47 
   1  -7  -1   36.99    3.35 
   1  -7  -1   35.12    3.57 
  -1   7   1   47.88    4.59 
   3   5  -6  832.41   21.08 
   3   5  -6  850.11   21.96 
   3   5  -6  824.31   19.10 
   3   5  -6  845.90   20.45 
  -3  -5   6  843.75   19.64 
  -3  -5   6  854.70   25.51 
  -3  -5   6  857.71   19.67 
   0  -7   3  277.83   10.47 
   0  -7   3  253.78    9.86 
   0   7  -3  258.63    9.09 
   0   7  -3  277.05   10.42 
   0   7  -3  249.59    7.72 
   0   7  -3  269.35    8.47 
   0  -7   3  259.91    8.32 
   0  -7   3  267.03   10.52 
  -1  -7   3  185.18    6.43 
  -1  -7   3  190.45    7.76 
   1   7  -3  189.41    7.84 
   1   7  -3  178.23    6.90 
   1   7  -3  188.91    7.03 
  -1  -7   3  186.04    9.13 
  -1  -7   3  181.60    5.66 
   1   7  -3  178.24    5.67 
   6   3  -4  717.78   14.49 
   6   3  -4  738.51   15.26 
   6   3  -4  744.12   17.69 
  -6  -3   4  700.94   14.33 
  -6  -3   4  730.59   15.05 
  -6  -3   4  688.07   19.41 
   6   3  -4  714.69   18.06 
  -1  -4   7  923.34   22.34 
   1   4  -7  908.12   25.70 
   1   4  -7  917.74   24.35 
   1   4  -7  899.39   21.38 
   1   4  -7  915.59   22.22 
  -1  -4   7  954.94   26.74 
  -1  -4   7  916.15   21.65 
   0  -7  -1   46.79    5.03 
   0  -7  -1   41.60    5.14 
   0  -7  -1   38.37    5.45 
   0  -7  -1   44.57    4.82 
   0   7   1   46.04    5.18 
   0   7   1   41.25    5.14 
   0   7   1   45.60    4.82 
   0   7   1   47.14    5.28 
  -1   1  -7  730.84   18.66 
   1  -1   7  757.54   19.38 
  -1   1  -7  748.83   19.04 
  -1   1  -7  753.25   21.26 
   1  -1   7  747.23   18.84 
   1  -1   7  741.95   21.17 
   6  -3   0  375.27   12.43 
  -6   3   0  365.77   12.33 
   6  -3   0  354.21    5.75 
   6  -3   0  364.60    6.79 
  -6   3   0  373.90   10.64 
   6  -3   0  364.49   12.52 
   6  -3   0  361.86   10.59 
  -6   3   0  360.12   11.56 
  -4  -3   7  627.28   16.29 
  -4  -3   7  635.80   16.72 
   4   3  -7  631.05   16.44 
   4   3  -7  613.91   14.52 
   4   3  -7  616.76   16.04 
   4   3  -7  631.09   16.57 
  -4  -3   7  614.67   17.81 
  -5   5   1  970.87   27.16 
  -5   5   1  920.79   17.72 
   5  -5  -1  967.89   27.08 
  -5   5   1  962.82   30.40 
  -5   5   1  997.80   30.93 
   5  -5  -1  956.21   29.89 
   5  -5  -1  952.94   18.90 
   5  -5  -1  974.94   30.89 
   2  -7   0   94.62    5.14 
   2  -7   0   87.80    5.36 
  -2   7   0   83.05    7.38 
   2  -7   0   88.57    7.38 
  -2   7   0   91.83    7.89 
  -2   7   0   84.72    7.40 
  -2   7   0   84.93    5.26 
   2  -7   0   96.81    7.91 
   6  -2   1  388.96   11.11 
   6  -2   1  374.10    7.33 
   6  -2   1  388.70   11.87 
   6  -2   1  383.53    8.99 
  -6   2  -1  376.40   11.03 
  -6   2  -1  364.73    8.45 
   6  -2   1  370.23    8.51 
  -4   5   4  356.02   14.11 
  -4   5   4  331.32    9.06 
  -4   5   4  331.79    9.88 
  -4   5   4  341.91   14.10 
   4  -5  -4  344.78   14.65 
   4  -5  -4  318.90    9.92 
   4  -5  -4  353.16   10.67 
  -4   5   4  331.24    8.56 
   3  -5   4 1042.62   31.22 
  -3   5  -4 1034.34   32.43 
   3  -5   4 1058.48   29.86 
   3  -5   4 1049.22   28.17 
   3  -5   4 1064.25   27.07 
  -3   5  -4 1076.14   29.97 
  -3   5  -4 1064.58   28.39 
  -3   5  -4 1056.69   28.40 
   6   1   1  690.40   20.94 
   6   1   1  700.09   16.77 
   6   1   1  695.77   16.86 
  -3   6   3  937.23   24.82 
  -3   6   3 1015.87   26.53 
   3  -6  -3 1011.90   28.47 
  -3   6   3  990.11   28.19 
   3  -6  -3  984.87   30.90 
  -3   6   3  934.45   26.83 
   3  -6  -3  973.71   27.42 
  -3   6   3  939.46   29.77 
   6   3  -1   51.57    4.59 
   6   3  -1   50.74    3.59 
  -6  -3   1   49.75    4.60 
   2   6   2  289.26    9.75 
  -2  -6  -2  283.05    8.96 
   2   6   2  286.56    9.09 
   2   6   2  326.43   13.72 
  -2  -6  -2  291.87   10.37 
  -2  -6  -2  288.00    8.69 
  -2   5  -5  268.08    9.11 
  -2   5  -5  282.58    9.38 
   2  -5   5  270.73    9.53 
   2  -5   5  268.97    7.08 
   2  -5   5  269.69    9.20 
  -2   5  -5  250.57    7.21 
  -2   5  -5  268.62   11.49 
   2  -5   5  261.11    9.17 
   2  -7   1  578.43   17.03 
   2  -7   1  593.16   16.77 
   2  -7   1  623.70   21.80 
   2  -7   1  580.40   20.18 
  -2   7  -1  577.30   19.70 
  -2   7  -1  606.64   16.96 
  -2   7  -1  559.68   17.02 
  -2   7  -1  596.94   22.41 
  -2   5   5  559.36   16.53 
  -2   5   5  554.03   14.18 
  -2   5   5  570.86   19.03 
  -2   5   5  566.16   18.69 
  -2   5   5  538.27   15.50 
   2  -5  -5  568.93   19.06 
   2  -5  -5  583.74   17.33 
   2  -5  -5  553.38   18.58 
   4   5   1  618.94   11.61 
   4   5   1  651.30   12.28 
   4   5   1  667.71   19.78 
  -4  -5  -1  629.24   11.57 
  -4  -5  -1  638.28   22.91 
  -4  -5  -1  667.02   12.96 
   4   5   1  617.88   14.20 
   1  -2   7  801.63   20.02 
  -1   2  -7  816.08   20.86 
  -1   2  -7  780.40   17.41 
  -1   2  -7  809.50   22.68 
  -1   2  -7  813.43   21.05 
   1  -2   7  823.94   20.98 
   1  -2   7  812.35   21.26 
  -2  -7   2  508.51   14.08 
   2   7  -2  521.35   15.17 
   2   7  -2  506.92   14.20 
   2   7  -2  509.72   15.02 
  -2  -7   2  533.05   19.37 
   2   7  -2  505.53   17.20 
  -2  -7   2  504.96   15.15 
  -2  -7   2  501.25   15.97 
   2  -4  -6  266.09    8.29 
   2  -4  -6  261.54   10.20 
   2  -4  -6  253.33   10.16 
  -2   4   6  241.75    8.45 
  -2   4   6  251.09   10.17 
  -2   4   6  259.01   10.34 
  -2   4   6  234.26    6.97 
  -2   4   6  245.44    9.23 
  -4   6   1  172.60    7.45 
  -4   6   1  173.22    9.69 
  -4   6   1  156.58    5.88 
   4  -6  -1  175.82    7.41 
   4  -6  -1  161.11    9.43 
   4  -6  -1  168.51    5.20 
   4  -6  -1  169.66   10.19 
  -4   6   1  166.38    9.45 
   5  -5  -2  261.41   11.64 
  -5   5   2  255.32   11.53 
  -5   5   2  288.00   11.88 
  -5   5   2  235.46    4.03 
   5  -5  -2  262.56   11.62 
   5  -5  -2  240.28   11.69 
  -5   5   2  239.89   11.77 
  -5  -1  -3  312.85    5.55 
  -5  -1  -3  305.26    5.24 
   5   1   3  310.71    9.67 
   5   1   3  303.03    5.30 
   5   1   3  314.53    8.40 
   5   1   3  312.69    6.01 
   5   1   3  308.96   11.10 
  -1   0  -7    6.46    1.90 
  -1   0  -7    4.59    2.64 
   1   0   7    7.11    2.62 
   1   0   7    4.25    1.95 
  -1   0  -7    3.82    1.95 
   1   0   7    5.19    1.91 
  -4   6   0 1062.19   33.59 
  -4   6   0 1051.19   27.10 
   4  -6   0 1031.04   33.84 
   4  -6   0 1088.57   34.39 
   4  -6   0 1049.65   32.64 
   4  -6   0 1033.35   24.93 
  -4   6   0 1009.85   32.85 
  -4   6   0 1072.24   34.82 
   1  -5  -5  354.16   10.21 
   1  -5  -5  430.12   12.55 
  -1   5   5  353.90   10.31 
  -1   5   5  361.54   13.06 
  -1   5   5  369.04   10.53 
  -1   5   5  365.20   10.32 
   1  -5  -5  358.10   10.21 
  -1   5   5  366.87   10.10 
   3   4  -7  209.31    7.33 
   3   4  -7  194.96    5.53 
   3   4  -7  204.46    7.48 
  -3  -4   7  201.89    6.36 
  -3  -4   7  203.22    7.23 
  -3  -4   7  205.05    7.31 
   3   4  -7  200.29    5.94 
  -5   5   0  830.08   23.12 
   5  -5   0  796.70   16.16 
   5  -5   0  801.33   25.06 
  -5   5   0  845.12   27.04 
  -5   5   0  827.45   25.34 
  -5   5   0  779.04   16.59 
   5  -5   0  825.01   27.22 
   5  -5   0  854.52   27.40 
   3   2   5  123.52    3.65 
   3   2   5  128.80    6.95 
  -3  -2  -5  126.66    3.73 
  -3  -2  -5  121.62    4.49 
   3   2   5  123.31    5.00 
   3   2   5  117.05    3.72 
   2   7  -1  763.01   23.97 
   2   7  -1  796.55   22.55 
   2   7  -1  761.88   20.38 
   2   7  -1  807.98   26.59 
  -2  -7   1  783.41   20.79 
  -2  -7   1  785.91   22.75 
  -2  -7   1  790.23   20.18 
  -2  -7   1  823.21   23.96 
   5  -4   2  947.57   20.78 
   5  -4   2  973.62   26.20 
   5  -4   2  923.06   24.34 
  -5   4  -2  922.97   27.12 
  -5   4  -2  947.37   24.92 
  -5   4  -2  933.12   22.07 
  -5   4  -2  949.72   27.29 
   5  -4   2  928.14   24.44 
  -5  -5   3  447.63   14.25 
  -5  -5   3  446.45   10.25 
  -5  -5   3  444.87    9.57 
   5   5  -3  438.85   14.92 
   5   5  -3  444.19   13.40 
   5   5  -3  437.56   10.31 
   5   5  -3  448.18    9.74 
  -2   6  -4  645.78   18.42 
   2  -6   4  654.44   16.88 
   2  -6   4  675.34   18.36 
   2  -6   4  682.13   19.60 
   2  -6   4  663.83   21.33 
  -2   6  -4  664.55   17.34 
  -2   6  -4  636.87   23.18 
  -2   6  -4  686.98   19.91 
   5   1  -7   29.49    3.15 
  -5  -1   7   30.58    2.98 
  -5  -1   7   27.36    3.17 
  -5  -1   7   25.56    3.08 
   5   1  -7   26.88    3.12 
   5   1  -7   28.37    2.45 
   5   5  -2  911.77   18.25 
   5   5  -2  884.45   24.34 
  -5  -5   2  895.03   17.91 
  -5  -5   2  907.93   27.06 
   5   5  -2  915.30   24.98 
   5   5  -2  913.74   19.22 
  -5  -5   2  886.19   18.76 
   6  -2  -5  946.66   25.77 
   6  -2  -5  945.35   25.57 
  -6   2   5  918.24   26.74 
  -6   2   5  878.88   16.69 
  -6   2   5  875.08   15.51 
   6  -2  -5  952.58   27.22 
  -6   2   5  944.97   25.34 
  -2   7   1  100.84    7.67 
   2  -7  -1  100.18    7.88 
   2  -7  -1   94.22    5.01 
   2  -7  -1   86.30    5.77 
   2  -7  -1  111.31    7.88 
  -2   7   1  106.70    7.83 
  -2   7   1   91.91    5.21 
  -2   7   1   86.77    5.41 
   1   6   3   71.00    5.27 
   1   6   3   68.46    4.90 
  -1  -6  -3   69.15    5.17 
  -1  -6  -3   67.46    4.20 
  -1  -6  -3   77.37    5.10 
   1   6   3   67.47    4.99 
   1   6   3   66.82    4.64 
  -1  -6  -3   76.68    6.73 
   1  -4  -6  245.16    9.32 
   1  -4  -6  250.17    9.64 
   1  -4  -6  275.96    9.59 
  -1   4   6  256.23    9.58 
  -1   4   6  233.93    6.01 
  -1   4   6  228.08    9.15 
  -1   4   6  240.55    7.63 
  -1   4   6  252.84    9.58 
   4   2   4  191.00    3.98 
   4   2   4  195.19    4.10 
   4   2   4  196.86    8.40 
   4   2   4  184.17    4.08 
   4   2   4  206.56    6.83 
   4   2   4  191.91    4.46 
  -4  -2  -4  189.14    3.97 
  -4  -2  -4  177.68    4.34 
   5   0  -7  633.85   16.11 
  -5   0   7  667.19   17.13 
  -5   0   7  639.30   17.76 
  -5   0   7  612.81   14.75 
   5   0  -7  603.20   14.57 
   5   0  -7  641.15   17.45 
   5   0  -7  614.85   14.36 
  -6   3   4  586.35   19.05 
   6  -3  -4  554.82   17.01 
  -6   3   4  540.21   17.33 
   6  -3  -4  567.56   18.83 
   6  -3  -4  566.49   14.49 
   4   6  -2  198.30    5.16 
  -4  -6   2  194.86    5.96 
  -4  -6   2  195.08   11.98 
   4   6  -2  212.63    7.62 
  -4  -6   2  197.19    5.09 
   4   6  -2  200.91    6.02 
   4   6  -2  194.69    8.20 
   1  -7   3  147.79    7.80 
  -1   7  -3  151.12    8.00 
  -1   7  -3  130.92    5.59 
  -1   7  -3  138.37    9.47 
  -1   7  -3  137.39    7.41 
   1  -7   3  129.29    6.69 
   1  -7   3  127.35    5.65 
   1  -7   3  143.93    8.51 
   2   1  -8    2.06    1.35 
   2   1  -8    4.27    1.42 
  -2  -1   8    2.76    2.38 
  -2  -1   8    4.82    2.29 
  -2  -1   8    4.07    1.44 
   2   1  -8    2.80    1.50 
   2   1  -8    3.05    2.25 
  -2  -7   3   34.36    3.56 
  -2  -7   3   31.37    5.27 
  -2  -7   3   35.11    2.90 
   2   7  -3   43.10    3.41 
   2   7  -3   33.78    2.22 
   2   7  -3   28.45    4.90 
   2   7  -3   37.04    3.59 
  -2  -7   3   30.01    2.26 
  -4  -6   3  711.39   16.23 
  -4  -6   3  701.17   21.03 
   4   6  -3  705.55   17.75 
   4   6  -3  675.29   16.43 
   4   6  -3  700.05   16.24 
  -4  -6   3  677.20   16.44 
   4   6  -3  681.70   19.32 
  -3  -6  -1 1278.03   31.10 
  -3  -6  -1 1341.18   44.10 
   3   6   1 1282.55   35.12 
   3   6   1 1216.30   31.89 
  -3  -6  -1 1292.04   33.99 
   3   6   1 1289.40   31.37 
  -3  -6  -1 1265.22   32.48 
   3   6   1 1311.29   38.35 
  -1  -3  -6  452.75   12.24 
  -1  -3  -6  459.65   12.21 
   1   3   6  448.56   12.13 
   1   3   6  452.02   12.91 
   1   3   6  449.00   11.98 
   1   3   6  470.97   15.29 
   4  -2  -7  166.28    5.92 
   4  -2  -7  169.96    5.44 
   4  -2  -7  171.77    6.01 
  -4   2   7  182.02    6.16 
   4  -2  -7  184.85    8.01 
  -4   2   7  180.50    5.96 
  -4   2   7  183.17    8.19 
  -3   4  -5  114.78    5.78 
  -3   4  -5   99.61    3.77 
  -3   4  -5  110.84    5.18 
   3  -4   5  101.75    5.39 
   3  -4   5  105.56    3.60 
   3  -4   5  108.28    5.00 
   3  -4   5  101.93    3.83 
  -3   4  -5  101.44    5.50 
  -3   4   6  559.50   18.21 
  -3   4   6  539.53   14.72 
  -3   4   6  555.46   15.21 
  -3   4   6  548.46   14.66 
  -3   4   6  545.66   18.50 
   3  -4  -6  547.24   16.03 
   3  -4  -6  559.42   18.74 
   3  -4  -6  561.96   18.15 
  -3  -6   5  596.80   14.85 
   3   6  -5  590.82   18.42 
   3   6  -5  637.22   20.26 
   3   6  -5  591.15   16.03 
   3   6  -5  619.69   15.86 
  -3  -6   5  587.54   15.83 
  -3  -6   5  591.28   16.45 
  -3  -6   5  599.51   15.78 
   6   0  -6  111.74    3.69 
   6   0  -6  111.39    5.54 
   6   0  -6   99.84    3.46 
  -6   0   6  116.22    4.38 
  -6   0   6  105.63    3.75 
  -6   0   6  101.52    3.47 
   6   0  -6  109.17    3.72 
  -4   6   2   69.75    7.42 
  -4   6   2   63.32    3.72 
  -4   6   2   68.80    4.65 
   4  -6  -2   72.77    3.81 
   4  -6  -2   71.25    4.77 
   4  -6  -2   75.32    7.21 
   4  -6  -2   59.09    4.66 
  -4   6   2   68.66    4.32 
  -6  -1   6  283.31    8.83 
   6   1  -6  277.70    8.26 
   6   1  -6  275.68    6.82 
   6   1  -6  266.13    7.96 
  -6  -1   6  271.87    8.10 
  -6  -1   6  270.43    7.90 
   1   7   1   -0.72    2.68 
   1   7   1    5.25    2.30 
   1   7   1    2.05    1.45 
   1   7   1    1.16    1.22 
  -1  -7  -1    1.14    1.26 
  -1  -7  -1   -1.21    1.47 
  -1  -7  -1    0.17    2.11 
  -1  -7  -1    0.80    2.82 
   3  -6   3    5.22    1.86 
   3  -6   3    1.85    3.37 
   3  -6   3    5.56    2.85 
   3  -6   3    5.20    2.71 
  -3   6  -3    5.61    1.95 
  -3   6  -3    4.84    2.90 
  -3   6  -3    6.11    2.67 
  -3   6  -3    3.10    3.35 
   5   3   2  709.88   24.50 
   5   3   2  734.65   22.32 
   5   3   2  740.05   16.61 
   0  -2  -7  618.79   16.72 
   0  -2  -7  619.76   18.49 
   0  -2  -7  613.18   16.58 
   0   2   7  608.00   16.55 
   0   2   7  625.99   19.30 
   0   2   7  620.91   16.66 
  -2   7  -2  560.08   19.19 
  -2   7  -2  527.79   15.74 
   2  -7   2  562.75   17.04 
   2  -7   2  554.12   19.33 
  -2   7  -2  554.97   21.38 
  -2   7  -2  537.91   14.21 
   2  -7   2  538.67   15.80 
   2  -7   2  542.29   15.72 
   0  -4   7  949.71   24.97 
   0   4  -7  950.37   26.68 
   0   4  -7  908.24   22.34 
   0  -4   7  911.82   25.97 
   0   4  -7  863.77   25.00 
   0   4  -7  925.34   24.97 
   0  -4   7  890.62   20.80 
   0  -4   7  920.68   22.57 
   3  -5  -5  345.11   14.34 
  -3   5   5  362.47   14.58 
  -3   5   5  376.93   14.81 
  -3   5   5  349.45   10.65 
  -3   5   5  363.41   12.11 
  -3   5   5  355.32   10.83 
   3  -5  -5  378.59   14.62 
   3  -5  -5  382.38   12.93 
   3   1  -8    9.87    1.66 
  -3  -1   8    8.57    2.81 
   3   1  -8    9.13    1.80 
   3   1  -8   12.40    2.71 
   3   1  -8   10.70    2.47 
  -3  -1   8    8.84    1.83 
  -3  -1   8   11.34    2.76 
  -5   3  -3   68.61    3.71 
  -5   3  -3   83.87    4.48 
  -5   3  -3   69.63    3.53 
  -5   3  -3   72.19    4.13 
   5  -3   3   72.11    4.41 
   5  -3   3   73.02    3.21 
   5  -3   3   72.54    5.56 
   5  -3   3   69.67    3.42 
  -4   6  -1 1154.89   32.56 
  -4   6  -1 1125.73   32.44 
   4  -6   1 1179.34   33.08 
  -4   6  -1 1153.72   35.55 
  -4   6  -1 1154.26   29.47 
   4  -6   1 1168.76   35.82 
   4  -6   1 1247.90   35.16 
   4  -6   1 1158.89   29.68 
  -2  -2   8  978.84   25.57 
   2   2  -8 1034.63   28.20 
  -2  -2   8 1025.45   27.76 
   2   2  -8 1014.71   27.62 
  -2  -2   8 1012.15   24.96 
   2   2  -8 1060.02   24.75 
   2   2  -8  994.30   24.69 
   2   0  -8  722.91   14.42 
  -2   0   8  740.55   18.05 
  -2   0   8  771.81   21.19 
   2   0  -8  767.66   20.79 
   2   0  -8  767.60   18.40 
   2   0  -8  750.30   15.22 
   2   0  -8  738.86   17.95 
  -2   0   8  751.67   18.70 
  -5  -2   7 1252.57   32.78 
   5   2  -7 1263.20   30.89 
   5   2  -7 1271.12   33.09 
   5   2  -7 1292.75   32.67 
   5   2  -7 1243.72   32.26 
  -5  -2   7 1301.84   36.31 
  -5  -2   7 1294.04   33.32 
  -4   5  -3  986.90   31.11 
   4  -5   3 1007.86   29.20 
  -4   5  -3  995.81   24.96 
   4  -5   3 1009.22   24.45 
   4  -5   3 1003.58   32.02 
  -4   5  -3  982.19   25.31 
   4  -5   3  980.70   24.51 
  -4   5  -3 1011.04   29.65 
  -5  -5   4    7.23    1.47 
  -5  -5   4    9.27    1.40 
  -5  -5   4   10.07    2.51 
   5   5  -4    6.92    1.90 
   5   5  -4    7.80    1.40 
   5   5  -4    8.14    2.90 
   5   5  -4    8.02    1.82 
  -6  -3   5   61.28    2.74 
  -6  -3   5   60.75    2.84 
   6   3  -5   63.66    2.84 
  -6  -3   5   71.72    5.61 
   6   3  -5   67.00    3.56 
   6   3  -5   57.74    2.73 
   6   3  -5   62.94    4.84 
   1  -6   5  694.05   20.50 
  -1   6  -5  722.58   18.17 
   1  -6   5  722.95   20.43 
  -1   6  -5  699.89   23.70 
   1  -6   5  716.55   20.47 
   1  -6   5  716.49   18.04 
  -1   6  -5  721.54   21.20 
  -1   6  -5  701.18   20.31 
   5   4   1  270.68    7.51 
  -5  -4  -1  266.75   11.92 
   5   4   1  279.95   13.09 
  -4  -6   1  173.14    5.92 
  -4  -6   1  160.80    4.11 
  -4  -6   1  169.22   11.27 
   4   6  -1  167.39    7.29 
   4   6  -1  166.61    4.16 
   4   6  -1  190.80    5.91 
   4   6  -1  180.58   10.47 
  -7   0   3 1175.63   26.00 
   7   0  -3 1209.65   31.25 
   7   0  -3 1247.47   33.45 
   7   0  -3 1195.56   24.25 
   7   0  -3 1179.78   26.09 
   7   0  -3 1226.52   24.90 
  -7   0   3 1192.59   31.21 
   5   5  -1  919.27   24.20 
  -5  -5   1  857.69   25.97 
  -5  -5   1  884.00   15.85 
   5   5  -1  837.67   17.47 
   5   5  -1  894.81   15.91 
   5   5  -1  892.10   25.48 
  -5  -5   1  866.20   17.42 
  -5   5   3   14.53    1.05 
  -5   5   3    9.31    2.53 
   5  -5  -3   12.34    2.60 
   5  -5  -3   12.98    4.28 
   5  -5  -3   17.08    4.23 
  -5   5   3   14.70    4.24 
  -5   5   3   13.02    4.28 
  -5   5   3   11.78    0.96 
   1  -3   7    3.55    1.50 
   1  -3   7    2.10    1.27 
  -1   3  -7    1.05    1.52 
  -1   3  -7    0.92    2.08 
  -1   3  -7    4.94    1.87 
   1  -3   7    4.14    1.22 
   1  -3   7    2.34    2.06 
  -1   3  -7    0.14    1.94 
   7   0  -2  405.99    7.56 
   7   0  -2  391.27    8.34 
   7   0  -2  410.24    7.75 
  -7   0   2  396.26    8.33 
  -7   0   2  407.32    9.64 
   7   0  -2  414.13   10.32 
   7   0  -2  408.15    9.61 
  -1  -7   4   44.02    4.21 
  -1  -7   4   41.30    4.03 
  -1  -7   4   34.82    3.15 
  -1  -7   4   34.48    2.98 
   1   7  -4   35.15    3.50 
   1   7  -4   40.09    3.56 
   1   7  -4   38.21    4.33 
   1   7  -4   39.55    4.11 
   1  -7  -2  394.56   12.35 
   1  -7  -2  413.97   12.37 
   1  -7  -2  417.28   14.58 
  -1   7   2  409.15   12.33 
  -1   7   2  398.82   12.72 
   1  -7  -2  415.78   12.86 
  -1   7   2  422.69   14.80 
  -1   7   2  398.83   15.77 
  -2  -2  -6  679.10   16.29 
   2   2   6  678.44   20.75 
   2   2   6  683.76   21.13 
  -2  -2  -6  663.47   15.94 
   2   2   6  659.95   15.96 
   2   2   6  679.27   16.24 
  -1   5  -6  223.24    8.41 
  -1   5  -6  217.20    8.73 
  -1   5  -6  207.22    9.64 
  -1   5  -6  212.39    8.60 
   1  -5   6  212.83    7.37 
   1  -5   6  218.05    8.57 
   1  -5   6  219.67    8.60 
   1  -5   6  208.68    8.26 
   2   7   0  889.35   27.61 
  -2  -7   0  890.18   22.62 
  -2  -7   0  859.07   23.44 
  -2  -7   0  937.83   27.32 
  -2  -7   0  904.84   26.52 
   2   7   0  866.51   23.64 
   2   7   0  916.51   30.89 
   2   7   0  927.19   26.85 
  -1   6   4  844.11   26.51 
  -1   6   4  839.73   25.00 
   1  -6  -4  861.61   27.16 
   1  -6  -4  886.98   27.32 
   1  -6  -4  931.47   27.37 
  -1   6   4  888.68   27.63 
  -1   6   4  839.15   26.61 
  -1   6   4  868.16   23.51 
   1   1  -8   23.41    3.60 
  -1  -1   8   21.88    2.59 
  -1  -1   8   33.76    3.44 
   1   1  -8   26.58    2.38 
  -1  -1   8   20.23    3.57 
   1   1  -8   29.38    3.47 
   1   1  -8   25.96    1.61 
   3   0  -8 1013.43   26.32 
  -3   0   8  972.11   27.80 
  -3   0   8 1019.66   28.11 
  -3   0   8 1023.01   27.95 
   3   0  -8 1013.17   28.26 
   3   0  -8 1012.42   27.57 
   3   0  -8 1008.03   22.41 
  -6   4   2  923.19   25.59 
  -6   4   2  892.10   27.75 
  -6   4   2  906.33   24.77 
   6  -4  -2  938.49   28.53 
   6  -4  -2  893.03   23.93 
   6  -4  -2  907.90   25.31 
   0   5   5  555.62   15.87 
   0   5   5  540.45   14.51 
   0   5   5  577.66   17.15 
   0  -5  -5  554.21   14.16 
   0   5   5  577.44   19.37 
   0  -5  -5  550.00   14.35 
   0  -5  -5  569.24   14.51 
   0   5   5  565.92   18.71 
  -4   4  -4  164.41    5.28 
  -4   4  -4  157.98    4.66 
  -4   4  -4  160.06    6.45 
   4  -4   4  164.65    4.64 
   4  -4   4  165.12    8.03 
   4  -4   4  171.54    5.27 
  -4   4  -4  164.13    7.00 
   4  -4   4  166.01    5.82 
  -2   4  -6 1060.39   27.80 
  -2   4  -6 1136.95   33.13 
  -2   4  -6 1062.31   28.57 
   2  -4   6  988.25   25.41 
   2  -4   6 1081.34   28.97 
   2  -4   6 1059.65   28.77 
   2  -4   6 1058.07   27.97 
  -2   4  -6 1065.37   27.17 
  -2   6   4  674.57   20.95 
   2  -6  -4  682.29   19.20 
   2  -6  -4  704.66   23.75 
  -2   6   4  675.97   20.50 
  -2   6   4  684.98   23.46 
  -2   6   4  687.32   20.52 
  -2   6   4  673.52   19.41 
   2  -6  -4  694.57   21.80 
  -3  -2   8  636.98   18.69 
   3   2  -8  645.53   17.66 
   3   2  -8  631.02   17.93 
   3   2  -8  630.57   17.56 
   3   2  -8  613.76   15.26 
  -3  -2   8  627.90   17.97 
  -3  -2   8  610.00   17.36 
  -6   4   1  468.44   15.99 
  -6   4   1  474.85   16.35 
  -6   4   1  463.51   13.44 
   6  -4  -1  485.40   16.97 
   6  -4  -1  485.21   13.78 
   6  -4  -1  454.01   15.73 
  -1  -1  -7  341.13    9.76 
  -1  -1  -7  335.32   11.67 
  -1  -1  -7  323.48    9.19 
   1   1   7  339.20    9.71 
   1   1   7  335.61   12.36 
   1   1   7  325.81    9.30 
   6  -3   1  825.83   17.02 
   6  -3   1  833.50   20.73 
   6  -3   1  834.96   25.18 
  -6   3  -1  815.99   23.94 
  -6   3  -1  800.23   22.51 
   6  -3   1  805.15   23.85 
   6  -3   1  824.03   19.21 
  -6   3  -1  847.68   21.27 
  -5   5  -1  309.37    8.14 
  -5   5  -1  308.19    9.21 
  -5   5  -1  337.43   13.51 
  -5   5  -1  333.39   10.28 
   5  -5   1  327.44    7.13 
   5  -5   1  327.24   14.11 
   5  -5   1  329.47   10.20 
   5  -5   1  313.30    9.18 
  -5   1   7  780.30   19.68 
  -5   1   7  815.08   20.55 
   5  -1  -7  818.03   20.83 
  -5   1   7  801.53   22.46 
   5  -1  -7  800.15   22.46 
   5  -1  -7  802.21   19.74 
   5  -1  -7  816.43   20.00 
   0   7  -4    7.24    3.10 
   0   7  -4    8.67    2.48 
   0  -7   4   13.75    2.03 
   0   7  -4    9.78    2.01 
   0  -7   4    6.34    2.13 
   0  -7   4   10.78    3.31 
   0  -7   4    6.71    3.14 
   0   7  -4    8.19    2.23 
   2  -3  -7   34.17    2.95 
  -2   3   7   41.14    4.25 
   2  -3  -7   37.79    4.23 
   2  -3  -7   43.57    2.86 
  -2   3   7   36.82    4.24 
  -2   3   7   39.85    2.44 
  -2   3   7   38.13    2.87 
   7  -1  -2 1440.34   26.55 
   7  -1  -2 1376.69   25.13 
   7  -1  -2 1442.01   34.05 
   7  -1  -2 1511.97   41.33 
   7  -1  -2 1407.75   37.18 
  -7   1   2 1423.69   37.29 
  -7   1   2 1459.76   34.31 
   6   2   1    2.80    2.97 
   6   2   1    5.01    1.06 
   6   2   1    7.65    2.13 
   4   6  -4  602.01   17.05 
   4   6  -4  612.32   13.86 
  -4  -6   4  615.11   21.79 
  -4  -6   4  632.68   14.97 
  -4  -6   4  641.47   15.83 
   4   6  -4  602.77   14.66 
   4   6  -4  628.44   19.02 
  -6  -3   0  347.91   11.81 
   6   3   0  323.20    8.90 
   6   3   0  285.42   12.44 
   7  -1  -3  404.65   12.52 
   7  -1  -3  405.05   10.56 
   7  -1  -3  392.98    9.56 
  -7   1   3  394.89   12.57 
  -7   1   3  380.85    9.41 
   6  -1  -6 1106.57   23.04 
  -6   1   6 1079.46   29.83 
   6  -1  -6 1114.71   30.06 
  -6   1   6 1131.74   27.62 
  -6   1   6 1073.89   26.48 
   6  -1  -6 1054.19   26.18 
   6  -1  -6 1104.51   30.12 
   7   1  -3  223.19    6.29 
  -7  -1   3  220.19    6.35 
   7   1  -3  218.94    4.40 
  -7  -1   3  216.02    4.38 
   7   1  -3  221.03    5.95 
  -7  -1   3  225.70    5.92 
   7   1  -3  223.64    8.51 
  -1  -2   8 1084.62   29.24 
  -1  -2   8 1039.23   30.42 
  -1  -2   8 1074.15   28.83 
   1   2  -8 1088.07   30.33 
   1   2  -8 1060.76   28.79 
   1   2  -8 1105.51   27.01 
   1   2  -8 1059.01   29.23 
  -5  -4   6  459.72   11.75 
  -5  -4   6  451.22   11.63 
   5   4  -6  452.49   11.70 
   5   4  -6  442.50   13.36 
   5   4  -6  450.48   11.49 
  -5  -4   6  448.28   12.70 
   5   4  -6  471.37   13.90 
   0   7   2  349.19   13.64 
   0   7   2  310.91   12.98 
   0   7   2  339.67   12.78 
   0  -7  -2  312.96   13.02 
   0  -7  -2  315.10   12.69 
   0  -7  -2  320.05   12.69 
   0   7   2  329.89   13.24 
   0  -7  -2  316.73   10.19 
  -6  -2   6  594.93   14.76 
  -6  -2   6  597.69   17.80 
   6   2  -6  594.14   14.30 
   6   2  -6  586.67   14.52 
   6   2  -6  589.06   14.60 
  -6  -2   6  582.26   14.65 
  -4  -5   6 1006.33   23.48 
  -4  -5   6 1002.49   25.66 
   4   5  -6  979.10   25.27 
   4   5  -6 1017.26   26.09 
   4   5  -6  996.87   23.13 
   4   5  -6  996.39   25.03 
  -4  -5   6 1014.93   31.16 
  -1   0   8  592.79   14.40 
  -1   0   8  587.18   18.18 
  -1   0   8  583.65   16.64 
   1   0  -8  607.37   11.41 
   1   0  -8  587.65   10.32 
   1   0  -8  579.72   16.34 
   1   0  -8  583.85   14.29 
   1   0  -8  589.07   17.04 
  -6  -4   3  218.26    4.12 
   6   4  -3  217.41    4.11 
  -6  -4   3  210.27    4.04 
   6   4  -3  224.06    4.16 
   6   4  -3  202.86    6.38 
   6   4  -3  218.77    6.31 
  -6  -4   3  194.09    8.20 
   7   1  -2  221.71    4.92 
  -7  -1   2  221.60    4.92 
  -7  -1   2  211.21    3.81 
   7   1  -2  216.60    5.70 
   7   1  -2  220.78    3.90 
   7   1  -2  220.20    8.19 
   3   4   4  710.52   23.57 
   3   4   4  692.17   16.88 
   3   4   4  687.46   23.86 
   3   4   4  697.20   15.86 
  -3  -4  -4  689.39   16.57 
  -3  -4  -4  698.47   14.89 
   3   4   4  687.14   15.25 
  -4   1  -5   96.48    3.76 
   4  -1   5   91.91    4.96 
  -4   1  -5   90.71    3.39 
  -4   1  -5   89.65    3.86 
   4  -1   5   83.93    3.79 
   4  -1   5   84.64    3.37 
   4  -1   5   89.21    3.47 
  -5   4   5  272.57   12.08 
  -5   4   5  257.64   10.31 
  -5   4   5  263.05   11.81 
  -5   4   5  256.75    6.31 
  -5   4   5  258.95    5.93 
   5  -4  -5  240.29    7.90 
   5  -4  -5  272.91   11.86 
   5  -4  -5  263.60   11.68 
   6  -1   2  412.65   11.75 
   6  -1   2  414.52    7.99 
   6  -1   2  404.34   11.59 
  -6   1  -2  401.59    7.86 
   6  -1   2  402.08   10.70 
  -6   1  -2  397.47   11.32 
   6  -1   2  401.98   11.47 
   5  -3  -6    2.23    2.78 
  -5   3   6    4.57    2.73 
   5  -3  -6    3.41    1.40 
  -5   3   6    2.52    2.79 
  -5   3   6    5.75    1.62 
  -5   3   6    3.22    1.48 
   5  -3  -6    3.49    2.75 
  -3   1  -6  351.83    9.49 
  -3   1  -6  362.72   12.10 
  -3   1  -6  341.63    8.78 
   3  -1   6  356.60    9.52 
   3  -1   6  364.18   11.25 
   3  -1   6  326.96    5.37 
   3  -1   6  328.93    8.73 
  -2   7   2  796.79   27.51 
   2  -7  -2  779.61   23.02 
   2  -7  -2  754.16   22.18 
   2  -7  -2  790.84   26.73 
  -2   7   2  772.22   22.20 
  -2   7   2  797.84   23.28 
  -2   7   2  724.27   24.96 
   2  -7  -2  767.33   22.34 
   0  -4  -6  130.26    6.19 
   0  -4  -6  129.61    6.12 
   0  -4  -6  128.11    3.43 
   0   4   6  128.50    6.28 
   0   4   6  133.03    4.56 
   0   4   6  120.66    7.91 
   0   4   6  132.72    7.40 
   0   4   6  119.68    3.16 
   3   5   3  545.92   20.69 
   3   5   3  579.20   16.52 
   3   5   3  581.81   12.88 
   3   5   3  572.01   21.58 
  -3  -5  -3  598.69   16.57 
  -3  -5  -3  594.96   12.94 
   3   5   3  543.28   13.99 
   3  -3  -7  170.51    6.11 
  -3   3   7  160.83    8.52 
  -3   3   7  184.82    7.14 
  -3   3   7  167.20    8.73 
   3  -3  -7  180.62    8.59 
   3  -3  -7  165.78    8.73 
  -7   0   4  619.89   12.97 
   7   0  -4  625.95   17.00 
   7   0  -4  618.10   11.61 
   7   0  -4  606.91   17.74 
   7   0  -4  596.90   13.53 
  -7   0   4  606.64   13.75 
  -7   0   4  615.67   16.95 
   6   0   2  629.88   18.69 
   6   0   2  655.14   16.26 
  -6   0  -2  628.11   12.80 
  -6   0  -2  627.05   11.09 
   6   0   2  647.07   13.06 
   6   0   2  629.72   15.21 
   6   0   2  639.05   11.27 
   5   2   3  705.29   17.59 
   5   2   3  713.05   15.44 
   5   2   3  698.27   12.11 
   5   2   3  704.19   22.61 
  -5  -2  -3  701.42   11.81 
   5   2   3  715.76   14.95 
   5   2   3  688.97   11.23 
  -5  -2  -3  695.10   11.36 
   6   4  -2  181.05    8.71 
   6   4  -2  171.47    6.98 
  -6  -4   2  165.38   10.04 
  -2  -7   4  284.99   10.59 
   2   7  -4  283.11    9.45 
   2   7  -4  269.98   11.73 
   2   7  -4  274.43    9.52 
   2   7  -4  276.43    9.75 
  -2  -7   4  280.67    9.42 
  -2  -7   4  280.33    9.69 
  -2  -7   4  281.06    9.45 
  -4  -4   7   23.25    4.04 
   4   4  -7   29.98    3.03 
   4   4  -7   25.68    2.38 
   4   4  -7   29.51    3.51 
  -4  -4   7   34.10    3.14 
  -4  -4   7   31.84    3.17 
   4   4  -7   23.49    3.18 
  -3   7   0   31.45    6.00 
   3  -7   0   35.18    6.21 
  -3   7   0   32.13    6.05 
  -3   7   0   37.68    3.39 
   3  -7   0   31.42    5.63 
   3  -7   0   57.43    6.21 
   3  -7   0   40.97    3.47 
  -3   7   0   27.42    5.52 
  -6   4   3  294.95    9.68 
   6  -4  -3  307.41   12.31 
   6  -4  -3  335.18   13.57 
  -6   4   3  325.65   13.56 
  -7   0   1   24.08    1.45 
   7   0  -1   23.65    1.06 
   7   0  -1   22.06    1.48 
   7   0  -1   20.21    3.21 
   7   0  -1   18.60    1.46 
   7   0  -1   26.72    2.57 
  -7   0   1   23.11    1.32 
   2   5   4   95.60    5.08 
  -2  -5  -4   90.51    4.87 
  -2  -5  -4   91.58    4.19 
   2   5   4   88.79    7.97 
   2   5   4   99.04    5.16 
   2   5   4   95.17    4.22 
  -2  -5  -4   91.31    3.30 
   2   5   4   93.83    4.06 
  -1   3   7   10.94    2.25 
   1  -3  -7   14.75    1.99 
   1  -3  -7    9.98    3.05 
  -1   3   7   12.37    3.11 
  -1   3   7   15.65    2.02 
   1  -3  -7   20.44    2.23 
  -1   3   7   13.41    3.12 
  -4   0  -5 1197.70   27.79 
   4   0   5 1227.82   29.64 
   4   0   5 1190.20   26.90 
   4   0   5 1206.86   32.87 
  -4   0  -5 1199.30   26.97 
  -4   0  -5 1223.39   34.85 
   4   0   5 1215.05   27.36 
   1   6  -6  271.51   11.29 
   1   6  -6  276.41   11.71 
   1   6  -6  289.43   10.16 
   1   6  -6  289.00   10.34 
  -1  -6   6  279.13   10.03 
  -1  -6   6  282.40   11.26 
  -1  -6   6  288.56    9.54 
  -1  -6   6  292.38   10.37 
   0   6   4  953.59   30.88 
   0   6   4  947.88   29.06 
   0   6   4  917.15   28.29 
   0   6   4  972.89   31.40 
   0  -6  -4 1014.02   28.19 
   0  -6  -4  974.92   29.01 
   0  -6  -4  937.38   28.61 
   0   6   4  960.49   27.95 
   7  -1  -1  858.23   19.20 
   7  -1  -1  827.18   20.33 
   7  -1  -1  811.92   19.03 
  -7   1   1  816.40   19.12 
  -7   1   1  831.48   18.74 
   7  -1  -1  817.51   16.66 
   7  -1  -1  818.62   14.92 
   2   3  -8  562.75   16.58 
  -2  -3   8  547.76   17.46 
  -2  -3   8  560.71   16.39 
   2   3  -8  565.23   14.18 
   2   3  -8  565.16   14.35 
  -2  -3   8  536.62   15.50 
   2   3  -8  539.97   15.46 
   4  -2   5  630.13   13.72 
  -4   2  -5  652.58   18.55 
   4  -2   5  629.74   14.29 
   4  -2   5  621.15   16.00 
   4  -2   5  660.74   15.38 
  -4   2  -5  654.24   14.04 
  -4   2  -5  627.10   13.55 
  -4   2  -5  645.83   14.60 
   3  -2   6   60.46    4.48 
  -3   2  -6   61.79    3.30 
  -3   2  -6   56.78    2.40 
  -3   2  -6   53.45    3.82 
   3  -2   6   59.17    2.13 
   3  -2   6   59.11    2.40 
   3  -2   6   61.73    3.78 
  -3   2  -6   52.00    1.87 
   2  -1  -8  815.73   17.43 
   2  -1  -8  791.04   19.70 
   2  -1  -8  822.26   21.92 
   2  -1  -8  831.14   22.50 
   2  -1  -8  734.28   14.95 
  -2   1   8  846.79   23.23 
  -2   1   8  814.93   23.53 
  -2   1   8  800.91   19.85 
  -7  -1   4  569.79   12.15 
   7   1  -4  591.82   17.07 
   7   1  -4  597.27   14.66 
   7   1  -4  587.67   13.35 
   7   1  -4  581.06   12.07 
  -7  -1   4  585.56   14.47 
  -7  -1   4  586.76   16.15 
   6  -4   0   60.50    5.61 
   6  -4   0   60.52    5.45 
  -6   4   0   53.25    5.21 
  -6   4   0   61.03    4.54 
   6  -4   0   48.16    4.61 
  -6   4   0   39.73    5.30 
   6  -4   0   47.02    1.40 
  -3   0  -6  815.04   19.49 
  -3   0  -6  824.12   19.05 
  -3   0  -6  823.33   24.20 
   3   0   6  808.83   23.25 
   3   0   6  792.28   18.73 
   3   0   6  804.34   19.34 
   4   1  -8   53.17    4.29 
  -4  -1   8   49.22    2.86 
  -4  -1   8   41.21    4.33 
  -4  -1   8   43.47    4.29 
   4   1  -8   46.53    4.21 
   4   1  -8   46.05    2.46 
   4   1  -8   45.97    3.13 
   6   4  -4  711.36   15.62 
   6   4  -4  705.83   17.40 
   6   4  -4  710.52   19.79 
   6   4  -4  701.27   14.54 
  -6  -4   4  686.78   24.84 
  -6  -4   4  699.57   14.52 
  -6  -4   4  694.45   14.39 
  -4   6   3  313.65   11.42 
  -4   6   3  328.15   11.25 
  -4   6   3  319.41    8.21 
  -4   6   3  330.91   13.88 
   4  -6  -3  324.70   11.56 
  -4   6   3  344.90    9.77 
   4  -6  -3  314.16   13.95 
   4  -6  -3  334.84   11.49 
  -2  -6   6   37.88    2.55 
   2   6  -6   35.97    3.90 
   2   6  -6   43.27    4.79 
   2   6  -6   34.34    3.80 
  -2  -6   6   35.55    3.81 
  -2  -6   6   34.35    5.03 
  -2  -6   6   38.45    3.93 
   2   6  -6   42.37    4.58 
   3  -7  -1  308.21   10.61 
  -3   7   1  301.79   13.89 
   3  -7  -1  293.52   13.71 
   3  -7  -1  299.96    9.59 
   3  -7  -1  300.09   10.87 
  -3   7   1  284.31   10.39 
  -3   7   1  297.12   13.64 
  -3   7   1  293.64    9.44 
   4   4   3  407.36    7.18 
   4   4   3  427.70   17.53 
  -4  -4  -3  409.08    9.71 
   4   4   3  403.97    9.79 
   4   4   3  412.76    9.58 
  -4  -4  -3  399.82    7.09 
   4   4   3  417.43   15.88 
   2   5  -7  780.23   22.21 
   2   5  -7  742.21   17.96 
  -2  -5   7  763.86   21.08 
  -2  -5   7  755.40   18.37 
  -2  -5   7  735.66   22.54 
   2   5  -7  732.67   21.55 
   2   5  -7  755.23   20.88 
   2   4   5  479.80   13.10 
   2   4   5  488.70   17.06 
  -2  -4  -5  496.28   12.22 
   2   4   5  489.84   10.35 
   2   4   5  478.38   14.40 
   2   4   5  487.56   12.11 
  -2  -4  -5  486.58   13.18 
   4  -4  -6  711.80   21.16 
   4  -4  -6  701.15   22.80 
   4  -4  -6  731.13   23.78 
  -4   4   6  715.54   18.05 
  -4   4   6  692.20   17.59 
  -4   4   6  701.12   23.17 
  -4   4   6  708.75   20.11 
  -4   4   6  693.09   22.90 
  -3  -7   2  423.70   14.25 
   3   7  -2  446.30   17.61 
  -3  -7   2  417.35   12.67 
   3   7  -2  417.08   11.43 
   3   7  -2  420.50   12.73 
  -3  -7   2  433.56   18.60 
  -3  -7   2  420.25   11.50 
   3   7  -2  434.50   14.86 
  -7   1   4    7.84    2.49 
   7  -1  -4    7.88    2.42 
   7  -1  -4    4.63    2.59 
   7  -1  -4    5.03    1.72 
  -7   1   4    2.73    1.67 
   3  -7   1  305.05   10.64 
   3  -7   1  313.38   15.15 
   3  -7   1  302.01    9.99 
  -3   7  -1  320.19   10.09 
   3  -7   1  295.31    9.62 
  -3   7  -1  296.89   10.26 
  -3   7  -1  293.50   10.03 
  -3   7  -1  314.51   14.49 
  -3   1   8  724.22   20.55 
  -3   1   8  713.61   17.71 
   3  -1  -8  733.12   16.11 
   3  -1  -8  720.17   19.19 
   3  -1  -8  732.81   17.93 
  -3   1   8  715.14   20.93 
   3  -1  -8  710.10   20.87 
   3  -6  -4  769.40   25.05 
  -3   6   4  749.65   21.01 
  -3   6   4  742.65   26.00 
   3  -6  -4  779.15   26.05 
   3  -6  -4  765.33   22.06 
  -3   6   4  743.12   20.44 
  -3   6   4  746.66   23.60 
  -3   6   4  739.95   21.59 
   6  -2   2    3.91    2.40 
  -6   2  -2    6.08    1.27 
  -6   2  -2    5.46    2.04 
   6  -2   2    6.49    2.10 
   6  -2   2    8.75    1.84 
   6  -2   2    3.13    1.25 
   6  -2   2    4.81    1.33 
  -5  -3   7  498.55   13.52 
  -5  -3   7  508.27   15.87 
  -5  -3   7  507.81   13.90 
   5   3  -7  489.79   14.23 
   5   3  -7  506.10   13.70 
   5   3  -7  504.81   13.48 
   5   3  -7  498.16   13.72 
   1   5  -7  795.61   20.50 
   1   5  -7  769.08   21.23 
  -1  -5   7  796.96   20.08 
   1   5  -7  792.72   22.50 
  -1  -5   7  764.51   23.09 
   1   5  -7  762.65   20.03 
  -1  -5   7  828.80   22.90 
  -1  -5   7  773.50   21.40 
   5   5  -5  228.61    9.43 
  -5  -5   5  243.16    6.71 
  -5  -5   5  239.90   11.45 
  -5  -5   5  228.55    6.42 
   5   5  -5  232.94    6.45 
   5   5  -5  236.63    6.80 
   5   5  -5  256.84    9.79 
  -7   2   2  110.11    4.70 
  -7   2   2  112.23    5.68 
   7  -2  -2   94.72    5.65 
   7  -2  -2  100.52    6.09 
   7  -2  -2   98.52    4.66 
  -4   6  -2  310.24   13.74 
   4  -6   2  310.45    8.52 
   4  -6   2  351.30   15.20 
   4  -6   2  340.06   12.70 
   4  -6   2  322.46   10.28 
  -4   6  -2  310.16   10.17 
  -4   6  -2  315.14    9.10 
  -4   6  -2  311.13   12.82 
   2  -7   3  442.61   13.62 
  -2   7  -3  422.95   12.36 
  -2   7  -3  419.88   14.35 
   2  -7   3  404.11   12.12 
  -2   7  -3  456.79   18.42 
   2  -7   3  443.90   17.52 
   2  -7   3  405.52   14.93 
  -2   7  -3  416.88   14.96 
   4   0  -8  691.58   17.57 
   4   0  -8  690.03   16.45 
  -4   0   8  695.77   19.87 
   4   0  -8  687.14   19.85 
  -4   0   8  671.96   19.27 
  -4   0   8  702.11   19.70 
   4   0  -8  663.49   19.09 
   4   6   0  634.98   13.15 
   4   6   0  642.33   18.10 
   4   6   0  583.23   14.39 
  -4  -6   0  636.21   12.93 
  -4  -6   0  667.80   25.49 
  -4  -6   0  600.77   15.84 
   4   6   0  641.56   19.43 
  -3  -3   8  542.47   17.34 
  -3  -3   8  528.14   15.39 
   3   3  -8  565.01   13.76 
   3   3  -8  537.60   15.24 
  -3  -3   8  551.73   16.06 
   3   3  -8  550.06   16.24 
   3   3  -8  560.28   14.79 
  -6   3   5  188.60    8.62 
   6  -3  -5  187.58    6.37 
   6  -3  -5  202.79    9.72 
  -6   3   5  189.21    9.73 
   6  -3  -5  181.79    8.93 
   7   1  -1  444.40   12.86 
   7   1  -1  438.52   10.46 
   7   1  -1  432.95   11.93 
  -3  -7   3    2.82    1.60 
   3   7  -3    0.59    1.62 
   3   7  -3    2.07    1.76 
   3   7  -3    0.27    2.57 
   3   7  -3    2.78    3.06 
  -3  -7   3    1.09    1.61 
  -3  -7   3    2.88    1.79 
  -3  -7   3    6.75    2.16 
  -1   7  -4    0.53    2.41 
  -1   7  -4    1.41    3.01 
  -1   7  -4    0.13    1.57 
  -1   7  -4    0.95    2.40 
   1  -7   4   -2.06    2.29 
   1  -7   4    2.64    1.70 
   1  -7   4    1.57    2.14 
   1  -7   4    3.94    1.56 
  -1  -3   8  668.95   16.19 
  -1  -3   8  685.97   19.55 
   1   3  -8  667.77   16.21 
   1   3  -8  669.82   19.89 
   1   3  -8  687.08   19.77 
   1   3  -8  733.51   18.37 
  -1  -3   8  643.59   17.55 
  -7   2   3  225.02    7.66 
   7  -2  -3  242.97    9.70 
   7  -2  -3  220.62    7.67 
   7  -2  -3  231.21    9.55 
  -7   2   3  241.72    9.99 
   4   2  -8  178.88    6.98 
   4   2  -8  184.97    7.59 
   4   2  -8  181.78    7.64 
  -4  -2   8  192.10    7.63 
  -4  -2   8  182.12    8.41 
  -4  -2   8  188.68    7.62 
   4   2  -8  185.39    6.49 
   5   5   0   -0.71    3.59 
  -5  -5   0    5.85    2.33 
   5   5   0    4.05    1.99 
  -4   5   5  507.92   19.19 
  -4   5   5  534.78   13.47 
  -4   5   5  529.41   17.42 
  -4   5   5  527.09   13.68 
  -4   5   5  537.65   16.00 
   4  -5  -5  516.23   19.34 
   4  -5  -5  507.02   15.75 
   4  -5  -5  516.64   17.91 
   7   2  -3  177.48    5.53 
   7   2  -3  184.81    5.68 
  -7  -2   3  195.89    7.17 
  -7  -2   3  184.55    3.79 
   7   2  -3  190.88    3.83 
  -7  -2   3  180.43    5.62 
   6   1   2    7.77    1.32 
   6   1   2   11.29    3.03 
   6   1   2    5.58    1.75 
  -3  -7   1 1066.99   29.67 
   3   7  -1 1094.81   30.14 
  -3  -7   1 1067.75   37.84 
  -3  -7   1 1029.71   26.09 
  -3  -7   1 1064.20   30.35 
   3   7  -1 1086.88   36.26 
   3   7  -1 1012.51   25.97 
   3   7  -1 1056.21   31.55 
  -4  -5  -2  971.47   19.92 
   4   5   2  937.08   23.46 
   4   5   2  974.98   33.70 
   4   5   2  969.37   19.97 
   4   5   2  953.02   19.91 
  -4  -5  -2  956.96   19.81 
  -5   1  -4  140.64    5.61 
  -5   1  -4  141.69    6.65 
   5  -1   4  149.28    5.61 
   5  -1   4  137.77    3.99 
   5  -1   4  144.19    5.76 
   5  -1   4  153.17    5.81 
  -5   1  -4  138.92    3.97 
  -6  -4   1  912.50   29.89 
   6   4  -1  889.48   29.03 
   6   4  -1  874.31   21.09 
   0  -1   8   84.83    6.12 
   0  -1   8   92.22    3.70 
   0  -1   8   92.13    5.45 
   0   1  -8   94.87    4.20 
   0   1  -8  103.18    5.41 
   0   1  -8   95.08    5.41 
   3   3   5  823.53   20.46 
   3   3   5  817.21   15.55 
   3   3   5  872.23   27.33 
  -3  -3  -5  840.97   20.64 
   3   3   5  843.54   26.44 
  -3  -3  -5  868.28   20.37 
   3   3   5  820.88   14.43 
   3   3   5  865.73   19.02 
  -1   1   8 1096.28   32.25 
   1  -1  -8 1049.26   26.51 
   1  -1  -8 1095.73   29.65 
   1  -1  -8 1104.16   20.23 
   1  -1  -8 1110.34   31.09 
   1  -1  -8 1089.73   20.83 
  -1   1   8 1100.21   30.09 
  -1   1   8 1076.73   26.98 
   2   7   1   67.86    5.67 
   2   7   1   66.28    3.22 
   2   7   1   68.22    7.53 
  -2  -7  -1   76.29    5.33 
   2   7   1   80.86    5.17 
  -2  -7  -1   80.79    5.22 
  -2  -7  -1   65.65    3.22 
  -2  -7  -1   70.31    5.10 
   0  -6   6  521.59   13.89 
   0  -6   6  535.37   15.67 
   0  -6   6  540.05   16.37 
   0   6  -6  540.36   16.92 
   0   6  -6  536.62   17.27 
   0   6  -6  545.17   19.16 
   0   6  -6  538.94   16.28 
   0  -6   6  537.03   17.54 
   1   7   2  200.09    8.66 
   1   7   2  185.86    6.51 
   1   7   2  198.90   11.39 
  -1  -7  -2  171.93    8.41 
  -1  -7  -2  193.80    8.68 
  -1  -7  -2  190.68    6.52 
  -1  -7  -2  207.02   11.26 
   1   7   2  195.83    9.32 
  -5   5   4  781.49   26.44 
  -5   5   4  723.38   23.95 
  -5   5   4  719.09   15.62 
  -5   5   4  766.43   16.65 
   5  -5  -4  753.97   25.84 
   5  -5  -4  735.59   20.77 
   5  -5  -4  748.17   26.46 
  -5   5   4  745.96   25.87 
   7   2  -2  905.47   23.58 
  -7  -2   2  897.97   23.69 
  -2  -6  -3    9.33    2.46 
  -2  -6  -3    9.60    2.71 
   2   6   3    8.99    2.87 
   2   6   3   10.19    2.49 
  -2  -6  -3   11.37    2.15 
   2   6   3   12.75    2.56 
   2   6   3   13.43    2.84 
   2   6   3   13.48    2.73 
  -2   1  -7  556.45   15.00 
   2  -1   7  550.78   14.93 
   2  -1   7  569.45   17.35 
   2  -1   7  547.75   12.58 
  -2   1  -7  551.56   17.17 
  -2   1  -7  566.41   12.79 
   4   3   4   97.06    3.75 
   4   3   4   95.40    2.46 
   4   3   4  103.80    6.95 
   4   3   4   98.89    3.28 
   4   3   4   93.82    5.19 
  -4  -3  -4  100.56    3.72 
  -4  -3  -4   93.22    2.43 
   7  -2  -1  765.98   22.26 
   7  -2  -1  757.72   21.56 
  -7   2   1  778.33   21.86 
  -7   2   1  739.77   19.45 
   7  -2  -1  720.83   19.07 
  -6   2   6  611.03   14.23 
  -6   2   6  594.81   15.25 
   6  -2  -6  595.18   12.06 
   6  -2  -6  598.62   19.11 
   6  -2  -6  607.15   18.34 
  -6   2   6  595.02   18.91 
   6  -2  -6  605.53   15.27 
  -5   4  -3  903.76   23.63 
  -5   4  -3  940.03   24.68 
  -5   4  -3  949.25   27.68 
   5  -4   3  953.15   29.75 
   5  -4   3  948.84   23.64 
   5  -4   3  944.32   24.91 
   5  -4   3  979.08   28.08 
  -5   4  -3  939.82   27.11 
   3   5  -7  292.56    8.00 
  -3  -5   7  280.52   11.59 
   3   5  -7  277.42   10.67 
   3   5  -7  285.28    9.69 
   3   5  -7  281.11    9.78 
  -3  -5   7  282.11    9.76 
  -3  -5   7  292.54    9.66 
  -1   4  -7  898.42   26.06 
  -1   4  -7  849.99   25.49 
  -1   4  -7  868.85   21.52 
   1  -4   7  880.24   21.69 
   1  -4   7  874.97   22.18 
   1  -4   7  865.83   21.68 
   1  -4   7  865.66   21.04 
  -1   4  -7  875.04   21.15 
  -4  -6   5  159.84    5.73 
   4   6  -5  164.44    8.26 
   4   6  -5  158.23    5.93 
  -4  -6   5  165.25    6.52 
   4   6  -5  160.17    5.71 
   4   6  -5  154.06    6.32 
  -4  -6   5  155.67    5.95 
  -5   2   7   87.24    6.06 
   5  -2  -7   84.61    4.00 
  -5   2   7   79.81    3.85 
   5  -2  -7   84.41    5.95 
  -5   2   7   74.99    5.91 
   5  -2  -7   80.62    5.77 
   5  -2  -7   69.81    4.51 
   5   0   4   44.65    2.31 
  -5   0  -4   48.84    2.38 
   5   0   4   54.61    4.56 
   5   0   4   57.11    2.94 
   5   0   4   48.82    2.94 
   5   0   4   55.24    4.02 
  -5   0  -4   55.86    3.03 
   0  -2   8  928.33   24.12 
   0   2  -8  928.90   23.09 
   0   2  -8  934.64   27.19 
   0   2  -8  949.69   24.09 
   0   2  -8  939.30   25.17 
   0  -2   8  967.93   25.81 
   0  -2   8  949.47   23.36 
  -6  -3   6  127.68    4.79 
  -6  -3   6  138.29    7.23 
   6   3  -6  132.43    4.71 
  -6  -3   6  126.14    4.77 
   6   3  -6  131.04    6.64 
   6   3  -6  129.20    4.75 
   6   3  -6  126.80    5.24 
   4   1   5  338.48    5.51 
   4   1   5  340.00   12.54 
  -4  -1  -5  337.56    7.51 
  -4  -1  -5  328.53    7.16 
   4   1   5  326.58    6.69 
   4   1   5  325.07    7.41 
   4   1   5  329.83   11.46 
   4   1   5  330.40    7.30 
  -7  -2   4  129.39    3.34 
  -7  -2   4  139.42    5.20 
  -7  -2   4  143.96    6.69 
   7   2  -4  132.71    3.42 
   7   2  -4  122.99    4.32 
   7   2  -4  140.65    4.33 
  -4   3   7  346.60   10.22 
  -4   3   7  336.76   13.26 
  -4   3   7  338.52    9.20 
   4  -3  -7  338.30   10.51 
   4  -3  -7  331.30    9.88 
   4  -3  -7  326.08   13.37 
  -4   3   7  323.46    9.96 
   3   6   2  693.97   17.33 
   3   6   2  726.05   26.47 
  -3  -6  -2  712.98   27.39 
   3   6   2  739.05   20.29 
  -3  -6  -2  742.03   20.07 
  -3  -6  -2  691.25   17.19 
   3   6   2  675.65   17.03 
  -3   3  -6  524.05   16.15 
   3  -3   6  514.93   12.95 
   3  -3   6  514.67   14.38 
   3  -3   6  496.68   11.98 
  -3   3  -6  512.59   13.38 
  -3   3  -6  513.54   13.79 
  -3   3  -6  513.42   14.57 
   3  -3   6  508.11   13.80 
  -5   2  -4 1102.46   27.61 
  -5   2  -4 1103.63   28.16 
   5  -2   4 1073.73   30.28 
   5  -2   4 1113.75   28.65 
   5  -2   4 1120.64   28.15 
   5  -2   4 1095.94   25.67 
  -5   2  -4 1105.03   25.83 
   7   0  -5    9.21    3.15 
   7   0  -5   12.94    2.59 
   7   0  -5    9.64    1.98 
  -7   0   5   12.45    2.01 
  -7   0   5   14.90    2.57 
  -7   0   5   10.79    2.08 
   7   0  -5   13.39    0.97 
  -4   3  -5  666.94   16.79 
  -4   3  -5  666.54   18.08 
   4  -3   5  618.91   17.74 
   4  -3   5  643.71   17.43 
   4  -3   5  653.68   17.80 
  -4   3  -5  649.71   14.75 
   4  -3   5  624.75   14.30 
  -4   3  -5  637.17   15.94 
  -2   2  -7  271.96    5.41 
  -2   2  -7  289.78    8.47 
  -2   2  -7  297.29    9.48 
  -2   2  -7  290.43    7.20 
   2  -2   7  303.39    9.43 
   2  -2   7  293.82    7.28 
   2  -2   7  284.71    8.12 
   2  -2   7  279.75    4.69 
  -5   5  -2   32.53    5.35 
  -5   5  -2   38.18    3.40 
   5  -5   2   37.70    3.48 
  -5   5  -2   43.65    4.43 
  -5   5  -2   44.21    5.18 
   5  -5   2   38.77    2.43 
   5  -5   2   49.19    3.90 
   5  -5   2   45.99    4.49 
   3  -7  -2 1127.47   31.03 
   3  -7  -2 1193.44   39.53 
   3  -7  -2 1120.35   37.36 
  -3   7   2 1161.19   31.78 
  -3   7   2 1148.66   39.08 
  -3   7   2 1048.89   35.67 
  -3   7   2 1175.68   39.05 
   3  -7  -2 1134.03   38.10 
  -1  -2  -7  315.20    9.47 
  -1  -2  -7  297.70    8.92 
   1   2   7  304.55    9.35 
   1   2   7  318.33   12.53 
  -1  -2  -7  301.61    9.07 
   1   2   7  305.73    9.07 
   0   0   8  492.13   14.03 
   0   0   8  492.05   14.27 
   0   0  -8  490.34   14.42 
   0   0  -8  459.49   15.00 
   0   0   8  477.73   16.07 
   0   0  -8  480.19   13.98 
   3   6  -6   10.30    1.71 
   3   6  -6    8.24    3.55 
   3   6  -6    9.03    2.58 
   3   6  -6   12.34    2.14 
  -3  -6   6   11.71    3.64 
  -3  -6   6    9.89    2.53 
  -3  -6   6    9.59    1.71 
   6  -4  -4   16.41    2.52 
  -6   4   4   16.31    2.65 
  -6   4   4   17.04    4.05 
  -6   4   4   12.57    4.39 
   6  -4  -4   16.73    2.85 
   6  -4  -4   15.35    4.02 
   1   5   5  283.49    9.93 
   1   5   5  275.39    7.65 
   1   5   5  279.57    9.56 
  -1  -5  -5  270.89    9.86 
  -1  -5  -5  286.59    9.60 
  -1  -5  -5  284.79    6.78 
   1   5   5  268.54    9.74 
   1   5   5  287.61    9.53 
   3   1   6    4.39    1.46 
  -3  -1  -6    2.87    1.47 
   3   1   6    7.43    1.76 
  -3  -1  -6    3.85    1.77 
  -3  -1  -6    2.63    1.36 
   3   1   6    1.69    1.41 
   7   0   0  152.15    6.38 
   7   0   0  157.05    2.82 
  -7   0   0  147.54    2.75 
  -7   0   0  150.90    2.81 
   7   0   0  154.54    7.45 
   7   0   0  152.59    2.80 
   7   0   0  162.12    4.35 
   7   1  -5  715.96   17.47 
  -7  -1   5  682.57   18.45 
  -7  -1   5  698.14   16.22 
  -7  -1   5  694.48   17.77 
   7   1  -5  687.62   15.98 
   7   1  -5  730.49   16.53 
   7   1  -5  696.13   17.80 
   1   7  -5  541.86   16.05 
  -1  -7   5  566.48   15.95 
  -1  -7   5  541.82   17.09 
   1   7  -5  552.44   16.83 
  -1  -7   5  551.37   14.54 
  -1  -7   5  559.01   16.92 
   1   7  -5  549.76   14.61 
   1   7  -5  556.73   16.36 
   3  -7   2  709.35   21.37 
   3  -7   2  671.75   23.29 
   3  -7   2  682.97   19.96 
  -3   7  -2  682.31   20.13 
  -3   7  -2  695.41   23.14 
  -3   7  -2  721.95   20.91 
  -3   7  -2  722.43   21.50 
   3  -7   2  730.60   19.96 
   6   4  -5  510.73   11.58 
  -6  -4   5  497.35   18.80 
   6   4  -5  509.84   15.81 
  -6  -4   5  496.20   11.37 
   6   4  -5  522.97   11.64 
  -6  -4   5  496.77   11.46 
   6   4  -5  501.27   15.02 
  -2   0  -7  153.62    5.60 
   2   0   7  148.32    5.79 
   2   0   7  150.58    5.72 
  -2   0  -7  141.11    5.86 
  -2   0  -7  160.74    8.06 
   2   0   7  150.86    5.59 
   3  -5   5  153.50    6.61 
   3  -5   5  157.98    7.06 
   3  -5   5  145.00    7.68 
   3  -5   5  158.61    7.52 
  -3   5  -5  168.22    8.88 
  -3   5  -5  167.33    7.35 
  -3   5  -5  156.61    7.57 
  -3   5  -5  153.79    7.03 
  -7   1   0  425.13    9.49 
   7  -1   0  441.34    9.66 
   7  -1   0  456.41   13.70 
   7  -1   0  459.71    8.92 
   7  -1   0  438.58   12.25 
   1  -7  -3  912.05   29.09 
   1  -7  -3  901.45   25.74 
   1  -7  -3  872.37   27.78 
   1  -7  -3  941.78   30.68 
  -1   7   3  917.01   28.66 
  -1   7   3  910.39   25.77 
  -1   7   3  875.35   25.33 
  -1   7   3  864.09   29.94 
   0   3   7    9.22    2.46 
   0   3   7    4.01    2.50 
   0  -3  -7    7.81    2.55 
   0   3   7    9.09    3.02 
   0  -3  -7    6.38    2.49 
   0   3   7    7.67    2.17 
  -4   1   8  518.49   16.50 
   4  -1  -8  533.06   13.90 
   4  -1  -8  533.77   16.18 
  -4   1   8  546.34   16.53 
  -4   1   8  525.66   15.41 
   4  -1  -8  531.11   13.09 
   4  -1  -8  502.58   13.49 
  -2   6  -5  827.26   21.50 
  -2   6  -5  823.48   21.60 
  -2   6  -5  837.99   24.80 
  -2   6  -5  828.49   21.08 
   2  -6   5  857.19   25.98 
   2  -6   5  831.99   20.96 
   2  -6   5  846.70   23.61 
   2  -6   5  867.61   22.43 
  -3   6  -4  583.22   21.37 
   3  -6   4  576.75   18.08 
  -3   6  -4  587.02   18.26 
  -3   6  -4  566.41   16.63 
  -3   6  -4  590.57   15.91 
   3  -6   4  567.93   16.82 
   3  -6   4  575.61   16.34 
   3  -6   4  585.79   15.81 
  -7   2   4  706.43   22.82 
  -7   2   4  708.11   19.29 
   7  -2  -4  683.94   17.76 
   7  -2  -4  696.57   19.29 
   7  -2  -4  709.78   22.45 
  -3  -7   4  248.56    8.67 
   3   7  -4  238.19    9.07 
   3   7  -4  258.45    8.35 
   3   7  -4  245.75    8.60 
   3   7  -4  241.46   10.96 
  -3  -7   4  247.92   10.19 
  -3  -7   4  245.47    8.19 
  -3  -7   4  241.74   13.05 
   0   5  -7  908.97   26.36 
   0  -5   7  904.17   26.64 
   0   5  -7  933.17   28.11 
   0  -5   7  935.36   26.75 
   0  -5   7  886.77   22.69 
   0   5  -7  914.37   25.27 
   0   5  -7  921.50   26.38 
   0  -5   7  915.57   25.55 
   6  -4   1  168.77    7.12 
   6  -4   1  170.68    6.83 
   6  -4   1  163.44    9.06 
  -6   4  -1  166.83    4.29 
  -6   4  -1  168.59    8.69 
   6  -4   1  170.13    3.76 
  -6   4  -1  181.39    8.83 
  -6   4  -1  172.26    7.21 
   6  -3   2  694.82   21.44 
   6  -3   2  640.06   15.91 
  -6   3  -2  645.84   19.10 
   6  -3   2  652.77   19.34 
   6  -3   2  665.09   14.39 
  -6   3  -2  648.07   15.92 
  -6   3  -2  647.75   16.17 
  -6   3  -2  670.59   16.70 
   6   3   1  917.64   27.34 
   6   3   1  884.71   21.91 
   6   3   1  898.61   29.72 
   2  -7  -3  564.10   16.63 
   2  -7  -3  540.75   16.68 
   2  -7  -3  570.37   20.90 
   2  -7  -3  568.18   18.17 
  -2   7   3  580.87   18.12 
  -2   7   3  567.00   16.99 
  -2   7   3  530.06   19.30 
  -2   7   3  560.09   21.32 
   0  -8   1  121.92    5.65 
   0  -8   1  125.21    8.34 
   0   8  -1  132.81    9.81 
   0   8  -1  123.11    8.16 
   0   8  -1  123.26    8.56 
   0  -8   1  133.13    8.61 
   0  -8   1  132.34    8.62 
   0   8  -1  129.55    5.61 
   2   3   6  582.53   16.43 
   2   3   6  597.59   14.89 
   2   3   6  556.06   14.56 
  -2  -3  -6  587.19   14.73 
  -2  -3  -6  583.73   14.71 
   2   3   6  594.21   20.70 
   6   1  -7   27.18    2.19 
  -6  -1   7   23.30    2.98 
  -6  -1   7   26.87    3.12 
   6   1  -7   20.04    2.96 
  -6  -1   7   15.80    2.92 
   6   1  -7   24.10    3.09 
   6   1  -7   28.68    3.27 
   7  -1  -5  405.54   13.18 
  -7   1   5  385.37    6.52 
   7  -1  -5  383.59    5.74 
   7  -1  -5  422.51   11.72 
  -7   1   5  422.60   13.73 
  -7   1   5  433.11   11.71 
   7  -1  -5  435.95   13.54 
  -5   6   1    2.87    1.35 
  -5   6   1    1.76    3.27 
   5  -6  -1    7.08    2.28 
  -5   6   1    4.72    2.19 
   5  -6  -1    1.32    3.32 
   5  -6  -1    1.52    3.51 
   5  -6  -1    2.28    1.37 
  -5   6   1    3.60    2.18 
   4   3  -8  356.40   11.34 
   4   3  -8  344.60   11.48 
   4   3  -8  347.67   10.67 
  -4  -3   8  347.82   12.72 
   4   3  -8  351.70   11.24 
  -4  -3   8  358.82   11.29 
  -4  -3   8  359.93   11.55 
   2   7  -5  972.08   30.65 
  -2  -7   5 1017.62   28.82 
   2   7  -5 1015.03   32.87 
   2   7  -5 1015.88   28.30 
  -2  -7   5  994.21   32.49 
  -2  -7   5  983.13   25.80 
  -2  -7   5 1027.79   28.22 
   2   7  -5 1032.49   29.32 
  -1  -6  -4  547.62   17.09 
   1   6   4  519.34   19.84 
   1   6   4  534.14   15.89 
   1   6   4  516.37   15.98 
  -1  -6  -4  510.02   13.89 
   1   6   4  531.48   19.76 
   1   6   4  509.15   16.73 
  -1  -6  -4  517.65   16.17 
   7   2  -1  576.67   16.14 
   7   2  -1  576.09   15.65 
   7   2  -1  559.84   16.91 
   6   0  -7  560.00   13.65 
   6   0  -7  571.70   16.33 
  -6   0   7  548.72   14.93 
   6   0  -7  543.93   15.94 
  -6   0   7  548.98   16.29 
  -6   0   7  529.71   15.39 
   6   0  -7  534.81   15.32 
   3   7   0  920.67   25.58 
   3   7   0  971.68   26.93 
   3   7   0  947.80   28.12 
  -3  -7   0  941.48   25.73 
  -3  -7   0  972.92   26.78 
  -3  -7   0  895.06   26.17 
   3   7   0  899.02   28.02 
  -3  -7   0  967.99   29.73 
   0  -7   5  681.99   18.55 
   0  -7   5  695.07   18.82 
   0  -7   5  723.62   22.13 
   0   7  -5  712.79   22.07 
   0   7  -5  714.27   21.56 
   0   7  -5  695.77   23.30 
   0   7  -5  695.39   20.44 
   0  -7   5  691.27   21.25 
   5   4   2   48.85    3.01 
   5   4   2   57.99    6.07 
   5   4   2   58.00    4.61 
   2  -5   6  115.21    6.07 
   2  -5   6  104.30    5.35 
   2  -5   6  115.85    6.36 
  -2   5  -6  106.81    7.55 
  -2   5  -6  115.31    6.59 
  -2   5  -6   99.51    6.24 
  -2   5  -6  111.58    6.18 
   2  -5   6  102.09    5.84 
   2   4  -8   27.66    3.16 
   2   4  -8   30.00    3.48 
   2   4  -8   21.13    3.92 
   2   4  -8   21.67    3.82 
  -2  -4   8   22.96    3.58 
  -2  -4   8   22.61    3.83 
  -2  -4   8   19.76    4.28 
  -2   2   8   -0.83    1.50 
   2  -2  -8    1.99    1.14 
   2  -2  -8    1.07    2.25 
  -2   2   8    2.86    2.36 
   2  -2  -8    5.06    2.09 
  -2   2   8    5.75    2.24 
   2  -2  -8    1.43    1.48 
   1   4   6   32.76    3.39 
   1   4   6   27.77    5.01 
   1   4   6   39.90    2.31 
   1   4   6   29.60    1.16 
   1   4   6   33.87    5.48 
  -1  -4  -6   45.79    3.50 
  -1  -4  -6   34.16    2.25 
   0  -8   2  625.53   20.37 
   0  -8   2  612.64   18.32 
   0   8  -2  601.67   17.41 
   0   8  -2  625.19   20.51 
   0   8  -2  618.87   19.08 
   0   8  -2  623.04   18.08 
   0  -8   2  620.53   17.73 
   0  -8   2  607.13   21.57 
   2  -5  -6  753.01   21.46 
   2  -5  -6  816.04   23.17 
   2  -5  -6  779.57   21.77 
  -2   5   6  782.02   25.43 
  -2   5   6  788.02   23.99 
  -2   5   6  730.04   20.23 
  -2   5   6  773.81   21.75 
  -2   5   6  786.60   23.75 
  -4   5  -4  510.71   13.91 
  -4   5  -4  496.82   12.74 
   4  -5   4  527.71   18.69 
  -4   5  -4  537.99   18.59 
   4  -5   4  520.75   13.88 
  -4   5  -4  510.73   14.89 
   4  -5   4  521.83   13.91 
   4  -5   4  513.60   15.47 
   5   1   4  634.84   14.00 
   5   1   4  598.65   17.74 
  -5  -1  -4  605.88   12.00 
  -5  -1  -4  623.13   12.26 
   5   1   4  588.87   16.29 
   5   1   4  623.44   12.98 
   5   1   4  612.42   12.19 
   0  -3   8  401.58   14.39 
   0  -3   8  397.41   10.24 
   0   3  -8  407.25   14.14 
   0  -3   8  421.33   13.33 
   0   3  -8  396.89   10.34 
   0   3  -8  411.15   13.07 
   0   3  -8  399.83   11.71 
   7   1   0  965.83   27.62 
   7   1   0  966.47   23.32 
   7   1   0  988.55   25.88 
   0   7   3  610.93   21.99 
   0   7   3  609.03   20.68 
   0   7   3  637.26   21.28 
   0   7   3  602.43   21.01 
   0  -7  -3  629.70   21.39 
   0  -7  -3  652.71   21.49 
   0  -7  -3  602.50   17.80 
   0  -7  -3  651.10   21.02 
   1  -8   1    5.33    2.89 
  -1   8  -1    2.00    1.91 
  -1   8  -1    4.22    1.75 
  -1   8  -1   -1.83    3.77 
  -1   8  -1    5.80    3.25 
   1  -8   1    2.86    3.51 
   1  -8   1    2.55    3.30 
   1  -8   1    2.77    1.94 
   5  -6   0  611.83   13.69 
  -5   6   0  611.98   21.72 
  -5   6   0  592.88   14.50 
  -5   6   0  644.60   23.49 
  -5   6   0  627.89   23.43 
   5  -6   0  645.24   23.45 
   5  -6   0  604.94   21.66 
   5  -6   0  623.78   19.03 
  -3   2   8    1.88    2.39 
   3  -2  -8    0.85    2.50 
   3  -2  -8    1.57    1.31 
   3  -2  -8    4.24    2.44 
  -3   2   8    4.28    2.16 
  -3   2   8    1.48    2.54 
   3  -2  -8    1.70    1.16 
   7  -3  -2  503.93   16.68 
   7  -3  -2  528.24   14.53 
  -7   3   2  542.15   17.83 
   7  -2   0 1037.40   22.67 
  -7   2   0 1029.85   27.09 
  -7   2   0 1031.21   25.06 
   7  -2   0 1036.13   27.23 
   7  -2   0 1041.95   24.99 
   7  -2   0 1077.18   30.46 
   7  -2   0 1045.36   20.09 
  -5   6   2  114.95    9.81 
   5  -6  -2  132.95    9.84 
  -5   6   2  125.09    6.32 
   5  -6  -2  120.20    9.35 
  -5   6   2  130.87    9.22 
  -5   6   2  117.90    3.76 
   5  -6  -2  125.40    6.37 
  -5   6   2  119.53    3.93 
   5   3   3   88.63    7.61 
   5   3   3   79.09    6.53 
   5   3   3   78.02    3.08 
   0  -8   0   61.92    4.63 
   0  -8   0   78.61    6.83 
   0  -8   0   57.36    7.07 
   0   8   0   75.14    6.77 
   0   8   0   66.59    6.76 
   0  -8   0   64.60    6.12 
   0   8   0   67.60    6.27 
   0   8   0   72.71    5.16 
  -2   3  -7   52.20    2.86 
   2  -3   7   53.20    2.19 
   2  -3   7   62.55    4.31 
  -2   3  -7   58.62    4.48 
  -2   3  -7   64.82    4.24 
  -2   3  -7   55.60    3.32 
   2  -3   7   52.26    5.03 
   2  -3   7   58.56    4.55 
  -4   6   4  731.93   23.54 
  -4   6   4  819.84   22.56 
  -4   6   4  846.29   29.84 
  -4   6   4  828.25   27.26 
   4  -6  -4  890.48   30.02 
   4  -6  -4  840.04   28.05 
  -4   6   4  853.06   21.82 
   6   2   2  553.23   16.01 
   6   2   2  529.74   11.17 
   6   2   2  547.95   19.72 
   6   2   2  536.56   13.35 
   7   2  -5  428.20    9.80 
  -7  -2   5  420.35    9.76 
   7   2  -5  420.88   11.56 
  -7  -2   5  420.71   14.32 
  -1  -8   2  776.77   21.44 
   1   8  -2  806.37   27.72 
  -1  -8   2  769.65   27.71 
  -1  -8   2  820.53   24.69 
   1   8  -2  757.93   21.18 
  -1  -8   2  760.55   25.26 
   1   8  -2  825.83   24.87 
   1   8  -2  760.86   27.88 
  -1   8   0  223.67    7.84 
   1  -8   0  234.37   12.22 
   1  -8   0  222.89   11.19 
   1  -8   0  226.50    8.51 
  -1   8   0  226.93    8.39 
  -1   8   0  223.38    8.76 
   1  -8   0  227.49    8.89 
  -1   8   0  235.12   13.16 
  -5  -1   8  326.81    8.78 
  -5  -1   8  339.93   11.10 
   5   1  -8  333.07   10.85 
   5   1  -8  347.41    9.90 
   5   1  -8  316.68    9.38 
   5   1  -8  328.14    8.97 
  -5  -1   8  354.92   11.65 
   1   8  -1  162.86    7.91 
   1   8  -1  149.16    5.98 
   1   8  -1  145.99    7.01 
  -1  -8   1  149.16    6.11 
  -1  -8   1  144.30    7.81 
  -1  -8   1  155.43    7.29 
   1   8  -1  150.96   10.15 
  -1  -8   1  148.41    6.37 
  -5  -6   3  852.12   18.41 
  -5  -6   3  821.90   19.03 
  -5  -6   3  884.57   26.90 
   5   6  -3  844.63   18.56 
   5   6  -3  804.54   26.80 
   5   6  -3  807.34   19.20 
   5   6  -3  852.43   25.07 
  -6  -4   0  625.57   21.62 
   6   4   0  593.18   22.28 
   6   4   0  626.61   16.50 
   3   4  -8   46.31    4.09 
   3   4  -8   42.24    4.51 
   3   4  -8   39.07    2.93 
  -3  -4   8   42.47    2.89 
  -3  -4   8   46.98    5.10 
  -3  -4   8   45.48    4.16 
   3   4  -8   40.47    3.81 
  -1  -4   8   10.94    3.16 
  -1  -4   8    8.01    2.97 
  -1  -4   8    9.85    3.40 
   1   4  -8    4.79    3.26 
   1   4  -8    7.70    2.58 
   1   4  -8   10.20    3.11 
   1   4  -8    9.13    2.85 
   5  -3   4  228.88    7.94 
  -5   3  -4  217.93    7.98 
  -5   3  -4  205.82    6.96 
  -5   3  -4  219.99    8.06 
  -5   3  -4  202.08    6.50 
   5  -3   4  202.33    9.25 
   5  -3   4  218.67    7.02 
   5  -3   4  200.33    6.48 
   1  -5  -6  770.37   23.35 
  -1   5   6  678.40   21.53 
   1  -5  -6  640.62   21.06 
  -1   5   6  620.79   17.94 
  -1   5   6  654.40   21.03 
  -1   5   6  650.29   18.38 
  -1   5   6  657.44   21.28 
   1  -5  -6  678.40   21.92 
  -6  -2   7  640.14   15.02 
   6   2  -7  643.95   16.25 
  -6  -2   7  622.20   18.95 
   6   2  -7  664.70   15.28 
   6   2  -7  637.32   16.88 
  -6  -2   7  635.05   17.24 
  -7   3   3 1061.97   29.81 
  -7   3   3 1019.99   29.94 
   7  -3  -3 1018.21   30.01 
   7  -3  -3 1028.54   31.19 
   7  -3  -3 1039.80   29.32 
   0   1   8  591.82   17.14 
   0   1   8  611.58   17.11 
   0   1   8  599.26   19.72 
   0  -1  -8  600.37   16.87 
   0  -1  -8  607.70   17.41 
   0  -1  -8  610.69   16.12 
  -5  -4   7  268.40    8.57 
  -5  -4   7  262.19    8.52 
   5   4  -7  261.33    8.47 
   5   4  -7  263.62    9.57 
   5   4  -7  257.04    9.63 
   5   4  -7  247.44    8.22 
  -5  -4   7  257.79    8.44 
   4   6   1 1156.90   28.71 
   4   6   1 1141.44   25.92 
   4   6   1 1171.06   35.82 
  -4  -6  -1 1184.29   26.11 
  -4  -6  -1 1219.35   41.93 
  -4  -6  -1 1199.49   28.75 
   4   6   1 1196.73   33.03 
  -6   5   1  697.04   21.12 
  -6   5   1  736.11   24.57 
   6  -5  -1  697.49   24.32 
   6  -5  -1  678.59   24.69 
   6  -5  -1  713.08   24.46 
  -6   5   1  728.60   25.05 
  -5  -5   6  779.03   25.64 
   5   5  -6  802.57   23.72 
  -5  -5   6  800.35   20.28 
  -5  -5   6  815.56   20.11 
   5   5  -6  798.42   20.17 
   5   5  -6  821.16   24.44 
   5   5  -6  773.82   19.66 
   5   6  -2  367.16   10.44 
  -5  -6   2  384.83   18.07 
  -5  -6   2  364.84   10.33 
  -5  -6   2  350.67    7.15 
   5   6  -2  351.61    7.27 
   5   6  -2  372.26   12.42 
   5   6  -2  373.42   15.38 
  -7  -3   3  560.58   18.81 
   7   3  -3  539.37   11.06 
   7   3  -3  540.45   14.73 
  -7  -3   3  538.66   11.03 
   7   3  -3  561.96    9.67 
  -7  -3   3  549.43    9.51 
  -6   5   2  265.90   12.91 
   6  -5  -2  238.24   12.69 
   6  -5  -2  272.85   12.88 
   6  -5  -2  247.06   12.46 
  -6   5   2  255.58   12.74 
  -6   5   2  251.84   12.61 
   3  -5  -6  653.06   20.05 
  -3   5   6  604.94   17.87 
  -3   5   6  598.26   17.73 
  -3   5   6  630.29   22.03 
  -3   5   6  590.23   21.67 
   3  -5  -6  619.42   22.03 
   3  -5  -6  592.28   21.41 
  -3   5   6  604.87   15.41 
  -5   0   8  478.06   14.25 
   5   0  -8  466.62   12.75 
   5   0  -8  455.66   12.01 
   5   0  -8  462.85   14.68 
  -5   0   8  463.50   14.73 
  -5   0   8  468.31   14.81 
   5   0  -8  469.42   14.28 
  -7   3   1    8.15    2.69 
   7  -3  -1    9.47    2.56 
  -7   3   1    5.94    2.58 
   7  -3  -1    6.41    2.66 
   7  -3  -1    5.65    3.19 
  -1   8  -2  465.14   17.23 
  -1   8  -2  417.04   16.04 
  -1   8  -2  452.57   19.94 
  -1   8  -2  427.82   13.34 
   1  -8   2  443.25   18.17 
   1  -8   2  446.71   16.95 
   1  -8   2  421.67   17.18 
   1  -8   2  423.24   15.58 
   2   1   7  272.83    8.76 
  -2  -1  -7  266.70    7.88 
  -2  -1  -7  280.91    8.43 
  -2  -1  -7  267.44    8.29 
   2   1   7  277.80    8.53 
   2   1   7  256.04    7.81 
  -1   6  -6  323.51   11.67 
  -1   6  -6  290.13    8.71 
  -1   6  -6  331.34   13.80 
   1  -6   6  309.27    8.77 
  -1   6  -6  325.53   12.07 
   1  -6   6  324.21   11.47 
   1  -6   6  320.15   11.08 
   1  -6   6  299.66   11.88 
  -4   6  -3    9.20    2.04 
  -4   6  -3    6.84    2.29 
  -4   6  -3    9.90    3.61 
   4  -6   3    8.18    2.02 
   4  -6   3    8.21    2.06 
   4  -6   3    9.28    3.66 
   4  -6   3    5.22    4.19 
  -4   6  -3    8.99    3.92 
  -2   6   5  552.78   20.45 
  -2   6   5  568.88   20.30 
   2  -6  -5  548.17   19.92 
   2  -6  -5  532.08   20.18 
  -2   6   5  547.02   18.11 
  -2   6   5  551.21   18.15 
   2  -6  -5  556.44   18.48 
  -2   6   5  548.50   17.49 
  -2   4   7  839.33   24.20 
  -2   4   7  819.81   22.44 
  -2   4   7  794.16   25.03 
   2  -4  -7  821.49   26.13 
   2  -4  -7  814.94   25.28 
   2  -4  -7  895.57   25.29 
  -2   4   7  808.91   25.17 
  -4  -5   7  830.34   20.17 
   4   5  -7  819.63   20.00 
   4   5  -7  817.07   21.23 
   4   5  -7  858.92   22.79 
   4   5  -7  834.82   21.14 
  -4  -5   7  841.27   27.16 
  -4  -5   7  856.00   22.91 
  -6   1   7  580.99   16.22 
   6  -1  -7  584.26   16.89 
   6  -1  -7  588.46   15.42 
   6  -1  -7  574.53   12.59 
   6  -1  -7  565.31   16.99 
  -6   1   7  573.48   18.04 
  -6   1   7  575.02   17.29 
  -2   7  -4   14.22    2.19 
  -2   7  -4   12.59    3.67 
  -2   7  -4   12.06    3.73 
   2  -7   4   16.27    3.03 
  -2   7  -4   10.02    4.72 
   2  -7   4   10.90    3.86 
   2  -7   4    9.45    2.65 
   2  -7   4    9.97    3.61 
  -1   2   8   24.78    2.57 
  -1   2   8   35.60    3.70 
  -1   2   8   26.94    4.59 
   1  -2  -8   28.18    0.77 
   1  -2  -8   27.29    3.83 
   1  -2  -8   26.05    1.13 
   1  -2  -8   47.00    3.99 
   1  -2  -8   26.32    2.57 
  -5   4   6  597.38   14.23 
  -5   4   6  614.67   21.34 
   5  -4  -6  572.79   21.04 
  -5   4   6  611.95   21.25 
  -5   4   6  591.35   15.25 
   5  -4  -6  600.14   18.81 
   5  -4  -6  601.61   21.30 
  -1   6   5  835.11   27.87 
  -1   6   5  895.56   29.34 
   1  -6  -5  936.99   28.13 
   1  -6  -5  922.15   29.18 
  -1   6   5  884.28   28.45 
  -1   6   5  901.74   29.11 
   1  -6  -5  841.67   27.57 
  -1   6   5  830.15   24.51 
   5   5   1  130.83    5.55 
  -5  -5  -1  131.07    9.75 
   5   5   1  126.29    9.76 
  -4   7   0    6.53    4.17 
  -4   7   0    4.46    3.81 
  -4   7   0    4.46    1.97 
  -4   7   0    7.60    2.53 
   4  -7   0    5.97    4.09 
   4  -7   0    5.37    4.20 
   4  -7   0    4.75    2.56 
   4  -7   0   10.96    3.86 
  -5  -2   8  191.08    7.73 
  -5  -2   8  201.07    8.43 
   5   2  -8  183.08    5.49 
   5   2  -8  192.99    6.93 
  -5  -2   8  181.64    5.59 
   5   2  -8  190.87    7.74 
   5   2  -8  178.61    7.12 
  -7  -3   2  442.99   14.79 
   7   3  -2  427.09   11.05 
   7   3  -2  437.97   13.66 
  -7  -3   4  488.49   17.78 
  -7  -3   4  514.25   10.96 
  -7  -3   4  483.45    9.54 
   7   3  -4  502.01    9.81 
   7   3  -4  477.43   13.03 
   7   3  -4  519.42   11.01 
  -4   7   1  246.80    8.08 
  -4   7   1  270.76   10.12 
  -4   7   1  295.80   14.82 
   4  -7  -1  298.16   14.81 
   4  -7  -1  252.82   10.10 
  -4   7   1  242.63   13.38 
   4  -7  -1  274.33   14.25 
   4  -7  -1  294.64    8.74 
   0  -8   3  888.39   27.72 
   0  -8   3  901.62   28.75 
   0  -8   3  855.94   24.22 
   0   8  -3  877.43   31.12 
   0   8  -3  853.86   29.04 
   0   8  -3  883.88   27.77 
   0   8  -3  880.71   28.78 
   0  -8   3  824.93   24.03 
   5   6  -4  416.41   11.14 
  -5  -6   4  420.20   18.46 
  -5  -6   4  418.56   11.18 
   5   6  -4  430.90   10.82 
   5   6  -4  415.39   14.49 
   5   6  -4  398.70   12.17 
  -5  -6   4  403.96   10.35 
  -6   1  -3  529.26   14.59 
   6  -1   3  516.31   10.53 
   6  -1   3  543.39   14.79 
  -6   1  -3  518.34   10.47 
   6  -1   3  520.83   15.59 
   6  -1   3  536.79   15.17 
   6  -1   3  525.93   13.68 
  -4  -2  -5   15.64    1.56 
  -4  -2  -5   18.18    1.61 
   4   2   5   15.45    2.71 
   4   2   5   20.43    3.98 
   4   2   5   20.50    1.67 
   4   2   5   16.06    1.19 
   4   2   5   17.42    0.92 
   6   5  -3  181.93    8.37 
  -6  -5   3  179.32    4.86 
   6   5  -3  182.35    4.92 
   6   5  -3  167.27    8.86 
   6   5  -3  185.52    3.82 
  -6  -5   3  188.57    3.81 
  -6  -5   3  171.98   12.22 
  -3   7   3 1197.02   33.43 
  -3   7   3 1102.52   37.41 
  -3   7   3 1199.45   40.34 
   3  -7  -3 1159.65   38.10 
   3  -7  -3 1221.34   40.75 
  -3   7   3 1110.45   33.70 
   3  -7  -3 1195.95   35.17 
  -1  -8   3 1198.62   39.88 
   1   8  -3 1224.27   40.49 
   1   8  -3 1184.28   36.84 
  -1  -8   3 1290.54   38.93 
  -1  -8   3 1257.45   37.36 
  -1  -8   3 1194.57   38.20 
   1   8  -3 1184.74   35.33 
   1   8  -3 1299.37   38.19 
   3  -4   6  279.01    8.75 
  -3   4  -6  261.79    9.80 
   3  -4   6  302.76    9.71 
  -3   4  -6  270.35    9.00 
  -3   4  -6  283.65    9.59 
  -3   4  -6  271.82   10.50 
   3  -4   6  288.39    9.87 
   3  -4   6  284.02   10.03 
  -3   4   7  516.07   14.98 
  -3   4   7  522.17   15.06 
  -3   4   7  524.58   19.10 
   3  -4  -7  510.00   15.06 
   3  -4  -7  536.68   15.63 
  -3   4   7  507.61   16.08 
   3  -4  -7  494.67   18.56 
  -1  -8   0   95.87    7.13 
  -1  -8   0   93.49    8.50 
  -1  -8   0   83.19    4.92 
   1   8   0   95.64    7.13 
   1   8   0  108.29    7.86 
  -1  -8   0   87.13    4.48 
   1   8   0   87.94    7.80 
   1   8   0   92.36    4.42 
   7  -2  -5  658.57   19.44 
  -7   2   5  673.09   19.43 
  -7   2   5  675.45   21.91 
   7  -2  -5  657.31   17.44 
   7  -2  -5  682.21   21.83 
   4  -4   5    3.47    2.53 
   4  -4   5    7.28    2.67 
   4  -4   5    4.40    2.15 
  -4   4  -5    5.13    2.48 
  -4   4  -5    8.45    2.50 
  -4   4  -5    5.15    2.13 
  -4   4  -5    4.98    2.16 
   4  -4   5    3.26    2.09 
  -2  -7  -2  109.85    5.83 
  -2  -7  -2  103.31    9.40 
   2   7   2  103.92    5.74 
   2   7   2  104.51    9.21 
   2   7   2   93.65    6.19 
  -2  -7  -2  108.47    5.98 
   2   7   2   98.70    6.63 
  -2  -7  -2  104.55    6.28 
   5  -6   1  780.38   25.77 
  -5   6  -1  843.74   28.93 
   5  -6   1  857.93   29.20 
   5  -6   1  824.32   24.08 
   5  -6   1  800.53   19.94 
  -5   6  -1  793.00   25.80 
  -5   6  -1  788.76   19.30 
  -5   6  -1  818.48   24.83 
   6   0   3  128.86    7.15 
  -6   0  -3  126.92    2.98 
   6   0   3  135.84    5.14 
   6   0   3  127.31    4.68 
   6   0   3  128.69    5.61 
  -6   0  -3  127.04    4.58 
   6   0   3  128.19    3.07 
   6  -5   0  459.15    8.54 
  -6   5   0  475.17   16.91 
   6  -5   0  473.33   18.14 
  -6   5   0  471.47   18.52 
  -6   5   0  431.76    8.10 
  -6   5   0  463.94   18.08 
   6  -5   0  462.67   17.87 
   6  -5   0  483.06   17.10 
   3   2   6  931.63   21.97 
   3   2   6  895.86   21.43 
   3   2   6  898.03   28.41 
  -3  -2  -6  917.16   21.89 
  -3  -2  -6  915.54   21.57 
   3   2   6  906.30   28.99 
  -6   3   6   67.03    6.32 
  -6   3   6   64.11    6.02 
  -6   3   6   77.73    2.49 
  -6   3   6   58.38    2.55 
   6  -3  -6   62.33    6.16 
   6  -3  -6   62.18    6.13 
   6  -3  -6   64.64    3.63 
   3   7  -5  991.46   28.27 
   3   7  -5 1012.85   31.36 
  -3  -7   5  990.06   27.72 
  -3  -7   5  983.91   26.97 
  -3  -7   5  969.29   29.09 
   3   7  -5  984.49   28.40 
   3   7  -5  993.40   27.07 
  -3  -7   5  963.87   32.98 
   3  -7   3  475.66   16.90 
   3  -7   3  469.68   19.15 
  -3   7  -3  467.94   15.27 
  -3   7  -3  461.13   17.10 
  -3   7  -3  467.27   19.42 
  -3   7  -3  461.69   17.88 
   3  -7   3  472.63   14.40 
   3  -7   3  471.83   17.90 
   4  -2  -8   54.13    3.54 
  -4   2   8   61.00    5.68 
   4  -2  -8   47.75    3.50 
  -4   2   8   51.77    3.61 
   4  -2  -8   53.93    5.51 
   4  -2  -8   52.96    3.58 
  -4   2   8   59.01    4.19 
  -4  -6   6   36.21    3.65 
  -4  -6   6   41.54    3.50 
  -4  -6   6   44.11    5.72 
   4   6  -6   50.23    5.08 
   4   6  -6   30.08    3.69 
   4   6  -6   36.85    3.13 
   4   6  -6   35.17    3.42 
   6   5  -2  549.13   15.75 
  -6  -5   2  519.96    9.94 
   6   5  -2  526.16    8.55 
   6   5  -2  532.60   16.03 
   6   5  -2  519.62    9.81 
  -6  -5   2  537.24    8.75 
  -6  -5   2  500.26   17.42 
  -1   1  -8  138.30    6.33 
  -1   1  -8  116.92    7.56 
   1  -1   8  130.98    7.86 
   1  -1   8  130.58    6.40 
   1  -1   8  133.24    6.10 
  -1   1  -8  128.54    6.01 
   1  -4  -7  695.23   21.30 
  -1   4   7  679.54   22.48 
  -1   4   7  708.77   21.70 
   1  -4  -7  744.49   19.55 
  -1   4   7  655.52   20.90 
  -1   4   7  679.70   21.54 
   1  -4  -7  678.85   21.63 
  -1   8   1  484.91   19.89 
   1  -8  -1  473.54   19.03 
   1  -8  -1  462.52   14.52 
   1  -8  -1  507.93   15.90 
   1  -8  -1  475.40   17.87 
  -1   8   1  517.40   17.87 
  -1   8   1  528.60   19.94 
  -1   8   1  484.25   14.49 
   6  -5  -3   36.71    3.87 
   6  -5  -3   41.52    3.86 
  -6   5   3   45.38    5.83 
  -6   5   3   40.90    3.96 
  -6   5   3   30.83    3.77 
   6  -5  -3   33.63    5.96 
   7   0  -6   60.68    3.83 
   7   0  -6   60.42    2.60 
   7   0  -6   66.61    4.98 
  -7   0   6   62.33    4.40 
  -7   0   6   64.21    4.63 
  -7   0   6   54.06    3.81 
   7   0  -6   62.24    4.66 
  -1   7  -5  600.19   22.78 
  -1   7  -5  605.46   16.96 
  -1   7  -5  605.90   20.58 
  -1   7  -5  618.03   20.00 
   1  -7   5  595.95   16.76 
   1  -7   5  632.65   20.40 
   1  -7   5  607.95   19.57 
   1  -7   5  612.15   16.90 
  -5   5   5  857.99   20.05 
  -5   5   5  841.35   20.50 
   5  -5  -5  867.49   29.89 
   5  -5  -5  823.05   23.41 
  -5   5   5  843.60   29.50 
  -5   5   5  836.19   25.11 
   5  -5  -5  852.49   25.06 
  -5   5   5  845.84   27.63 
   5  -6  -3  442.00   18.39 
  -5   6   3  444.08   17.87 
  -5   6   3  443.45   19.16 
   5  -6  -3  466.35   18.97 
   5  -6  -3  486.64   19.12 
  -5   6   3  414.12    8.78 
  -5   6   3  469.17   19.21 
   6   4  -6  294.43    8.23 
  -6  -4   6  310.06   12.96 
   6   4  -6  303.90   11.42 
  -6  -4   6  301.44    8.31 
   6   4  -6  298.12   10.06 
  -6  -4   6  290.49    7.97 
   6   4  -6  287.16    8.21 
   4   7  -2  125.26    4.46 
  -4  -7   2  126.15    5.73 
   4   7  -2  123.33    5.66 
  -4  -7   2  134.18   10.96 
   4   7  -2  126.33    7.70 
   4   7  -2  130.85    6.90 
  -4  -7   2  129.70    4.47 
   6  -4  -5  223.96   11.54 
   6  -4  -5  220.00   10.53 
  -6   4   5  218.36   10.89 
   6  -4  -5  240.71   11.70 
  -6   4   5  227.10   11.72 
  -4  -7   3   38.40    3.28 
   4   7  -3   36.34    3.33 
   4   7  -3   40.53    3.21 
   4   7  -3   24.91    5.92 
  -4  -7   3   36.51    2.79 
  -4  -7   3   32.78    6.81 
   4   7  -3   35.86    2.80 
  -2   8   0  397.65   14.16 
  -2   8   0  434.44   17.12 
  -2   8   0  379.51   13.36 
  -2   8   0  382.72   17.93 
   2  -8   0  380.03   17.04 
   2  -8   0  405.19   13.90 
   2  -8   0  387.39   14.43 
   2  -8   0  379.91   13.26 
  -5  -6   1   13.45    0.99 
  -5  -6   1   11.29    3.42 
   5   6  -1   13.07    4.79 
   5   6  -1   13.45    0.98 
  -5  -6   1   10.28    1.69 
   5   6  -1   10.71    3.03 
   5   6  -1    5.75    1.71 
  -6  -5   4    4.72    3.51 
   6   5  -4    6.36    2.51 
   6   5  -4    1.98    1.45 
   6   5  -4    6.48    2.54 
  -6  -5   4    1.00    1.31 
   6   5  -4    1.81    1.33 
  -6  -5   4    2.54    1.47 
  -3   6   5  509.34   15.29 
  -3   6   5  519.90   20.62 
   3  -6  -5  525.87   19.84 
   3  -6  -5  522.28   20.33 
  -3   6   5  502.24   20.12 
   3  -6  -5  526.98   15.01 
  -3   6   5  494.30   14.33 
  -3   6   5  503.04   15.76 
  -5   3   7  252.49   11.50 
  -5   3   7  263.89    8.55 
  -5   3   7  249.11    7.65 
  -5   3   7  242.87    6.79 
   5  -3  -7  261.42   11.56 
   5  -3  -7  245.75    9.26 
   5  -3  -7  236.10    8.78 
  -7  -1   6   86.41    5.09 
   7   1  -6   95.76    5.88 
   7   1  -6   90.54    4.27 
  -7  -1   6   91.06    4.27 
   7   1  -6   90.06    3.26 
   7   1  -6   91.79    4.75 
  -7  -1   6   93.23    4.88 
  -2   8  -1    0.58    3.17 
   2  -8   1   -0.68    2.40 
   2  -8   1    6.76    3.46 
   2  -8   1    2.81    3.27 
  -2   8  -1    3.69    3.68 
   2  -8   1    2.50    3.00 
  -2   8  -1    1.45    2.43 
  -2   8  -1    1.07    3.14 
   7  -3  -4  765.13   24.71 
   7  -3  -4  715.85   22.32 
   7  -3  -4  725.88   23.49 
  -7   3   4  736.07   24.80 
  -7   3   4  712.96   22.39 
   0  -8  -1  452.38   17.77 
   0  -8  -1  433.28   16.41 
   0   8   1  433.24   14.01 
   0   8   1  433.07   18.10 
   0   8   1  447.62   16.60 
   0  -8  -1  416.51   16.77 
   0   8   1  449.67   17.56 
   0  -8  -1  445.70   17.54 
   6  -2   3  134.22    4.10 
   6  -2   3  136.27    4.85 
  -6   2  -3  131.78    4.17 
   6  -2   3  136.91    5.90 
   6  -2   3  142.44    6.95 
  -6   2  -3  139.76    5.90 
  -7   1  -1    6.03    1.88 
   7  -1   1    5.78    1.86 
   7  -1   1    6.33    1.31 
   7  -1   1   12.86    2.46 
   7  -1   1    5.41    1.27 
  -7   1  -1    5.13    1.22 
   7  -1   1    5.65    2.85 
   1  -2   8  592.80   19.05 
   1  -2   8  604.41   17.12 
  -1   2  -8  592.32   16.61 
  -1   2  -8  584.46   15.77 
   1  -2   8  596.77   16.55 
  -1   2  -8  586.69   17.11 
  -1   2  -8  549.00   10.45 
   4  -7   1  496.25   20.04 
  -4   7  -1  474.06   19.41 
  -4   7  -1  474.75   14.05 
  -4   7  -1  476.84   18.57 
   4  -7   1  466.55   13.04 
   4  -7   1  464.64   18.17 
   4  -7   1  492.48   20.68 
  -4   7  -1  487.41   19.63 
   7   2   0  296.68   12.14 
   7   2   0  321.77   10.13 
   7   2   0  320.41   10.06 
   7   0   1  822.16   19.57 
  -7   0  -1  757.93   12.69 
  -7   0  -1  766.15   13.14 
   7   0   1  802.61   23.34 
   7   0   1  789.64   13.15 
   7   0   1  801.15   18.62 
   7   0   1  792.89   13.52 
  -1   5  -7  507.56   16.65 
  -1   5  -7  494.05   17.68 
  -1   5  -7  502.04   15.73 
  -1   5  -7  521.55   17.12 
   1  -5   7  518.45   16.71 
   1  -5   7  510.36   15.73 
   1  -5   7  497.18   16.79 
   1  -5   7  491.92   13.32 
  -5   1   8   91.82    4.99 
   5  -1  -8   91.43    6.19 
   5  -1  -8   85.48    4.60 
   5  -1  -8   89.51    3.96 
   5  -1  -8   89.48    6.10 
  -5   1   8   97.99    6.22 
  -5   1   8   96.93    6.29 
   2   8  -2  780.04   22.93 
  -2  -8   2  766.94   25.32 
  -2  -8   2  792.66   24.41 
  -2  -8   2  791.33   24.86 
   2   8  -2  794.81   23.92 
   2   8  -2  792.56   25.00 
  -2  -8   2  808.75   23.50 
   2   8  -2  783.69   27.47 
   3   5   4  209.95    5.72 
   3   5   4  192.54    8.91 
   3   5   4  219.44   12.75 
  -3  -5  -4  206.89    7.03 
  -3  -5  -4  215.29    5.88 
   3   5   4  208.28    6.52 
   3   5   4  206.48    7.23 
  -1  -7  -3  513.67   17.16 
  -1  -7  -3  506.53   20.54 
  -1  -7  -3  513.69   17.35 
  -1  -7  -3  506.91   16.05 
   1   7   3  504.40   17.66 
   1   7   3  519.00   17.07 
   1   7   3  505.59   16.24 
   1   7   3  479.85   16.93 
  -4   7   2  839.36   30.56 
   4  -7  -2  807.12   20.43 
   4  -7  -2  795.76   23.68 
   4  -7  -2  802.53   29.89 
  -4   7   2  797.15   23.71 
  -4   7   2  744.15   19.89 
   4  -7  -2  787.34   23.78 
  -4   7   2  749.15   23.11 
  -2  -6   7  168.85    9.04 
  -2  -6   7  149.37    5.59 
  -2  -6   7  164.25    7.39 
  -2  -6   7  168.69    5.35 
   2   6  -7  151.08    5.55 
   2   6  -7  154.01    8.52 
   2   6  -7  153.06    6.46 
   2   6  -7  149.71    5.32 
   0  -5  -6  852.18   25.55 
   0  -5  -6  807.60   24.68 
   0   5   6  785.09   26.09 
   0   5   6  808.05   27.59 
   0   5   6  812.06   24.66 
   0   5   6  876.02   25.59 
   0   5   6  780.80   20.57 
   0  -5  -6  792.35   20.78 
   7  -3   0  173.95    7.76 
   7  -3   0  164.25    2.63 
   7  -3   0  162.68    3.20 
  -7   3   0  176.24    8.06 
  -7   3   0  175.12    6.53 
   7  -3   0  173.49    8.93 
   7  -3   0  166.56    6.60 
   3   7   1  120.36    7.37 
  -3  -7  -1  118.16    5.14 
  -3  -7  -1  125.89    5.84 
  -3  -7  -1  123.24   10.64 
  -3  -7  -1  122.20    6.44 
   3   7   1  119.41    5.11 
   3   7   1  121.74    6.89 
   3   7   1  123.53    5.93 
   4   4  -8  154.54    6.89 
   4   4  -8  157.84    7.47 
   4   4  -8  155.18    7.22 
  -4  -4   8  158.17    7.27 
  -4  -4   8  154.36    6.95 
  -4  -4   8  159.60    8.53 
   4   4  -8  153.02    5.21 
  -5   5  -3  419.73   13.72 
  -5   5  -3  426.01   12.53 
   5  -5   3  409.86   10.66 
   5  -5   3  446.88   13.88 
   5  -5   3  424.87   15.51 
  -5   5  -3  436.88   16.39 
   5  -5   3  440.32   17.28 
  -5   5  -3  398.43   11.72 
  -1   0  -8   79.55    6.49 
   1   0   8   79.41    4.53 
   1   0   8   83.18    4.95 
   1   0   8   78.17    5.08 
  -1   0  -8   86.38    5.09 
  -1   0  -8   78.94    4.82 
   1  -8   3  931.96   29.24 
  -1   8  -3  893.85   29.84 
  -1   8  -3  906.11   30.06 
  -1   8  -3  940.92   29.07 
  -1   8  -3  909.70   30.62 
   1  -8   3  907.06   31.98 
   1  -8   3  923.78   30.08 
   1  -8   3  932.17   30.94 
   1   6  -7   31.82    4.97 
   1   6  -7   40.48    3.16 
  -1  -6   7   35.42    4.55 
   1   6  -7   42.08    5.34 
  -1  -6   7   37.64    3.13 
  -1  -6   7   46.74    5.15 
  -1  -6   7   38.12    3.87 
   1   6  -7   43.24    4.50 
   6  -4   2  454.62   13.68 
  -6   4  -2  450.70   13.09 
  -6   4  -2  446.57   11.55 
  -6   4  -2  430.29   14.96 
  -6   4  -2  446.53   15.63 
   6  -4   2  441.51   12.92 
   6  -4   2  446.26   11.03 
   6  -4   2  433.91   15.57 
   0  -4   8   66.66    5.60 
   0  -4   8   66.93    6.30 
   0  -4   8   64.23    5.33 
   0   4  -8   68.22    5.34 
   0   4  -8   62.79    6.37 
   0   4  -8   58.55    5.52 
   0   4  -8   70.10    4.04 
   5   2   4  238.75    5.13 
   5   2   4  250.47    5.36 
   5   2   4  253.31    6.74 
   5   2   4  246.94   10.33 
   5   2   4  246.87    5.05 
   5   2   4  251.69    8.64 
  -5  -2  -4  244.50    5.07 
  -5  -2  -4  239.62    5.05 
   6   3  -7  644.17   16.89 
   6   3  -7  616.70   18.68 
  -6  -3   7  631.96   16.89 
  -6  -3   7  607.39   14.41 
  -6  -3   7  621.51   17.60 
   6   3  -7  625.22   14.60 
   6   3  -7  627.12   17.10 
  -2  -8   1  131.64    7.94 
  -2  -8   1  144.32   10.90 
  -2  -8   1  144.31    8.26 
  -2  -8   1  129.40    6.74 
   2   8  -1  141.12    6.79 
   2   8  -1  129.21    9.31 
   2   8  -1  147.92   10.44 
   2   8  -1  136.08    5.60 
  -1  -3  -7   63.14    4.60 
   1   3   7   74.92    6.39 
   1   3   7   92.61    6.98 
   1   3   7   71.16    4.62 
   1   3   7   75.54    4.61 
  -1  -3  -7   70.68    4.61 
   0  -6  -5  960.40   26.58 
   0   6   5  953.84   28.00 
   0   6   5  982.51   32.45 
   0   6   5  929.35   29.39 
   0   6   5  951.17   26.92 
   0   6   5  996.59   31.01 
   0  -6  -5  947.13   29.89 
   0  -6  -5  937.32   29.47 
  -7  -3   1  121.60    4.79 
   7   3  -1  122.00    7.23 
   7   3  -1  113.87    5.85 
  -7  -3   5   48.40    5.65 
  -7  -3   5   47.45    2.65 
   7   3  -5   41.24    2.35 
   7   3  -5   42.57    3.32 
   7   3  -5   50.94    2.69 
  -7  -3   5   46.47    2.37 
   7   3  -5   38.85    3.37 
   7  -1  -6  589.51   16.72 
   7  -1  -6  574.04   10.37 
  -7   1   6  601.44   18.65 
  -7   1   6  590.84   13.86 
   7  -1  -6  605.12   18.98 
   7  -1  -6  628.40   18.40 
  -7   1   6  591.23   16.91 
  -2  -8   3  889.45   31.44 
   2   8  -3  860.04   30.42 
  -2  -8   3  892.30   25.88 
  -2  -8   3  829.84   23.38 
  -2  -8   3  889.98   27.16 
   2   8  -3  914.88   26.34 
   2   8  -3  902.99   26.08 
   2   8  -3  855.27   26.65 
  -2  -1   9  535.16   18.26 
  -2  -1   9  535.33   16.79 
   2   1  -9  539.58   11.74 
   2   1  -9  567.68   13.84 
   2   1  -9  530.52   13.85 
   2   1  -9  553.23   16.69 
   2   1  -9  541.58   17.23 
  -2  -1   9  540.50   17.28 
  -2   4  -7  578.41   17.07 
  -2   4  -7  612.90   19.55 
  -2   4  -7  668.51   23.15 
  -2   4  -7  615.38   18.28 
   2  -4   7  579.55   17.93 
   2  -4   7  612.22   18.92 
   2  -4   7  588.18   14.51 
   2  -4   7  588.55   17.05 
  -2   8   1  696.64   22.16 
  -2   8   1  734.75   22.76 
  -2   8   1  729.04   27.36 
  -2   8   1  693.39   25.49 
   2  -8  -1  686.05   24.98 
   2  -8  -1  731.53   23.15 
   2  -8  -1  696.07   26.83 
   2  -8  -1  689.61   26.11 
   4  -5  -6  500.03   17.20 
  -4   5   6  456.87   13.08 
  -4   5   6  468.61   15.72 
  -4   5   6  451.01   14.82 
  -4   5   6  502.78   13.66 
   4  -5  -6  492.99   19.76 
   4  -5  -6  444.26   14.68 
  -4   5   6  485.96   19.28 
   4   7  -1  658.09   20.90 
   4   7  -1  678.80   20.78 
   4   7  -1  626.65   15.32 
   4   7  -1  699.56   26.75 
  -4  -7   1  662.09   20.21 
  -4  -7   1  675.75   27.89 
  -4  -7   1  650.73   15.21 
  -4  -5  -3  763.58   15.19 
  -4  -5  -3  770.13   18.13 
   4   5   3  747.71   18.24 
   4   5   3  759.84   28.52 
   4   5   3  735.68   23.04 
   4   5   3  751.96   15.35 
   4   5   3  737.48   20.20 
  -3  -4  -5  200.62    5.60 
  -3  -4  -5  186.67    6.39 
   3   4   5  202.22    5.58 
   3   4   5  194.39    5.55 
   3   4   5  196.81   11.13 
   3   4   5  194.48    6.40 
   3   4   5  215.03   10.96 
   3   1  -9  331.00    7.75 
   3   1  -9  325.84    8.28 
   3   1  -9  329.25   11.11 
   3   1  -9  314.39    9.41 
  -3  -1   9  311.77   11.83 
  -3  -1   9  319.26    9.59 
  -3  -1   9  317.28    9.35 
   3   1  -9  324.46   11.70 
  -4  -7   4  341.41   12.35 
   4   7  -4  339.25   10.61 
  -4  -7   4  341.52   10.46 
   4   7  -4  343.03    9.66 
   4   7  -4  327.87   11.51 
  -4  -7   4  356.19    9.90 
   4   7  -4  335.65   13.97 
  -5  -3   8  812.51   25.20 
   5   3  -8  785.67   22.23 
  -5  -3   8  797.62   22.26 
  -5  -3   8  824.30   22.85 
   5   3  -8  814.84   22.44 
   5   3  -8  796.46   22.05 
   5   3  -8  841.34   22.88 
   6   1   3  249.88    8.84 
  -6  -1  -3  248.06    4.36 
  -6  -1  -3  250.46    3.58 
   6   1   3  273.25    7.57 
   6   1   3  263.46    8.96 
   6   1   3  253.45    3.60 
   6   1   3  250.83    4.62 
   2  -8   2  345.05   11.77 
   2  -8   2  381.37   17.09 
   2  -8   2  314.16   15.80 
  -2   8  -2  344.31   15.79 
  -2   8  -2  348.95   17.36 
  -2   8  -2  352.89   13.65 
  -2   8  -2  364.52   12.15 
   2  -8   2  330.30   12.96 
   7  -2   1  484.40   10.96 
  -7   2  -1  469.67   10.91 
   7  -2   1  518.70   14.39 
   7  -2   1  493.86   13.46 
   7  -2   1  491.20   10.03 
   7  -2   1  499.63   12.71 
  -7   2  -1  491.79   13.90 
   4   4   4  479.89   11.81 
  -4  -4  -4  490.05   11.29 
   4   4   4  500.71   11.92 
   4   4   4  499.52   19.49 
   4   4   4  489.00    9.73 
   4   4   4  503.01   20.17 
  -4  -4  -4  477.31   10.26 
  -7  -2   6  592.43   19.34 
  -7  -2   6  592.33   14.82 
  -7  -2   6  585.60   15.37 
   7   2  -6  616.59   15.02 
   7   2  -6  605.19   15.49 
   7   2  -6  602.35   14.84 
  -5  -6   5   90.68    8.50 
  -5  -6   5   97.26    4.19 
  -5  -6   5   98.78    4.36 
   5   6  -5  102.39    5.04 
   5   6  -5   91.67    4.32 
   5   6  -5   93.88    6.93 
   5   6  -5   96.25    4.20 
   2   5   5   91.46    8.89 
   2   5   5   96.95    5.42 
   2   5   5  103.94    8.29 
   2   5   5   86.86    4.06 
   2   5   5  102.82    3.36 
  -2  -5  -5   99.77    5.44 
  -2  -5  -5  106.78    4.69 
   6  -2  -7   36.60    3.13 
   6  -2  -7   37.70    4.06 
   6  -2  -7   30.44    4.58 
  -6   2   7   34.84    3.13 
  -6   2   7   35.61    2.56 
  -6   2   7   40.58    4.73 
   6  -2  -7   32.14    1.94 
   6   5  -1  650.33   23.64 
   6   5  -1  637.12   18.37 
  -6  -5   1  629.12   24.55 
   4  -4  -7  804.86   27.08 
   4  -4  -7  789.62   23.85 
   4  -4  -7  808.18   27.56 
  -4   4   7  802.89   26.66 
  -4   4   7  787.14   21.25 
  -4   4   7  823.89   22.70 
  -4   4   7  795.00   27.43 
  -2  -2   9   22.50    3.82 
  -2  -2   9   14.77    3.80 
   2   2  -9   15.10    3.75 
  -2  -2   9   22.71    4.20 
   2   2  -9   22.09    2.23 
   2   2  -9   16.73    3.84 
   2   2  -9   17.38    3.64 
  -1  -7   6  640.28   17.11 
  -1  -7   6  655.44   19.93 
  -1  -7   6  651.88   22.14 
   1   7  -6  668.00   22.83 
   1   7  -6  651.71   22.88 
   1   7  -6  644.07   20.08 
  -1  -7   6  634.84   16.80 
   1   7  -6  622.33   17.00 
   3   6   3    6.76    1.87 
   3   6   3    7.70    4.75 
   3   6   3   12.14    2.35 
   3   6   3    8.78    3.02 
  -3  -6  -3    9.13    2.98 
  -3  -6  -3    7.05    1.93 
   3   6   3   12.54    3.01 
   5  -4   4  315.24   11.18 
  -5   4  -4  322.70    9.99 
   5  -4   4  320.64    9.36 
  -5   4  -4  324.51   11.05 
  -5   4  -4  327.38   11.43 
   5  -4   4  318.08    9.85 
  -5   4  -4  308.56   10.25 
   5  -4   4  306.36   12.97 
   7   1   1  407.03   11.69 
   7   1   1  403.24   11.17 
   7   1   1  389.92   14.28 
  -1  -8   4  121.84    8.44 
   1   8  -4  138.26    7.84 
   1   8  -4  140.55    9.76 
  -1  -8   4  125.82    7.93 
   1   8  -4  125.74    9.48 
   1   8  -4  128.65    7.58 
  -1  -8   4  130.34    7.53 
  -1  -8   4  146.47    9.41 
  -3  -2   9   10.56    3.33 
   3   2  -9   13.92    3.43 
  -3  -2   9   13.50    3.57 
  -3  -2   9   10.62    3.42 
   3   2  -9   11.41    2.04 
   3   2  -9   10.97    3.27 
   3   2  -9   13.86    2.16 
   0   2   8   34.47    2.54 
   0   2   8   33.36    5.33 
   0   2   8   34.36    3.84 
   0  -2  -8   31.15    3.93 
   0  -2  -8   42.45    4.79 
   0  -2  -8   28.04    2.44 
   1  -7  -4  657.62   23.25 
   1  -7  -4  670.11   19.87 
  -1   7   4  613.30   20.68 
  -1   7   4  633.37   22.35 
  -1   7   4  633.01   22.72 
  -1   7   4  620.97   22.78 
  -1   7   4  639.66   23.39 
   1  -7  -4  673.89   22.70 
  -2   7   4  347.78   15.08 
  -2   7   4  307.36   11.29 
  -2   7   4  334.49   12.80 
   2  -7  -4  342.03   15.27 
   2  -7  -4  341.64   13.88 
  -2   7   4  321.57    9.91 
  -2   7   4  324.14   13.07 
   2  -7  -4  333.15   11.62 
  -1   3  -8  157.51    7.53 
   1  -3   8  163.38    6.11 
  -1   3  -8  167.89    6.44 
   1  -3   8  157.91    7.30 
  -1   3  -8  159.58    8.57 
   1  -3   8  163.58    7.63 
  -1   3  -8  150.40    7.25 
  -3  -6   7  209.52    8.71 
  -3  -6   7  213.30    8.15 
  -3  -6   7  204.59    6.49 
   3   6  -7  207.19    7.72 
   3   6  -7  225.76    9.91 
   3   6  -7  210.62    8.70 
   3   6  -7  214.28    6.28 
  -2  -7   6  376.53   10.17 
  -2  -7   6  365.43   12.94 
   2   7  -6  400.30   16.42 
  -2  -7   6  402.40   16.07 
  -2  -7   6  376.74   13.13 
   2   7  -6  386.50   15.23 
   2   7  -6  370.56   13.12 
   2   7  -6  360.28   10.12 
   6   5  -5  324.49   12.72 
   6   5  -5  345.55    9.86 
  -6  -5   5  343.89    8.50 
   6   5  -5  335.66    8.24 
  -6  -5   5  324.51    8.09 
  -6  -5   5  331.91   12.54 
   6   5  -5  328.04    8.30 
   2   0  -9  803.48   23.23 
   2   0  -9  849.22   17.63 
   2   0  -9  803.96   23.34 
   2   0  -9  788.85   23.75 
  -2   0   9  820.60   23.94 
  -2   0   9  788.22   25.00 
  -2   0   9  788.11   23.64 
   2   0  -9  801.04   16.12 
   3   0  -9  849.14   23.75 
   3   0  -9  806.18   21.64 
   3   0  -9  863.51   22.07 
   3   0  -9  880.35   20.58 
  -3   0   9  821.41   21.93 
  -3   0   9  882.33   23.49 
  -3   0   9  852.02   22.22 
   3   0  -9  883.32   19.86 
  -2  -5   8  454.16   13.15 
  -2  -5   8  446.40   14.58 
  -2  -5   8  450.79   14.85 
   2   5  -8  446.62   14.31 
   2   5  -8  432.71   14.83 
   2   5  -8  453.02   14.65 
   2   5  -8  433.67   12.45 
   4  -1   6  770.10   18.75 
   4  -1   6  781.91   22.76 
   4  -1   6  786.13   16.23 
   4  -1   6  801.03   20.08 
  -4   1  -6  801.13   24.31 
  -4   1  -6  805.91   19.11 
  -4   1  -6  792.97   19.98 
   1   8   1  360.83   14.54 
  -1  -8  -1  341.15   14.18 
   1   8   1  370.13   13.67 
   1   8   1  357.44   16.05 
  -1  -8  -1  362.78   16.66 
  -1  -8  -1  359.62   14.16 
  -1  -8  -1  343.58   13.41 
   1   8   1  321.38   15.01 
  -2  -2  -7  576.77   15.05 
   2   2   7  550.33   19.35 
   2   2   7  552.54   14.70 
   2   2   7  554.03   20.26 
   2   2   7  563.89   14.96 
  -2  -2  -7  560.08   15.12 
  -2   3   8  650.07   21.47 
   2  -3  -8  660.37   17.69 
   2  -3  -8  659.70   17.89 
  -2   3   8  675.31   18.72 
   2  -3  -8  671.31   21.57 
  -2   3   8  653.53   17.60 
  -6   5  -1  427.78   15.13 
   6  -5   1  425.98   17.22 
  -6   5  -1  449.45   17.60 
  -6   5  -1  452.32   17.51 
  -6   5  -1  409.24   10.36 
   6  -5   1  423.75   14.99 
   6  -5   1  436.27   13.83 
   6  -5   1  431.02    9.89 
   2   6   4  296.12   10.80 
   2   6   4  285.98    9.65 
   2   6   4  275.26    9.88 
   2   6   4  293.14   10.89 
  -2  -6  -4  298.59    8.33 
  -2  -6  -4  305.10    9.75 
  -2  -6  -4  309.36   10.71 
   2   6   4  277.46   15.18 
   0  -8   4  382.61   14.79 
   0   8  -4  362.32   11.38 
   0   8  -4  372.52   16.05 
   0   8  -4  367.00   17.11 
   0   8  -4  401.70   14.71 
   0  -8   4  375.61   11.87 
   0  -8   4  365.06   11.48 
   0  -8   4  367.62   11.77 
  -7   4   2  785.54   26.03 
   7  -4  -2  771.38   26.06 
  -7   4   2  791.78   26.07 
   7  -4  -2  803.73   26.22 
  -7   4   2  766.86   26.84 
   7  -4  -2  767.59   25.89 
   6   3   2  609.91   15.05 
   6   3   2  616.43   19.16 
   6   3   2  616.39   16.82 
   3  -3  -8  670.91   17.64 
  -3   3   8  702.62   18.95 
   3  -3  -8  661.00   22.47 
  -3   3   8  682.26   22.55 
  -3   3   8  670.14   21.07 
   3  -3  -8  672.74   18.81 
   6   4   1  567.12   17.20 
   6   4   1  568.19   22.34 
   6   4   1  603.41   15.62 
  -6   3  -3   39.56    2.90 
  -6   3  -3   43.99    3.54 
   6  -3   3   40.13    2.79 
   6  -3   3   38.59    4.33 
   6  -3   3   44.50    2.98 
  -6   3  -3   45.80    3.83 
  -6   3  -3   45.60    4.27 
   6  -3   3   48.20    5.15 
  -6   5   4  436.63   14.16 
  -6   5   4  437.57   14.31 
   6  -5  -4  446.72   14.39 
   6  -5  -4  458.80   14.88 
   6  -5  -4  429.31   18.05 
  -6   5   4  460.58   14.85 
   0  -4  -7  487.69   12.67 
   0  -4  -7  476.47   15.41 
   0  -4  -7  430.67    8.31 
   0   4   7  471.63   14.53 
   0   4   7  489.99   15.50 
   0   4   7  470.47   12.61 
   0   4   7  470.12   13.67 
   4  -2   6    2.62    2.35 
   4  -2   6    2.21    1.74 
  -4   2  -6    5.38    1.91 
  -4   2  -6    1.48    2.63 
  -4   2  -6    3.22    1.69 
   4  -2   6    3.25    1.31 
   4  -2   6    4.90    1.88 
   3  -6   5  785.76   20.70 
  -3   6  -5  770.28   23.50 
  -3   6  -5  782.89   20.74 
  -3   6  -5  814.38   24.59 
  -3   6  -5  831.45   25.78 
   3  -6   5  815.50   26.38 
   3  -6   5  827.96   22.17 
   3  -6   5  799.07   22.51 
  -4   7  -2  751.73   21.78 
   4  -7   2  743.32   27.43 
   4  -7   2  772.76   25.69 
  -4   7  -2  764.09   27.25 
   4  -7   2  747.58   20.46 
   4  -7   2  779.26   24.01 
  -4   7  -2  747.09   26.24 
  -4   7  -2  721.64   22.95 
   0  -6   7   61.37    5.76 
   0   6  -7   48.42    5.76 
   0   6  -7   60.57    6.21 
   0   6  -7   55.52    5.47 
   0   6  -7   49.17    5.66 
   0  -6   7   56.52    5.60 
   0  -6   7   67.90    5.33 
   0  -6   7   61.04    4.50 
  -2  -8   0    5.45    3.05 
   2   8   0    4.87    4.43 
   2   8   0    3.42    3.63 
  -2  -8   0    7.18    1.73 
  -2  -8   0   10.03    3.23 
   2   8   0    7.76    3.16 
   2   8   0    7.29    1.70 
  -2  -8   0    4.53    3.25 
   5  -6   2  459.99   13.22 
   5  -6   2  450.15   11.32 
  -5   6  -2  448.37   18.75 
  -5   6  -2  459.59   13.24 
  -5   6  -2  428.78   11.99 
  -5   6  -2  456.71   14.36 
   5  -6   2  454.94   19.13 
   5  -6   2  456.97   14.44 
   1   1  -9  122.81    4.13 
  -1  -1   9  124.04    6.62 
  -1  -1   9  117.19    7.48 
   1   1  -9  120.06    6.78 
   1   1  -9  107.25    2.20 
  -1  -1   9  116.61    6.86 
   1   1  -9  118.66    7.19 
   1   1  -9  109.59    6.47 
  -1   8   2  571.37   21.18 
   1  -8  -2  563.54   17.72 
   1  -8  -2  565.87   16.60 
   1  -8  -2  580.19   21.50 
   1  -8  -2  589.92   21.87 
  -1   8   2  603.66   22.35 
  -1   8   2  604.97   20.45 
  -1   8   2  560.63   22.70 
   5   6   0  398.62   13.02 
  -5  -6   0  382.15    7.06 
   5   6   0  385.38    7.24 
  -5  -6   0  390.98    7.97 
  -5  -6   0  390.66   18.93 
   5   6   0  387.04    7.14 
   5   6   0  403.09   18.35 
  -1  -5   8  585.03   15.75 
   1   5  -8  581.21   19.44 
  -1  -5   8  580.01   16.66 
   1   5  -8  589.98   15.75 
   1   5  -8  570.04   14.89 
  -1  -5   8  582.84   14.93 
   1   5  -8  621.10   19.62 
  -7   4   1  786.92   26.01 
   7  -4  -1  763.33   24.50 
   7  -4  -1  797.93   26.83 
   7  -4  -1  793.23   25.76 
  -7   4   1  773.24   24.52 
  -7   4   1  755.85   21.63 
   4   0   6  693.59   21.29 
   4   0   6  708.79   16.86 
  -4   0  -6  686.16   22.15 
  -4   0  -6  686.66   16.72 
  -4   0  -6  680.41   15.93 
   4   0   6  684.37   16.17 
  -3  -5   8  338.41   11.93 
  -3  -5   8  356.55   12.46 
   3   5  -8  345.65   10.09 
   3   5  -8  347.61   11.87 
   3   5  -8  344.59   12.14 
   3   5  -8  352.50   12.11 
  -3  -5   8  356.02   14.23 
   7  -4  -3  203.62   11.31 
  -7   4   3  195.58   10.09 
   7  -4  -3  205.79   10.24 
  -7   4   3  188.67   11.25 
   7  -4  -3  202.56   11.08 
  -1  -1  -8  576.36   19.61 
   1   1   8  566.86   16.39 
   1   1   8  568.35   16.06 
   1   1   8  554.99   20.20 
  -1  -1  -8  547.73   15.59 
  -1  -1  -8  574.07   16.40 
  -3   1  -7  903.25   23.89 
   3  -1   7  880.36   22.36 
   3  -1   7  877.10   21.03 
   3  -1   7  831.94   22.52 
  -3   1  -7  873.69   22.41 
  -3   1  -7  871.17   20.91 
   0  -7   6  969.42   29.37 
   0  -7   6 1022.15   30.99 
   0  -7   6  910.62   24.79 
   0  -7   6  949.78   25.99 
   0   7  -6  989.16   26.78 
   0   7  -6  977.60   29.62 
   0   7  -6  980.17   27.48 
   0   7  -6  935.66   32.49 
   4   1  -9  322.63    9.13 
   4   1  -9  339.82   10.95 
   4   1  -9  309.71    9.14 
  -4  -1   9  320.26   11.72 
  -4  -1   9  315.28   11.95 
  -4  -1   9  313.20    9.32 
   4   1  -9  310.01   11.67 
   4   1  -9  323.68    8.67 
  -4   6   5  432.05   16.35 
   4  -6  -5  409.12   14.36 
  -4   6   5  424.19   12.64 
   4  -6  -5  438.93   18.73 
  -4   6   5  421.64   13.92 
  -4   6   5  439.98   18.76 
   4  -6  -5  440.51   17.07 
  -4   6   5  405.59   14.16 
   2   4   6   10.36    2.24 
   2   4   6   16.10    4.06 
  -2  -4  -6   10.22    1.51 
  -2  -4  -6    6.94    2.54 
   2   4   6   10.89    2.93 
   2   4   6   10.08    2.39 
   1   2  -9  147.59    7.78 
   1   2  -9  158.35    8.47 
  -1  -2   9  156.96    5.44 
   1   2  -9  157.02    5.56 
  -1  -2   9  154.88    7.92 
  -1  -2   9  153.75    8.74 
   1   2  -9  141.74    6.44 
   2   8  -4  304.51   15.36 
  -2  -8   4  315.34   11.52 
   2   8  -4  312.78   12.09 
   2   8  -4  294.22   14.67 
   2   8  -4  316.32   11.44 
  -2  -8   4  313.73   11.94 
  -2  -8   4  313.84   15.72 
  -2  -8   4  323.21   13.29 
   5  -1   5    7.38    2.58 
   5  -1   5    7.92    1.80 
  -5   1  -5    8.90    1.82 
  -5   1  -5    5.33    1.50 
   5  -1   5    7.79    1.48 
   5  -1   5    5.76    2.04 
  -5   1  -5    9.59    3.06 
  -7  -4   3  278.11    5.12 
  -7  -4   3  272.77    4.63 
  -7  -4   3  267.59   13.42 
   7   4  -3  274.71    5.13 
   7   4  -3  278.89    4.69 
   7   4  -3  284.61   10.78 
   7   4  -3  268.07   10.22 
   4  -7  -3  681.59   21.86 
   4  -7  -3  659.05   24.96 
  -4   7   3  657.64   17.70 
  -4   7   3  644.79   24.31 
  -4   7   3  685.44   18.20 
  -4   7   3  705.07   27.19 
  -4   7   3  683.45   21.90 
   4  -7  -3  718.89   26.67 
  -7   3   5   67.79    6.99 
   7  -3  -5   72.49    6.18 
  -7   3   5   68.29    5.83 
   7  -3  -5   68.28    5.98 
   7  -3  -5   75.44    6.82 
  -5   6   4  527.12   16.83 
  -5   6   4  540.03   22.24 
   5  -6  -4  521.20   17.49 
  -5   6   4  523.10   12.01 
   5  -6  -4  547.41   21.34 
   5  -6  -4  565.48   22.36 
  -5   6   4  546.19   17.67 
  -5   6   4  549.22   13.59 
  -4  -6  -2  407.41    8.84 
  -4  -6  -2  413.51   19.11 
   4   6   2  372.37    8.91 
   4   6   2  407.93   19.24 
  -4  -6  -2  394.69    8.92 
   4   6   2  401.08    8.90 
   4   6   2  384.23   12.04 
   5  -2  -8  166.20    9.23 
  -5   2   8  173.67    9.30 
  -5   2   8  162.09    6.91 
  -5   2   8  158.45    9.42 
   5  -2  -8  173.74    6.76 
   5  -2  -8  165.01    9.22 
   5  -2  -8  165.76    5.59 
  -2   6  -6  592.36   16.17 
   2  -6   6  587.88   18.63 
   2  -6   6  604.47   20.03 
   2  -6   6  608.78   18.70 
   2  -6   6  622.14   19.19 
  -2   6  -6  595.73   22.92 
  -2   6  -6  617.17   20.34 
  -2   6  -6  601.68   18.88 
   3  -2   7  383.44   11.60 
   3  -2   7  344.22    6.18 
   3  -2   7  365.11   13.06 
   3  -2   7  373.31   10.86 
  -3   2  -7  366.20   10.78 
  -3   2  -7  364.62   10.84 
  -3   2  -7  361.11   11.33 
   2   3  -9  794.79   23.31 
   2   3  -9  823.05   21.43 
   2   3  -9  799.40   24.53 
  -2  -3   9  805.40   21.13 
  -2  -3   9  790.24   23.05 
  -2  -3   9  800.54   21.99 
   2   3  -9  813.55   20.87 
   5   5  -7  989.76   26.85 
   5   5  -7  998.74   29.66 
   5   5  -7 1035.68   27.31 
   5   5  -7  999.95   29.93 
  -5  -5   7  997.40   26.76 
  -5  -5   7 1006.03   27.33 
  -5  -5   7 1039.75   34.16 
   0   7   4  588.26   19.98 
   0   7   4  627.54   21.58 
   0   7   4  597.28   22.76 
   0   7   4  567.09   21.77 
   0   7   4  564.84   20.45 
   0  -7  -4  605.08   21.05 
   0  -7  -4  598.44   21.12 
   0  -7  -4  613.60   19.83 
   3  -8   0  262.50   10.04 
  -3   8   0  251.31   14.00 
   3  -8   0  258.06   13.99 
   3  -8   0  245.29   13.94 
  -3   8   0  244.56   13.77 
  -3   8   0  230.78    9.49 
  -3   8   0  240.36   10.17 
   3  -8   0  245.15   10.68 
   0  -8  -2  556.10   21.77 
   0   8   2  591.94   21.56 
   0  -8  -2  562.38   20.06 
   0  -8  -2  601.10   21.38 
   0   8   2  575.43   21.93 
   0   8   2  578.68   17.58 
   0   8   2  561.01   20.02 
   0  -8  -2  559.47   17.18 
  -1   3   8  707.29   22.28 
   1  -3  -8  717.70   22.18 
  -1   3   8  717.76   21.78 
  -1   3   8  730.95   22.32 
   1  -3  -8  655.18   13.76 
  -1   3   8  736.04   24.37 
   1  -3  -8  727.42   22.02 
   8   0  -3  677.08   15.47 
   8   0  -3  701.06   21.43 
  -8   0   3  671.79   19.77 
  -8   0   3  679.38   15.51 
   8   0  -3  706.92   13.58 
   8   0  -3  692.33   12.85 
   8   0  -3  660.93   19.51 
   5   4   3  467.25   12.74 
   5   4   3  487.66   20.45 
   5   4   3  471.00   18.41 
  -7  -4   4  666.74   25.35 
   7   4  -4  701.58   15.53 
   7   4  -4  703.41   15.02 
  -7  -4   4  690.01   14.86 
  -7  -4   4  700.34   15.54 
   7   4  -4  678.01   17.82 
   7   4  -4  679.72   19.97 
  -7   2   6  131.92    7.28 
   7  -2  -6  127.49    7.94 
   7  -2  -6  140.68    7.15 
   7  -2  -6  127.87    5.37 
  -7   2   6  129.95    8.13 
  -4  -2   9   10.46    3.33 
   4   2  -9   12.00    3.25 
   4   2  -9   10.25    2.28 
  -4  -2   9   10.74    3.18 
   4   2  -9    5.08    2.83 
  -4  -2   9   14.03    3.45 
   4   2  -9    8.43    3.09 
  -3   7   4  108.71    6.12 
   3  -7  -4  113.01    8.03 
  -3   7   4   95.61    5.82 
   3  -7  -4   99.06    9.22 
  -3   7   4  104.68    6.40 
  -3   7   4  105.80    7.75 
   1   0  -9  855.55   22.39 
  -1   0   9  861.57   25.75 
  -1   0   9  854.24   27.13 
  -1   0   9  866.07   25.00 
   1   0  -9  864.25   25.51 
   1   0  -9  863.61   24.77 
   3   3  -9  600.27   16.30 
  -3  -3   9  581.38   19.51 
  -3  -3   9  554.90   14.46 
  -3  -3   9  577.04   18.68 
   3   3  -9  575.08   18.56 
   3   3  -9  545.77   14.49 
   3   3  -9  584.38   15.32 
   2  -8  -2  648.96   21.08 
   2  -8  -2  668.22   20.98 
   2  -8  -2  671.33   25.37 
   2  -8  -2  662.32   20.72 
  -2   8   2  676.21   21.85 
  -2   8   2  641.62   24.63 
  -2   8   2  710.21   22.95 
  -2   8   2  656.98   20.30 
  -4   0   9  492.98   16.28 
  -4   0   9  491.04   13.59 
  -4   0   9  520.61   16.86 
   4   0  -9  487.06   13.78 
   4   0  -9  501.98   16.44 
   4   0  -9  512.12   14.96 
   4   0  -9  498.59   12.51 
   6   1  -8  139.16    5.10 
  -6  -1   8  133.31    6.64 
  -6  -1   8  132.78    6.83 
   6   1  -8  130.39    4.66 
   6   1  -8  128.51    6.41 
  -6  -1   8  129.29    4.72 
   6   1  -8  129.52    6.74 
  -4  -7   0  801.08   20.76 
  -4  -7   0  809.64   31.80 
   4   7   0  754.55   18.10 
   4   7   0  814.25   30.52 
   4   7   0  782.81   21.16 
  -4  -7   0  768.99   17.86 
   4   7   0  780.30   20.80 
   5  -2   5  667.98   17.45 
   5  -2   5  622.37   15.44 
  -5   2  -5  647.21   17.30 
  -5   2  -5  647.86   15.70 
  -5   2  -5  640.60   19.69 
   5  -2   5  615.13   17.51 
   5  -2   5  627.23   15.62 
   4  -6   4  263.73    9.09 
  -4   6  -4  265.57    8.45 
  -4   6  -4  268.92   13.46 
  -4   6  -4  273.97    9.16 
   4  -6   4  283.00   13.40 
   4  -6   4  269.06    9.03 
   4  -6   4  270.56    8.38 
  -4   6  -4  271.38   10.06 
   4   7  -5  633.97   21.79 
   4   7  -5  620.45   18.01 
   4   7  -5  659.15   23.35 
   4   7  -5  613.70   17.14 
  -4  -7   5  621.98   17.78 
  -4  -7   5  644.12   17.29 
  -4  -7   5  611.40   24.01 
  -4  -3  -5  416.95    9.55 
   4   3   5  420.30    9.74 
   4   3   5  420.15    8.24 
   4   3   5  428.31    9.19 
   4   3   5  428.04    8.47 
   4   3   5  419.78   13.28 
  -4  -3  -5  429.10    9.17 
   4   3   5  425.94   13.41 
   5   0   5  787.59   24.37 
  -5   0  -5  790.55   17.13 
  -5   0  -5  780.26   18.02 
   5   0   5  771.44   18.72 
   5   0   5  818.53   23.43 
   5   0   5  794.76   18.44 
   5   0   5  814.78   18.45 
   3   0   7   82.45    4.14 
  -3   0  -7   73.92    4.34 
   3   0   7   84.36    3.05 
   3   0   7   80.34    6.66 
  -3   0  -7   81.64    4.10 
  -3   0  -7   92.98    4.76 
  -3   5  -6    1.82    2.90 
  -3   5  -6    2.25    1.66 
  -3   5  -6    4.93    2.54 
   3  -5   6    1.97    1.58 
  -3   5  -6    1.90    2.24 
   3  -5   6    1.01    2.10 
   3  -5   6    2.10    2.21 
   3  -5   6    1.90    2.23 
  -7   3  -1  468.75   12.44 
   7  -3   1  458.38   12.18 
   7  -3   1  506.04   16.07 
   7  -3   1  461.25    9.15 
  -7   3  -1  456.27   15.38 
   7  -3   1  453.20   16.24 
   7  -3   1  459.98   12.33 
   2  -8   3  875.60   26.98 
  -2   8  -3  830.25   28.05 
   2  -8   3  864.36   26.28 
  -2   8  -3  902.78   28.40 
  -2   8  -3  816.17   24.83 
   2  -8   3  878.74   30.12 
   2  -8   3  863.78   25.64 
  -2   8  -3  878.79   30.82 
   7   4  -2    7.91    3.18 
   7   4  -2    8.12    2.86 
  -7  -4   2    7.37    3.74 
  -3  -7   6  647.96   19.34 
   3   7  -6  638.08   19.00 
   3   7  -6  634.71   21.22 
  -3  -7   6  626.77   18.15 
   3   7  -6  648.17   22.91 
   3   7  -6  603.38   17.88 
  -3  -7   6  522.17   15.15 
  -3  -7   6  631.15   18.55 
   3  -8   1   17.03    3.61 
   3  -8   1   15.60    3.19 
   3  -8   1   13.48    5.18 
  -3   8  -1    7.59    5.23 
  -3   8  -1   16.43    3.37 
   3  -8   1   16.67    3.33 
  -3   8  -1   18.75    3.19 
  -3   8  -1   18.39    5.65 
   6   0  -8  955.68   24.28 
   6   0  -8  912.38   22.45 
  -6   0   8  925.02   24.31 
   6   0  -8  890.10   26.43 
  -6   0   8  907.99   26.56 
   6   0  -8  909.27   25.00 
  -6   0   8  899.41   25.34 
  -8   0   2  445.44    9.45 
  -8   0   2  463.53   11.17 
   8   0  -2  477.49   11.07 
   8   0  -2  465.83   15.39 
   8   0  -2  456.82    8.96 
   8   0  -2  456.43    9.56 
   8   0  -2  452.94    9.98 
  -2   7  -5  370.77   13.30 
  -2   7  -5  363.79   10.93 
   2  -7   5  345.05   11.34 
   2  -7   5  382.55   13.17 
   2  -7   5  375.60   14.93 
   2  -7   5  376.93   11.19 
  -2   7  -5  393.29   15.24 
  -2   7  -5  385.73   14.17 
   5   5   2  477.43   21.17 
   5   5   2  453.70   20.13 
   5   5   2  476.42   13.07 
  -3   1   9   44.93    4.86 
  -3   1   9   31.44    3.02 
   3  -1  -9   28.67    5.08 
   3  -1  -9   35.57    3.13 
   3  -1  -9   34.77    3.93 
   3  -1  -9   40.00    2.97 
  -3   1   9   38.29    4.77 
  -8   1   3  319.04    8.22 
   8  -1  -3  321.16    8.39 
   8  -1  -3  335.97    9.90 
   8  -1  -3  313.72   10.85 
  -8   1   3  322.61   11.34 
   1  -8   4  475.04   18.02 
  -1   8  -4  482.33   17.94 
  -1   8  -4  451.98   15.88 
  -1   8  -4  480.36   18.59 
   1  -8   4  459.02   16.53 
   1  -8   4  463.58   17.82 
   1  -8   4  445.17   14.30 
  -1   8  -4  448.40   17.81 
   7   3   0  139.45    7.49 
   7   3   0  137.43    8.76 
   7   3   0  135.15    5.98 
   2  -1  -9  106.37    3.29 
   2  -1  -9  108.92    3.67 
   2  -1  -9  100.27    6.49 
   2  -1  -9   98.98    4.66 
   2  -1  -9   97.49    7.02 
  -2   1   9   94.00    7.00 
  -2   1   9  114.60    7.31 
  -2   1   9  108.71    4.72 
   4  -5   5  406.08   14.93 
   4  -5   5  399.21   10.17 
   4  -5   5  409.89   11.52 
   4  -5   5  402.16   10.49 
  -4   5  -5  386.86   10.80 
  -4   5  -5  408.34   15.15 
  -4   5  -5  415.62   11.92 
  -4   5  -5  397.19   10.72 
   4  -3  -8  850.44   27.32 
   4  -3  -8  837.17   28.17 
  -4   3   8  853.34   27.91 
  -4   3   8  841.29   27.36 
  -4   3   8  824.46   24.20 
   4  -3  -8  810.39   22.30 
   3  -7   4   86.34    5.13 
  -3   7  -4   81.86    5.15 
  -3   7  -4   90.72    6.03 
  -3   7  -4   79.09    5.80 
   3  -7   4   87.53    5.39 
   3  -7   4   86.32    7.82 
   3  -7   4   74.01    7.14 
  -3   7  -4   96.44    7.14 
   3  -8  -1  641.12   24.46 
   3  -8  -1  588.32   24.40 
  -3   8   1  620.55   19.05 
  -3   8   1  580.71   19.36 
  -3   8   1  619.84   19.22 
   3  -8  -1  598.98   19.14 
  -3   8   1  613.81   24.26 
   3  -8  -1  585.04   18.38 
   7   3  -6  247.17    7.34 
   7   3  -6  232.52    7.79 
   7   3  -6  244.85    6.93 
   7   3  -6  256.48   10.78 
  -7  -3   6  247.73    6.96 
  -7  -3   6  241.67   12.07 
  -7  -3   6  235.40    7.29 
  -3  -8   2  579.85   19.74 
  -3  -8   2  584.86   16.59 
  -3  -8   2  604.74   20.33 
  -3  -8   2  568.10   15.66 
   3   8  -2  602.03   23.51 
   3   8  -2  577.57   16.60 
   3   8  -2  589.51   18.40 
   3   8  -2  576.42   21.23 
   8   0  -4  272.56    9.70 
   8   0  -4  252.56    5.11 
   8   0  -4  248.46    4.72 
   8   0  -4  256.72    7.76 
  -8   0   4  265.68    9.77 
  -8   0   4  260.61    7.73 
   8   0  -4  278.67   10.98 
   3   3   6  593.09   21.13 
  -3  -3  -6  593.81   16.28 
  -3  -3  -6  568.41   14.09 
   3   3   6  568.11   14.55 
   3   3   6  573.20   14.12 
   3   3   6  579.04   17.58 
  -8  -1   3  249.33    8.14 
   8   1  -3  259.42    8.07 
   8   1  -3  271.71   10.40 
   8   1  -3  237.99    5.29 
   8   1  -3  254.13    6.06 
   8   1  -3  264.65    5.58 
  -8  -1   3  251.13    4.92 
   6   2   3  818.93   19.89 
   6   2   3  835.20   24.46 
   6   2   3  834.20   28.34 
   6   2   3  814.62   18.67 
  -4   3  -6  618.52   15.11 
   4  -3   6  669.90   19.62 
   4  -3   6  645.12   16.12 
   4  -3   6  650.10   17.56 
   4  -3   6  632.85   16.96 
  -4   3  -6  661.08   17.66 
  -4   3  -6  655.28   16.32 
  -4   3  -6  662.42   20.86 
   8  -1  -2  458.21   13.62 
   8  -1  -2  435.94   12.15 
   8  -1  -2  434.33   10.09 
  -8   1   2  435.12   10.05 
  -8   1   2  459.38   13.73 
   7   2   1   20.15    4.76 
   7   2   1   18.89    2.82 
   7   2   1   19.56    3.07 
   3   8  -3  414.84   12.63 
  -3  -8   3  404.23   15.61 
   3   8  -3  390.81   13.79 
  -3  -8   3  416.81   13.96 
  -3  -8   3  405.55   12.64 
   3   8  -3  418.15   16.43 
  -3  -8   3  429.67   19.74 
   3   8  -3  400.97   14.42 
   1   6   5  669.08   20.93 
  -1  -6  -5  698.86   21.74 
   1   6   5  672.93   21.74 
   1   6   5  652.84   20.59 
   1   6   5  640.12   18.24 
   1   6   5  664.99   20.52 
  -1  -6  -5  643.95   16.89 
  -1  -6  -5  689.58   20.96 
  -1  -5  -6  839.94   25.18 
  -1  -5  -6  842.41   24.22 
  -1  -5  -6  818.13   18.69 
   1   5   6  775.29   19.16 
   1   5   6  846.39   29.52 
   1   5   6  800.64   29.85 
   1   5   6  832.31   25.10 
   1   5   6  860.29   24.50 
   6   4  -7    5.36    2.01 
  -6  -4   7    3.89    2.03 
  -6  -4   7    4.27    2.07 
  -6  -4   7    3.44    1.99 
   6   4  -7    4.50    2.86 
   6   4  -7    6.79    2.38 
   6   4  -7    5.01    2.02 
   6   5   0  188.40   12.81 
   6   5   0  214.89    8.03 
  -6  -5   0  202.77   12.07 
  -7   4   0  253.86    8.75 
  -7   4   0  246.76   10.17 
   7  -4   0  262.17   11.92 
   7  -4   0  249.53   12.49 
   7  -4   0  260.26   10.26 
  -7   4   0  261.24    8.93 
  -6  -2   8  403.76   12.95 
   6   2  -8  412.70   11.83 
  -6  -2   8  409.19   10.63 
   6   2  -8  398.82   10.30 
   6   2  -8  420.85   13.78 
   6   2  -8  416.73   12.98 
  -6  -2   8  410.08   14.38 
  -1  -3   9  799.51   23.51 
  -1  -3   9  787.75   21.66 
   1   3  -9  820.57   25.63 
  -1  -3   9  793.54   24.18 
   1   3  -9  801.78   24.14 
   1   3  -9  767.24   21.36 
   1   3  -9  777.57   23.32 
   5   4  -8  273.97   10.14 
  -5  -4   8  272.14    9.72 
  -5  -4   8  294.12   12.46 
   5   4  -8  288.35   10.68 
  -5  -4   8  286.66   10.21 
   5   4  -8  269.87    9.63 
   5   4  -8  282.61    9.93 
   7   1  -7   18.75    2.02 
   7   1  -7   15.62    3.70 
   7   1  -7   22.06    1.95 
   7   1  -7   17.96    2.86 
  -7  -1   7   15.30    2.07 
  -7  -1   7   21.75    3.40 
  -7  -1   7   16.28    2.80 
  -8  -1   4  599.43   13.75 
  -8  -1   4  603.50   15.61 
  -8  -1   4  594.00   16.49 
   8   1  -4  620.71   14.10 
   8   1  -4  621.28   16.85 
   8   1  -4  630.24   19.44 
   8   1  -4  595.19   13.87 
   7   0  -7  586.13   18.24 
   7   0  -7  611.38   15.89 
   7   0  -7  570.27   12.78 
   7   0  -7  577.87   16.78 
  -7   0   7  596.50   18.23 
  -7   0   7  579.44   16.75 
  -7   0   7  591.00   18.59 
   6  -4  -6  897.19   30.88 
  -6   4   6  913.07   27.45 
  -6   4   6  903.55   20.72 
  -6   4   6  913.04   31.21 
  -6   4   6  998.47   22.93 
   6  -4  -6  895.72   24.90 
   6  -4  -6  890.53   26.75 
  -7   4   4    2.75    3.01 
   7  -4  -4    4.88    3.14 
   7  -4  -4    2.76    3.32 
   7  -4  -4   -0.18    3.01 
  -7   4   4    4.23    3.41 
  -4  -1  -6   32.41    2.53 
  -4  -1  -6   28.57    2.33 
   4   1   6   37.33    3.05 
   4   1   6   29.57    5.02 
   4   1   6   31.27    2.52 
   4   1   6   51.61    4.90 
  -1   4  -8  134.97    7.39 
  -1   4  -8  137.51    7.34 
   1  -4   8  150.30    7.36 
   1  -4   8  130.26    4.16 
  -1   4  -8  140.24    7.59 
  -1   4  -8  145.32    8.46 
   1  -4   8  137.31    8.33 
   1  -4   8  137.12    7.81 
   2   7   3  576.60   18.92 
  -2  -7  -3  576.75   17.83 
  -2  -7  -3  627.21   19.51 
  -2  -7  -3  598.91   17.45 
   2   7   3  612.25   19.19 
   2   7   3  555.35   17.82 
   2   7   3  586.67   24.05 
  -5  -6   6   53.96    6.07 
   5   6  -6   28.43    3.46 
  -5  -6   6   39.09    3.39 
  -5  -6   6   44.07    3.49 
   5   6  -6   27.89    5.18 
   5   6  -6   44.53    3.50 
   5   6  -6   38.35    3.33 
   8   1  -2   47.11    1.21 
  -8  -1   2   43.56    1.08 
   8   1  -2   54.22    2.65 
   8   1  -2   57.34    2.88 
   8   1  -2   45.95    1.10 
  -8  -1   2   43.77    1.19 
   8   1  -2   50.48    4.72 
   8  -1  -4   87.57    6.66 
   8  -1  -4   79.65    5.88 
   8  -1  -4   77.07    4.03 
  -8   1   4   81.22    5.88 
  -8   1   4   82.09    4.00 
   4   6  -7  450.40   16.82 
   4   6  -7  444.19   11.61 
   4   6  -7  467.98   13.94 
   4   6  -7  456.55   16.40 
  -4  -6   7  442.76   11.74 
  -4  -6   7  453.40   13.86 
  -4  -6   7  461.98   18.92 
   7  -1   2  439.75   14.22 
   7  -1   2  445.23   13.96 
   7  -1   2  451.23   12.77 
   7  -1   2  446.48   11.14 
   7  -1   2  432.74    8.57 
  -7   1  -2  442.04   12.86 
  -7   1  -2  438.57    8.76 
   3  -3   7   99.10    6.29 
   3  -3   7   92.23    5.19 
  -3   3  -7   79.51    3.87 
  -3   3  -7   84.61    6.64 
  -3   3  -7   90.61    5.74 
   3  -3   7   90.59    5.65 
   3  -3   7   89.11    3.08 
  -3   3  -7   96.20    5.23 
   0   5  -8  694.97   22.55 
   0  -5   8  718.49   22.11 
   0  -5   8  704.33   22.96 
   0  -5   8  675.15   17.35 
   0   5  -8  698.37   22.11 
   0   5  -8  648.78   21.89 
   0   5  -8  670.62   17.82 
   0  -5   8  694.31   21.41 
   3   7   2  133.23    6.07 
  -3  -7  -2  145.06    6.17 
  -3  -7  -2  159.67    8.37 
  -3  -7  -2  148.24    6.17 
  -3  -7  -2  139.15    6.76 
   3   7   2  150.53    6.19 
   3   7   2  128.55    7.57 
   3   7   2  155.98   11.76 
   3   8  -1  304.44   10.13 
   3   8  -1  323.87   16.51 
   3   8  -1  303.87   13.69 
   3   8  -1  311.53   12.08 
  -3  -8   1  319.89   12.75 
  -3  -8   1  344.11   18.22 
  -3  -8   1  312.55   10.25 
  -3  -8   1  322.79   12.08 
   6   5  -6  758.63   19.11 
   6   5  -6  764.73   20.46 
   6   5  -6  717.60   19.28 
  -6  -5   6  732.43   26.76 
  -6  -5   6  757.10   18.85 
  -6  -5   6  752.09   19.00 
   6   5  -6  742.62   18.57 
   5   3   4   77.92    2.81 
   5   3   4   72.10    2.06 
   5   3   4   72.79    8.02 
   5   3   4   70.29    2.92 
  -5  -3  -4   83.37    2.86 
  -5  -3  -4   74.38    2.03 
   5   3   4   82.87    2.95 
   5   3   4   77.16    6.93 
  -7  -4   5  861.76   27.84 
  -7  -4   5  933.26   21.30 
  -7  -4   5  909.10   20.59 
   7   4  -5  918.93   27.74 
   7   4  -5  925.54   20.80 
   7   4  -5  937.59   21.35 
   7   4  -5  923.42   25.88 
   6  -6  -1   10.86    4.31 
   6  -6  -1   10.47    4.78 
   6  -6  -1    9.11    4.69 
  -6   6   1   10.53    4.88 
  -6   6   1   12.87    4.75 
  -6   6   1   10.12    2.78 
   7   0   2  841.35   25.70 
   7   0   2  826.24   20.35 
   7   0   2  824.97   22.37 
   7   0   2  772.06   13.96 
  -7   0  -2  743.25   13.65 
   7   0   2  765.55   12.92 
  -7   0  -2  743.06   12.63 
   4   5  -8  219.14    9.75 
   4   5  -8  214.00    7.03 
   4   5  -8  210.54    6.70 
  -4  -5   8  206.58   10.78 
   4   5  -8  196.09    8.48 
  -4  -5   8  208.01    6.54 
  -4  -5   8  204.58    8.56 
  -5   5   6  484.65   17.63 
   5  -5  -6  502.57   18.32 
   5  -5  -6  518.77   21.02 
   5  -5  -6  498.54   16.24 
  -5   5   6  484.35   16.24 
  -5   5   6  475.55   12.72 
  -5   5   6  516.70   21.09 
  -5   5   6  517.69   14.75 
   1   8  -5    3.61    2.85 
   1   8  -5    6.48    3.87 
   1   8  -5    3.99    1.95 
   1   8  -5    4.28    3.80 
  -1  -8   5    5.87    2.85 
  -1  -8   5    2.16    2.24 
  -1  -8   5    2.55    1.96 
  -1  -8   5    2.13    3.10 
  -5   4   7  654.97   23.86 
  -5   4   7  663.83   20.21 
   5  -4  -7  643.68   21.28 
   5  -4  -7  670.82   24.34 
   5  -4  -7  697.61   20.60 
  -5   4   7  639.83   18.45 
  -5   4   7  680.53   18.14 
  -5   7   1  355.85   13.26 
  -5   7   1  344.86    9.39 
  -5   7   1  357.64   12.80 
  -5   7   1  396.91   18.35 
   5  -7  -1  365.63   17.89 
   5  -7  -1  374.85    9.37 
   5  -7  -1  353.70   12.90 
   5  -7  -1  395.40   18.72 
  -4  -3   9  747.30   22.62 
  -4  -3   9  739.38   22.23 
   4   3  -9  728.40   22.56 
   4   3  -9  724.60   21.86 
   4   3  -9  721.70   21.82 
  -4  -3   9  756.69   24.89 
   4   3  -9  754.46   20.96 
  -2   5  -7  344.60   14.67 
   2  -5   7  349.02   12.44 
   2  -5   7  370.05   13.06 
  -2   5  -7  357.64   13.17 
  -2   5  -7  361.81   13.71 
   2  -5   7  337.45   13.01 
   2  -5   7  346.26   10.56 
  -2   5  -7  345.42   12.24 
   6  -6  -2  262.89   13.47 
   6  -6  -2  233.30   14.65 
  -6   6   2  264.69   13.83 
  -6   6   2  262.26   13.97 
  -6   6   2  245.39   10.37 
   6  -6  -2  261.59   14.07 
  -6   3   7  460.29   10.83 
  -6   3   7  516.51   19.21 
   6  -3  -7  486.99   15.02 
   6  -3  -7  520.22   19.13 
   6  -3  -7  493.20   16.08 
  -6   3   7  498.33   14.99 
   6  -1  -8  178.90    6.39 
  -6   1   8  182.22    7.01 
  -6   1   8  177.28    6.48 
  -6   1   8  161.98    8.58 
   6  -1  -8  179.61    5.40 
   6  -1  -8  178.16    6.45 
   6  -1  -8  180.00    7.48 
  -4   1   9    2.39    1.96 
   4  -1  -9    1.51    2.02 
   4  -1  -9    4.62    2.19 
  -4   1   9    5.40    3.05 
  -4   1   9    4.80    2.69 
   4  -1  -9    7.00    1.67 
   4  -1  -9    7.86    3.03 
   5  -3   5  785.56   21.55 
   5  -3   5  769.10   21.64 
   5  -3   5  747.24   22.95 
  -5   3  -5  757.97   20.15 
  -5   3  -5  779.63   21.67 
  -5   3  -5  753.45   19.54 
   5  -3   5  741.50   17.46 
  -5   3  -5  768.06   17.76 
  -2  -8  -1  280.34   11.55 
  -2  -8  -1  263.06   11.48 
   2   8   1  266.38   11.49 
   2   8   1  265.14   12.70 
   2   8   1  262.82   10.38 
   2   8   1  267.25   14.67 
  -2  -8  -1  262.67   10.30 
  -2  -8  -1  287.24   15.79 
   3  -8   2  104.45    6.31 
  -3   8  -2  105.02    6.75 
  -3   8  -2   97.17    6.73 
  -3   8  -2  105.20    6.10 
   3  -8   2  109.86    9.35 
   3  -8   2  111.68    6.79 
   3  -8   2  100.43    6.45 
  -3   8  -2  122.77    9.37 
   2  -6  -6   90.70    7.77 
  -2   6   6   85.45    6.82 
  -2   6   6   90.33    8.09 
  -2   6   6   87.98    5.49 
  -2   6   6   87.86    6.93 
  -2   6   6   84.40    8.05 
   2  -6  -6   90.54    8.07 
   2  -6  -6   96.83    6.16 
   2  -5  -7  422.51   14.98 
   2  -5  -7  378.90   15.60 
  -2   5   7  395.40   16.00 
  -2   5   7  351.55   13.62 
  -2   5   7  351.84   14.61 
  -2   5   7  383.95   15.40 
  -2   5   7  354.08   10.82 
   2  -5  -7  381.58   15.86 
   6  -5   2    6.15    3.28 
   6  -5   2   -0.04    2.93 
   6  -5   2    2.14    1.56 
  -6   5  -2    3.68    1.54 
  -6   5  -2    0.48    1.43 
  -6   5  -2    0.05    3.09 
  -6   5  -2    2.68    2.95 
   6  -5   2    3.00    1.53 
   5   1   5  746.32   24.78 
  -5  -1  -5  733.50   16.28 
  -5  -1  -5  730.56   16.09 
   5   1   5  746.37   19.94 
   5   1   5  739.78   16.48 
   5   1   5  723.66   16.24 
   5   1   5  742.86   14.06 
   5   1   5  764.78   17.64 
  -8   0   1  115.08    2.64 
   8   0  -1  120.15    2.77 
  -8   0   1  113.14    2.73 
   8   0  -1  127.60    4.37 
   8   0  -1  123.91    2.67 
   8   0  -1  131.42    3.52 
   8   0  -1  118.48    4.80 
  -2   1  -8  198.33    7.94 
  -2   1  -8  202.78   10.41 
  -2   1  -8  195.77    7.63 
   2  -1   8  186.27    7.32 
   2  -1   8  196.32    7.90 
   2  -1   8  192.17   10.04 
  -1   1   9  217.98    8.39 
   1  -1  -9  225.93    9.84 
   1  -1  -9  227.73    9.49 
   1  -1  -9  234.49   10.44 
  -1   1   9  224.44    9.49 
  -1   1   9  235.95    9.79 
   6  -4   3  663.57   18.56 
  -6   4  -3  655.88   18.43 
   6  -4   3  666.74   18.34 
  -6   4  -3  667.71   20.95 
  -6   4  -3  656.42   18.04 
  -6   4  -3  650.50   18.22 
   6  -4   3  660.06   17.31 
   6  -4   3  736.62   24.43 
   0  -1   9   79.26    5.49 
   0  -1   9   64.75    6.79 
   0  -1   9   75.15    5.81 
   0   1  -9   86.29    5.70 
   0   1  -9   60.54    5.51 
   0   1  -9   61.67    6.44 
  -1  -8  -2  919.94   26.11 
  -1  -8  -2  939.70   29.35 
   1   8   2  936.75   31.21 
   1   8   2  944.05   26.43 
   1   8   2  959.48   33.68 
  -1  -8  -2  979.81   31.03 
   1   8   2  904.45   31.47 
  -1  -8  -2  883.31   30.26 
   5  -7   0    5.89    4.84 
   5  -7   0    8.29    2.50 
  -5   7   0   10.85    4.43 
  -5   7   0    7.75    1.84 
  -5   7   0    9.55    2.85 
  -5   7   0   16.32    4.74 
   5  -7   0    5.00    2.90 
   5  -7   0    8.40    4.71 
  -8   2   3  187.36    9.10 
   8  -2  -3  187.78    6.91 
   8  -2  -3  174.95    9.60 
  -8   2   3  177.15    6.81 
   8  -2  -3  177.75    8.90 
   1  -7   6  971.88   31.00 
  -1   7  -6  969.09   27.28 
  -1   7  -6  997.15   31.82 
  -1   7  -6  957.91   29.72 
  -1   7  -6 1009.50   30.49 
   1  -7   6  959.43   29.71 
   1  -7   6  986.45   30.63 
   1  -7   6  955.31   26.23 
   7   4  -1  171.90    9.97 
   7   4  -1  171.48    7.65 
  -7  -4   1  186.52    9.81 
   8  -1  -1  787.46   15.07 
   8  -1  -1  786.35   15.28 
  -8   1   1  756.40   18.24 
  -8   1   1  761.49   16.80 
   8  -1  -1  776.95   20.66 
   8  -1  -1  773.68   16.78 
   8  -1  -1  778.61   18.35 
  -3  -1  -7  444.51   13.55 
  -3  -1  -7  445.32   12.19 
  -3  -1  -7  442.97   11.70 
   3   1   7  432.54   11.65 
   3   1   7  465.01   12.39 
   3   1   7  446.29   13.59 
  -7  -2   7  506.36   14.38 
   7   2  -7  513.38   13.28 
   7   2  -7  514.44   12.71 
   7   2  -7  503.09   14.06 
  -7  -2   7  529.92   17.92 
  -7  -2   7  501.37   12.43 
  -3  -8   4   26.16    3.99 
   3   8  -4   34.55    3.97 
   3   8  -4   29.66    6.29 
  -3  -8   4   31.09    3.36 
  -3  -8   4   30.73    6.63 
   3   8  -4   31.49    2.52 
   3   8  -4   32.17    5.62 
  -3  -8   4   27.97    2.45 
   8  -2  -2   51.11    3.58 
   8  -2  -2   61.08    5.63 
   8  -2  -2   48.43    4.24 
  -8   2   2   48.63    3.62 
  -8   2   2   45.97    4.28 
   7  -2   2   30.41    3.43 
   7  -2   2   33.67    2.15 
  -7   2  -2   33.75    2.16 
   7  -2   2   35.45    4.45 
   7  -2   2   36.55    3.72 
  -7   2  -2   29.83    3.65 
   7  -2   2   33.07    2.33 
  -1   6  -7    3.66    1.63 
   1  -6   7    1.19    2.63 
  -1   6  -7    1.75    3.08 
   1  -6   7    0.83    2.06 
   1  -6   7    1.49    1.69 
   1  -6   7   -0.16    1.74 
  -1   6  -7    6.97    2.71 
  -1   6  -7    2.94    1.74 
  -2   2  -8  835.60   26.45 
   2  -2   8  842.78   24.16 
   2  -2   8  843.57   23.29 
   2  -2   8  831.58   26.39 
  -2   2  -8  860.65   24.13 
  -2   2  -8  835.69   23.27 
  -6   1  -4  340.30    7.57 
  -6   1  -4  353.87   10.93 
   6  -1   4  350.62   10.15 
   6  -1   4  341.84   10.73 
   6  -1   4  343.35    7.70 
   6  -1   4  336.66   10.71 
   6  -1   4  353.84   13.69 
   3  -8  -2  710.93   27.81 
  -3   8   2  737.97   28.35 
  -3   8   2  662.32   26.69 
  -3   8   2  734.27   21.75 
  -3   8   2  716.42   23.41 
   3  -8  -2  722.13   22.20 
   3  -8  -2  706.69   22.67 
   3  -8  -2  711.86   28.02 
   0   2  -9  276.31    6.54 
   0  -2   9  296.87   11.01 
   0   2  -9  297.79   11.44 
   0   2  -9  299.28   11.23 
   0   2  -9  309.35   12.59 
   0  -2   9  313.69   13.17 
   0  -2   9  294.88   11.63 
   7  -1  -7  296.19   11.22 
   7  -1  -7  287.35   11.52 
   7  -1  -7  288.87   10.63 
   7  -1  -7  283.27    7.11 
  -7   1   7  300.32   10.73 
  -7   1   7  293.96   11.71 
  -7   1   7  288.34    8.11 
  -8   0   5    0.81    0.94 
  -8   0   5    1.98    1.31 
  -8   0   5   -0.68    2.05 
   8   0  -5    2.31    1.34 
   8   0  -5    0.85    0.70 
   8   0  -5    3.39    1.99 
   8   0  -5   -0.55    1.58 
   0   8  -5   27.32    5.00 
   0  -8   5   24.06    5.17 
   0  -8   5   33.36    5.26 
   0  -8   5   33.41    5.16 
   0  -8   5   33.19    5.28 
   0   8  -5   31.73    5.25 
   0   8  -5   34.16    5.91 
   0   8  -5   29.15    6.29 
   4  -7   3  674.54   26.52 
   4  -7   3  684.91   21.11 
  -4   7  -3  677.30   24.59 
   4  -7   3  688.92   19.22 
  -4   7  -3  684.44   18.56 
  -4   7  -3  672.58   21.07 
  -4   7  -3  667.52   21.63 
   4  -7   3  707.86   23.77 
  -6   5   5  616.98   11.46 
  -6   5   5  668.21   23.83 
  -6   5   5  662.67   20.24 
  -6   5   5  693.37   25.94 
   6  -5  -5  653.79   23.78 
   6  -5  -5  679.50   20.69 
   6  -5  -5  684.96   25.08 
  -3   5   7  256.40   10.82 
  -3   5   7  264.02   10.19 
   3  -5  -7  266.24   13.20 
   3  -5  -7  284.09   10.61 
   3  -5  -7  267.36   10.03 
  -3   5   7  260.20   13.39 
  -3   5   7  265.24    9.93 
  -3   5   7  237.49    9.11 
   2   8  -5   85.43    6.36 
  -2  -8   5   80.50    7.25 
   2   8  -5   93.58    8.64 
  -2  -8   5  105.08    8.67 
   2   8  -5   90.46    6.63 
   2   8  -5  107.87    8.88 
  -2  -8   5   88.60    6.27 
  -2  -8   5   80.03    6.60 
  -6   6   0  394.60   16.33 
  -6   6   0  431.66   18.13 
  -6   6   0  408.31   18.78 
  -6   6   0  365.36    8.29 
   6  -6   0  383.29   16.23 
   6  -6   0  389.34    8.05 
   6  -6   0  420.70   18.44 
   6  -6   0  395.57   18.32 
   8   2  -3  109.72    4.43 
   8   2  -3  108.46    2.19 
  -8  -2   3  104.19    2.14 
  -8  -2   3  110.28    3.02 
   8   2  -3  114.54    6.88 
   8   2  -3  112.20    3.06 
  -8  -2   3  122.09    5.24 
  -5  -1   9  360.14   12.91 
  -5  -1   9  355.74   13.20 
  -5  -1   9  371.02   13.50 
   5   1  -9  357.66   12.96 
   5   1  -9  357.93   10.76 
   5   1  -9  362.39   13.24 
   5   1  -9  365.19   11.49 
   5   1  -9  363.39   11.20 
   6   6  -3  685.63   21.81 
  -6  -6   3  679.32   13.72 
   6   6  -3  675.81   13.92 
  -6  -6   3  665.70   16.50 
   6   6  -3  637.12   19.12 
   6   6  -3  649.23   16.66 
  -6  -6   3  693.84   23.56 
  -5   7   2  531.44   17.43 
  -5   7   2  488.02   16.84 
  -5   7   2  565.14   23.98 
  -5   7   2  480.48   13.47 
   5  -7  -2  526.62   17.40 
   5  -7  -2  583.85   23.55 
   5  -7  -2  516.83   17.29 
  -2  -4   9  433.66   13.33 
  -2  -4   9  429.10   12.38 
   2   4  -9  445.45   13.70 
   2   4  -9  430.47   14.71 
   2   4  -9  427.83   12.49 
  -2  -4   9  422.85   14.71 
   2   4  -9  428.85   12.04 
   5  -5   4  721.19   19.09 
  -5   5  -4  738.95   24.41 
  -5   5  -4  709.11   18.36 
  -5   5  -4  689.82   17.81 
  -5   5  -4  717.66   23.63 
   5  -5   4  727.80   23.50 
   5  -5   4  717.19   18.13 
   5  -5   4  709.12   25.12 
   1   2   8  288.56   10.15 
   1   2   8  300.84   10.58 
  -1  -2  -8  288.83   10.28 
   1   2   8  291.22   10.33 
  -1  -2  -8  295.09   10.15 
  -1  -2  -8  296.44    9.79 
   1  -6  -6  143.01    9.52 
  -1   6   6  146.29    6.62 
  -1   6   6  158.53    9.63 
  -1   6   6  151.57    6.63 
  -1   6   6  150.72    9.67 
   1  -6  -6  140.07    6.57 
  -1   6   6  149.97    6.50 
   1  -6  -6  164.61    8.29 
   0   3   8  207.97    6.78 
   0   3   8  215.41    6.90 
   0   3   8  226.97   11.75 
   0  -3  -8  218.60    6.98 
   0  -3  -8  207.02    6.77 
   0   3   8  205.41   10.56 
  -5  -7   3  107.48    3.94 
   5   7  -3  105.84    9.42 
  -5  -7   3  108.63    4.90 
   5   7  -3  110.14    6.16 
   5   7  -3  109.68    5.34 
   5   7  -3  113.01    3.99 
  -5  -7   3  120.99    7.69 
  -3   6   6   34.09    4.16 
  -3   6   6   43.56    6.07 
  -3   6   6   28.97    5.93 
   3  -6  -6   33.32    5.92 
  -3   6   6   29.13    4.32 
   3  -6  -6   27.93    6.12 
   3  -6  -6   28.75    4.79 
  -3   6   6   28.06    4.15 
   1   7   4  422.42   14.67 
  -1  -7  -4  410.97   15.49 
   1   7   4  430.88   15.39 
   1   7   4  450.35   19.69 
   1   7   4  433.35   15.71 
  -1  -7  -4  414.02   13.82 
  -1  -7  -4  452.64   16.24 
   1   7   4  455.30   16.16 
   8   1  -5  783.00   20.88 
  -8  -1   5  753.30   17.89 
   8   1  -5  822.42   22.27 
   8   1  -5  783.53   18.31 
  -8  -1   5  792.98   21.84 
   8   1  -5  774.08   17.17 
  -8  -1   5  776.39   21.49 
  -8  -2   4  103.71    5.50 
  -8  -2   4  106.52    5.55 
  -8  -2   4  105.23    3.42 
   8   2  -4  102.43    3.96 
   8   2  -4  102.55    2.81 
   8   2  -4  109.51    5.61 
   8   2  -4  103.10    6.85 
   6   0   4   47.97    3.24 
  -6   0  -4   42.41    1.81 
   6   0   4   36.66    3.52 
   6   0   4   44.98    4.11 
   6   0   4   43.92    1.85 
   6   0   4   65.02    5.36 
  -6   0  -4   45.22    2.56 
   5   6   1  371.17    6.43 
   5   6   1  375.64    6.54 
  -5  -6  -1  395.51    6.71 
   5   6   1  416.94   19.63 
   5   6   1  422.76   12.90 
  -5  -6  -1  420.90   20.18 
  -5  -6  -1  404.32    6.94 
  -3  -4   9  350.04   12.55 
   3   4  -9  336.51   12.56 
  -3  -4   9  341.25   14.91 
   3   4  -9  340.64   12.93 
  -3  -4   9  342.16   10.26 
   3   4  -9  342.81   11.58 
   3   4  -9  350.43   10.34 
   2   3   7   74.81    8.01 
   2   3   7   77.46    4.59 
  -2  -3  -7   80.52    4.67 
   2   3   7   80.63    4.57 
   2   3   7   79.41    7.72 
  -2  -3  -7   80.23    4.51 
  -2   0  -8  166.45    9.75 
   2   0   8  166.07    9.66 
   2   0   8  166.36    7.22 
  -2   0  -8  162.15    7.17 
  -2   0  -8  163.18    6.64 
   2   0   8  170.69    6.84 
   1   4   7  276.08   10.27 
   1   4   7  278.43    9.96 
  -1  -4  -7  273.66   10.25 
   1   4   7  285.73   14.22 
  -1  -4  -7  283.73   10.03 
   1   4   7  275.05   13.25 
   6  -2   4  863.44   22.93 
   6  -2   4  830.39   26.11 
   6  -2   4  873.65   20.41 
   6  -2   4  860.17   22.92 
  -6   2  -4  873.34   20.52 
  -6   2  -4  876.01   23.29 
  -6   2  -4  878.90   23.57 
  -1   8   3  156.33    9.27 
  -1   8   3  156.19    9.84 
  -1   8   3  152.86   10.60 
  -1   8   3  158.96   10.15 
   1  -8  -3  154.54   10.18 
   1  -8  -3  143.85   10.09 
   1  -8  -3  152.69   10.61 
   1  -8  -3  151.17    9.38 
   0   0  -9  566.78   19.36 
   0   0  -9  560.88   17.58 
   0   0  -9  563.45   14.22 
   0   0   9  560.98   14.32 
   0   0   9  576.28   17.91 
   0   0   9  553.66   20.39 
  -1   5   7  369.01   11.51 
  -1   5   7  339.48   14.22 
   1  -5  -7  364.74   10.75 
  -1   5   7  339.32   11.63 
   1  -5  -7  360.25   14.40 
   1  -5  -7  363.37   11.47 
  -1   5   7  349.68   14.16 
  -1   5   7  333.26   10.32 
  -6  -3   8  816.23   26.70 
   6   3  -8  806.38   23.91 
  -6  -3   8  829.19   23.44 
  -6  -3   8  800.24   22.82 
   6   3  -8  854.25   23.67 
   6   3  -8  799.97   22.36 
   6   3  -8  844.38   23.43 
  -5   6  -3   24.26    2.78 
  -5   6  -3   22.77    5.15 
   5  -6   3   19.05    5.49 
   5  -6   3   26.28    5.14 
   5  -6   3   20.90    2.77 
   5  -6   3   28.76    2.57 
  -5   6  -3   14.15    3.05 
  -5   6  -3   21.84    3.47 
   8   1  -1  188.32    8.24 
   8   1  -1  185.04    5.53 
   8   1  -1  182.70    6.68 
   6   6  -4  653.31   18.11 
   6   6  -4  637.33   14.27 
  -6  -6   4  664.59   15.46 
  -6  -6   4  639.71   14.23 
   6   6  -4  612.49   21.96 
  -6  -6   4  674.35   27.46 
   6   6  -4  661.49   15.64 
  -5   0   9  268.65   11.14 
  -5   0   9  261.92   11.09 
  -5   0   9  258.73    7.96 
   5   0  -9  266.66   10.85 
   5   0  -9  272.53    8.63 
   5   0  -9  264.67    8.67 
   5   0  -9  277.68    8.90 
  -4   7   4  243.30   10.47 
   4  -7  -4  255.79   10.74 
   4  -7  -4  247.16   13.26 
  -4   7   4  227.50   12.46 
  -4   7   4  260.66    8.68 
  -4   7   4  233.75    8.27 
   7   1   2   26.91    5.08 
   7   1   2   26.21    2.07 
   7   1   2   29.21    3.17 
   5   7  -2   53.26    4.77 
  -5  -7   2   53.08    4.76 
  -5  -7   2   51.04    2.52 
   5   7  -2   49.49    5.63 
  -5  -7   2   70.37    8.91 
   5   7  -2   62.42    7.67 
   5   7  -2   52.84    2.57 
   8  -2  -4  812.11   22.91 
  -8   2   4  867.10   28.16 
  -8   2   4  794.63   22.47 
   8  -2  -4  820.79   26.46 
   8  -2  -4  874.94   27.76 
  -5  -2   9   31.52    4.19 
  -5  -2   9   20.39    4.27 
   5   2  -9   27.08    3.50 
   5   2  -9   25.76    4.35 
   5   2  -9   36.52    3.58 
   5   2  -9   33.93    4.14 
  -5  -2   9   26.32    4.63 
  -6   6   3  561.77   22.30 
   6  -6  -3  563.51   22.40 
   6  -6  -3  538.21   22.71 
   6  -6  -3  507.44   17.33 
  -6   6   3  532.04   18.19 
  -6   6   3  544.05   23.01 
  -6  -6   2  364.63    8.04 
   6   6  -2  379.72   10.71 
   6   6  -2  357.96    6.78 
   6   6  -2  366.31    8.02 
   6   6  -2  370.67   16.66 
  -6  -6   2  359.63    6.77 
  -6  -6   2  392.72   20.05 
  -8   1   5  481.22   16.39 
   8  -1  -5  436.99   12.51 
   8  -1  -5  455.80   16.14 
   8  -1  -5  460.24   16.33 
  -8   1   5  438.62   12.73 
   8   2  -2  469.50   13.39 
   8   2  -2  458.99   15.55 
   8   2  -2  484.69   13.35 
  -2   8   3  136.53   10.02 
   2  -8  -3  121.18    9.20 
   2  -8  -3  130.57    7.81 
   2  -8  -3  131.54    9.91 
   2  -8  -3  120.26    9.76 
  -2   8   3  117.74    9.81 
  -2   8   3  105.11    8.83 
  -2   8   3  119.44    7.49 
  -7   3   6   77.92    7.22 
  -7   3   6   70.80    6.40 
   7  -3  -6   60.89    7.00 
   7  -3  -6   83.25    6.58 
   7  -3  -6   73.06    6.44 
   5   7  -4  463.92   12.13 
  -5  -7   4  481.30   12.17 
  -5  -7   4  484.86   22.54 
  -5  -7   4  468.96   13.06 
   5   7  -4  463.28   14.96 
   5   7  -4  470.78   13.27 
   5   7  -4  493.37   17.80 
   3   8   0   -0.79    2.42 
   3   8   0    6.74    2.90 
  -3  -8   0    3.53    2.33 
   3   8   0   -4.92    3.84 
   3   8   0    1.35    1.81 
  -3  -8   0    0.83    1.83 
  -3  -8   0    6.26    2.54 
  -3  -8   0   -2.00    4.11 
   4   7   1   41.67    3.37 
   4   7   1   43.13    5.17 
   4   7   1   40.27    4.63 
   4   7   1   38.87    3.14 
  -4  -7  -1   45.40    3.24 
  -4  -7  -1   31.38    8.17 
  -4  -7  -1   44.40    3.13 
   3  -2  -9  450.91   16.41 
  -3   2   9  452.47   16.56 
  -3   2   9  438.02   15.99 
  -3   2   9  442.25   16.56 
   3  -2  -9  443.11   11.30 
   3  -2  -9  432.79   14.24 
   3  -2  -9  444.10   16.64 
  -8   2   1  280.74    8.40 
   8  -2  -1  283.87    8.77 
  -8   2   1  272.92    8.41 
   8  -2  -1  283.55   11.90 
   8  -2  -1  298.08    8.67 
   5  -7   1  242.82    7.61 
  -5   7  -1  270.66   10.18 
   5  -7   1  285.92   15.31 
  -5   7  -1  239.13   10.26 
  -5   7  -1  257.57   14.61 
   5  -7   1  256.75   13.13 
  -5   7  -1  258.69   13.32 
   5  -7   1  276.60   14.70 
  -4   4  -6  573.62   18.56 
  -4   4  -6  629.04   19.16 
   4  -4   6  605.46   17.08 
   4  -4   6  604.72   18.90 
   4  -4   6  603.73   18.12 
   4  -4   6  581.04   17.75 
  -4   4  -6  604.54   19.53 
  -4   4  -6  580.11   17.08 
  -4  -7   6  757.18   28.38 
   4   7  -6  752.87   21.66 
  -4  -7   6  742.53   21.17 
  -4  -7   6  755.19   21.77 
   4   7  -6  743.93   21.04 
   4   7  -6  765.33   22.76 
   4   7  -6  759.12   22.06 
  -2   2   9  221.59   10.64 
   2  -2  -9  217.33    5.63 
   2  -2  -9  234.53   10.06 
   2  -2  -9  208.41    9.69 
  -2   2   9  213.83    8.23 
   2  -2  -9  218.86    4.51 
  -2   2   9  235.08   10.82 
   2  -2  -9  229.22   10.67 
   5  -6  -5  328.83   16.21 
  -5   6   5  344.67   16.57 
  -5   6   5  328.48   14.56 
   5  -6  -5  313.69   15.12 
  -5   6   5  304.76    9.64 
  -5   6   5  309.13   12.45 
  -5   6   5  328.00    9.08 
   5  -6  -5  339.72   17.51 
  -5   3   8  587.89   15.85 
   5  -3  -8  628.41   22.30 
   5  -3  -8  600.74   18.29 
   5  -3  -8  600.83   21.48 
  -5   3   8  601.74   17.76 
  -5   3   8  601.82   21.85 
  -5   3   8  629.91   22.36 
   6   4   2   11.74    5.04 
   6   4   2   11.74    2.18 
   6   4   2    7.65    4.13 
  -7   4  -1   45.78    5.47 
  -7   4  -1   48.87    4.09 
  -7   4  -1   48.29    3.51 
   7  -4   1   38.12    2.72 
   7  -4   1   39.44    1.61 
   7  -4   1   47.90    3.67 
   7  -4   1   32.61    6.18 
   7  -4   1   45.60    4.06 
   2  -8   4  549.01   18.80 
   2  -8   4  539.33   20.61 
   2  -8   4  561.15   22.67 
  -2   8  -4  550.18   21.05 
  -2   8  -4  561.76   19.26 
  -2   8  -4  551.65   20.26 
   2  -8   4  536.42   20.49 
  -2   8  -4  553.27   20.56 
   1   4  -9  241.52   10.25 
  -1  -4   9  224.40    8.58 
  -1  -4   9  234.65   10.90 
   1   4  -9  237.55    9.47 
   1   4  -9  216.45    8.21 
   1   4  -9  234.88   10.76 
  -1  -4   9  238.50   10.28 
  -2   3  -8  223.94    8.58 
  -2   3  -8  215.29    8.93 
   2  -3   8  218.00    9.15 
  -2   3  -8  190.94    5.08 
  -2   3  -8  220.61    7.72 
   2  -3   8  201.16    7.40 
   2  -3   8  208.50    8.52 
   2  -3   8  190.88    4.32 
   0   3  -9  877.04   25.83 
   0   3  -9  895.85   26.78 
   0   3  -9  888.61   28.50 
   0   3  -9  825.19   26.44 
   0  -3   9  886.24   26.17 
   0  -3   9  894.35   27.13 
   0  -3   9  884.16   28.89 
   2   7  -7  143.11    9.86 
   2   7  -7  167.18   10.12 
   2   7  -7  152.43    8.29 
  -2  -7   7  142.38    8.51 
  -2  -7   7  162.03    8.13 
  -2  -7   7  165.13   10.36 
  -2  -7   7  160.74    8.34 
   2   7  -7  163.03    8.57 
   2   6  -8  492.65   13.94 
  -2  -6   8  496.24   15.18 
  -2  -6   8  516.27   14.27 
  -2  -6   8  520.80   16.79 
   2   6  -8  474.21   17.75 
   2   6  -8  507.58   16.80 
   2   6  -8  508.20   18.50 
  -7   5   2   48.55    6.50 
  -7   5   2   54.23    6.44 
   7  -5  -2   50.02    7.26 
   7  -5  -2   47.76    6.51 
  -7   5   2   44.27    7.14 
   7  -5  -2   47.34    6.47 
  -2   7   5   -0.32    2.95 
   2  -7  -5    4.61    2.42 
   2  -7  -5    0.78    3.11 
   2  -7  -5   -1.01    2.93 
  -2   7   5   -0.47    2.30 
  -2   7   5    1.79    2.49 
  -2   7   5    1.00    2.37 
  -2   7   5   -0.83    3.11 
  -2   4   8  482.17   18.25 
   2  -4  -8  511.06   18.23 
   2  -4  -8  488.30   13.55 
  -2   4   8  481.81   18.31 
   2  -4  -8  522.92   19.28 
  -2   4   8  489.35   14.12 
  -2   4   8  523.63   19.04 
   1   7  -7  175.89   10.52 
   1   7  -7  172.69   10.56 
   1   7  -7  177.15    9.04 
  -1  -7   7  167.64    9.28 
  -1  -7   7  190.29    9.23 
  -1  -7   7  166.33    5.97 
  -1  -7   7  167.02   10.11 
   1   7  -7  159.49    9.38 
   7  -4  -5  256.61    9.30 
  -7   4   5  267.96   12.60 
  -7   4   5  250.03   13.21 
   7  -4  -5  258.65   12.56 
   7  -4  -5  265.37   13.19 
   0   9  -1  340.00   11.72 
   0  -9   1  359.25   17.64 
   0   9  -1  380.15   12.60 
   0  -9   1  341.76   11.65 
   0  -9   1  372.47   16.69 
   0  -9   1  341.03   16.76 
   0   9  -1  367.30   16.45 
   0   9  -1  358.70   13.63 
   0   8   3  261.20   12.86 
   0  -8  -3  265.69   12.94 
   0  -8  -3  277.27   12.80 
   0  -8  -3  262.78   12.97 
   0   8   3  280.62   13.66 
   0   8   3  265.60   12.70 
   0   8   3  258.34   13.24 
   0  -8  -3  268.14    9.93 
  -3   4  -7  662.52   19.60 
   3  -4   7  676.65   19.69 
  -3   4  -7  675.01   20.50 
   3  -4   7  675.13   20.33 
   3  -4   7  644.06   18.26 
   3  -4   7  680.33   18.02 
  -3   4  -7  630.81   19.74 
  -3   4  -7  687.66   22.44 
  -3   4   8  336.26   13.52 
  -3   4   8  338.85    9.78 
   3  -4  -8  355.14   15.77 
  -3   4   8  355.44   15.97 
   3  -4  -8  351.94   14.84 
   3  -4  -8  349.09   11.34 
  -3   4   8  345.66   14.66 
  -7  -4   6  216.43   12.58 
  -7  -4   6  215.21    7.85 
   7   4  -6  219.78   10.55 
   7   4  -6  226.32    6.63 
   7   4  -6  200.40    8.37 
  -7  -4   6  214.45    6.47 
   7   4  -6  216.57    7.93 
   3   5   5   22.99    2.37 
   3   5   5   23.84    2.46 
   3   5   5   21.15    3.90 
   3   5   5   29.70    3.24 
  -3  -5  -5   25.00    3.20 
   3   5   5   30.36    6.20 
  -3  -5  -5   29.04    3.22 
  -7   5   1  416.98   17.73 
  -7   5   1  420.77   14.13 
   7  -5  -1  423.72   18.05 
  -7   5   1  407.70   16.61 
   7  -5  -1  406.51   18.43 
   7  -5  -1  373.98   16.38 
   0   9  -2    6.29    2.50 
   0   9  -2    6.14    3.81 
   0  -9   2    6.31    2.66 
   0  -9   2    0.84    3.93 
   0  -9   2    2.34    2.47 
   0   9  -2    5.68    4.53 
   0   9  -2    5.13    3.57 
   0  -9   2    3.97    3.62 
  -1   7   5   69.66    4.81 
  -1   7   5   72.86    7.10 
  -1   7   5   65.52    4.97 
  -1   7   5   66.96    5.52 
  -1   7   5   82.70    7.09 
   1  -7  -5   63.16    4.37 
   1  -7  -5   74.47    7.26 
   1  -7  -5   62.75    7.04 
   4   2   6  586.76   13.69 
   4   2   6  588.87   14.03 
   4   2   6  592.67   21.08 
   4   2   6  560.58   21.19 
  -4  -2  -6  593.95   13.85 
  -4  -2  -6  588.04   13.67 
   8   2  -5  428.81   12.33 
   8   2  -5  431.28    9.76 
  -8  -2   5  428.03    9.78 
  -8  -2   5  459.33   13.90 
   8   2  -5  441.90   13.80 
   8   2  -5  411.05   12.02 
  -8  -2   5  430.50   14.08 
  -4  -5  -4  245.87    7.40 
   4   5   4  231.62    7.26 
   4   5   4  286.81   15.18 
  -4  -5  -4  248.56    5.81 
   4   5   4  250.73    7.73 
   4   5   4  226.53   10.21 
   4   5   4  243.74    5.85 
   7  -3   2  494.63   16.71 
   7  -3   2  493.38   18.24 
   7  -3   2  508.31   12.46 
   7  -3   2  511.74   13.83 
   7  -3   2  477.65   12.56 
  -7   3  -2  482.78   16.16 
  -7   3  -2  472.67   12.40 
  -4   5   7   60.39    5.17 
  -4   5   7   54.58    4.75 
  -4   5   7   55.01    5.05 
  -4   5   7   63.39    7.62 
   4  -5  -7   61.87    7.46 
   4  -5  -7   62.81    4.99 
   4  -5  -7   61.20    5.66 
  -4   5   7   66.17    4.59 
   7   3   1  785.77   21.03 
   7   3   1  789.20   24.68 
   7   3   1  725.01   27.12 
   7   3   1  750.92   20.07 
  -4   8   0  491.68   21.90 
   4  -8   0  477.92   21.48 
   4  -8   0  477.73   14.62 
  -4   8   0  478.08   21.71 
  -4   8   0  507.11   22.97 
   4  -8   0  499.00   17.40 
   4  -8   0  500.36   22.44 
  -4   8   0  459.31   14.83 
  -3  -6  -4  161.20    6.92 
   3   6   4  148.96    8.41 
   3   6   4  150.74   11.94 
  -3  -6  -4  159.44    5.72 
   3   6   4  156.07    5.74 
   3   6   4  143.14    6.36 
   3   6   4  156.83    6.88 
   1   6  -8  592.29   20.84 
  -1  -6   8  599.68   17.16 
  -1  -6   8  586.90   19.42 
  -1  -6   8  560.75   16.65 
   1   6  -8  577.98   19.45 
   1   6  -8  557.30   20.15 
  -1  -6   8  550.06   18.59 
   1   6  -8  572.12   18.76 
   5  -7  -3  305.44   15.94 
  -5   7   3  297.82   15.73 
  -5   7   3  266.87    7.49 
  -5   7   3  275.38    7.44 
  -5   7   3  300.46   15.93 
   5  -7  -3  262.62   14.85 
  -5   7   3  297.25   15.00 
   5  -7  -3  313.74   16.37 
   7   3  -7  748.75   23.71 
  -7  -3   7  738.23   19.65 
   7   3  -7  732.15   19.59 
   7   3  -7  752.68   20.40 
   7   3  -7  737.64   19.64 
  -7  -3   7  737.23   19.80 
  -7  -3   7  769.50   26.88 
  -6   2   8  225.02    7.85 
   6  -2  -8  232.07   10.78 
   6  -2  -8  212.64    8.65 
   6  -2  -8  211.63    6.24 
   6  -2  -8  219.49   10.98 
  -6   2   8  221.45   11.08 
  -6   2   8  221.03   10.95 
  -6   6  -1  850.94   31.22 
   6  -6   1  797.48   19.84 
   6  -6   1  842.57   31.48 
   6  -6   1  820.91   27.92 
   6  -6   1  836.36   30.74 
  -6   6  -1  825.57   28.24 
  -6   6  -1  868.37   31.72 
  -6   6  -1  810.78   21.06 
   1  -9   1  440.00   18.30 
   1  -9   1  440.84   14.82 
  -1   9  -1  456.86   15.55 
  -1   9  -1  445.55   17.99 
  -1   9  -1  453.95   14.76 
  -1   9  -1  454.35   22.19 
   1  -9   1  467.56   15.96 
   1  -9   1  465.78   20.74 
  -6  -1  -4  769.72   15.42 
  -6  -1  -4  777.17   14.78 
   6   1   4  788.93   26.62 
   6   1   4  769.70   22.75 
   6   1   4  800.80   19.52 
   6   1   4  768.80   14.73 
   6   1   4  754.69   16.06 
   6   3   3  210.29   10.32 
   6   3   3  213.89    9.17 
   6   3   3  207.44    6.30 
   6   3   3  197.91    6.06 
  -1   8  -5  132.46   11.13 
  -1   8  -5  135.56    9.58 
  -1   8  -5  131.27    6.37 
  -1   8  -5  119.53    9.11 
   1  -8   5  131.61    9.37 
   1  -8   5  113.78    9.07 
   1  -8   5  132.47    6.26 
   1  -8   5  125.36    8.61 
  -3   8  -3  582.41   25.69 
  -3   8  -3  614.13   24.43 
   3  -8   3  642.18   24.79 
  -3   8  -3  579.03   23.26 
  -3   8  -3  593.97   20.82 
   3  -8   3  615.72   19.60 
   3  -8   3  615.06   25.43 
   3  -8   3  583.91   22.68 
   5   7  -1  543.29   18.33 
  -5  -7   1  557.14   25.49 
   5   7  -1  541.50   23.85 
  -5  -7   1  510.57   11.14 
  -5  -7   1  539.52   15.53 
   5   7  -1  508.70   11.38 
   5   7  -1  514.75   15.84 
  -6  -6   5   39.61    7.68 
   6   6  -5   38.86    3.71 
   6   6  -5   46.24    3.11 
   6   6  -5   45.60    2.78 
   6   6  -5   33.31    5.76 
  -6  -6   5   42.60    2.97 
  -6  -6   5   41.27    2.78 
  -4  -4   9  690.69   19.74 
  -4  -4   9  681.76   20.91 
  -4  -4   9  661.67   17.88 
   4   4  -9  655.86   17.91 
   4   4  -9  658.09   19.77 
   4   4  -9  661.06   17.89 
   4   4  -9  696.37   20.78 
   7  -5  -3  134.76    7.04 
   7  -5  -3  134.43    7.22 
  -7   5   3  127.61    6.88 
  -7   5   3  135.07   10.56 
   4  -8  -1  676.51   22.45 
   4  -8  -1  667.53   26.87 
   4  -8  -1  667.79   19.27 
   4  -8  -1  680.92   27.52 
  -4   8   1  607.26   18.55 
  -4   8   1  708.67   26.96 
  -4   8   1  624.75   26.19 
  -4   8   1  703.77   23.04 
   3   8  -5   18.45    5.29 
   3   8  -5   18.44    3.51 
   3   8  -5   27.04    5.82 
  -3  -8   5   23.08    4.69 
  -3  -8   5   17.55    3.87 
  -3  -8   5   21.85    3.89 
  -3  -8   5   20.00    3.64 
   3   8  -5   19.20    3.84 
  -8   1   0  172.94    4.38 
   8  -1   0  177.64    8.52 
   8  -1   0  178.07    4.16 
   8  -1   0  171.14    4.38 
   8  -1   0  174.24    6.94 
  -8   1   0  166.41    4.74 
   8  -1   0  176.25    4.80 
   8   0   0   95.08    6.36 
   8   0   0   99.94    3.55 
   8   0   0   94.73    6.10 
   3   6  -8  780.69   24.14 
   3   6  -8  793.27   23.63 
  -3  -6   8  815.55   24.58 
   3   6  -8  786.27   25.94 
   3   6  -8  790.98   26.25 
  -3  -6   8  782.56   26.97 
  -3  -6   8  803.21   24.23 
   5  -1  -9    1.29    1.66 
   5  -1  -9    1.61    1.09 
   5  -1  -9    3.75    2.61 
  -5   1   9    2.06    2.66 
   5  -1  -9   -1.05    2.68 
  -5   1   9    0.81    1.41 
  -5   1   9    1.80    2.70 
   5  -4   5   59.70    2.95 
   5  -4   5   67.52    5.09 
   5  -4   5   60.00    4.33 
   5  -4   5   52.00    5.76 
  -5   4  -5   53.13    2.86 
  -5   4  -5   47.82    5.07 
  -5   4  -5   56.44    4.99 
  -5   4  -5   57.63    4.63 
  -7   2   7    6.40    1.36 
   7  -2  -7    7.32    3.36 
  -7   2   7    4.67    3.47 
   7  -2  -7    3.90    3.17 
   7  -2  -7   10.29    3.07 
   6   5   1   13.24    5.68 
   6   5   1   13.18    3.42 
   6   5   1   18.19    2.84 
  -6   3  -4  115.80    6.37 
  -6   3  -4  119.54    6.56 
   6  -3   4  123.14    6.79 
   6  -3   4  115.82    4.83 
  -6   3  -4  119.00    4.90 
   6  -3   4  116.41    7.68 
   6  -3   4  114.33    3.86 
   0   6   6  312.12   14.58 
   0   6   6  288.16   12.77 
   0   6   6  315.61   12.98 
   0  -6  -6  293.72   12.70 
   0   6   6  296.43   15.17 
   0  -6  -6  293.48   11.13 
   0   6   6  274.87    9.13 
   0  -6  -6  316.76   12.98 
   4  -2  -9  363.01   11.72 
   4  -2  -9  369.99   15.43 
   4  -2  -9  366.55   10.58 
  -4   2   9  350.31   13.11 
  -4   2   9  368.67   15.51 
  -1  -9   2    5.45    2.69 
   1   9  -2    5.37    4.34 
   1   9  -2    4.69    4.57 
   1   9  -2    1.17    3.77 
  -1  -9   2    8.52    2.20 
   1   9  -2    4.06    2.08 
  -1  -9   2    5.44    3.62 
  -1  -9   2    9.92    4.05 
   7   5  -3  121.41    5.58 
   7   5  -3  114.02    2.82 
   7   5  -3  135.87    5.22 
  -7  -5   3  124.19   10.79 
  -7  -5   3  118.05    2.88 
  -8   3   2  291.61   11.07 
  -8   3   2  279.09   11.53 
   8  -3  -2  297.81   11.21 
   8  -3  -2  279.31   11.60 
   8  -3  -2  292.55   13.10 
   5   2   5    1.64    0.90 
   5   2   5    2.52    1.25 
   5   2   5    0.81    2.77 
   5   2   5    1.41    1.24 
   5   2   5    3.03    1.94 
  -5  -2  -5    2.52    1.20 
  -5  -2  -5    1.06    1.24 
   5   2   5    1.08    1.28 
  -5  -3   9  442.02   12.40 
  -5  -3   9  451.99   12.11 
  -5  -3   9  455.66   16.60 
   5   3  -9  450.31   12.44 
   5   3  -9  418.87   11.38 
   5   3  -9  448.16   14.55 
   5   3  -9  442.91   11.89 
   6   6  -1    8.41    3.11 
  -6  -6   1    7.92    5.31 
   6   6  -1   12.28    4.87 
  -8   3   3  937.86   30.55 
   8  -3  -3  968.09   31.10 
   8  -3  -3  919.36   31.01 
   8  -3  -3  897.87   27.54 
  -8   3   3  916.71   27.86 
   0  -9   0  816.71   30.08 
   0   9   0  836.94   30.27 
   0  -9   0  822.62   30.57 
   0   9   0  820.93   32.71 
   0   9   0  790.61   23.89 
   0   9   0  920.84   31.15 
   0  -9   0  803.70   24.17 
   0  -9   0  828.69   29.94 
   2   1   8  894.50   24.96 
   2   1   8  900.36   24.17 
   2   1   8  877.77   25.75 
  -2  -1  -8  903.45   30.04 
  -2  -1  -8  872.29   23.59 
  -2  -1  -8  901.46   24.91 
  -4   6   6    0.53    2.13 
   4  -6  -6    1.93    2.57 
  -4   6   6    3.63    1.74 
  -4   6   6   -3.03    2.38 
  -4   6   6    1.52    3.22 
   4  -6  -6    0.77    2.09 
   4  -6  -6    0.40    3.24 
  -4   6   6   -0.68    1.80 
  -3   7   5    9.32    2.77 
  -3   7   5    9.09    2.95 
  -3   7   5    8.19    4.41 
   3  -7  -5    5.85    4.37 
   3  -7  -5    3.11    4.49 
  -3   7   5    2.26    4.44 
  -3   7   5    4.61    3.28 
   3  -7  -5    4.64    3.70 
   1   9  -1  213.14   11.77 
  -1  -9   1  221.03   11.96 
  -1  -9   1  200.70    9.15 
   1   9  -1  224.24   13.32 
   1   9  -1  233.23   11.10 
   1   9  -1  217.94   13.51 
  -1  -9   1  220.69   10.88 
  -1  -9   1  229.14   13.81 
   1  -9   0  723.70   22.05 
  -1   9   0  741.26   28.56 
  -1   9   0  734.90   27.15 
  -1   9   0  740.81   26.03 
  -1   9   0  748.93   31.28 
   1  -9   0  729.64   28.76 
   1  -9   0  726.76   28.64 
   1  -9   0  760.51   27.57 
   0   1   9  129.97    5.14 
   0  -1  -9  137.76    6.89 
   0  -1  -9  130.02    5.83 
   0  -1  -9  123.35    5.09 
   0   1   9  128.45    6.83 
   0   1   9  119.72    9.27 
   1  -5   8  769.70   23.67 
   1  -5   8  708.75   18.74 
   1  -5   8  744.53   20.70 
   1  -5   8  752.69   22.93 
  -1   5  -8  697.66   25.03 
  -1   5  -8  738.46   24.66 
  -1   5  -8  744.91   23.03 
  -1   5  -8  741.16   23.67 
   7   4   0  673.28   24.52 
   7   4   0  630.93   18.23 
   7   4   0  659.14   23.11 
   7   5  -4   13.75    1.27 
   7   5  -4   12.71    3.22 
   7   5  -4    4.16    1.29 
   7   5  -4   10.77    3.48 
  -7  -5   4    7.66    5.12 
  -7  -5   4    6.85    1.27 
  -7  -5   4    7.98    1.25 
  -1   9  -2   12.80    3.32 
   1  -9   2   17.30    4.58 
   1  -9   2   13.75    3.32 
  -1   9  -2   13.01    3.26 
  -1   9  -2   12.98    2.86 
   1  -9   2   17.65    3.13 
   1  -9   2   19.15    3.74 
  -1   9  -2    9.28    5.86 
   4   6   3   76.34    4.63 
   4   6   3   72.32    3.08 
   4   6   3   84.94    6.46 
  -4  -6  -3   84.14    3.57 
   4   6   3   75.17    3.74 
   4   6   3   91.29    9.72 
  -4  -6  -3   79.82    2.93 
   8   2  -1  825.94   24.03 
   8   2  -1  817.53   22.27 
   8   2  -1  822.27   23.75 
   3   7  -7   72.49    3.79 
   3   7  -7   57.35    7.42 
  -3  -7   7   70.41    5.52 
   3   7  -7   71.71    5.52 
  -3  -7   7   59.90    8.06 
  -3  -7   7   57.55    3.79 
   3   7  -7   68.43    6.84 
  -1   2   9  160.32    8.23 
  -1   2   9  138.75   10.06 
  -1   2   9  167.63    8.68 
   1  -2  -9  149.13    8.10 
   1  -2  -9  169.36    8.70 
   1  -2  -9  157.30    6.22 
   8  -2  -5  536.82   14.14 
   8  -2  -5  545.50   19.26 
   8  -2  -5  566.28   20.28 
  -8   2   5  546.39   20.04 
  -8   2   5  523.93   13.86 
   3  -8  -3   42.82    4.37 
  -3   8   3   35.81    4.44 
  -3   8   3   32.46    3.87 
   3  -8  -3   27.88    2.76 
   3  -8  -3   32.53    6.64 
   3  -8  -3   27.90    6.39 
  -3   8   3   23.44    4.15 
  -3   8   3   37.52    6.48 
   5   7  -5  662.53   23.10 
   5   7  -5  647.66   24.38 
   5   7  -5  645.65   17.23 
  -5  -7   5  652.54   18.04 
  -5  -7   5  641.53   17.11 
  -5  -7   5  617.41   21.19 
   5   7  -5  642.96   18.17 
  -1   4   8  555.68   21.31 
  -1   4   8  561.74   15.58 
   1  -4  -8  491.27   12.37 
  -1   4   8  554.04   19.75 
   1  -4  -8  543.78   15.50 
   1  -4  -8  562.34   19.43 
  -1   4   8  563.30   19.18 
  -4   8  -1  104.68   10.53 
  -4   8  -1  101.45   10.12 
   4  -8   1   94.24   10.57 
   4  -8   1  125.73   11.15 
   4  -8   1  106.74    9.73 
  -4   8  -1  135.98    9.59 
  -4   8  -1  102.24    6.19 
   4  -8   1  112.58    7.68 
  -8   0   6  128.31    5.64 
  -8   0   6  138.90    7.45 
   8   0  -6  136.94    5.61 
   8   0  -6  139.34    7.42 
   8   0  -6  127.91    3.05 
   8   0  -6  131.80    5.76 
  -8   0   6  134.03    5.24 
  -3  -2  -7  739.05   18.98 
  -3  -2  -7  737.04   18.82 
   3   2   7  741.10   26.07 
   3   2   7  704.33   18.40 
   3   2   7  703.08   25.72 
   3   2   7  733.98   19.17 
  -4  -8   3  229.40    9.23 
  -4  -8   3  231.11   14.93 
  -4  -8   3  226.84    7.89 
   4   8  -3  244.07    9.46 
   4   8  -3  224.42    7.92 
   4   8  -3  233.28    8.88 
   4   8  -3  221.74   10.05 
  -4  -4  -5  373.52    9.86 
   4   4   5  336.19    7.81 
   4   4   5  365.59   10.03 
   4   4   5  361.03    8.05 
   4   4   5  383.07   17.12 
   4   4   5  368.55   17.56 
  -4  -4  -5  367.81    8.21 
   4   4   5  357.79    8.25 
  -5  -5   8  290.34   10.63 
   5   5  -8  288.48    8.19 
   5   5  -8  301.33   11.83 
   5   5  -8  298.65   10.61 
   5   5  -8  283.79   12.07 
  -5  -5   8  298.34   14.10 
  -5  -5   8  287.85    8.15 
   6   5  -7  584.46   16.23 
  -6  -5   7  573.52   18.06 
   6   5  -7  599.68   18.79 
  -6  -5   7  591.20   16.21 
   6   5  -7  595.80   20.03 
  -6  -5   7  585.00   16.35 
   6   5  -7  587.27   16.18 
   0  -5  -7  527.84   17.65 
   0  -5  -7  477.23   10.90 
   0  -5  -7  508.28   18.05 
   0   5   7  490.10   17.56 
   0   5   7  514.87   19.81 
   0   5   7  509.73   21.20 
   0   5   7  505.17   17.61 
   3  -6   6  451.24   16.18 
   3  -6   6  425.85   14.77 
   3  -6   6  432.96   16.31 
   3  -6   6  454.67   15.33 
  -3   6  -6  438.53   15.64 
  -3   6  -6  438.86   16.46 
  -3   6  -6  439.11   14.79 
  -3   6  -6  418.85   15.73 
   8   1  -6  141.20    5.96 
   8   1  -6  144.30    5.58 
  -8  -1   6  146.18    6.67 
   8   1  -6  142.70    4.35 
  -8  -1   6  148.37    5.57 
  -8  -1   6  154.97    7.75 
   8   1  -6  153.19    6.68 
  -5  -6   7  404.73   12.56 
   5   6  -7  406.71   15.83 
   5   6  -7  413.56   10.58 
   5   6  -7  408.20   12.56 
   5   6  -7  403.23   15.91 
  -5  -6   7  413.01   12.99 
  -5  -6   7  412.54   18.55 
   4   8  -2  680.16   22.99 
   4   8  -2  699.81   24.85 
   4   8  -2  664.80   18.00 
  -4  -8   2  683.82   20.54 
  -4  -8   2  702.28   24.37 
  -4  -8   2  666.14   17.75 
   4   8  -2  712.44   28.72 
  -8  -3   3  609.90   19.64 
   8   3  -3  625.61   17.69 
   2   6   5  454.55   13.85 
   2   6   5  459.89   21.52 
   2   6   5  477.82   15.85 
   2   6   5  491.43   14.80 
  -2  -6  -5  510.17   16.10 
  -2  -6  -5  503.43   14.88 
   2   6   5  487.50   21.72 
   0   9  -3  150.79    9.63 
   0   9  -3  144.13    7.29 
   0   9  -3  139.75    8.06 
   0   9  -3  148.97   10.67 
   0  -9   3  128.33   10.98 
   0  -9   3  158.37    9.76 
   0  -9   3  147.90   10.56 
   0  -9   3  144.68    7.38 
   0   7  -7  457.50   16.69 
   0   7  -7  440.85   18.74 
   0  -7   7  465.35   17.10 
   0  -7   7  428.10   12.01 
   0  -7   7  446.76   13.67 
   0   7  -7  443.41   16.93 
   0  -7   7  449.52   16.97 
   0   7  -7  457.19   17.95 
   6  -6  -4  466.04   20.47 
  -6   6   4  435.71   15.83 
  -6   6   4  461.05   20.46 
  -6   6   4  430.39   19.23 
   6  -6  -4  454.28   20.60 
   6  -6  -4  429.10   14.95 
  -3   7  -5  240.49   13.59 
   3  -7   5  236.33   11.63 
   3  -7   5  231.83    8.93 
   3  -7   5  225.77   12.33 
   3  -7   5  231.91    9.66 
  -3   7  -5  241.94    9.14 
  -3   7  -5  230.51   10.64 
  -3   7  -5  247.32    8.57 
   7   2   2  552.63   12.72 
   7   2   2  559.91   15.30 
   7   2   2  544.12   16.92 
   7   2   2  540.82   17.35 
   4  -4  -8  271.79   13.69 
   4  -4  -8  258.32   14.26 
   4  -4  -8  273.23   10.41 
  -4   4   8  261.12    9.58 
  -4   4   8  280.74   13.94 
  -4   4   8  254.81   10.42 
  -4   4   8  277.97   14.33 
  -8  -3   4  408.03    8.34 
   8   3  -4  421.65   11.03 
   8   3  -4  410.62    8.33 
   8   3  -4  387.35   11.41 
  -8  -3   4  401.40   10.91 
  -8  -3   4  406.08   15.07 
  -2  -8  -2  790.29   24.87 
  -2  -8  -2  710.62   24.44 
   2   8   2  851.34   26.87 
   2   8   2  769.39   26.74 
   2   8   2  757.32   25.62 
  -2  -8  -2  838.38   26.78 
  -2  -8  -2  791.79   25.48 
   2   8   2  815.11   25.21 
  -7   5   0  532.56   21.23 
  -7   5   0  509.64   18.57 
   7  -5   0  499.70   16.78 
   7  -5   0  532.98   20.29 
  -7   5   0  523.09   20.48 
   7  -5   0  483.39   18.15 
  -1  -9   3  313.59   11.81 
  -1  -9   3  337.67   12.72 
  -1  -9   3  358.52   14.48 
   1   9  -3  355.09   14.07 
   1   9  -3  345.83   17.61 
   1   9  -3  322.83   11.49 
  -1  -9   3  323.61   11.60 
   1   9  -3  331.45   17.27 
   7   5  -2  485.08   16.14 
   7   5  -2  506.96   19.01 
  -7  -5   2  479.17   21.15 
   4  -6   5  292.55   13.50 
   4  -6   5  313.26   11.88 
  -4   6  -5  298.89   10.11 
   4  -6   5  303.94   10.06 
  -4   6  -5  321.26   14.96 
  -4   6  -5  280.37   11.68 
  -4   6  -5  291.60   12.06 
  -8   2   0  710.73   18.39 
   8  -2   0  680.32   15.01 
   8  -2   0  667.99   12.36 
   8  -2   0  704.34   18.28 
   8  -2   0  683.22   22.30 
  -8   2   0  670.14   16.37 
   8  -2   0  699.26   16.34 
   8   1   0  780.97   22.68 
   8   1   0  795.12   19.97 
   8   1   0  776.14   23.55 
   2   5   6  545.97   23.66 
   2   5   6  522.32   22.11 
   2   5   6  579.19   15.98 
   2   5   6  468.44   11.27 
  -2  -5  -6  574.00   15.62 
  -2  -5  -6  540.97   16.63 
   2   5   6  538.68   16.88 
   3   4   6    1.66    3.72 
   3   4   6    0.98    3.45 
   3   4   6   -1.31    1.77 
  -3  -4  -6    5.05    1.96 
   3   4   6    2.31    1.98 
  -3  -4  -6    2.12    1.78 
   8  -3  -1   73.18    5.20 
  -8   3   1   76.60    5.16 
  -8   3   1   86.47    5.57 
   8  -3  -1   74.03    5.68 
   8  -3  -1   80.63    7.31 
   0  -7  -5   32.33    5.28 
   0   7   5   25.94    5.42 
   0   7   5   32.32    6.52 
   0   7   5   35.47    5.37 
   0   7   5   33.18    6.20 
   0  -7  -5   36.43    4.30 
   0  -7  -5   31.95    5.31 
   0   7   5   36.95    4.26 
   5  -7   2  764.22   29.26 
   5  -7   2  748.72   20.29 
  -5   7  -2  730.89   29.26 
  -5   7  -2  783.28   24.22 
  -5   7  -2  741.79   22.74 
   5  -7   2  786.73   30.25 
  -5   7  -2  781.75   23.14 
   5  -7   2  752.08   22.46 
   4  -8  -2  308.22   13.38 
   4  -8  -2  304.62   16.13 
   4  -8  -2  309.25   10.17 
  -4   8   2  284.86   15.69 
  -4   8   2  286.70   11.55 
   4  -8  -2  305.45   16.50 
  -4   8   2  329.52   13.39 
  -4   8   2  319.29   16.68 
   8  -3  -4  403.71   16.52 
   8  -3  -4  362.86   12.10 
   8  -3  -4  355.33   13.57 
  -8   3   4  372.33   15.99 
  -8   3   4  368.12   13.53 
   5   5   3  514.16   23.56 
   5   5   3  496.91   13.11 
   5   5   3  538.62   22.56 
  -1  -8   6  288.15    9.79 
  -1  -8   6  299.12   10.09 
  -1  -8   6  296.22   13.00 
  -1  -8   6  314.61   14.89 
   1   8  -6  291.51   10.01 
   1   8  -6  293.62   12.91 
   1   8  -6  294.77   11.32 
   1   8  -6  310.94   15.31 
   6   4  -8  317.93   11.17 
  -6  -4   8  314.58   14.61 
  -6  -4   8  304.71   10.62 
   6   4  -8  305.98   12.22 
   6   4  -8  309.07   10.41 
  -6  -4   8  301.76   10.46 
   6   4  -8  295.65   10.53 
  -2   7  -6  596.51   24.56 
   2  -7   6  611.42   21.34 
   2  -7   6  623.84   20.47 
  -2   7  -6  609.92   21.28 
   2  -7   6  603.09   20.82 
   2  -7   6  594.55   21.56 
  -2   7  -6  607.28   22.06 
  -2   7  -6  586.80   20.90 
   8  -1  -6  712.09   23.13 
   8  -1  -6  665.26   19.47 
   8  -1  -6  681.46   22.60 
  -8   1   6  712.90   20.01 
  -8   1   6  657.81   19.28 
  -4  -8   4    7.66    3.17 
   4   8  -4    3.92    2.27 
  -4  -8   4    5.50    2.28 
   4   8  -4    5.19    2.65 
   4   8  -4    6.41    3.90 
   4   8  -4    7.15    2.83 
  -4  -8   4    7.39    2.64 
   0   4  -9   90.22    7.74 
   0  -4   9   97.35    7.73 
   0  -4   9   72.33    4.33 
   0  -4   9   81.05    6.83 
   0   4  -9   96.40    6.94 
   0   4  -9   86.99    5.94 
   0   4  -9   79.03    4.23 
   1   9   0  559.85   21.10 
  -1  -9   0  533.27   20.76 
  -1  -9   0  534.62   19.41 
   1   9   0  504.31   22.01 
   1   9   0  529.96   19.31 
  -1  -9   0  520.66   21.47 
  -1  -9   0  562.26   23.85 
   1   9   0  563.61   18.00 
  -2   4  -8  139.49    5.55 
   2  -4   8  144.88    7.30 
   2  -4   8  142.68    8.40 
   2  -4   8  126.81    5.49 
   2  -4   8  125.33    4.23 
  -2   4  -8  141.48    7.45 
  -2   4  -8  151.38    9.01 
  -2   4  -8  118.51    5.55 
  -6   5  -3  399.10   15.76 
   6  -5   3  387.19   13.10 
   6  -5   3  370.51   10.02 
   6  -5   3  375.97   16.03 
  -6   5  -3  384.31   15.84 
  -6   5  -3  384.65   11.83 
  -6   5  -3  373.41   13.19 
   6  -5   3  370.82   12.73 
  -1   1  -9  103.40    7.86 
   1  -1   9   97.14    6.52 
  -1   1  -9  103.19    6.29 
  -1   1  -9   97.50    6.53 
   1  -1   9   93.29    6.15 
   1  -1   9  104.07    8.20 
  -2   9  -1  514.09   23.96 
  -2   9  -1  506.12   22.30 
   2  -9   1  488.20   23.02 
   2  -9   1  502.00   21.39 
   2  -9   1  492.98   22.44 
  -2   9  -1  462.46   18.11 
   2  -9   1  472.01   18.10 
  -2   9  -1  470.96   21.66 
   7   1  -8  306.64    8.76 
   7   1  -8  336.14   12.15 
   7   1  -8  330.39    9.31 
  -7  -1   8  319.06    9.46 
  -7  -1   8  304.81   11.11 
  -7  -1   8  349.23   15.23 
   7   1  -8  312.00   11.06 
   8   3  -2  636.75   19.66 
   8   3  -2  646.63   17.24 
  -8  -3   2  662.05   20.27 
   7   5  -5  598.43   13.92 
   7   5  -5  604.08   19.39 
  -7  -5   5  614.68   13.99 
   7   5  -5  618.85   14.11 
   7   5  -5  601.74   20.86 
  -7  -5   5  621.40   26.17 
  -7  -5   5  603.78   13.92 
  -2  -8   6  239.29   11.37 
  -2  -8   6  239.40    8.00 
  -2  -8   6  239.88   11.14 
  -2  -8   6  226.42   13.86 
   2   8  -6  249.79    8.22 
   2   8  -6  251.17   14.18 
   2   8  -6  243.76   11.33 
   2   8  -6  249.73   13.86 
  -2  -5   9   86.10    5.51 
  -2  -5   9  100.02    6.75 
  -2  -5   9   98.58    7.30 
   2   5  -9   95.79    6.47 
   2   5  -9   94.79    5.16 
   2   5  -9   85.64    6.81 
   2   5  -9   94.07    7.33 
   3   8   1  237.80   11.64 
   3   8   1  226.22    8.77 
   3   8   1  222.84   11.22 
  -3  -8  -1  231.51    8.64 
  -3  -8  -1  253.45   10.00 
  -3  -8  -1  252.98   11.45 
   3   8   1  225.47    9.95 
  -3  -8  -1  239.14   10.29 
   0   6  -8  474.18   17.08 
   0   6  -8  463.81   18.12 
   0   6  -8  470.49   18.65 
   0   6  -8  501.53   18.12 
   0  -6   8  467.95   18.40 
   0  -6   8  507.97   17.90 
   0  -6   8  488.04   17.35 
   0  -6   8  489.44   14.76 
  -7   5   4  535.56   17.72 
   7  -5  -4  568.33   18.25 
   7  -5  -4  560.85   22.87 
  -7   5   4  522.66   22.91 
  -7   5   4  606.01   19.36 
   7  -5  -4  597.97   19.16 
  -2   9   0  630.66   21.71 
   2  -9   0  640.30   21.40 
  -2   9   0  658.88   26.77 
   2  -9   0  611.82   22.03 
  -2   9   0  632.39   27.35 
   2  -9   0  617.76   20.10 
   2  -9   0  612.56   26.32 
  -2   9   0  616.55   20.06 
  -1   2  -9  330.26   14.06 
  -1   2  -9  336.28    9.46 
   1  -2   9  331.55    9.42 
  -1   2  -9  317.34    9.59 
   1  -2   9  334.34   14.43 
   1  -2   9  324.44    9.81 
  -1  -8  -3  331.50   14.09 
   1   8   3  298.02   17.04 
   1   8   3  327.28   14.05 
   1   8   3  316.88   13.20 
   1   8   3  307.28   14.04 
  -1  -8  -3  323.02   13.30 
  -1  -8  -3  332.70   13.61 
  -1  -8  -3  342.27   17.03 
   5   4   4  721.77   27.06 
   5   4   4  727.86   27.99 
  -5  -4  -4  679.06   11.94 
  -5  -4  -4  731.80   14.99 
   5   4   4  655.88   13.68 
   5   4   4  712.70   16.38 
  -3  -7  -3  414.92   12.52 
  -3  -7  -3  399.16   11.76 
   3   7   3  391.22   20.75 
   3   7   3  367.84   13.90 
   3   7   3  393.27   20.59 
   3   7   3  407.60   12.69 
   3   7   3  373.47   11.85 
  -6   4   7  572.72   15.79 
  -6   4   7  595.17   15.29 
  -6   4   7  585.37   18.67 
  -6   4   7  597.47   23.76 
   6  -4  -7  595.84   18.97 
   6  -4  -7  603.72   23.43 
   6  -4  -7  586.07   20.56 
  -1   9   1  450.56   19.17 
   1  -9  -1  440.06   19.43 
   1  -9  -1  463.44   20.54 
   1  -9  -1  450.93   18.36 
  -1   9   1  462.56   17.90 
   1  -9  -1  433.29   20.26 
  -1   9   1  463.32   20.55 
  -1   9   1  437.81   21.16 
   7   0  -8  718.63   17.26 
   7   0  -8  763.38   23.09 
   7   0  -8  748.71   19.61 
  -7   0   8  767.87   24.97 
  -7   0   8  720.18   21.88 
   7   0  -8  717.47   21.80 
  -7   0   8  738.07   23.56 
  -4  -8   1  416.48   13.99 
   4   8  -1  433.54   14.43 
   4   8  -1  388.10   11.23 
   4   8  -1  425.38   16.04 
   4   8  -1  412.56   16.60 
  -4  -8   1  438.97   17.34 
  -4  -8   1  404.41   11.12 
  -4   7  -4   72.29    5.85 
   4  -7   4   67.57    4.93 
   4  -7   4   79.97    7.96 
   4  -7   4   74.73    8.31 
   4  -7   4   76.16    7.05 
  -4   7  -4   82.61    7.77 
  -4   7  -4   76.13    8.39 
  -4   7  -4   65.27    7.21 
  -1   9  -3  113.74    7.93 
   1  -9   3  105.37    8.70 
  -1   9  -3  116.30    6.29 
   1  -9   3  111.51    7.20 
   1  -9   3  112.16   10.10 
  -1   9  -3  103.94    8.95 
  -1   9  -3  117.35    9.91 
   1  -9   3  106.53    6.66 
   7  -1   3  974.17   25.03 
   7  -1   3  986.86   29.07 
   7  -1   3  983.85   25.79 
   7  -1   3  973.96   20.78 
  -7   1  -3  948.63   20.24 
  -7   1  -3  956.53   24.65 
   7  -1   3  972.61   30.27 
   8   2  -6 1018.46   25.22 
   8   2  -6 1007.46   25.21 
   8   2  -6 1064.86   28.18 
   8   2  -6 1025.18   27.88 
  -8  -2   6  993.41   31.05 
  -8  -2   6  984.58   24.65 
  -8  -2   6 1038.63   28.03 
   3   5  -9   35.53    2.90 
   3   5  -9   25.71    5.11 
   3   5  -9   28.60    4.92 
  -3  -5   9   27.32    4.73 
  -3  -5   9   42.37    4.93 
  -3  -5   9   27.80    5.74 
   3   5  -9   26.85    4.45 
  -2  -9   2   62.68    5.84 
  -2  -9   2   68.45    9.02 
   2   9  -2   71.81    8.85 
   2   9  -2   65.00    8.33 
  -2  -9   2   67.04    4.51 
  -2  -9   2   72.93    7.50 
   2   9  -2   60.71    5.88 
   2   9  -2   71.33    4.31 
  -2   6  -7   70.06    4.53 
   2  -6   7   70.81    6.27 
   2  -6   7   66.96    4.44 
   2  -6   7   71.98    5.30 
   2  -6   7   81.85    6.30 
  -2   6  -7   69.07    5.14 
  -2   6  -7   69.15    6.23 
  -2   6  -7   68.59    6.65 
   1   3   8  124.34    9.12 
   1   3   8  118.28    6.56 
   1   3   8  133.10   10.08 
  -1  -3  -8  114.68    4.79 
  -1  -3  -8  123.49    6.57 
   1   3   8  121.93    4.66 
   8   3  -5   35.25    2.80 
   8   3  -5   38.60    3.21 
   8   3  -5   41.85    2.15 
   8   3  -5   33.65    3.62 
  -8  -3   5   38.11    2.70 
  -8  -3   5   33.12    2.85 
  -8  -3   5   43.46    5.34 
   6  -5  -6  443.64   20.50 
  -6   5   6  490.66   21.08 
   6  -5  -6  466.78   20.16 
  -6   5   6  436.32   10.95 
  -6   5   6  429.22   11.38 
   6  -5  -6  470.83   18.78 
  -6   5   6  461.27   15.48 
   6   1  -9  715.31   19.38 
  -6  -1   9  721.49   23.09 
  -6  -1   9  705.62   21.79 
   6   1  -9  704.72   21.97 
   6   1  -9  697.04   21.97 
  -6  -1   9  677.85   21.77 
   6   1  -9  675.29   20.13 
   0   9   1  404.27   19.81 
   0   9   1  447.41   19.27 
   0  -9  -1  413.92   19.36 
   0  -9  -1  447.27   18.85 
   0  -9  -1  398.13   17.75 
   0   9   1  436.11   18.29 
   0   9   1  438.11   17.91 
   0  -9  -1  423.52   19.01 
   4   6  -8  812.83   24.55 
  -4  -6   8  829.83   24.43 
  -4  -6   8  801.17   24.45 
  -4  -6   8  808.84   24.34 
   4   6  -8  785.54   26.66 
   4   6  -8  821.41   24.23 
   4   6  -8  814.47   26.78 
   2   7   4  539.75   17.77 
   2   7   4  558.14   25.01 
   2   7   4  541.33   18.57 
   2   7   4  581.33   24.80 
  -2  -7  -4  614.00   19.57 
  -2  -7  -4  570.26   17.93 
   2   7   4  589.73   19.19 
  -2  -7  -4  552.69   16.54 
   3   1 -10  763.11   23.86 
  -3  -1  10  770.39   25.15 
  -3  -1  10  791.88   26.37 
   3   1 -10  782.71   25.01 
   3   1 -10  804.18   21.14 
   3   1 -10  752.78   25.00 
   3   1 -10  778.16   17.70 
  -3  -1  10  761.55   25.04 
   0   8  -6  116.88    8.59 
   0   8  -6  131.15    9.88 
   0  -8   6  109.31    8.33 
   0  -8   6  108.81    8.72 
   0  -8   6   99.06    5.77 
   0   8  -6  112.60    8.41 
   0   8  -6  113.83    6.57 
   0  -8   6  112.57    5.58 
  -5  -7   0  766.23   31.75 
   5   7   0  671.29   16.87 
   5   7   0  698.83   22.20 
   5   7   0  679.18   14.37 
   5   7   0  737.85   30.02 
  -5  -7   0  717.93   17.82 
  -5  -7   0  713.07   14.76 
   7   0   3  233.83    8.36 
  -7   0  -3  215.67    5.54 
  -7   0  -3  215.06    4.03 
   7   0   3  220.85    5.51 
   7   0   3  232.84    8.28 
   7   0   3  211.34    4.00 
   7   0   3  225.45   11.19 
   4  -8   2   43.03    4.86 
   4  -8   2   39.55    6.97 
  -4   8  -2   43.99    4.65 
  -4   8  -2   52.54    7.13 
   4  -8   2   37.26    5.06 
   4  -8   2   38.28    4.22 
  -4   8  -2   56.53    7.72 
  -4   8  -2   42.22    4.75 
   6   6  -6  162.40    9.71 
   6   6  -6  155.04    6.21 
   6   6  -6  156.56    5.98 
   6   6  -6  168.48    9.33 
  -6  -6   6  171.21    6.02 
  -6  -6   6  152.94   12.13 
  -6  -6   6  164.04    6.19 
   4  -1   7  922.34   24.99 
   4  -1   7  904.61   24.98 
   4  -1   7  931.20   24.10 
  -4   1  -7  929.62   24.79 
  -4   1  -7  924.28   23.89 
  -4   1  -7  936.46   30.57 
  -2  -9   3  388.89   15.60 
   2   9  -3  372.52   14.01 
  -2  -9   3  360.32   12.84 
  -2  -9   3  389.59   14.59 
   2   9  -3  384.68   19.04 
   2   9  -3  376.29   15.73 
   2   9  -3  384.85   14.34 
  -2  -9   3  398.37   19.71 
  -1   0  -9  624.22   19.25 
   1   0   9  612.28   22.79 
   1   0   9  601.56   18.32 
   1   0   9  616.14   19.29 
  -1   0  -9  605.04   18.21 
  -1   0  -9  645.25   22.70 
   6   2   4  384.57    9.77 
   6   2   4  382.77    8.71 
   6   2   4  395.16   13.61 
   6   2   4  355.86   11.11 
   7   2  -8   56.64    3.71 
  -7  -2   8   57.36    4.52 
  -7  -2   8   57.68    6.01 
  -7  -2   8   45.03    4.62 
   7   2  -8   45.04    4.56 
   7   2  -8   59.71    4.42 
  -6   0   9  222.01   10.59 
  -6   0   9  238.42   11.04 
   6   0  -9  235.77   10.57 
   6   0  -9  226.60    7.64 
   6   0  -9  224.73    8.85 
   6   0  -9  235.53   10.73 
  -6   0   9  223.00    9.64 
   2  -9   2   15.48    5.94 
   2  -9   2   18.72    2.94 
   2  -9   2   20.64    6.11 
  -2   9  -2   24.21    6.62 
  -2   9  -2   12.48    5.73 
  -2   9  -2    7.23    4.40 
  -2   9  -2   24.21    5.48 
   2  -9   2   23.95    5.49 
  -3  -2  10  101.19    5.08 
  -3  -2  10  105.82    7.87 
  -3  -2  10  108.35    5.50 
   3   2 -10  105.82    5.43 
   3   2 -10   98.09    7.15 
   3   2 -10  104.60    5.06 
   3   2 -10  101.31    4.94 
   2   1 -10  662.24   16.53 
   2   1 -10  638.20   17.84 
   2   1 -10  625.32   21.52 
  -2  -1  10  652.91   22.01 
  -2  -1  10  658.61   21.48 
   2   1 -10  640.65   13.11 
   2   1 -10  659.64   21.24 
  -2  -1  10  631.43   18.74 
   4  -5   6   16.36    3.38 
   4  -5   6   17.40    3.97 
   4  -5   6   14.73    3.51 
  -4   5  -6   11.78    3.37 
  -4   5  -6   18.85    3.44 
   4  -5   6   13.33    2.11 
  -4   5  -6   18.84    3.87 
  -4   5  -6    9.80    3.77 
  -2  -9   1  133.43    9.40 
  -2  -9   1  125.59   11.52 
  -2  -9   1  119.75    5.96 
  -2  -9   1  121.37    5.25 
   2   9  -1  134.14   11.20 
   2   9  -1  120.01    5.32 
   2   9  -1   97.07   10.27 
   2   9  -1  129.66    8.48 
   5  -7  -4   48.27    7.03 
  -5   7   4   31.30    6.96 
  -5   7   4   43.20    2.98 
   5  -7  -4   47.73    4.97 
  -5   7   4   45.71    2.88 
  -5   7   4   42.29    4.87 
   7  -4   2  149.51    9.16 
   7  -4   2  158.06    6.76 
   7  -4   2  151.49    5.72 
  -7   4  -2  161.30    6.94 
  -7   4  -2  153.80    8.71 
   7  -4   2  154.12    4.46 
   7  -4   2  170.42   10.50 
  -7   4  -2  157.11    9.11 
   7  -2   3  110.44    7.31 
   7  -2   3  108.12    7.37 
   7  -2   3  104.70    6.49 
   7  -2   3  113.71    4.69 
   7  -2   3  107.12    3.76 
  -7   2  -3  102.39    5.81 
  -7   2  -3   99.93    3.74 
  -1  -5   9   86.29    7.30 
  -1  -5   9   77.68    7.77 
  -1  -5   9   86.00    6.75 
   1   5  -9   80.37    5.06 
   1   5  -9   86.77    7.17 
   1   5  -9   85.74    6.58 
   1   5  -9   76.63    7.02 
   5   6   2  577.34   25.18 
   5   6   2  560.77   14.07 
   5   6   2  576.33   25.57 
  -5  -6  -2  510.66    8.76 
  -5  -6  -2  498.28    8.70 
  -5   1  -6  444.86   11.02 
  -5   1  -6  444.83   16.88 
   5  -1   6  428.59   12.06 
   5  -1   6  405.17   10.05 
   5  -1   6  453.37   12.44 
  -5   1  -6  447.31   12.30 
   5  -1   6  430.16   10.98 
   4  -7  -5   34.87    6.28 
   4  -7  -5   38.43    4.93 
  -4   7   5   42.21    4.97 
  -4   7   5   29.80    5.78 
  -4   7   5   46.89    7.36 
  -4   7   5   41.87    3.91 
  -4   7   5   34.96    4.03 
   4  -7  -5   41.44    7.30 
   5  -2  -9  387.36   11.65 
  -5   2   9  382.69   13.86 
  -5   2   9  385.96   15.92 
   5  -2  -9  387.47   12.43 
   5  -2  -9  399.16   12.43 
  -5   2   9  383.82   12.49 
   5  -2  -9  379.98   16.14 
  -6   6  -2  657.49   24.50 
  -6   6  -2  647.05   22.88 
  -6   6  -2  630.18   17.42 
   6  -6   2  651.58   22.54 
  -6   6  -2  649.21   26.00 
   6  -6   2  662.09   24.97 
   6  -6   2  606.49   15.24 
   6  -6   2  633.42   25.55 
   4  -2   7  172.15    8.80 
   4  -2   7  175.03    6.89 
  -4   2  -7  175.14    6.68 
  -4   2  -7  176.45    7.30 
   4  -2   7  152.88    3.71 
   4  -2   7  175.96    7.23 
  -4   2  -7  182.52    7.07 
  -3   3   9  660.87   23.06 
   3  -3  -9  677.52   24.44 
   3  -3  -9  674.13   24.45 
  -3   3   9  699.69   24.61 
  -3   3   9  677.18   24.03 
   3  -3  -9  659.95   17.90 
   6   2  -9  118.04    5.63 
   6   2  -9  110.74    6.78 
   6   2  -9   95.93    4.46 
  -6  -2   9  115.57    6.74 
  -6  -2   9  102.80    7.24 
  -6  -2   9  102.03    6.72 
   6   2  -9   98.84    6.64 
   2   2 -10   58.49    3.53 
   2   2 -10   63.25    4.17 
   2   2 -10   57.44    6.11 
  -2  -2  10   56.12    6.33 
  -2  -2  10   59.25    4.63 
   2   2 -10   63.70    6.06 
  -2  -2  10   58.52    6.28 
   1   9  -4  603.06   26.27 
  -1  -9   4  601.92   22.53 
   1   9  -4  608.79   21.35 
   1   9  -4  606.87   22.77 
  -1  -9   4  633.01   22.15 
  -1  -9   4  604.57   20.11 
  -1  -9   4  609.42   23.33 
   1   9  -4  594.54   25.12 
   5  -5  -7   98.84    9.30 
  -5   5   7  100.28    9.18 
  -5   5   7   93.48    9.24 
   5  -5  -7   96.64    5.12 
   5  -5  -7   84.12    9.60 
  -5   5   7   91.84    4.95 
  -5   5   7   88.77    4.83 
   7   5  -1  790.82   23.88 
   7   5  -1  811.70   24.82 
  -7  -5   1  768.81   29.17 
  -6   4  -4  323.66   11.70 
   6  -4   4  322.23   10.51 
   6  -4   4  330.72   14.66 
   6  -4   4  334.05    9.90 
   6  -4   4  335.62   13.32 
  -6   4  -4  328.77   10.52 
  -6   4  -4  327.31   13.10 
  -6   4  -4  327.47   11.97 
  -2   8   4   57.13    6.11 
  -2   8   4   61.34    6.10 
  -2   8   4   69.17    7.69 
  -2   8   4   57.46    5.25 
   2  -8  -4   69.75    6.80 
   2  -8  -4   56.65    7.60 
   2  -8  -4   54.79    5.41 
  -2   8   4   53.86    6.45 
  -1   8   4   10.66    4.14 
  -1   8   4   10.69    3.65 
  -1   8   4   11.49    4.02 
   1  -8  -4    4.74    2.56 
   1  -8  -4    7.68    2.90 
  -1   8   4    8.94    2.87 
   1  -8  -4   12.34    4.25 
  -1   8   4    6.76    3.98 
  -6  -6   0   65.84    6.15 
   6   6   0   77.43    5.43 
   6   6   0   63.59    9.15 
  -2   9   1  289.45   16.81 
  -2   9   1  318.36   16.45 
   2  -9  -1  276.09   16.41 
   2  -9  -1  269.92   15.86 
   2  -9  -1  266.56   12.55 
   2  -9  -1  294.44   16.48 
  -2   9   1  286.62   12.50 
  -2   9   1  314.32   15.70 
  -2   3   9  687.50   24.13 
   2  -3  -9  655.84   18.74 
   2  -3  -9  626.32   17.03 
  -2   3   9  653.21   18.67 
  -2   3   9  657.24   18.34 
   2  -3  -9  670.60   23.34 
  -2   3   9  657.33   23.28 
   5   4  -9  632.27   20.26 
   5   4  -9  677.68   20.77 
   5   4  -9  647.62   17.58 
  -5  -4   9  650.01   20.61 
  -5  -4   9  634.47   19.28 
   5   4  -9  645.25   19.83 
  -5  -4   9  659.83   20.23 
   4   7   2    8.85    2.87 
  -4  -7  -2    5.11    2.30 
   4   7   2    7.06    2.27 
  -4  -7  -2    6.72    2.27 
   4   7   2   15.62    5.39 
  -4  -7  -2    8.15    5.34 
   4   7   2    7.65    1.75 
  -7  -4   7   16.79    2.62 
  -7  -4   7   20.76    5.12 
   7   4  -7   12.28    4.19 
   7   4  -7   16.82    2.50 
   7   4  -7   13.70    3.06 
  -7  -4   7   14.00    2.62 
   7   4  -7   14.17    2.59 
  -3   5  -7  388.15   15.67 
  -3   5  -7  343.05   13.73 
   3  -5   7  333.51   12.69 
  -3   5  -7  349.73   12.79 
   3  -5   7  332.46   11.18 
  -3   5  -7  341.58   11.31 
   3  -5   7  343.70   13.55 
   3  -5   7  345.97   13.38 
   1  -3   9  663.75   21.18 
   1  -3   9  641.08   22.96 
   1  -3   9  652.81   17.07 
  -1   3  -9  655.23   20.82 
  -1   3  -9  572.29   15.49 
  -1   3  -9  652.88   16.88 
  -1   3  -9  647.69   18.91 
   5  -6   4   21.98    5.38 
  -5   6  -4   27.33    4.57 
   5  -6   4   24.72    3.76 
   5  -6   4   30.81    3.09 
  -5   6  -4   22.82    5.86 
  -5   6  -4   20.82    5.43 
   5  -6   4   32.69    4.41 
  -5   6  -4   21.52    3.87 
   0   9  -4  506.34   17.19 
   0   9  -4  531.15   24.23 
   0   9  -4  527.95   21.36 
   0  -9   4  510.02   20.82 
   0  -9   4  553.00   21.08 
   0  -9   4  504.10   21.87 
   0  -9   4  542.96   21.68 
   0   9  -4  533.00   20.78 
   7  -4  -6  574.61   21.66 
  -7   4   6  580.14   22.69 
  -7   4   6  588.98   24.04 
   7  -4  -6  593.23   23.72 
   7  -4  -6  601.37   22.67 
   5  -2   6   39.50    3.32 
   5  -2   6   44.40    3.87 
   5  -2   6   42.27    3.29 
   5  -2   6   47.59    4.62 
  -5   2  -6   40.88    3.31 
  -5   2  -6   48.18    5.20 
  -5   2  -6   29.05    3.91 
  -3   0  10  128.03    8.57 
   3   0 -10  124.54    5.17 
   3   0 -10  138.66    8.43 
  -3   0  10  115.24    8.15 
  -3   0  10  125.36    8.49 
   3   0 -10  123.35    4.36 
   3   0 -10  123.77    4.07 
   3   0 -10  124.20    8.08 
   4   7  -7   90.93    5.98 
   4   7  -7  102.54    8.66 
  -4  -7   7   86.68    6.12 
  -4  -7   7   97.86    6.20 
  -4  -7   7   99.79    9.35 
   4   7  -7  101.08    8.02 
   4   7  -7   79.25    6.07 
   7  -1  -8   74.81    6.45 
  -7   1   8   84.41    4.97 
   7  -1  -8   95.09    6.18 
  -7   1   8   88.50    6.91 
  -7   1   8   82.03    6.43 
   7  -1  -8   82.74    6.76 
   7  -1  -8   83.55    3.36 
   0   4   8  178.54   12.47 
   0   4   8  203.37   11.23 
   0   4   8  209.93    7.21 
   0   4   8  211.58    7.05 
   0  -4  -8  194.31    7.21 
   0  -4  -8  207.14    7.27 
   8  -3   0   83.08    5.19 
   8  -3   0   91.12    5.99 
  -8   3   0   88.37    6.01 
   8  -3   0   82.13    4.75 
  -8   3   0   89.38    4.82 
  -2  -2  -8  197.71    5.98 
  -2  -2  -8  197.94    7.69 
   2   2   8  203.18    8.13 
   2   2   8  205.40    7.74 
   2   2   8  212.76   12.59 
   2   2   8  200.58   11.42 
   8   2   0  217.83    8.17 
   8   2   0  198.74    8.66 
   8   2   0  216.95   10.30 
   5   7  -6  415.77   13.23 
   5   7  -6  429.40   17.50 
   5   7  -6  431.22   14.20 
   5   7  -6  427.71   13.02 
  -5  -7   6  410.92   12.70 
  -5  -7   6  421.46   19.80 
  -5  -7   6  410.57   12.90 
   4   0   7  137.65    5.72 
   4   0   7  123.51    5.92 
   4   0   7  132.00    5.14 
  -4   0  -7  137.71    9.39 
  -4   0  -7  130.49    5.13 
  -4   0  -7  128.97    5.51 
   2  -8   5  100.36    8.15 
  -2   8  -5  100.57    8.31 
  -2   8  -5   98.59   10.21 
   2  -8   5   90.52    5.77 
   2  -8   5   92.05    7.03 
   2  -8   5   97.07    8.57 
  -2   8  -5   92.97    5.48 
  -2   8  -5   84.24    8.49 
   7  -5   1  273.26    7.04 
  -7   5  -1  329.16   12.53 
  -7   5  -1  308.55   14.46 
   7  -5   1  316.07   12.16 
  -7   5  -1  309.48   14.51 
   7  -5   1  311.19   15.04 
   7  -5   1  307.14   14.32 
   7  -5   1  275.60    6.24 
  -2  -4  -7  453.09   14.17 
   2   4   7  458.38   13.96 
   2   4   7  449.61   14.02 
   2   4   7  458.36   20.85 
  -2  -4  -7  472.90   14.15 
   2   4   7  445.57   19.73 
  -6   3   8  607.27   22.98 
  -6   3   8  574.46   18.90 
   6  -3  -8  614.95   22.88 
   6  -3  -8  612.10   22.91 
   6  -3  -8  601.72   19.53 
  -6   3   8  553.04   14.44 
  -6   3   8  600.29   22.71 
   0  -2  -9   14.49    4.73 
   0   2   9   20.99    3.79 
   0   2   9   17.44    5.39 
   0   2   9   20.89    4.02 
   0  -2  -9   18.36    3.76 
   0  -2  -9   20.72    3.92 
   3   8  -6  503.82   17.30 
  -3  -8   6  514.32   18.99 
  -3  -8   6  497.60   17.61 
  -3  -8   6  500.47   22.65 
   3   8  -6  502.64   17.60 
   3   8  -6  490.40   15.99 
   3   8  -6  517.36   13.94 
  -3  -8   6  500.18   13.87 
   4   1 -10  537.59   19.42 
   4   1 -10  557.85   17.51 
   4   1 -10  549.95   13.84 
   4   1 -10  539.91   18.26 
   4   1 -10  542.76   14.64 
  -4  -1  10  539.01   19.16 
  -4  -1  10  525.48   15.75 
  -4  -1  10  538.52   18.89 
  -7   3   7  449.07   10.09 
  -7   3   7  518.98   19.58 
  -7   3   7  511.93   16.71 
   7  -3  -7  539.63   16.13 
   7  -3  -7  512.36   15.95 
   7  -3  -7  532.53   18.36 
  -7   3   7  466.64    9.13 
   8  -1   1   13.74    3.68 
  -8   1  -1   14.55    1.13 
  -8   1  -1   15.26    1.42 
   8  -1   1    6.66    1.44 
   8  -1   1   13.30    3.45 
   8  -1   1    8.44    1.70 
   8  -1   1   11.98    1.13 
   8  -3  -5   10.47    3.74 
  -8   3   5    3.90    2.48 
   8  -3  -5    7.82    3.11 
   8  -3  -5    5.17    2.37 
  -8   3   5    4.07    3.15 
   5   0   6  751.71   21.16 
  -5   0  -6  745.68   17.20 
  -5   0  -6  793.61   19.00 
   5   0   6  765.48   18.73 
   5   0   6  698.15   12.71 
   5   0   6  691.22   14.30 
   5   0   6  759.32   24.10 
   5   0   6  745.55   17.38 
   4   8  -5  205.98   13.69 
   4   8  -5  203.69    8.32 
  -4  -8   5  207.55    9.15 
   4   8  -5  203.26   11.99 
   4   8  -5  215.99    9.11 
  -4  -8   5  205.82    9.99 
  -4  -8   5  204.76    8.29 
  -2   0  10  193.72    7.68 
   2   0 -10  202.69    9.85 
  -2   0  10  209.70   10.21 
  -2   0  10  200.23   11.07 
   2   0 -10  204.38    5.07 
   2   0 -10  212.65    7.60 
   2   0 -10  207.19   10.17 
   2   0 -10  199.52    5.59 
  -1  -6  -6  431.72   14.76 
  -1  -6  -6  384.46    9.92 
   1   6   6  365.09   10.62 
   1   6   6  410.44   14.40 
   1   6   6  411.85   14.89 
  -1  -6  -6  380.99   14.89 
   1   6   6  389.74   14.28 
   1   6   6  381.38   14.77 
  -3   8  -4  475.36   17.86 
  -3   8  -4  462.05   15.98 
  -3   8  -4  462.56   21.54 
   3  -8   4  488.36   16.46 
   3  -8   4  477.18   16.56 
   3  -8   4  485.85   19.66 
   3  -8   4  472.18   16.56 
  -3   8  -4  464.13   19.63 
   8  -2  -6   73.52    6.92 
   8  -2  -6   76.32    6.71 
  -8   2   6   65.30    6.94 
  -8   2   6   65.89    5.69 
   8  -2  -6   69.75    3.86 
  -4  -3  -6  708.20   17.27 
  -4  -3  -6  711.96   16.67 
   4   3   6  707.62   16.73 
   4   3   6  724.82   26.75 
   4   3   6  700.37   26.59 
   4   3   6  689.69   17.26 
   8   0   1  520.12   16.21 
   8   0   1  539.41   13.53 
   8   0   1  523.41   17.60 
   8   3  -1  209.92    8.88 
   8   3  -1  201.53    6.64 
   8   3  -1  196.49    9.38 
   8   3  -1  198.95   10.08 
  -4   8   3   37.90    7.24 
  -4   8   3   38.85    4.68 
  -4   8   3   33.56    3.74 
  -4   8   3   36.52    3.66 
  -4   8   3   22.71    6.30 
   4  -8  -3   35.40    4.49 
   4  -8  -3   46.07    7.35 
   4  -8  -3   29.34    6.63 
  -1   7  -7  437.38   17.11 
  -1   7  -7  440.68   14.26 
  -1   7  -7  465.23   18.65 
  -1   7  -7  477.74   20.42 
   1  -7   7  450.22   17.47 
   1  -7   7  457.56   16.13 
   1  -7   7  449.25   17.45 
   1  -7   7  493.16   18.32 
  -4  -2  10  221.91   11.16 
  -4  -2  10  206.95   10.77 
   4   2 -10  219.74    7.97 
   4   2 -10  225.15    9.83 
   4   2 -10  217.74   10.14 
  -4  -2  10  206.12    7.76 
   4   2 -10  212.04    7.87 
  -4  -5   9   -0.37    2.99 
  -4  -5   9   -0.79    1.53 
   4   5  -9   -0.14    2.29 
   4   5  -9    2.69    2.62 
   4   5  -9    3.49    1.48 
  -4  -5   9    2.61    2.44 
   4   5  -9   -2.21    2.47 
  -5   4   8  237.97   13.89 
  -5   4   8  231.92    9.19 
  -5   4   8  254.75   14.10 
   5  -4  -8  250.23   14.05 
   5  -4  -8  263.34   14.14 
  -5   4   8  226.32    8.23 
   5  -4  -8  236.09   10.35 
   8  -4  -2  600.57   22.07 
   8  -4  -2  645.36   24.12 
  -8   4   2  634.32   19.06 
  -5   6   6    1.74    4.09 
   5  -6  -6    1.31    3.92 
   5  -6  -6    3.84    4.05 
  -5   6   6    1.60    3.20 
  -5   6   6    3.92    1.69 
   5  -6  -6    1.57    2.15 
  -5   6   6    1.87    1.77 
  -5   6   6    5.89    4.17 
  -5   5  -5  394.56   14.12 
  -5   5  -5  362.16   13.71 
   5  -5   5  367.01   14.56 
   5  -5   5  364.48   12.73 
   5  -5   5  352.03   11.68 
  -5   5  -5  366.62   14.42 
  -5   5  -5  361.21   12.80 
   5  -5   5  379.69   16.03 
  -1  -9  -1  585.61   22.03 
  -1  -9  -1  528.39   20.30 
   1   9   1  588.10   22.52 
   1   9   1  603.28   24.89 
   1   9   1  542.57   18.79 
  -1  -9  -1  580.81   18.74 
  -1  -9  -1  587.91   24.69 
   1   9   1  552.26   19.82 
   7   1   3  187.97    7.02 
   7   1   3  191.07    8.02 
   7   1   3  191.93   11.41 
   3  -1   8  379.63   11.65 
  -3   1  -8  369.01    9.85 
  -3   1  -8  373.50   12.37 
  -3   1  -8  371.52   11.55 
   3  -1   8  367.54    9.96 
   3  -1   8  376.56   15.48 
   6  -7  -1  362.69   17.75 
   6  -7  -1  357.13   19.20 
  -6   7   1  376.14   18.50 
  -6   7   1  333.77   13.47 
   6  -7  -1  360.07   18.50 
  -6   7   1  377.77   18.28 
   4  -3  -9  592.34   17.20 
   4  -3  -9  602.27   18.37 
   4  -3  -9  603.26   22.81 
  -4   3   9  611.38   18.34 
  -4   3   9  589.60   20.41 
  -4   3   9  615.43   23.36 
   8  -4  -3  256.95   12.90 
  -8   4   3  246.16   12.93 
   8  -4  -3  238.68    8.99 
  -8   4   3  259.81   11.81 
   8  -4  -3  256.54   13.99 
  -7  -5   6  949.63   36.86 
   7   5  -6  957.39   23.73 
   7   5  -6  954.52   26.49 
   7   5  -6  928.58   23.37 
   7   5  -6  916.20   28.46 
  -7  -5   6  956.43   23.66 
  -7  -5   6  957.18   23.72 
  -3  -3  10  169.77    7.12 
   3   3 -10  176.65    9.44 
  -3  -3  10  174.88   10.73 
  -3  -3  10  166.45    9.36 
   3   3 -10  182.86    7.31 
   3   3 -10  182.79    9.76 
   3   3 -10  180.61    7.22 
  -2  -9   4  807.49   29.09 
   2   9  -4  811.57   26.28 
   2   9  -4  808.69   27.81 
   2   9  -4  795.83   26.55 
   2   9  -4  824.84   32.00 
  -2  -9   4  780.14   31.72 
  -2  -9   4  782.05   27.29 
  -2  -9   4  798.77   26.08 
   5   3   5  530.98   11.77 
   5   3   5  557.08   14.03 
   5   3   5  547.24   12.50 
   5   3   5  599.81   18.08 
   5   3   5  579.26   24.20 
  -5  -3  -5  593.55   14.04 
  -5  -3  -5  556.05   11.96 
   5   3   5  540.41   11.86 
  -4   0  10   68.50    6.58 
  -4   0  10   70.35    4.85 
   4   0 -10   72.91    4.00 
   4   0 -10   79.17    3.75 
   4   0 -10   84.84    7.09 
  -4   0  10   76.75    7.23 
   4   0 -10   77.26    4.79 
   4   0 -10   76.17    5.51 
  -6   1   9   84.14    6.83 
   6  -1  -9   73.89    4.66 
   6  -1  -9   74.67    3.96 
   6  -1  -9   75.87    6.91 
   6  -1  -9   65.18    5.15 
  -6   1   9   76.76    5.52 
  -6   1   9   78.11    4.76 
  -3   2  -8  468.82   15.19 
  -3   2  -8  474.07   17.98 
   3  -2   8  486.90   15.15 
   3  -2   8  477.83   14.34 
   3  -2   8  455.68   17.19 
  -3   2  -8  455.45   14.32 
  -4   3  -7  226.17   10.83 
   4  -3   7  209.53    7.39 
  -4   3  -7  202.55    8.08 
  -4   3  -7  205.44    6.56 
   4  -3   7  197.10    7.09 
   4  -3   7  207.56    6.55 
  -4   3  -7  183.80    6.23 
   4  -3   7  218.50    8.06 
  -2  -3  10  212.56   11.53 
  -2  -3  10  205.94    7.68 
  -2  -3  10  221.43   11.14 
   2   3 -10  223.17   11.06 
   2   3 -10  228.39   11.31 
   2   3 -10  219.08    8.14 
   2   3 -10  212.63    7.73 
   7   4   1  330.75   12.51 
   7   4   1  343.71   14.64 
   7   4   1  320.69   10.21 
  -4  -8   0   14.14    6.67 
   4   8   0   14.58    6.22 
   4   8   0   10.53    3.01 
   4   8   0   14.45    3.05 
   4   8   0   20.18    2.74 
  -4  -8   0   13.22    2.91 
  -4  -8   0   12.83    3.09 
  -6   6   5  163.96    8.51 
  -6   6   5  158.67    7.50 
  -6   6   5  146.62    8.73 
   6  -6  -5  152.30    8.65 
   6  -6  -5  151.17    7.84 
   6  -6  -5  161.75    8.38 
  -2  -9   0  552.99   19.71 
  -2  -9   0  539.81   18.64 
   2   9   0  546.66   19.03 
   2   9   0  581.68   20.95 
  -2  -9   0  567.67   21.78 
   2   9   0  572.45   19.25 
   2   9   0  517.89   22.31 
  -2  -9   0  568.97   20.73 
  -3   8   4  133.15    6.97 
   3  -8  -4  143.53   11.38 
   3  -8  -4  144.38   10.87 
  -3   8   4  145.04    7.79 
  -3   8   4  133.74   11.82 
  -3   8   4  147.60    7.58 
   1   1 -10  510.25   18.15 
   1   1 -10  507.85   17.40 
   1   1 -10  515.61   18.41 
  -1  -1  10  510.08   18.32 
  -1  -1  10  487.33   17.15 
  -1  -1  10  478.73   19.37 
   0   8   4    0.44    3.31 
   0   8   4    3.25    2.36 
   0   8   4    5.34    3.59 
   0   8   4    2.07    2.10 
   0   8   4    1.69    2.94 
   0  -8  -4    3.37    2.08 
   0  -8  -4    0.88    3.13 
   0  -8  -4    2.87    3.24 
   6  -7  -2  686.67   28.11 
  -6   7   2  621.80   21.85 
   6  -7  -2  606.41   27.46 
   6  -7  -2  712.39   27.49 
  -6   7   2  707.48   27.89 
  -6   7   2  670.69   27.91 
   8   0  -7  476.65   14.63 
  -8   0   7  480.97   15.03 
   8   0  -7  502.98   16.57 
  -8   0   7  471.86   14.39 
  -8   0   7  488.56   16.43 
   8   0  -7  516.04   17.79 
   8   0  -7  458.04   10.07 
   8   1  -7   79.00    6.55 
  -8  -1   7   67.01    5.07 
  -8  -1   7   72.05    4.51 
  -8  -1   7   76.62    5.38 
   8   1  -7   68.15    4.47 
   8   1  -7   66.44    3.82 
   8   1  -7   69.37    5.53 
   8  -2   1  458.83   11.94 
  -8   2  -1  491.36   15.67 
   8  -2   1  507.98   15.76 
   8  -2   1  487.01   10.47 
  -8   2  -1  454.62   12.12 
   8  -2   1  484.43   17.50 
   8  -2   1  479.36   15.04 
   1   7   5  233.45   10.98 
  -1  -7  -5  213.55    8.66 
   1   7   5  250.51   10.47 
  -1  -7  -5  248.32   11.30 
  -1  -7  -5  221.87   11.03 
   1   7   5  235.48    8.39 
   1   7   5  247.96   14.62 
   1   7   5  211.71    9.55 
   8   3  -6  268.62    7.37 
   8   3  -6  265.61    8.73 
  -8  -3   6  262.68   13.31 
  -8  -3   6  268.61    7.43 
   8   3  -6  250.14    9.23 
  -2   6   7   50.07    4.83 
  -2   6   7   60.24    6.39 
   2  -6  -7   59.62    4.74 
   2  -6  -7   51.06    5.14 
   2  -6  -7   51.33    5.02 
  -2   6   7   60.69    4.83 
  -2   6   7   59.35    6.36 
  -2   6   7   40.57    5.70 
   7   3   2  555.47   15.08 
   7   3   2  560.89   23.24 
   7   3   2  568.13   19.38 
   7   3   2  569.88   15.64 
   1   5   7  508.20   16.55 
  -1  -5  -7  493.83   13.56 
  -1  -5  -7  480.43   16.66 
   1   5   7  481.35   16.97 
   1   5   7  450.80   16.01 
   1   5   7  465.31   15.92 
   1   2 -10   10.29    3.58 
  -1  -2  10    8.53    4.10 
  -1  -2  10   10.84    3.72 
   1   2 -10    5.51    4.01 
  -1  -2  10   14.12    3.57 
   1   2 -10    9.76    3.53 
   1   2 -10    3.83    2.47 
   1  -9  -2    5.28    3.54 
  -1   9   2    2.30    3.68 
  -1   9   2    1.74    3.54 
   1  -9  -2    2.11    3.70 
  -1   9   2    3.56    3.23 
  -1   9   2    0.38    2.38 
   1  -9  -2    2.09    3.71 
   1  -9  -2    4.26    3.27 
   7  -3   3  134.97    5.20 
   7  -3   3  146.68    5.33 
  -7   3  -3  134.72    5.19 
  -7   3  -3  140.96    7.57 
   7  -3   3  144.29    6.91 
   7  -3   3  146.71    7.81 
   7  -3   3  140.13    9.12 
   1   1   9  340.85   11.70 
   1   1   9  359.08   12.70 
   1   1   9  331.25   11.71 
  -1  -1  -9  351.70   15.82 
  -1  -1  -9  346.21   12.65 
  -1  -1  -9  334.37   11.86 
  -7  -3   8  765.68   27.53 
  -7  -3   8  731.98   21.09 
   7   3  -8  749.29   21.39 
   7   3  -8  764.47   24.26 
   7   3  -8  765.16   21.53 
   7   3  -8  718.29   21.06 
  -7  -3   8  729.93   21.36 
   1  -3  -9  510.63   17.99 
   1  -3  -9  486.72   14.68 
  -1   3   9  478.33   20.89 
  -1   3   9  502.82   18.72 
  -1   3   9  512.12   18.04 
  -1   3   9  498.31   14.66 
   5  -3   6  672.58   20.54 
   5  -3   6  679.13   20.81 
  -5   3  -6  676.66   22.59 
  -5   3  -6  662.68   18.32 
   5  -3   6  676.97   18.52 
   5  -3   6  624.47   18.66 
  -5   3  -6  675.14   20.38 
  -7   5   5  382.61   18.52 
   7  -5  -5  421.74   18.89 
   7  -5  -5  389.84   18.53 
  -7   5   5  390.20   18.73 
   7  -5  -5  374.89   18.08 
  -6  -3   9  399.32   13.87 
   6   3  -9  384.27   13.04 
  -6  -3   9  380.28   15.59 
   6   3  -9  403.63   14.03 
   6   3  -9  374.91   10.97 
  -6  -3   9  403.03   14.11 
   6   3  -9  403.70   13.84 
   6   4   3  312.48    8.83 
   6   4   3  334.31   15.68 
   6   4   3  299.49   16.99 
   2  -9   3   31.88    4.51 
  -2   9  -3   33.46    6.60 
   2  -9   3   30.89    5.18 
  -2   9  -3   18.06    5.46 
  -2   9  -3   32.79    7.71 
  -2   9  -3   24.21    4.52 
   2  -9   3   35.57    6.65 
   2  -9   3   39.96    7.17 
   3  -9   0  443.86   21.49 
   3  -9   0  455.83   16.16 
   3  -9   0  449.14   16.15 
   3  -9   0  460.31   22.24 
  -3   9   0  426.71   16.01 
  -3   9   0  448.38   22.39 
  -3   9   0  441.12   21.85 
  -3   9   0  439.91   16.06 
   6  -1   5   20.18    3.04 
  -6   1  -5   16.36    1.80 
   6  -1   5   13.78    3.34 
   6  -1   5   17.72    1.83 
   6  -1   5   15.55    2.39 
  -6   1  -5   13.30    2.42 
   6  -1   5   -0.87    3.22 
   3   3   7  133.24    5.63 
   3   3   7  137.23   10.24 
   3   3   7  137.14    5.80 
  -3  -3  -7  118.64    5.63 
  -3  -3  -7  140.01    5.83 
   3   3   7  126.05   10.84 
   6  -7   0   57.63    7.26 
   6  -7   0   73.42    8.21 
   6  -7   0   52.68    5.46 
   6  -7   0   51.66    3.36 
  -6   7   0   58.79    8.03 
  -6   7   0   73.05    7.59 
  -6   7   0   45.34    3.25 
  -6   7   0   44.75    8.18 
   8  -4  -1  714.20   23.97 
  -8   4   1  701.16   23.94 
  -8   4   1  731.49   24.73 
   8  -4  -1  731.23   27.45 
   8  -4  -1  718.13   24.57 
   1  -9   4  605.18   19.74 
  -1   9  -4  595.54   20.04 
  -1   9  -4  581.90   23.72 
   1  -9   4  593.72   20.16 
  -1   9  -4  563.50   23.84 
  -1   9  -4  587.57   21.56 
   1  -9   4  583.80   22.30 
   1  -9   4  590.50   23.86 
   8   4  -4  694.40   13.54 
   8   4  -4  688.57   15.62 
   8   4  -4  741.65   21.68 
   8   4  -4  724.11   23.73 
  -8  -4   4  747.20   16.35 
  -8  -4   4  712.33   13.83 
  -8  -4   4  729.95   27.36 
  -8  -4   3  346.40   15.24 
   8   4  -3  343.43   12.89 
   8   4  -3  352.23   10.57 
   6   5   2  442.87   22.45 
   6   5   2  458.68   16.30 
   6   5   2  461.58   13.44 
  -5   7  -3  309.52   15.10 
  -5   7  -3  306.70   16.57 
   5  -7   3  340.71   16.93 
  -5   7  -3  333.19   12.37 
   5  -7   3  329.39   17.21 
   5  -7   3  313.58   10.03 
   5  -7   3  341.48   15.12 
  -5   7  -3  320.76   16.78 
   3  -6  -7   62.44    8.12 
  -3   6   7   54.14    7.79 
  -3   6   7   58.34    7.88 
  -3   6   7   50.51    5.12 
  -3   6   7   53.01    5.52 
  -3   6   7   59.65    5.81 
   3  -6  -7   54.59    7.77 
   3  -6  -7   55.46    5.59 
  -1   8  -6  136.27   10.71 
  -1   8  -6  154.48    7.01 
  -1   8  -6  133.73    9.99 
   1  -8   6  141.55    9.27 
   1  -8   6  142.32   10.22 
   1  -8   6  126.24    9.26 
   1  -8   6  138.39    7.09 
  -1   8  -6  156.67   11.75 
  -3   0  -8   22.03    3.14 
  -3   0  -8   23.71    5.40 
  -3   0  -8   31.49    3.38 
   3   0   8   16.42    3.17 
   3   0   8   27.42    5.24 
   3   0   8   31.17    3.35 
   8   1   1  464.61   14.32 
   8   1   1  454.73   12.91 
   8   1   1  459.59   17.31 
  -3   9  -1  330.25   17.92 
  -3   9  -1  344.56   17.52 
  -3   9  -1  283.71   12.81 
   3  -9   1  321.47   13.44 
   3  -9   1  314.17   17.29 
   3  -9   1  317.48   13.63 
  -3   9  -1  333.52   18.59 
   3  -9   1  309.09   12.90 
  -3   1  10  202.13   10.73 
   3  -1 -10  184.19    5.62 
   3  -1 -10  188.97    9.05 
   3  -1 -10  193.95    6.38 
   3  -1 -10  191.09    7.59 
   3  -1 -10  196.47   10.68 
  -3   1  10  194.66    7.82 
  -3   1  10  190.65   10.76 
   6   7  -3   65.94    4.84 
   6   7  -3   67.62    3.52 
  -6  -7   3   83.11   10.49 
   6   7  -3   82.04    8.58 
  -6  -7   3   68.99    4.85 
  -6  -7   3   66.54    3.45 
   6   7  -3   74.02    6.92 
   1  -6   8  246.80   12.29 
  -1   6  -8  250.69   13.46 
  -1   6  -8  255.93   12.39 
  -1   6  -8  258.42   11.76 
  -1   6  -8  247.04   12.20 
   1  -6   8  257.26   11.61 
   1  -6   8  254.96   12.41 
   1  -6   8  247.82    9.23 
   6  -2   5  693.93   19.43 
  -6   2  -5  694.15   19.39 
  -6   2  -5  686.11   22.63 
  -6   2  -5  680.07   16.82 
   6  -2   5  689.17   16.95 
   6  -2   5  620.87   20.34 
   6  -2   5  683.10   20.17 
  -7   6   2  221.69   13.35 
   7  -6  -2  199.91   14.00 
   7  -6  -2  228.61   13.38 
  -7   6   2  222.24   13.40 
  -7   6   2  212.21   10.28 
   7  -6  -2  213.37   13.25 
   0   5  -9  250.13   12.23 
   0   5  -9  249.71   13.08 
   0  -5   9  281.16   12.06 
   0  -5   9  266.58   12.42 
   0  -5   9  265.85   13.60 
   0   5  -9  262.80   11.93 
   0   5  -9  270.30   12.62 
  -2   5  -8  701.05   28.28 
  -2   5  -8  680.04   21.66 
  -2   5  -8  644.34   19.79 
  -2   5  -8  685.08   22.81 
   2  -5   8  682.69   22.62 
   2  -5   8  666.80   21.18 
   2  -5   8  621.54   17.58 
   2  -5   8  679.38   19.31 
   2  -9  -2    8.76    3.92 
  -2   9   2    5.93    2.97 
   2  -9  -2    0.98    4.06 
   2  -9  -2    6.76    2.95 
  -2   9   2   -0.56    2.57 
   2  -9  -2    1.12    2.61 
  -2   9   2    3.91    4.01 
  -2   9   2    2.49    4.11 
   0   9   2   45.09    4.03 
   0  -9  -2   33.80    4.24 
   0  -9  -2   29.31    6.41 
   0   9   2   37.14    6.51 
   0   9   2   26.17    6.41 
   0   9   2   33.47    3.75 
   0  -9  -2   31.50    3.79 
   0  -9  -2   36.87    6.39 
   8  -4  -4   21.38    5.80 
   8  -4  -4   29.26    5.21 
  -8   4   4   26.12    5.05 
   8  -4  -4   28.25    5.72 
  -8   4   4   30.02    5.90 
  -4  -3  10  133.42    9.53 
   4   3 -10  134.37    4.94 
  -4  -3  10  142.27    8.84 
   4   3 -10  128.80    8.09 
   4   3 -10  140.34    5.92 
   4   3 -10  140.01    8.77 
  -4  -3  10  137.27    6.11 
   4   1   7  264.72   13.12 
   4   1   7  256.39   13.12 
   4   1   7  245.68    7.38 
  -4  -1  -7  252.11    7.75 
  -4  -1  -7  245.64    7.39 
   4   1   7  239.19    7.87 
   1   0 -10  465.67   13.61 
   1   0 -10  461.85   16.11 
   1   0 -10  441.34   17.01 
  -1   0  10  441.49   18.50 
  -1   0  10  467.77   13.55 
  -1   0  10  445.37   16.28 
   2   7  -8    7.70    3.64 
  -2  -7   8    2.07    1.79 
  -2  -7   8    3.14    2.58 
  -2  -7   8   10.48    3.22 
   2   7  -8    6.98    3.86 
  -2  -7   8    3.59    2.08 
   2   7  -8    4.04    3.30 
   2   7  -8    4.69    2.04 
  -7   6   1    1.11    3.92 
   7  -6  -1    6.18    3.86 
   7  -6  -1    2.01    2.68 
   7  -6  -1    0.27    4.43 
  -7   6   1   11.01    4.52 
  -7   6   1    5.01    2.65 
  -5   8   1  560.45   25.49 
   5  -8  -1  625.16   21.58 
   5  -8  -1  627.30   27.49 
  -5   8   1  604.52   26.53 
  -5   8   1  529.95   17.65 
  -5   8   1  626.74   22.16 
   5  -8  -1  595.29   16.04 
   5  -8  -1  622.01   26.01 
   6   0   5  490.79   11.89 
   6   0   5  446.17   13.53 
   6   0   5  470.06   13.43 
   6   0   5  472.67   10.33 
  -6   0  -5  501.40   10.53 
  -6   0  -5  486.83   11.87 
   5   1   6  154.49    9.74 
   5   1   6  130.61    5.29 
  -5  -1  -6  138.52    4.66 
   5   1   6  152.90    6.37 
  -5  -1  -6  133.32    5.28 
   5   1   6  133.51    4.74 
   2  -5  -8   -0.24    1.99 
  -2   5   8    5.98    3.28 
  -2   5   8    4.63    2.24 
   2  -5  -8    1.84    2.16 
  -2   5   8    1.65    3.48 
   2  -5  -8    1.68    2.26 
  -2   5   8    3.95    2.89 
  -4   8  -3  568.13   19.79 
  -4   8  -3  557.41   23.10 
  -4   8  -3  570.36   25.98 
   4  -8   3  563.02   23.12 
   4  -8   3  558.75   24.88 
  -4   8  -3  569.81   24.49 
   4  -8   3  578.08   24.80 
   4  -8   3  528.16   17.54 
  -2   7   6  123.50    7.74 
   2  -7  -6  137.03    8.27 
  -2   7   6  132.72    7.22 
  -2   7   6  121.17    8.96 
   2  -7  -6  126.11   10.48 
   2  -7  -6  132.54    7.54 
  -2   7   6  132.16   10.03 
  -2   7   6  130.28    8.88 
   6   7  -4  691.56   20.23 
  -6  -7   4  716.84   30.93 
  -6  -7   4  670.35   15.71 
   6   7  -4  657.38   25.11 
   6   7  -4  664.47   17.69 
  -6  -7   4  672.02   17.19 
   6   7  -4  641.36   15.87 
  -3  -9   2   90.93    8.64 
   3   9  -2   78.60    6.09 
   3   9  -2   89.81    9.52 
  -3  -9   2   96.71    7.20 
  -3  -9   2  100.90   11.58 
   3   9  -2   94.11   10.40 
  -3  -9   2   97.37    6.07 
   3   9  -2   97.00    7.08 
  -3   9   1  128.24   11.30 
  -3   9   1  125.43    7.46 
  -3   9   1  136.22   11.81 
  -3   9   1  127.02   11.38 
   3  -9  -1  118.62    7.76 
   3  -9  -1  139.21   11.53 
   3  -9  -1  130.25    7.54 
   3  -9  -1  137.11   11.85 
  -3   5   8    0.28    2.71 
   3  -5  -8    4.21    3.68 
   3  -5  -8    2.82    3.79 
  -3   5   8   -2.63    3.76 
  -3   5   8    5.86    3.00 
   3  -5  -8    2.83    2.39 
  -3   5   8    8.91    3.82 
   5  -8   0  616.00   16.96 
   5  -8   0  642.41   27.12 
  -5   8   0  615.05   20.36 
   5  -8   0  576.10   19.77 
   5  -8   0  631.47   21.49 
  -5   8   0  545.01   16.51 
  -5   8   0  631.87   27.31 
  -5   8   0  547.98   25.37 
   1  -4   9  103.02    7.27 
  -1   4  -9   95.81    6.29 
   1  -4   9   88.25    8.36 
  -1   4  -9   99.79    7.30 
  -1   4  -9  112.47    8.69 
   1  -4   9  117.15    7.91 
  -1   4  -9  116.89    7.72 
  -3   3  -8  145.52    7.21 
  -3   3  -8  163.09    9.49 
   3  -3   8  137.56    7.76 
   3  -3   8  148.60    8.94 
   3  -3   8  148.30    7.04 
   3  -3   8  124.18    3.89 
  -3   3  -8  148.45    7.69 
  -8   1   7  210.76   10.57 
   8  -1  -7  209.81   10.57 
  -8   1   7  198.20    6.62 
  -8   1   7  185.33    5.76 
   8  -1  -7  180.16    4.06 
   8  -1  -7  213.88    6.63 
  -3  -9   3  398.62   20.34 
  -3  -9   3  371.43   14.75 
   3   9  -3  384.97   18.78 
   3   9  -3  391.83   20.00 
   3   9  -3  361.30   10.49 
   3   9  -3  382.50   15.02 
  -3  -9   3  357.37   10.56 
  -3  -9   3  382.44   17.00 
  -1   6   7    3.31    3.48 
   1  -6  -7    5.39    2.85 
   1  -6  -7    0.12    3.50 
   1  -6  -7    1.39    3.43 
  -1   6   7    2.27    3.42 
  -1   6   7   -0.78    3.45 
  -1   6   7    5.23    3.52 
  -1   6   7    3.44    2.44 
  -2   1  10   29.38    4.99 
  -2   1  10   30.92    4.61 
   2  -1 -10   22.25    4.55 
   2  -1 -10   23.62    5.00 
  -2   1  10   18.85    3.34 
   2  -1 -10   20.11    4.74 
   8   2  -7  382.75   10.73 
   8   2  -7  394.15   11.59 
  -8  -2   7  384.50   11.58 
  -8  -2   7  413.00   13.09 
  -8  -2   7  386.74   15.32 
   8   2  -7  418.75   13.26 
   8   2  -7  411.51   15.44 
   6   5  -8   75.81    5.37 
   6   5  -8   84.72    6.44 
   6   5  -8   84.82    5.34 
  -6  -5   8   86.35    3.83 
  -6  -5   8   76.21    5.44 
  -6  -5   8   89.50    8.87 
   6   5  -8   87.61    7.42 
   2   8   3  458.09   17.96 
  -2  -8  -3  450.23   16.51 
   2   8   3  510.53   17.19 
   2   8   3  474.26   17.83 
  -2  -8  -3  448.73   16.66 
  -2  -8  -3  496.41   16.87 
   2   8   3  436.25   16.80 
  -7   2   8  223.47    8.63 
   7  -2  -8  207.24    8.33 
   7  -2  -8  196.11    5.48 
   7  -2  -8  210.32   11.00 
  -7   2   8  207.69   11.09 
  -7   2   8  208.10    7.50 
   7  -2  -8  208.73    9.91 
  -3  -8  -2  877.68   28.04 
   3   8   2  809.63   29.10 
   3   8   2  875.28   26.15 
  -3  -8  -2  870.73   26.21 
  -3  -8  -2  975.55   31.79 
   3   8   2  955.50   38.03 
  -3  -8  -2  900.20   26.05 
   3   8   2  875.75   29.98 
   1   3 -10  350.89   10.69 
   1   3 -10  325.06   10.76 
   1   3 -10  320.16   12.95 
   1   3 -10  353.15   11.32 
  -1  -3  10  338.12   10.66 
  -1  -3  10  331.59   11.58 
  -1  -3  10  336.71   10.83 
   8   4  -5  623.42   17.66 
  -8  -4   5  618.24   14.61 
  -8  -4   5  613.71   13.17 
  -8  -4   5  585.67   24.37 
   8   4  -5  607.87   18.38 
   8   4  -5  598.86   14.44 
   8   4  -5  599.69   13.10 
   1   7  -8    8.36    3.21 
   1   7  -8    3.31    3.04 
  -1  -7   8    2.91    1.57 
  -1  -7   8    0.98    3.00 
   1   7  -8    0.42    3.55 
  -1  -7   8    1.09    3.19 
  -1  -7   8    4.10    3.47 
   1   7  -8   -2.66    3.42 
   8   4  -2    2.60    2.52 
   8   4  -2    1.92    2.51 
  -8  -4   2   -0.11    2.87 
  -6   7   3  249.63   15.46 
  -6   7   3  216.78   10.63 
  -6   7   3  225.13   10.94 
   6  -7  -3  253.27   14.98 
   6  -7  -3  236.55   10.89 
   6  -7  -3  247.99   14.98 
   5   6  -8  708.88   24.30 
  -5  -6   8  703.67   21.55 
  -5  -6   8  696.90   18.23 
  -5  -6   8  746.55   28.19 
   5   6  -8  700.74   21.52 
   5   6  -8  694.31   18.05 
   5   6  -8  695.34   24.37 
  -7  -5   0  297.45   11.83 
   7   5   0  288.22   16.59 
   7   5   0  297.75   10.97 
  -1  -9   5  223.46   12.71 
   1   9  -5  225.26   15.17 
   1   9  -5  216.04   10.25 
   1   9  -5  241.81   11.88 
   1   9  -5  230.27   12.33 
  -1  -9   5  226.86   11.94 
  -1  -9   5  229.43   14.05 
  -1  -9   5  231.72   12.26 
  -6  -7   2   24.09    7.21 
   6   7  -2   18.64    4.50 
  -6  -7   2   24.96    1.76 
  -6  -7   2   15.61    2.89 
   6   7  -2   24.24    6.28 
   6   7  -2   20.11    1.78 
   6   7  -2   13.50    2.84 
  -5  -1  10  810.05   22.42 
   5   1 -10  826.67   22.95 
   5   1 -10  832.28   27.38 
   5   1 -10  807.14   23.95 
   5   1 -10  855.08   22.89 
   5   1 -10  828.83   22.47 
  -5  -1  10  813.81   27.05 
  -5  -1  10  795.86   26.70 
  -5  -7  -1  296.00   13.12 
  -5  -7  -1  251.45    6.60 
   5   7   1  327.75   17.71 
   5   7   1  246.24    6.38 
  -5  -7  -1  255.73    5.48 
   5   7   1  282.41    8.42 
  -4   1  10  140.45    7.04 
  -4   1  10  161.73    9.04 
   4  -1 -10  149.23    5.41 
   4  -1 -10  149.10    5.41 
   4  -1 -10  150.02    6.65 
  -4   1  10  151.52    6.57 
   4  -1 -10  140.83    7.04 
  -7   6   3  670.09   26.69 
  -7   6   3  623.06   25.86 
  -7   6   3  595.81   26.83 
   7  -6  -3  615.54   25.21 
   7  -6  -3  586.34   26.46 
   7  -6  -3  614.40   25.83 
   3  -7  -6  205.73   12.74 
   3  -7  -6  188.43    9.52 
  -3   7   6  191.80    9.09 
  -3   7   6  176.80    9.64 
  -3   7   6  179.31    9.83 
  -3   7   6  189.28    9.80 
   3  -7  -6  185.85   10.82 
  -3   7   6  180.43   12.85 
  -1   7   6  203.82   11.71 
   1  -7  -6  186.49   11.91 
   1  -7  -6  198.78   10.34 
   1  -7  -6  183.87   11.63 
  -1   7   6  169.23    8.51 
  -1   7   6  182.10   11.53 
  -1   7   6  183.95   11.40 
  -1   7   6  195.09   11.88 
  -6  -6   7  668.83   18.52 
  -6  -6   7  668.22   18.86 
   6   6  -7  678.62   22.85 
   6   6  -7  658.73   18.44 
   6   6  -7  646.73   23.85 
   6   6  -7  651.59   18.44 
  -6  -6   7  647.34   22.06 
  -3  -7   8   42.29    4.60 
   3   7  -8   27.67    5.26 
   3   7  -8   50.56    5.19 
  -3  -7   8   40.72    5.19 
  -3  -7   8   46.18    5.35 
   3   7  -8   33.00    4.13 
   3   7  -8   33.49    4.35 
  -9   0   3  510.16   14.44 
   9   0  -3  510.74   18.06 
   9   0  -3  480.40   13.95 
  -9   0   3  457.77   10.05 
   9   0  -3  481.44   10.31 
   5  -8  -2  164.52   12.28 
  -5   8   2  172.96   12.15 
  -5   8   2  137.47    7.10 
   5  -8  -2  158.09   12.79 
   5  -8  -2  163.27   12.82 
  -5   8   2  171.00   13.08 
   5  -8  -2  146.20    5.61 
  -5   8   2  144.43   12.10 
   3  -9   2  108.88    7.76 
  -3   9  -2  104.72    7.98 
   3  -9   2  118.84   11.22 
   3  -9   2  119.88    7.67 
   3  -9   2  124.98   10.59 
  -3   9  -2  110.73    7.79 
  -3   9  -2  104.43   10.54 
  -3   9  -2  122.67   11.02 
   7   6  -3  755.26   28.07 
   7   6  -3  772.41   25.75 
  -7  -6   3  787.72   27.82 
  -5  -8   3  364.27   12.09 
  -5  -8   3  373.10   10.19 
   5   8  -3  382.69   19.07 
  -5  -8   3  394.61   16.41 
   5   8  -3  353.77   10.34 
   5   8  -3  368.92   12.67 
   5   8  -3  377.31   12.35 
   7   6  -4  546.07   20.63 
   7   6  -4  538.61   11.45 
   7   6  -4  506.70   12.23 
   7   6  -4  543.14   16.32 
  -7  -6   4  540.71   26.13 
  -7  -6   4  540.70   12.24 
  -7  -6   4  549.00   11.73 
  -5  -2  10  349.27   14.82 
  -5  -2  10  315.92   13.28 
   5   2 -10  324.35   13.77 
   5   2 -10  309.12    8.70 
   5   2 -10  307.70   13.08 
   5   2 -10  321.23   12.07 
  -5  -2  10  316.32   13.43 
   6   3   4   41.25    2.49 
   6   3   4   36.15    3.57 
   6   3   4   25.93    5.86 
   6   3   4   33.84    7.26 
   3   9  -1   66.02    8.91 
   3   9  -1   55.72    4.92 
   3   9  -1   59.82    5.91 
   3   9  -1   30.49    7.51 
  -3  -9   1   53.14    6.92 
  -3  -9   1   57.18    4.88 
  -3  -9   1   56.68    9.58 
  -3  -9   1   64.29    5.94 
  -6   7  -1   99.12    5.56 
  -6   7  -1   99.88   10.24 
  -6   7  -1  100.68   10.60 
   6  -7   1  104.86   10.64 
   6  -7   1  108.74   10.10 
  -6   7  -1  104.95    9.24 
   6  -7   1   93.74    5.17 
   6  -7   1  106.00    9.10 
  -9   0   4  181.05    9.98 
   9   0  -4  165.61    9.97 
   9   0  -4  184.86   10.64 
   9   0  -4  181.46    5.15 
  -9   0   4  164.15    5.13 
   8  -3   1  407.93    9.11 
   8  -3   1  390.15   11.42 
   8  -3   1  439.06   11.67 
  -8   3  -1  430.10   14.93 
  -8   3  -1  426.71   11.70 
   8  -3   1  455.73   18.04 
   8  -3   1  446.80   15.16 
   0  -9   5  555.65   22.34 
   0  -9   5  593.17   22.93 
   0  -9   5  559.45   18.73 
   0  -9   5  568.94   18.98 
   0   9  -5  576.06   26.19 
   0   9  -5  587.51   22.62 
   0   9  -5  542.26   24.37 
   0   9  -5  554.99   22.50 
   2   6  -9  587.15   21.66 
   2   6  -9  586.27   20.57 
   2   6  -9  608.46   21.26 
  -2  -6   9  616.76   20.71 
  -2  -6   9  597.20   19.10 
  -2  -6   9  610.39   21.34 
   2   6  -9  588.05   17.96 
  -4  -8   6  612.83   27.60 
   4   8  -6  633.60   24.54 
   4   8  -6  634.77   20.59 
   4   8  -6  638.17   26.93 
   4   8  -6  626.25   19.34 
  -4  -8   6  646.58   19.83 
  -4  -8   6  639.70   20.64 
   7  -6   0  229.03   13.27 
  -7   6   0  258.23   13.33 
  -7   6   0  240.18   14.30 
  -7   6   0  259.74   11.27 
   7  -6   0  243.83   15.39 
   7  -6   0  242.11   14.54 
   2   8  -7  636.21   22.39 
  -2  -8   7  679.55   27.13 
  -2  -8   7  634.66   21.95 
  -2  -8   7  648.34   21.96 
  -2  -8   7  676.58   23.28 
   2   8  -7  664.62   23.29 
   2   8  -7  636.60   26.26 
   2   8  -7  674.76   26.95 
   3   4 -10  639.35   18.66 
   3   4 -10  667.91   20.40 
   3   4 -10  653.11   18.11 
  -3  -4  10  656.16   18.27 
  -3  -4  10  685.02   25.72 
  -3  -4  10  659.08   22.72 
   3   4 -10  672.13   22.90 
   7   2   3  908.32   23.89 
   7   2   3  887.18   27.76 
   7   2   3  881.46   33.58 
   7   2   3  900.54   22.30 
  -5   0  10   45.35    6.23 
  -5   0  10   53.43    6.22 
   5   0 -10   58.56    6.04 
   5   0 -10   46.81    2.70 
   5   0 -10   44.55    6.21 
   5   0 -10   50.35    4.41 
   5   0 -10   47.60    3.84 
  -5   0  10   43.23    5.56 
  -4   6   7  190.86    9.05 
   4  -6  -7  212.06   10.01 
  -4   6   7  195.39    9.62 
  -4   6   7  200.69   10.15 
  -4   6   7  192.08   13.70 
   4  -6  -7  212.69   13.89 
  -4   6   7  197.02    9.07 
   4  -6  -7  206.44   10.68 
  -5   3   9  392.76   13.78 
   5  -3  -9  394.64   13.50 
   5  -3  -9  410.77   17.52 
   5  -3  -9  373.37   13.00 
  -5   3   9  372.11   17.10 
  -5   3   9  358.85   13.81 
  -5   3   9  369.33   12.06 
   4   6   4  184.02    7.61 
  -4  -6  -4  219.69    5.89 
  -4  -6  -4  217.61    7.23 
   4   6   4  198.98    7.12 
   4   6   4  223.79   10.80 
   4   6   4  225.36   15.12 
   4   6   4  197.65    5.84 
  -9   1   3   10.09    2.52 
   9  -1  -3    9.46    2.62 
   9  -1  -3    5.57    3.69 
   9  -1  -3    8.14    1.68 
  -9   1   3    6.07    1.71 
   1   8  -7  532.04   23.46 
  -1  -8   7  521.50   19.89 
   1   8  -7  547.70   23.09 
  -1  -8   7  515.92   18.93 
   1   8  -7  549.59   19.82 
  -1  -8   7  519.55   22.03 
  -1  -8   7  537.77   20.58 
   1   8  -7  533.18   20.52 
  -5   7   5   74.70    8.91 
  -5   7   5   57.59    7.62 
  -5   7   5   53.14    3.64 
  -5   7   5   58.22    3.80 
   5  -7  -5   60.29    7.79 
  -5   7   5   66.51    9.18 
   5  -7  -5   51.19    5.76 
   5  -7  -5   72.44    9.28 
   8  -4   0  246.26   10.29 
  -8   4   0  253.75   10.16 
  -8   4   0  227.88   11.32 
   8  -4   0  237.02   11.38 
   8  -4   0  239.03    9.96 
   3   6   5  258.22    9.35 
   3   6   5  297.95    9.41 
   3   6   5  286.51   10.85 
   3   6   5  305.06   12.88 
   3   6   5  297.28   12.89 
  -3  -6  -5  300.00    9.18 
  -3  -6  -5  290.99   10.69 
   3   9  -4  418.29   20.47 
  -3  -9   4  405.12   21.60 
  -3  -9   4  394.73   14.22 
  -3  -9   4  371.37   13.09 
  -3  -9   4  408.33   16.01 
   3   9  -4  380.47   15.57 
   3   9  -4  376.76   14.18 
   3   9  -4  378.75   13.99 
   2   9  -5  323.27   10.44 
  -2  -9   5  311.35   10.63 
  -2  -9   5  344.96   17.91 
  -2  -9   5  329.69   15.71 
  -2  -9   5  310.37   14.17 
   2   9  -5  333.97   18.05 
   2   9  -5  319.73   14.47 
   2   9  -5  334.03   13.73 
  -2  -4  10  529.10   20.77 
   2   4 -10  516.24   17.00 
   2   4 -10  516.92   19.71 
   2   4 -10  497.06   18.84 
  -2  -4  10  508.91   18.79 
   2   4 -10  526.11   18.18 
  -2  -4  10  509.64   18.46 
  -5   8  -1  104.32    5.76 
  -5   8  -1  128.32    7.18 
   5  -8   1   97.74    6.90 
   5  -8   1  108.68   10.95 
  -5   8  -1  104.63   11.15 
  -5   8  -1   98.90   11.03 
   5  -8   1  101.77    5.67 
   5  -8   1  122.54    7.46 
   8   3   0   58.79    6.94 
   8   3   0   67.13    4.81 
   8   3   0   64.42    5.27 
   8   3   0   63.03    5.66 
   4  -4   7  629.39   20.68 
   4  -4   7  565.42   16.32 
  -4   4  -7  614.80   21.93 
  -4   4  -7  629.15   18.49 
  -4   4  -7  600.84   19.55 
  -4   4  -7  533.70   15.64 
   4  -4   7  626.46   18.48 
   4  -4   7  627.12   19.80 
  -6   3  -5  655.48   21.94 
  -6   3  -5  684.33   20.44 
   6  -3   5  677.42   20.39 
   6  -3   5  658.47   17.61 
  -6   3  -5  646.25   17.57 
   6  -3   5  671.42   19.79 
   6  -3   5  628.05   21.93 
   4   5   5    0.95    3.14 
  -4  -5  -5    4.50    1.80 
  -4  -5  -5    5.40    2.56 
   4   5   5    3.27    4.56 
   4   5   5    5.01    1.81 
   4   5   5    0.92    2.03 
   4   5   5    7.22    2.63 
  -8   3   6  159.09    9.53 
  -8   3   6  166.13   11.15 
   8  -3  -6  171.25   10.59 
   8  -3  -6  182.35   10.88 
   8  -3  -6  172.70   10.06 
  -1   5   8   22.19    5.08 
  -1   5   8   22.87    3.29 
  -1   5   8   22.17    4.97 
   1  -5  -8   22.69    5.06 
   1  -5  -8   16.17    2.92 
   1  -5  -8   21.68    3.27 
  -1   5   8   16.89    5.57 
   6   6   1  644.20   29.14 
   6   6   1  641.95   19.85 
   6   7  -5  769.28   22.87 
   6   7  -5  757.26   19.52 
   6   7  -5  732.66   23.26 
  -6  -7   5  778.00   19.57 
  -6  -7   5  780.54   20.63 
  -6  -7   5  805.37   34.01 
   6   7  -5  767.01   20.83 
  -3   7  -6  445.17   18.22 
   3  -7   6  440.56   15.87 
   3  -7   6  428.92   16.99 
   3  -7   6  426.85   18.35 
   3  -7   6  427.51   17.21 
  -3   7  -6  435.79   20.15 
  -3   7  -6  423.20   16.96 
  -3   7  -6  423.55   17.20 
  -6   6  -3  124.80    5.96 
  -6   6  -3  122.71    6.43 
   6  -6   3  118.65   10.90 
   6  -6   3  122.26    5.22 
   6  -6   3  129.77    8.04 
   6  -6   3  148.60   10.10 
  -6   6  -3  130.84    7.57 
  -6   6  -3  139.49   10.12 
  -6   2   9  319.45   11.33 
  -6   2   9  324.35   11.91 
   6  -2  -9  315.77   11.65 
   6  -2  -9  310.52   14.96 
   6  -2  -9  321.23   11.00 
   6  -2  -9  330.21    9.67 
  -6   2   9  314.16   14.91 
  -5  -8   4    6.09    5.59 
   5   8  -4    5.34    2.56 
   5   8  -4    2.51    4.85 
   5   8  -4    6.41    2.09 
  -5  -8   4    8.65    2.10 
   5   8  -4    6.74    4.20 
  -5  -8   4    6.97    2.46 
   5   8  -2  510.65   13.53 
  -5  -8   2  574.23   21.59 
  -5  -8   2  533.81   13.42 
  -5  -8   2  537.99   16.32 
   5   8  -2  582.01   25.75 
   5   8  -2  542.14   16.84 
   5   8  -2  536.32   21.20 
   6  -5   4  755.03   29.07 
   6  -5   4  815.54   28.48 
  -6   5  -4  827.89   28.65 
   6  -5   4  786.87   23.44 
  -6   5  -4  780.48   23.60 
  -6   5  -4  769.11   25.84 
   6  -5   4  785.91   21.48 
  -6   5  -4  781.27   24.19 
  -4   5   8   29.17    6.41 
   4  -5  -8   20.76    4.31 
   4  -5  -8   33.61    6.20 
   4  -5  -8   27.32    4.25 
  -4   5   8   20.59    3.83 
  -4   5   8   29.53    4.30 
  -4   5   8   15.82    4.19 
   7  -5   2    5.49    4.14 
   7  -5   2    3.18    1.68 
   7  -5   2    6.64    2.72 
  -7   5  -2    7.18    2.73 
  -7   5  -2    2.12    3.53 
   7  -5   2    6.55    3.68 
  -7   5  -2    4.19    2.24 
  -7   5  -2    2.82    1.66 
   3   1   8  620.08   17.75 
  -3  -1  -8  604.15   16.82 
  -3  -1  -8  605.49   17.39 
   3   1   8  599.09   19.01 
   3   1   8  616.99   17.03 
   9   1  -3  305.09    8.50 
   9   1  -3  304.77    7.77 
   9   1  -3  356.06   13.72 
   3   6  -9  604.88   20.22 
   3   6  -9  619.67   22.75 
  -3  -6   9  600.47   19.00 
   3   6  -9  586.81   17.53 
  -3  -6   9  602.02   20.64 
   3   6  -9  592.21   20.94 
  -3  -6   9  596.16   21.21 
  -5  -5   9    5.21    3.48 
   5   5  -9   10.96    3.56 
   5   5  -9   14.90    3.30 
   5   5  -9    8.14    3.68 
   5   5  -9    8.19    3.47 
  -5  -5   9    7.36    4.49 
  -5  -5   9    9.75    3.27 
   9  -1  -4   52.01    6.47 
   9  -1  -4   51.83    5.13 
  -9   1   4   51.28    5.22 
  -9   1   4   47.78    3.30 
   9  -1  -4   48.90    3.38 
   9   1  -4  552.91   15.76 
  -9  -1   4  550.99   12.99 
  -9  -1   4  561.26   15.89 
   9   1  -4  540.70   14.34 
   9   1  -4  566.30   13.05 
   9   1  -4  537.11   13.23 
   9   1  -4  582.91   16.50 
  -2  -9  -1  639.45   21.96 
   2   9   1  609.60   25.48 
   2   9   1  667.80   28.62 
   2   9   1  650.41   24.05 
   2   9   1  642.51   21.97 
  -2  -9  -1  631.65   24.49 
  -2  -9  -1  678.61   29.33 
  -2  -9  -1  654.23   23.19 
   9   0  -2  634.07   13.68 
   9   0  -2  628.86   12.49 
   9   0  -2  651.88   12.99 
   9   0  -2  739.59   22.81 
   9   0  -2  600.22   12.98 
  -4   8   4  210.34   10.65 
   4  -8  -4  213.37   13.28 
  -4   8   4  198.41    8.53 
  -4   8   4  217.31    8.83 
   4  -8  -4  232.23   10.79 
  -4   8   4  192.26   10.39 
   4  -8  -4  225.28   10.79 
  -4   8   4  205.54   13.07 
   6   1   5  409.54   17.32 
   6   1   5  401.00    8.41 
  -6  -1  -5  390.44    8.82 
  -6  -1  -5  407.02    8.13 
   6   1   5  379.65   12.46 
   6   1   5  371.52    7.66 
   6   1   5  401.21   11.81 
   6   1   5  376.41    9.61 
   2  -1   9   49.93    6.75 
   2  -1   9   49.94    4.73 
   2  -1   9   55.76    5.14 
  -2   1  -9   49.36    3.33 
  -2   1  -9   42.32    4.78 
  -2   1  -9   53.07    6.86 
   1   8   4    9.66    4.03 
   1   8   4   11.39    3.79 
  -1  -8  -4   11.35    3.61 
  -1  -8  -4   10.34    4.00 
  -1  -8  -4    9.96    3.83 
   1   8   4   13.77    5.49 
   1   8   4    8.48    3.76 
   1   8   4   10.23    3.45 
   5  -4   6  407.14   13.08 
   5  -4   6  422.18   15.12 
   5  -4   6  394.64   14.41 
   5  -4   6  424.77   14.37 
  -5   4  -6  387.96   12.36 
  -5   4  -6  419.74   16.16 
  -5   4  -6  402.82   13.21 
  -5   4  -6  428.38   15.33 
   5   7  -7    5.77    2.56 
   5   7  -7    4.82    1.74 
  -5  -7   7    8.03    2.70 
   5   7  -7    4.52    3.95 
  -5  -7   7    7.98    2.68 
  -5  -7   7    5.38    3.18 
   5   7  -7    6.52    4.22 
  -2   2  -9  442.47   15.39 
   2  -2   9  432.00   17.93 
   2  -2   9  456.06   15.96 
   2  -2   9  429.37   11.78 
  -2   2  -9  441.64   14.91 
  -2   2  -9  438.20   14.03 
   4  -7   5   21.40    3.42 
  -4   7  -5   20.64    4.31 
  -4   7  -5   18.04    4.82 
  -4   7  -5   16.48    5.84 
  -4   7  -5   20.67    3.49 
   4  -7   5   12.95    3.62 
   4  -7   5   19.00    4.70 
   4  -7   5   17.96    5.30 
  -9   1   2  264.16    7.96 
  -9   1   2  278.15    7.77 
   9  -1  -2  272.09    6.80 
   9  -1  -2  276.24    7.73 
   9  -1  -2  303.74   12.82 
  -7  -6   2  449.44   23.27 
   7   6  -2  467.14   16.26 
   7   6  -2  470.24   13.66 
   3  -9  -2   18.44    3.85 
  -3   9   2   23.02    6.23 
   3  -9  -2   13.51    3.87 
   3  -9  -2   16.42    5.64 
   3  -9  -2   18.70    6.31 
  -3   9   2   12.88    5.56 
  -3   9   2   22.62    3.85 
  -3   9   2   10.48    3.67 
   8   2   1   -1.50    2.97 
   8   2   1   -0.84    1.96 
   8   2   1    4.02    1.95 
  -1  -4  -8  506.04   17.43 
  -1  -4  -8  533.07   17.45 
   1   4   8  520.04   17.32 
   1   4   8  508.66   17.26 
   1   4   8  514.95   21.86 
   1   4   8  516.89   18.11 
  -1  -9  -2  107.37   10.41 
   1   9   2  116.59    8.95 
   1   9   2  103.66    6.64 
   1   9   2  117.94    8.18 
  -1  -9  -2   97.69    8.25 
  -1  -9  -2  129.82    8.74 
  -1  -9  -2  111.31    9.28 
   1   9   2   99.93    9.51 
   3   5   6  286.38   16.89 
   3   5   6  288.52   10.78 
  -3  -5  -6  319.31    9.48 
  -3  -5  -6  299.18   10.47 
   3   5   6  300.68    9.51 
   3   5   6  285.85   12.97 
   1  -1 -10    4.39    3.46 
  -1   1  10   10.39    3.39 
  -1   1  10    3.30    4.05 
   1  -1 -10    4.68    3.60 
  -1   1  10    2.68    2.11 
   1  -1 -10    8.09    2.09 
   0   1 -10  584.28   17.71 
   0   1 -10  585.39   20.21 
   0   1 -10  604.44   19.50 
   0  -1  10  589.12   20.25 
   0  -1  10  577.60   22.80 
   0  -1  10  569.17   19.18 
   7   5  -7  344.84   10.45 
   7   5  -7  344.43   13.20 
   7   5  -7  357.46   10.68 
   7   5  -7  351.75   15.10 
  -7  -5   7  342.26   18.80 
  -7  -5   7  333.56    8.47 
  -7  -5   7  351.19   10.76 
   7  -4   3  587.04   20.96 
   7  -4   3  568.43   14.41 
   7  -4   3  561.13   16.27 
  -7   4  -3  566.07   16.31 
  -7   4  -3  574.54   20.31 
  -7   4  -3  555.59   16.88 
   7  -4   3  566.08   22.67 
   1   6  -9  511.07   18.81 
   1   6  -9  498.31   15.94 
  -1  -6   9  521.31   19.46 
  -1  -6   9  509.02   20.93 
  -1  -6   9  502.17   18.17 
   1   6  -9  505.65   19.34 
   1   6  -9  499.51   19.53 
  -7  -6   5   95.36   10.61 
  -7  -6   5   75.45    4.71 
  -7  -6   5   79.50    4.38 
   7   6  -5   77.61    7.70 
   7   6  -5   79.32    4.37 
   7   6  -5   78.15    4.99 
   7   6  -5   77.96    4.66 
  -2  -3  -8  162.09    7.51 
   2   3   8  155.69   12.69 
   2   3   8  180.01   12.18 
   2   3   8  161.89    7.57 
   2   3   8  165.19    7.60 
  -2  -3  -8  171.83    7.63 
   6  -5  -7   62.48    5.29 
  -6   5   7   44.72    5.37 
  -6   5   7   47.30    3.30 
  -6   5   7   45.40    4.28 
  -6   5   7   51.99    8.02 
   6  -5  -7   50.55    6.76 
   6  -5  -7   77.01    8.17 
   6   4  -9  644.57   19.85 
   6   4  -9  632.44   20.64 
  -6  -4   9  680.51   20.95 
  -6  -4   9  640.06   20.39 
  -6  -4   9  655.11   24.86 
   6   4  -9  664.42   21.78 
   6   4  -9  648.36   20.67 
  -4   6  -6  487.48   18.81 
  -4   6  -6  478.55   13.97 
  -4   6  -6  456.99   17.80 
  -4   6  -6  521.38   21.50 
   4  -6   6  462.06   18.04 
   4  -6   6  477.38   13.43 
   4  -6   6  484.66   18.86 
   4  -6   6  482.49   13.76 
   0   2 -10    7.28    3.52 
   0   2 -10    8.02    4.06 
   0   2 -10    6.19    3.42 
   0  -2  10    7.82    2.66 
   0  -2  10    5.65    3.47 
   0  -2  10    4.39    3.32 
  -4  -8  -1  189.14    7.84 
  -4  -8  -1  217.52   16.01 
   4   8   1  172.76    8.06 
   4   8   1  183.52   10.40 
   4   8   1  202.77   10.58 
   4   8   1  173.64    9.34 
  -4  -8  -1  193.52    9.27 
   8  -4  -5  339.94   15.96 
  -8   4   5  367.03   17.65 
  -8   4   5  352.90   15.71 
   8  -4  -5  336.48   12.75 
   8  -4  -5  365.05   13.24 
   0   3   9  300.51   16.76 
   0  -3  -9  331.24   13.58 
   0  -3  -9  321.71   13.11 
   0   3   9  328.34   13.00 
   0   3   9  334.82   15.28 
   0   3   9  322.49   13.36 
   8  -2  -7   16.87    4.44 
  -8   2   7   12.25    4.04 
   8  -2  -7   20.15    4.77 
  -8   2   7   14.41    4.84 
   8  -2  -7   16.16    2.58 
   6   7  -1  339.35   14.20 
  -6  -7   1  362.59   21.39 
   6   7  -1  352.18   19.50 
  -7  -4   8  406.46   18.40 
   7   4  -8  390.85   12.41 
   7   4  -8  400.64   13.39 
   7   4  -8  387.85   12.47 
   7   4  -8  399.62   16.09 
  -7  -4   8  391.79   12.37 
  -7  -4   8  381.34   12.52 
   0   7  -8   24.88    5.21 
   0   7  -8   16.82    3.03 
   0   7  -8   15.96    4.94 
   0  -7   8   21.85    4.86 
   0  -7   8   19.30    5.14 
   0  -7   8   17.51    2.99 
   0  -7   8   18.59    3.67 
   0   7  -8   17.37    3.28 
   2  -9   4  458.52   18.68 
   2  -9   4  446.35   22.29 
   2  -9   4  466.33   22.01 
  -2   9  -4  478.33   22.32 
  -2   9  -4  486.34   22.14 
  -2   9  -4  459.24   15.58 
  -2   9  -4  481.19   24.15 
   2  -9   4  462.77   16.89 
  -1  -2  -9   42.95    4.61 
  -1  -2  -9   38.33    4.76 
   1   2   9   44.18    4.57 
   1   2   9   39.57    4.91 
   1   2   9   38.51    7.33 
   9   0  -5    9.17    3.15 
   9   0  -5    8.30    3.97 
  -9   0   5    9.91    3.19 
  -9   0   5    5.16    2.47 
   9   0  -5    7.19    2.53 
  -8  -3   7  609.60   16.47 
  -8  -3   7  670.46   18.69 
  -8  -3   7  612.21   24.37 
   8   3  -7  643.76   18.19 
   8   3  -7  617.44   16.83 
   8   3  -7  632.40   17.66 
   8   3  -7  627.92   22.65 
   5   5   4  305.66   17.76 
   5   5   4  290.31   16.89 
   5   5   4  277.69    8.35 
  -3  -7  -4  439.09   13.47 
  -3  -7  -4  465.06   14.87 
   3   7   4  466.57   15.10 
   3   7   4  448.05   17.50 
   3   7   4  443.81   22.67 
   3   7   4  410.90   14.96 
   3   7   4  426.82   13.60 
  -7  -1   9  629.05   20.49 
  -7  -1   9  645.00   21.21 
   7   1  -9  649.47   21.08 
   7   1  -9  643.75   20.39 
   7   1  -9  631.81   20.94 
   7   1  -9  639.89   17.49 
  -7  -1   9  688.19   23.34 
  -3   6  -7   28.47    6.09 
  -3   6  -7   38.53    3.71 
   3  -6   7   38.04    3.67 
  -3   6  -7   35.79    3.67 
   3  -6   7   30.52    4.92 
   3  -6   7   25.31    4.44 
  -3   6  -7   31.47    5.13 
   3  -6   7   30.11    5.08 
  -4  -4  10  669.98   20.76 
   4   4 -10  638.23   22.22 
  -4  -4  10  663.03   23.03 
   4   4 -10  674.15   21.09 
   4   4 -10  675.78   22.34 
   4   4 -10  678.20   22.97 
  -4  -4  10  669.38   22.50 
   3  -4   8  180.60    8.54 
  -3   4  -8  173.51    8.62 
  -3   4  -8  164.27   10.82 
  -3   4  -8  151.24    7.03 
  -3   4  -8  175.49    9.35 
   3  -4   8  160.24    5.35 
   3  -4   8  194.95    9.35 
   3  -4   8  182.69    7.22 
  -3   4   9   56.21    5.09 
  -3   4   9   64.61    5.60 
  -3   4   9   54.54    6.53 
   3  -4  -9   53.12    4.30 
  -3   4   9   59.94    4.84 
   3  -4  -9   49.64    5.12 
   3  -4  -9   57.28    4.89 
   9   1  -2   32.48    2.69 
   9   1  -2   41.57    5.25 
   9   1  -2   38.22    3.13 
   3   8  -7  507.19   21.57 
  -3  -8   7  528.98   18.44 
  -3  -8   7  527.33   23.36 
  -3  -8   7  504.89   18.00 
   3   8  -7  503.64   17.79 
   3   8  -7  507.55   18.18 
   3   8  -7  523.07   18.38 
  -5  -3  10   65.37    7.34 
   5   3 -10   68.19    5.24 
   5   3 -10   73.77    6.48 
  -5  -3  10   63.67    6.56 
   5   3 -10   68.58    4.11 
  -5  -3  10   57.23    4.35 
   5   3 -10   59.05    5.86 
   8   4  -6  187.44   10.18 
  -8  -4   6  179.72    6.15 
   8   4  -6  181.75    6.25 
  -8  -4   6  181.00   12.21 
  -8  -4   6  172.69    5.59 
   8   4  -6  159.26    7.56 
   8   4  -6  174.27    5.64 
   0   6   7    5.38    2.38 
   0   6   7    4.80    3.07 
   0   6   7    4.30    3.60 
   0   6   7    6.19    2.24 
   0   6   7    9.01    4.33 
   0  -6  -7    3.77    3.67 
   0  -6  -7    8.03    2.31 
   0  -6  -7    4.69    1.78 
  -7   4   7  437.23   19.58 
  -7   4   7  421.61   20.43 
   7  -4  -7  456.57   19.97 
   7  -4  -7  430.07   18.10 
   7  -4  -7  437.36   19.82 
   8   4  -1  151.19    9.49 
   8   4  -1  146.27    7.64 
   8   4  -1  138.11    6.46 
   8  -1   2  439.01   15.53 
   8  -1   2  432.56   11.28 
   8  -1   2  371.49    9.69 
   8  -1   2  430.03   14.92 
  -7   6   4  417.65   21.04 
  -7   6   4  408.31   15.67 
  -7   6   4  429.57   21.03 
   7  -6  -4  432.44   15.97 
   7  -6  -4  411.03   15.71 
   7  -6  -4  440.22   15.94 
   0  -8   7  528.88   20.71 
   0  -8   7  501.74   15.24 
   0  -8   7  515.93   20.85 
   0  -8   7  514.80   20.78 
   0   8  -7  511.62   22.83 
   0   8  -7  515.16   20.73 
   0   8  -7  536.73   20.23 
   0   8  -7  524.24   17.36 
  -2   7  -7  507.26   19.35 
  -2   7  -7  543.37   20.47 
  -2   7  -7  504.33   15.98 
  -2   7  -7  483.04   21.61 
   2  -7   7  516.88   20.20 
   2  -7   7  510.39   19.18 
   2  -7   7  506.09   18.95 
   2  -7   7  481.17   14.67 
  -3   2  10  725.93   26.19 
   3  -2 -10  720.10   21.67 
  -3   2  10  717.16   21.44 
   3  -2 -10  724.21   23.39 
  -3   2  10  741.59   25.67 
   3  -2 -10  744.99   25.73 
   3  -2 -10  644.07   15.36 
   3  -2 -10  712.84   18.07 
  -2   0  -9  451.34   15.17 
  -2   0  -9  454.15   18.40 
   2   0   9  428.57   14.61 
   2   0   9  444.18   15.06 
   2   0   9  427.84   11.52 
  -2   0  -9  449.36   11.63 
   9  -2  -3  265.89   10.94 
  -9   2   3  258.37   11.02 
  -9   2   3  253.94    8.81 
   9  -2  -3  260.41    8.88 
   9  -2  -3  289.67   13.49 
   6  -4  -8  133.81   10.92 
   6  -4  -8  111.90   10.31 
  -6   4   8  117.17   10.63 
  -6   4   8  118.39    5.72 
  -6   4   8  109.63    6.26 
   6  -4  -8  124.87    7.87 
  -6   4   8  132.25   10.63 
  -1  -4  10  352.71   15.07 
  -1  -4  10  353.86   14.50 
  -1  -4  10  345.66   12.03 
   1   4 -10  333.06   15.58 
   1   4 -10  354.95   14.37 
   1   4 -10  312.07   12.86 
   1   4 -10  345.77   15.05 
   9   1  -5  586.48   20.60 
   9   1  -5  556.31   14.51 
  -9  -1   5  533.63   14.27 
  -9  -1   5  540.75   14.38 
  -9  -1   5  553.29   17.46 
   9   1  -5  506.85   11.60 
   9   1  -5  595.58   17.88 
  -4   7   6  219.05   12.05 
  -4   7   6  236.71   15.08 
   4  -7  -6  242.83   15.28 
  -4   7   6  214.20    9.62 
   4  -7  -6  233.38   14.83 
   4  -7  -6  229.57   12.65 
  -4   7   6  215.92    9.58 
  -4   7   6  216.01   15.18 
  -2   4   9  225.98   12.60 
   2  -4  -9  213.04   12.43 
  -2   4   9  216.32   11.94 
  -2   4   9  224.91   12.47 
   2  -4  -9  212.68   12.03 
  -2   4   9  223.01   11.03 
   2  -4  -9  189.90    8.68 
   1  -9  -3   95.99    8.92 
  -1   9   3   92.16    7.95 
  -1   9   3   87.24    9.02 
  -1   9   3   82.58    5.70 
  -1   9   3   82.46    5.72 
   1  -9  -3   96.03    8.17 
   1  -9  -3   80.81    8.69 
   1  -9  -3   86.19    5.98 
   2  -8  -5  383.53   16.29 
   2  -8  -5  416.69   19.64 
  -2   8   5  387.26   19.05 
  -2   8   5  345.32   12.55 
  -2   8   5  390.35   18.59 
  -2   8   5  382.17   16.11 
  -2   8   5  373.31   16.18 
   2  -8  -5  406.43   19.77 
  -7   0   9  525.34   18.31 
   7   0  -9  481.56   16.57 
   7   0  -9  507.94   14.60 
  -7   0   9  480.12   14.54 
   7   0  -9  450.92   17.20 
  -7   0   9  467.66   16.95 
   7   0  -9  468.49   12.78 
  -3   8  -5  150.16   10.04 
  -3   8  -5  145.94   12.53 
   3  -8   5  157.04    6.40 
   3  -8   5  166.44   10.78 
   3  -8   5  171.73    8.24 
   3  -8   5  165.09   11.48 
  -3   8  -5  159.59   11.92 
  -3   8  -5  157.87   10.96 
   5  -8  -3    7.88    5.11 
  -5   8   3    5.95    2.63 
  -5   8   3    4.62    5.47 
  -5   8   3    8.64    3.38 
  -5   8   3    7.11    2.66 
  -5   8   3   -0.18    4.92 
   5  -8  -3   16.72    3.41 
   5  -8  -3    8.88    5.44 
   0   7   6   74.59    5.61 
   0   7   6   86.23    7.93 
   0   7   6   95.45    8.01 
   0  -7  -6   91.11    7.29 
   0   7   6   89.75    9.17 
   0  -7  -6   97.54    8.00 
   0   7   6   85.39    9.67 
   0  -7  -6   87.11    8.01 
   5   6   3   60.97   10.13 
   5   6   3   59.07    4.26 
   5   6   3   63.88    9.24 
   7  -1   4  354.39   14.44 
  -7   1  -4  324.05   10.05 
   7  -1   4  356.78   13.25 
   7  -1   4  333.99   10.17 
   7  -1   4  316.00    7.29 
   7  -1   4  338.16   11.20 
  -7   1  -4  321.23    7.21 
  -5  -2  -6  253.58    6.58 
   5   2   6  235.50    6.60 
   5   2   6  240.14    7.63 
  -5  -2  -6  253.22    7.57 
   5   2   6  248.87   14.40 
   5   2   6  257.80   13.12 
   8   0   2  687.06   23.99 
   8   0   2  676.37   18.12 
   8   0   2  680.05   18.03 
   6  -7  -4    3.98    3.23 
   6  -7  -4    7.49    3.22 
   6  -7  -4    6.65    3.44 
  -6   7   4    8.23    3.30 
  -6   7   4    5.23    4.79 
  -6   7   4    9.91    3.26 
   4   2   7  678.38   19.38 
   4   2   7  675.74   21.75 
   4   2   7  676.52   21.27 
  -4  -2  -7  677.51   17.43 
  -4  -2  -7  682.24   17.36 
   4   2   7  682.66   17.59 
   2   6   6  314.96   18.36 
  -2  -6  -6  328.55   11.48 
   2   6   6  304.00   17.78 
  -2  -6  -6  323.74   12.64 
   2   6   6  319.44   12.74 
   2   6   6  317.38   11.41 
   5  -1 -10  192.19   11.66 
   5  -1 -10  212.33   11.52 
  -5   1  10  213.00   11.73 
  -5   1  10  208.56   11.62 
   5  -1 -10  200.22    7.46 
   5  -1 -10  185.93    8.24 
  -5   1  10  204.58   10.43 
   4   7   3  167.94    7.24 
  -4  -7  -3  199.00    6.79 
  -4  -7  -3  189.60    7.25 
   4   7   3  174.74    8.43 
   4   7   3  184.96   10.80 
   4   7   3  180.54    6.77 
   4   7   3  200.02   14.94 
   5   8  -5  227.74    9.10 
   5   8  -5  225.79   14.81 
   5   8  -5  228.68    8.36 
  -5  -8   5  228.98    8.47 
  -5  -8   5  232.81    9.11 
  -5  -8   5  242.91   16.39 
   5   8  -5  228.47   13.23 
   5   8  -1  424.75   16.99 
  -5  -8   1  419.53   13.03 
  -5  -8   1  396.39   11.25 
   5   8  -1  369.09   11.28 
   5   8  -1  429.76   21.71 
   5   8  -1  418.33   13.25 
  -5  -8   1  452.47   18.17 
   3   9   0  466.77   21.21 
   3   9   0  519.27   19.07 
   3   9   0  490.71   16.42 
   3   9   0  540.03   25.59 
  -3  -9   0  549.64   26.31 
  -3  -9   0  466.10   19.55 
  -3  -9   0  496.12   16.26 
  -3  -9   0  512.41   18.40 
  -2   3  -9  649.22   17.54 
  -2   3  -9  680.25   22.33 
  -2   3  -9  675.52   24.87 
   2  -3   9  649.70   17.51 
   2  -3   9  671.25   23.81 
   2  -3   9  683.76   22.43 
   0   0  10  491.82   20.70 
   0   0 -10  515.98   15.73 
   0   0  10  503.20   17.16 
   0   0 -10  509.10   17.27 
   0   0 -10  486.71   14.44 
   0   0  10  498.11   14.66 
   9  -1  -5  367.73   14.60 
  -9   1   5  351.20   14.49 
  -9   1   5  334.06   10.60 
   9  -1  -5  354.74   10.78 
   9  -1  -5  358.48   15.61 
  -1   9  -5  696.47   25.02 
  -1   9  -5  723.50   27.71 
  -1   9  -5  681.63   23.09 
  -1   9  -5  732.91   23.26 
   1  -9   5  681.71   27.52 
   1  -9   5  714.70   23.22 
   1  -9   5  685.08   21.47 
   1  -9   5  728.95   28.24 
  -4  -7   8   90.72    6.98 
   4   7  -8   96.02    9.05 
  -4  -7   8  101.44    7.05 
  -4  -7   8   92.08   10.08 
   4   7  -8   91.52    8.35 
   4   7  -8   92.75    6.74 
   4   7  -8   85.70    7.06 
   2  -9  -3   85.10    7.53 
   2  -9  -3   98.98    9.36 
   2  -9  -3   91.11    6.68 
   2  -9  -3  101.58    9.01 
  -2   9   3   90.46    7.41 
  -2   9   3   86.90    9.03 
  -2   9   3   86.75    9.23 
  -2   9   3   86.74    6.86 
  -7   5   6  294.11   15.98 
   7  -5  -6  289.36   16.30 
   7  -5  -6  277.57   15.07 
  -7   5   6  268.09   16.54 
   7  -5  -6  278.96   15.89 
   8  -5  -2   33.15    3.82 
  -8   5   2   32.52    5.77 
  -8   5   2   24.25    3.86 
   8  -5  -2   34.53    6.98 
   8  -5  -2   28.19    5.77 
  -7  -2   9  132.45    7.60 
  -7  -2   9  131.56    8.83 
  -7  -2   9  137.09    5.43 
   7   2  -9  117.59    8.29 
   7   2  -9  125.06    7.76 
   7   2  -9  128.01    6.24 
   7   2  -9  141.94    5.37 
   7   2  -9  150.50    8.03 
  -2   2  10  565.47   16.65 
  -2   2  10  557.91   21.10 
   2  -2 -10  519.87   15.68 
   2  -2 -10  547.88   16.43 
   2  -2 -10  559.58   21.06 
  -2   2  10  555.53   22.12 
   1  -8  -5  375.38   16.64 
   1  -8  -5  409.32   18.57 
   1  -8  -5  390.58   18.43 
  -1   8   5  377.15   17.70 
  -1   8   5  385.88   13.66 
  -1   8   5  378.45   13.67 
  -1   8   5  357.60   18.56 
  -1   8   5  331.88   14.86 
   9  -2  -2   31.15    3.52 
   9  -2  -2   26.66    3.47 
  -9   2   2   20.04    3.36 
  -9   2   2   25.50    2.95 
   9  -2  -2   26.35    2.97 
   3  -9   3   11.71    3.70 
   3  -9   3    9.19    3.71 
   3  -9   3    8.50    2.44 
   3  -9   3   16.46    5.28 
  -3   9  -3    9.17    3.59 
  -3   9  -3   17.82    3.62 
  -3   9  -3   11.33    5.28 
  -3   9  -3    5.85    3.97 
   9  -2  -4  473.52   18.23 
   9  -2  -4  495.59   20.01 
   9  -2  -4  475.91   14.53 
  -9   2   4  468.12   18.22 
  -9   2   4  479.88   14.51 
   4   4   6   86.98    6.97 
   4   4   6   88.93    3.85 
  -4  -4  -6   87.59    4.66 
  -4  -4  -6   92.65    3.84 
   4   4   6   97.10    6.68 
   4   4   6   84.24    4.87 
  -9  -2   4  137.43    5.87 
   9   2  -4  133.84    4.96 
   9   2  -4  136.68    9.11 
   2  -8   6   29.15    3.86 
   2  -8   6   25.35    5.76 
   2  -8   6   22.01    5.55 
   2  -8   6   16.68    4.99 
  -2   8  -6   21.68    5.65 
  -2   8  -6   19.24    6.83 
  -2   8  -6   26.19    3.84 
  -2   8  -6   29.40    3.75 
   0   3 -10  377.40   15.37 
   0  -3  10  385.37   15.54 
   0  -3  10  363.96   16.79 
   0  -3  10  374.62   14.60 
   0   3 -10  356.43   15.10 
   0   3 -10  375.49   12.84 
   9   2  -3   45.94    4.26 
   9   2  -3   44.23    4.73 
   9   2  -3   53.88    3.91 
  -6   6   6   80.82    6.73 
  -6   6   6   64.35    6.53 
   6  -6  -6   70.61    8.82 
   6  -6  -6   87.97    6.26 
  -6   6   6   83.39    8.36 
   6  -6  -6   80.54    9.99 
   8  -2   2   41.92    3.83 
  -8   2  -2   41.86    2.53 
   8  -2   2   43.31    2.48 
  -8   2  -2   44.97    3.98 
   8  -2   2   47.28    3.69 
   8  -2   2   41.82    4.37 
   8  -2   2   47.85    2.77 
   4   6  -9  611.36   19.78 
   4   6  -9  582.26   21.16 
  -4  -6   9  548.79   23.61 
  -4  -6   9  586.80   19.78 
  -4  -6   9  575.71   16.36 
   4   6  -9  568.73   16.46 
   4   6  -9  565.05   17.16 
  -7   2  -4  471.52   11.45 
  -7   2  -4  472.40   14.92 
   7  -2   4  486.16   17.21 
   7  -2   4  466.80   11.61 
   7  -2   4  471.57   13.91 
   7  -2   4  463.00   17.31 
   7  -2   4  467.92   15.16 
   7  -6   1  420.04   14.33 
   7  -6   1  465.20   16.58 
  -7   6  -1  453.32   20.53 
  -7   6  -1  447.54   14.76 
  -7   6  -1  433.49   16.17 
   7  -6   1  454.85   20.31 
  -3  -9   5  344.27   16.60 
  -3  -9   5  353.95   14.48 
  -3  -9   5  353.22   10.69 
  -3  -9   5  344.74   11.19 
   3   9  -5  345.37   14.45 
   3   9  -5  346.68   19.45 
   3   9  -5  345.64   13.91 
   3   9  -5  344.56   10.65 
   7   0   4    6.46    2.65 
   7   0   4    5.68    3.31 
   7   0   4    4.81    2.47 
   5  -6   5  478.76   20.37 
   5  -6   5  499.76   17.55 
   5  -6   5  513.17   19.92 
  -5   6  -5  502.69   20.22 
  -5   6  -5  468.91   14.52 
   5  -6   5  483.53   15.29 
  -5   6  -5  516.54   21.21 
  -5   6  -5  495.67   18.13 
   4  -9   0  405.02   20.28 
  -4   9   0  427.32   20.71 
   4  -9   0  402.38   14.11 
   4  -9   0  390.67   21.81 
  -4   9   0  411.62   22.32 
   4  -9   0  429.49   21.45 
  -4   9   0  387.48   20.89 
  -4   9   0  348.44   13.49 
   9   0  -1   80.68    3.60 
   9   0  -1   90.11    3.11 
   9   0  -1   99.12    6.95 
  -8   5   3  223.69   12.58 
  -8   5   3  204.40   12.86 
   8  -5  -3  209.70   12.84 
   8  -5  -3  211.94   12.86 
   8  -5  -3  198.80   14.45 
   2   7   5  257.38   10.79 
   2   7   5  257.20   16.43 
   2   7   5  257.88   10.45 
   2   7   5  260.68   11.85 
   2   7   5  262.57   12.00 
  -2  -7  -5  252.51    7.00 
  -2  -7  -5  269.84   11.57 
  -2  -7  -5  273.47   10.92 
  -5   8  -2   79.02    6.80 
   5  -8   2   89.81    8.98 
  -5   8  -2   70.42    7.23 
  -5   8  -2   96.09    9.29 
   5  -8   2   83.44    9.93 
  -5   8  -2   79.65    9.92 
   5  -8   2   90.38   10.55 
   5  -8   2   78.08    5.32 
   4  -2 -10  534.02   21.21 
  -4   2  10  506.82   20.56 
  -4   2  10  504.40   19.52 
   4  -2 -10  519.47   16.90 
   4  -2 -10  510.76   14.38 
  -1   5  -9  245.79    8.79 
  -1   5  -9  228.97   12.25 
   1  -5   9  242.94   11.50 
   1  -5   9  235.65   13.04 
   1  -5   9  224.93    7.37 
   1  -5   9  251.12    9.11 
  -1   5  -9  263.71   12.07 
  -1   5  -9  276.90   13.47 
  -9   1   1  559.83   12.14 
   9  -1  -1  549.68   11.89 
   9  -1  -1  544.07   11.73 
   9  -1  -1  604.16   20.43 
  -9   1   1  565.60   12.18 
  -4   4   9   36.60    4.59 
  -4   4   9   19.73    5.08 
  -4   4   9   50.35    4.48 
   4  -4  -9   30.45    4.30 
   4  -4  -9   36.55    4.51 
   4  -4  -9   36.19    4.57 
  -4   4   9   36.06    4.61 
   8   1  -8  399.24   15.43 
   8   1  -8  377.13   13.75 
  -8  -1   8  377.73   13.81 
   8   1  -8  373.15   10.18 
   8   1  -8  378.35   12.71 
  -8  -1   8  390.04   14.42 
  -8  -1   8  373.75   12.93 
   5   4   5  489.58   18.01 
   5   4   5  507.47   23.10 
   7   4   2   45.17    3.89 
   7   4   2   58.80    6.92 
   7   4   2   52.16    4.05 
   7   4   2   51.21    8.52 
  -7   3   8  373.28    9.80 
  -7   3   8  434.82   19.08 
  -7   3   8  404.99   13.44 
   7  -3  -8  447.88   16.71 
   7  -3  -8  454.23   19.13 
   7  -3  -8  441.54   18.80 
  -7   3   8  464.82   19.76 
  -6  -7   6  244.50    8.60 
   6   7  -6  243.13    9.76 
  -6  -7   6  233.87   11.81 
  -6  -7   6  236.94    8.23 
   6   7  -6  239.24    8.66 
   6   7  -6  245.05    8.32 
   6   7  -6  244.31   13.24 
  -3   8   5  347.40   14.18 
   3  -8  -5  383.46   19.44 
   3  -8  -5  375.43   19.34 
  -3   8   5  322.33   16.27 
   3  -8  -5  357.88   13.07 
  -3   8   5  377.81   19.25 
  -3   8   5  336.28   14.09 
  -3   8   5  353.08   19.12 
   6  -7   2  373.36   11.16 
  -6   7  -2  409.50   21.04 
   6  -7   2  402.22   13.90 
   6  -7   2  419.51   15.60 
  -6   7  -2  422.93   15.51 
  -6   7  -2  378.78   12.47 
  -6   7  -2  403.15   14.22 
   6  -7   2  418.59   15.74 
   8   0  -8  551.93   17.47 
  -8   0   8  486.93   15.96 
  -8   0   8  518.64   17.07 
  -8   0   8  546.86   18.79 
   8   0  -8  467.97   12.74 
   8   0  -8  526.79   18.60 
   8   0  -8  546.45   19.08 
   0   9   3   17.99    6.01 
   0  -9  -3   24.28    6.08 
   0  -9  -3   24.09    5.89 
   0  -9  -3   20.94    5.41 
   0  -9  -3   27.56    5.98 
   0   9   3   32.41    6.16 
   0   9   3   28.21    5.38 
   0   9   3   25.51    3.91 
  -8   5   1  325.70   15.15 
  -8   5   1  315.18   15.50 
  -8   5   1  339.81   17.50 
   8  -5  -1  343.91   15.88 
   8  -5  -1  316.39   14.87 
   8  -5  -1  304.20   17.46 
  -4   9   1  130.90   11.67 
  -4   9   1  118.01   11.30 
  -4   9   1  112.55    6.75 
  -4   9   1  138.46    8.38 
   4  -9  -1  129.56   11.92 
   4  -9  -1  109.20   11.58 
   4  -9  -1  111.86    6.81 
   4  -9  -1  117.28    8.47 
   5  -7   4  166.16   12.55 
  -5   7  -4  193.72    9.29 
   5  -7   4  167.81    7.63 
  -5   7  -4  177.22    7.95 
  -5   7  -4  187.62   13.12 
  -5   7  -4  170.89   12.51 
   5  -7   4  186.87    7.82 
   5  -7   4  183.23   12.69 
   7   6  -1   61.55    3.98 
  -7  -6   1   64.78    9.33 
   7   6  -1   61.78    5.84 
   6  -4   5    7.85    3.03 
   6  -4   5    4.23    2.68 
   6  -4   5    1.33    2.04 
  -6   4  -5   -1.00    2.75 
  -6   4  -5    1.48    2.56 
   6  -4   5    1.41    2.00 
  -6   4  -5    2.58    2.00 
  -6   4  -5    1.03    2.11 
  -4   8  -4  483.66   23.20 
   4  -8   4  512.04   22.82 
   4  -8   4  505.37   22.99 
  -4   8  -4  478.88   18.97 
  -4   8  -4  469.29   22.62 
  -4   8  -4  516.52   21.67 
   4  -8   4  480.92   17.00 
   4  -8   4  517.65   21.52 
   0   5   8  148.07    9.33 
   0   5   8  141.47    7.48 
   0  -5  -8  137.14    9.19 
   0   5   8  137.81    9.15 
   0   5   8  126.72    7.96 
   0  -5  -8  142.62    8.99 
   4  -9   1  525.50   17.77 
  -4   9  -1  495.96   24.74 
  -4   9  -1  543.13   18.92 
  -4   9  -1  462.30   17.65 
  -4   9  -1  526.49   25.78 
   4  -9   1  510.58   18.76 
   4  -9   1  556.50   20.44 
   4  -9   1  512.63   25.75 
  -8   4  -1   15.38    2.86 
   8  -4   1    7.43    2.87 
   8  -4   1    7.50    4.82 
   8  -4   1    8.00    3.94 
  -8   4  -1   10.06    3.95 
  -2  -5  -7  467.67   16.05 
  -2  -5  -7  456.53   15.07 
   2   5   7  483.11   22.34 
   2   5   7  469.69   15.31 
   2   5   7  458.17   17.80 
   2   5   7  453.20   15.84 
   8   5  -4   52.75    3.66 
   8   5  -4   41.01    4.22 
  -8  -5   4   38.46    8.07 
  -9  -2   5  443.67   13.61 
   9   2  -5  418.04   11.29 
   9   2  -5  436.53   15.62 
   9   2  -5  440.27   11.01 
  -9  -2   5  426.63   11.04 
  -9  -2   5  443.99   13.67 
   9   2  -5  465.82   14.05 
  -7  -6   6  183.05    6.42 
  -7  -6   6  202.47   14.81 
  -7  -6   6  172.66    6.26 
   7   6  -6  178.32    6.24 
   7   6  -6  172.20   10.21 
   7   6  -6  188.18    6.55 
   7   6  -6  187.44    8.02 
   7  -1  -9   34.67    2.90 
   7  -1  -9   42.77    5.83 
  -7   1   9   31.48    6.16 
   7  -1  -9   41.86    4.82 
  -7   1   9   33.88    3.75 
  -7   1   9   35.93    5.83 
   7  -1  -9   43.10    3.67 
   5  -5  -8  117.07   11.24 
   5  -5  -8   97.68    7.81 
  -5   5   8   99.58    5.75 
  -5   5   8  106.40   10.86 
  -5   5   8  102.79   11.27 
  -5   5   8  106.44    6.27 
   5  -5  -8  119.70   10.71 
   8   1   2   78.06    7.34 
   8   1   2   65.59    4.65 
   8   1   2   68.15    3.49 
   5  -6  -7  180.35   11.52 
  -5   6   7  176.17    8.04 
   5  -6  -7  200.06   14.24 
  -5   6   7  184.47   10.81 
  -5   6   7  212.43   14.64 
  -5   6   7  172.38    9.59 
  -5   6   7  200.80   14.28 
   5  -6  -7  207.33   14.09 
   0  10  -1  565.17   18.37 
   0  10  -1  546.43   19.47 
   0 -10   1  518.71   18.96 
   0  10  -1  530.42   26.99 
   0 -10   1  554.28   19.08 
   0 -10   1  567.19   18.61 
   0 -10   1  578.18   26.26 
   0  10  -1  596.51   24.87 
   0 -10   2  703.89   28.82 
   0 -10   2  670.75   23.16 
   0 -10   2  689.42   24.35 
   0 -10   2  703.40   27.61 
   0  10  -2  725.77   23.74 
   0  10  -2  689.53   31.91 
   0  10  -2  698.13   27.44 
   0  10  -2  684.51   23.30 
   6   1 -10  525.54   15.16 
   6   1 -10  522.91   13.62 
   6   1 -10  524.36   15.92 
   6   1 -10  517.96   15.51 
   6   1 -10  508.84   13.95 
  -6  -1  10  517.42   15.43 
  -6  -1  10  518.05   15.82 
  -6  -1  10  509.38   15.34 
  -8  -5   3  166.01   12.15 
   8   5  -3  171.90    9.75 
   8   5  -3  158.09    9.70 
  -1   4   9   77.13    5.23 
  -1   4   9   74.52    8.86 
  -1   4   9   73.96    7.62 
  -1   4   9   82.74    5.11 
   1  -4  -9   72.60    5.12 
   1  -4  -9   84.01    7.63 
   0  -6   9  523.06   21.50 
   0   6  -9  530.40   15.65 
   0  -6   9  547.73   16.65 
   0  -6   9  534.45   15.90 
   0  -6   9  523.53   15.64 
   0   6  -9  541.19   21.83 
   0   6  -9  543.19   16.66 
   0   6  -9  546.59   21.36 
  -4  -9   3  455.66   14.50 
  -4  -9   3  473.89   17.04 
   4   9  -3  455.75   17.13 
   4   9  -3  461.56   21.41 
   4   9  -3  506.25   24.30 
   4   9  -3  464.18   14.89 
  -4  -9   3  478.58   25.22 
  -3  -4  -7  274.38    9.78 
  -3  -4  -7  280.97    9.22 
   3   4   7  258.31    9.75 
   3   4   7  280.17   11.55 
   3   4   7  273.82   12.15 
   3   4   7  274.33    9.21 
   7   5   1   12.45    5.67 
   7   5   1   10.93    5.22 
   7   5   1   11.50    2.94 
   2  -6   8  157.75    7.12 
  -2   6  -8  158.08    7.12 
  -2   6  -8  148.96   10.47 
  -2   6  -8  158.00    9.36 
   2  -6   8  161.65    9.75 
   2  -6   8  144.18    9.21 
  -2   6  -8  143.41    7.18 
   2  -6   8  147.61    7.10 
   9   2  -2  264.15    9.07 
   9   2  -2  263.60    8.83 
   9   2  -2  263.37    8.89 
  -1  -9   6   37.89    6.85 
  -1  -9   6   32.65    6.10 
  -1  -9   6   29.06    4.02 
   1   9  -6   30.39    7.68 
   1   9  -6   39.16    4.87 
   1   9  -6   37.03    6.26 
   1   9  -6   32.54    3.87 
  -1  -9   6   30.81    3.89 
   9   1  -1  141.25    6.24 
   9   1  -1  132.66    6.16 
   9   1  -1  150.95    8.40 
   6   2   5    9.60    4.23 
   6   2   5   15.29    5.08 
  -3  -2  -8  370.33   11.76 
  -3  -2  -8  357.63   11.11 
   3   2   8  371.30   17.93 
   3   2   8  365.27   11.52 
   3   2   8  384.25   18.41 
   3   2   8  370.78   11.89 
  -8  -2   8    3.48    2.42 
  -8  -2   8    0.88    3.57 
   8   2  -8    4.68    2.16 
   8   2  -8    6.60    1.93 
   8   2  -8    7.48    2.43 
   8   2  -8    4.73    2.62 
  -8  -2   8    1.98    2.67 
  -9   0   6  200.58    9.79 
  -9   0   6  178.54    6.91 
   9   0  -6  178.34    6.94 
   9   0  -6  199.59    9.92 
   9   0  -6  185.53   11.31 
   1 -10   1  498.26   24.73 
  -1  10  -1  508.70   21.62 
  -1  10  -1  487.59   23.49 
  -1  10  -1  507.46   22.73 
   1 -10   1  512.65   22.82 
   1 -10   1  490.04   23.82 
   1 -10   1  513.38   22.17 
  -1  10  -1  504.43   26.28 
   4   9  -2  211.26   12.92 
  -4  -9   2  209.85   11.62 
  -4  -9   2  195.20    7.92 
  -4  -9   2  204.36   10.05 
   4   9  -2  206.34   10.00 
   4   9  -2  196.38    8.20 
   4   9  -2  222.82   15.22 
   9  -2  -1  221.82    8.40 
   9  -2  -1  223.38   11.81 
   9  -2  -1  210.09    8.60 
  -9   2   1  218.48    7.27 
  -9   2   1  210.22    6.94 
  -3   9   3  355.49   18.59 
   3  -9  -3  357.54   18.94 
   3  -9  -3  373.27   19.16 
  -3   9   3  315.45   13.27 
   3  -9  -3  332.90   17.75 
  -3   9   3  346.51   13.45 
  -3   9   3  357.04   19.31 
  -3  -5  10  242.02   13.26 
  -3  -5  10  220.12    8.17 
  -3  -5  10  220.97   11.85 
   3   5 -10  213.94    8.52 
   3   5 -10  216.54    8.18 
   3   5 -10  208.92   10.43 
   3   5 -10  231.99   11.93 
   2   1   9  384.16   13.41 
   2   1   9  381.77   17.75 
  -2  -1  -9  352.20   12.22 
   2   1   9  373.55   10.06 
  -2  -1  -9  381.30   18.47 
  -2  -1  -9  379.04   10.67 
   2   5 -10   68.57    8.08 
   2   5 -10   74.38    6.62 
  -2  -5  10   85.32    8.50 
   2   5 -10   68.88    7.06 
  -2  -5  10   78.73    7.26 
  -2  -5  10   65.82    7.70 
   2   5 -10   87.73    7.56 
   9  -2  -5  393.22   16.28 
   9  -2  -5  366.91   16.53 
   9  -2  -5  367.22   12.86 
  -9   2   5  372.55   16.36 
  -9   2   5  345.34   12.47 
   6   2 -10  351.19   11.17 
   6   2 -10  339.01   12.96 
  -6  -2  10  368.84   14.36 
   6   2 -10  350.94   13.89 
  -6  -2  10  351.24   11.23 
   6   2 -10  359.07   12.51 
  -6  -2  10  352.93   15.54 
   6   2 -10  344.96   12.18 
   7   3   3  240.36   10.96 
   7   3   3  215.75    8.74 
   7   3   3  238.04    8.22 
   7   3   3  230.97    7.56 
  -4   5  -7  168.48    6.45 
   4  -5   7  166.33    8.01 
   4  -5   7  188.04    9.27 
  -4   5  -7  158.40    8.03 
  -4   5  -7  186.28   10.00 
   4  -5   7  189.75   10.12 
   4  -5   7  165.03    6.27 
  -4   5  -7  182.09   10.45 
   2   9  -6    6.59    3.68 
   2   9  -6    6.44    5.15 
   2   9  -6    6.26    3.89 
   2   9  -6    4.04    5.12 
  -2  -9   6    4.69    4.07 
  -2  -9   6    7.52    3.86 
  -2  -9   6    6.63    3.31 
  -2  -9   6    7.69    3.72 
   8  -5  -4  608.01   25.00 
  -8   5   4  571.57   23.76 
   8  -5  -4  602.51   25.37 
   8  -5  -4  591.01   25.85 
  -8   5   4  593.59   25.60 
  -9  -1   6   77.00    4.10 
  -9  -1   6   73.63    3.97 
   9   1  -6   95.07    7.64 
   9   1  -6   92.63    7.72 
   9   1  -6   71.29    3.55 
   9   1  -6   88.05    4.17 
  -9  -1   6   71.43    6.09 
   6   0 -10    7.49    3.11 
  -6   0  10    0.67    3.23 
  -6   0  10    2.36    2.73 
  -6   0  10    0.73    3.09 
   6   0 -10    4.76    3.05 
   6   0 -10   -0.17    1.96 
   6   0 -10    1.95    1.41 
   0  -8  -5  230.90   13.11 
   0  -8  -5  219.19   11.83 
   0  -8  -5  242.38   13.05 
   0   8   5  226.54   13.91 
   0   8   5  248.51   14.40 
   0   8   5  228.99   12.97 
   0   8   5  235.45   13.01 
   0   8   5  199.96   10.94 
  -1 -10   2  391.56   14.74 
  -1 -10   2  371.22   17.01 
   1  10  -2  392.87   17.18 
   1  10  -2  363.56   18.19 
   1  10  -2  381.24   19.68 
   1  10  -2  354.01   15.12 
  -1 -10   2  379.28   18.07 
  -1 -10   2  361.77   15.06 
  -7  -3   9  270.24   13.81 
  -7  -3   9  286.65   11.41 
  -7  -3   9  289.23    8.90 
   7   3  -9  289.07   13.05 
   7   3  -9  289.88   11.12 
   7   3  -9  294.66    8.93 
   7   3  -9  298.64    8.46 
   7  -3   4   19.29    2.63 
  -7   3  -4   20.09    4.07 
  -7   3  -4   21.43    2.62 
   7  -3   4   21.84    4.18 
   7  -3   4   14.06    4.86 
   7  -3   4   21.35    2.94 
  -1   2  10  393.54   15.62 
   1  -2 -10  400.82   16.65 
   1  -2 -10  396.88   15.41 
   1  -2 -10  401.82   13.05 
  -1   2  10  412.47   18.70 
  -1   2  10  404.17   16.70 
   8  -1  -8   42.03    3.53 
   8  -1  -8   46.55    5.79 
   8  -1  -8   31.66    5.00 
  -8   1   8   26.91    4.97 
  -8   1   8   30.43    5.85 
   6   5   3  605.96   28.71 
   6   5   3  564.38   20.31 
   6   5   3  594.97   16.69 
   7   1   4  401.87   14.81 
   7   1   4  446.25   13.17 
   7   1   4  428.47   19.32 
   7   1   4  421.33   10.64 
   1 -10   2  551.33   18.97 
   1 -10   2  572.29   27.17 
   1 -10   2  589.24   25.40 
  -1  10  -2  573.81   28.62 
  -1  10  -2  560.58   20.39 
  -1  10  -2  591.28   25.58 
   1 -10   2  545.36   19.95 
  -1  10  -2  549.41   23.80 
   8   5  -5  431.70   13.41 
   8   5  -5  370.18    8.91 
   8   5  -5  405.37   14.67 
  -8  -5   5  411.62    9.88 
  -8  -5   5  406.96    9.21 
  -8  -5   5  391.65   20.94 
   5   4 -10  510.25   18.58 
   5   4 -10  518.26   18.01 
  -5  -4  10  542.50   22.36 
  -5  -4  10  535.04   19.22 
  -5  -4  10  535.75   18.82 
   5   4 -10  527.86   18.98 
   5   4 -10  550.52   18.96 
   0  -1 -10   16.91    3.12 
   0  -1 -10   12.01    4.02 
   0   1  10   13.29    4.13 
   0   1  10   11.98    5.13 
   0   1  10    8.89    3.83 
   0  -1 -10   11.22    3.94 
  -6  -7   0  593.47   22.54 
   6   7   0  621.87   22.45 
   6   7   0  617.38   21.50 
   6  -3  -9  145.78   11.08 
   6  -3  -9  147.56   10.94 
   6  -3  -9  131.87    7.53 
  -6   3   9  133.73    7.04 
  -6   3   9  144.17   11.10 
  -6   3   9  113.95    5.63 
  -6   3   9  134.77   10.57 
   5   7   2    7.75    6.78 
   5   7   2   14.50    3.36 
   5   7   2   15.92    4.45 
   4   9  -4  436.14   22.26 
  -4  -9   4  399.13   13.73 
  -4  -9   4  398.34   22.08 
  -4  -9   4  412.17   15.63 
   4   9  -4  417.47   15.68 
   4   9  -4  420.55   14.97 
   4   9  -4  419.20   14.07 
   4   8  -7  742.05   23.47 
   4   8  -7  719.14   28.34 
  -4  -8   7  736.76   23.50 
  -4  -8   7  718.84   23.50 
  -4  -8   7  735.97   31.50 
   4   8  -7  774.13   30.60 
   4   8  -7  713.09   23.71 
   8  -3   2  764.92   19.57 
  -8   3  -2  719.53   18.94 
  -8   3  -2  801.71   25.30 
   8  -3   2  793.79   24.99 
   8  -3   2  786.05   28.81 
   8  -3   2  758.21   17.90 
   9  -3  -3  420.65   16.94 
  -9   3   3  429.07   14.97 
   9  -3  -3  404.84   14.72 
   9  -3  -3  441.11   18.99 
  -9   3   3  432.77   17.06 
   4  -9  -2   50.91    4.71 
   4  -9  -2   42.74    8.56 
  -4   9   2   41.90    7.96 
  -4   9   2   48.09    8.62 
  -4   9   2   49.07    5.90 
  -4   9   2   39.76    8.80 
   4  -9  -2   45.77    8.58 
   4  -9  -2   63.68    8.83 
  -2   4  -9    7.82    2.52 
   2  -4   9   13.06    4.24 
  -2   4  -9    9.33    3.77 
   2  -4   9   12.16    3.55 
   2  -4   9    6.12    1.44 
   2  -4   9   15.40    3.81 
  -2   4  -9    6.54    4.49 
  -2   4  -9   10.73    3.56 
  -1 -10   1  462.12   20.96 
  -1 -10   1  478.97   18.19 
  -1 -10   1  478.78   19.81 
  -1 -10   1  469.18   17.09 
   1  10  -1  491.21   21.15 
   1  10  -1  504.34   22.65 
   1  10  -1  483.76   20.03 
   1  10  -1  442.09   18.23 
   8   3   1  626.35   18.19 
   8   3   1  591.93   25.01 
   8   3   1  655.22   19.45 
   8   3   1  631.47   21.06 
   1 -10   0  198.80   12.69 
  -1  10   0  204.68   13.84 
  -1  10   0  204.15   12.25 
  -1  10   0  193.98   15.00 
   1 -10   0  165.56   14.57 
   1 -10   0  205.79   12.87 
   1 -10   0  195.81   14.11 
  -1  10   0  190.56   12.95 
   0 -10   0  233.52   13.59 
   0 -10   0  228.60   14.89 
   0 -10   0  223.84   15.20 
   0  10   0  220.31   13.44 
   0  10   0  254.80   14.37 
   0  10   0  241.31   14.62 
   0  10   0  222.01   16.04 
   0 -10   0  230.87   14.57 
   2   9   2  212.02    8.00 
   2   9   2  209.15   11.51 
  -2  -9  -2  236.90   15.91 
  -2  -9  -2  211.02    7.97 
  -2  -9  -2  209.75   11.47 
  -2  -9  -2  203.54    8.68 
   2   9   2  240.58   10.85 
   2   9   2  201.00   13.01 
  -3  -8  -3  402.77   13.52 
   3   8   3  410.67   22.67 
   3   8   3  387.60   13.76 
   3   8   3  407.35   22.13 
   3   8   3  360.01   15.18 
  -3  -8  -3  377.23   13.28 
   3   8   3  346.87   15.73 
   6   6  -8  770.57   27.61 
   6   6  -8  769.78   22.49 
   6   6  -8  772.31   26.79 
  -6  -6   8  757.92   19.96 
  -6  -6   8  767.17   22.94 
  -6  -6   8  792.59   32.36 
   6   6  -8  772.67   20.20 
   0  10  -3   65.71    9.23 
   0  10  -3   69.67   10.83 
   0 -10   3   74.04    9.93 
   0 -10   3   75.42    9.36 
   0 -10   3   79.33    8.60 
   0  10  -3   80.88    8.52 
   0  10  -3   73.11    6.25 
   0 -10   3   76.34    6.43 
   0  -9   6  115.29    6.42 
   0   9  -6  110.52    9.54 
   0   9  -6  109.91   10.78 
   0   9  -6  105.79    7.78 
   0   9  -6  105.61    6.47 
   0  -9   6  105.45    9.58 
   0  -9   6  101.45    9.97 
   0  -9   6  105.22    6.64 
  -5   5  -6   45.21    5.81 
   5  -5   6   48.71    4.84 
   5  -5   6   44.59    4.79 
  -5   5  -6   45.25    5.93 
   5  -5   6   43.11    5.62 
   5  -5   6   37.25    5.82 
  -5   5  -6   44.13    4.88 
  -5   5  -6   46.24    4.78 
   1  -8   7  500.41   20.79 
  -1   8  -7  513.17   20.41 
   1  -8   7  487.36   16.06 
   1  -8   7  508.02   20.10 
   1  -8   7  474.57   18.98 
  -1   8  -7  475.38   20.64 
  -1   8  -7  513.59   24.33 
  -1   8  -7  500.44   21.70 
   8  -4  -6  512.48   21.85 
   8  -4  -6  487.25   16.39 
   8  -4  -6  457.76   20.29 
  -8   4   6  500.17   22.14 
  -8   4   6  485.86   20.33 
  -9   1   6  552.31   17.13 
  -9   1   6  618.27   22.52 
   9  -1  -6  568.36   17.23 
   9  -1  -6  618.66   22.13 
   9  -1  -6  586.58   22.49 
   8  -3  -7  377.02   17.65 
   8  -3  -7  361.56   12.13 
   8  -3  -7  376.22   16.34 
  -8   3   7  370.94   18.14 
  -8   3   7  361.42   16.31 
   1  -7   8   83.98    6.12 
   1  -7   8   89.48    8.06 
   1  -7   8   91.35    8.36 
   1  -7   8   78.56    8.39 
  -1   7  -8   85.43    9.19 
  -1   7  -8   93.87    8.61 
  -1   7  -8   82.29    8.64 
  -1   7  -8   94.26    7.99 
   7  -6  -5  103.99   10.48 
   7  -6  -5   99.14   10.36 
  -7   6   5  101.25   10.32 
  -7   6   5   87.92    6.95 
  -7   6   5  108.05   10.59 
   7  -6  -5   89.21   10.63 
   0  -4  10  419.14   12.66 
   0  -4  10  408.40   18.49 
   0   4 -10  352.82   17.20 
   0   4 -10  409.50   17.83 
   0   4 -10  427.16   12.97 
   0  -4  10  430.63   17.30 
   0   4 -10  422.13   17.13 
  -8  -5   2  441.75   20.16 
   8   5  -2  438.29   13.04 
   8   5  -2  444.30   18.57 
  -8   5   0  445.59   20.45 
  -8   5   0  440.85   19.29 
  -8   5   0  433.86   17.09 
   8  -5   0  460.52   21.34 
   8  -5   0  429.00   17.16 
   8  -5   0  469.96   19.45 
  -5  -8   6  671.66   20.15 
  -5  -8   6  673.51   21.20 
  -5  -8   6  658.67   24.20 
   5   8  -6  691.34   26.80 
   5   8  -6  683.04   20.28 
   5   8  -6  695.60   28.27 
   5   8  -6  663.56   20.94 
  -9   3   2  572.18   19.15 
   9  -3  -2  591.21   18.59 
   9  -3  -2  583.11   18.95 
   9  -3  -2  572.95   19.12 
  -9   3   2  586.20   21.15 
  -5  -8   0   66.72    3.11 
   5   8   0   99.90   10.44 
  -5  -8   0   84.71    7.46 
   5   8   0   58.42    3.96 
   5   8   0   80.94    6.89 
   5   8   0   57.83    3.07 
  -5  -8   0   65.71    3.98 
  -1 -10   3   60.70    6.33 
  -1 -10   3   65.28    8.16 
  -1 -10   3   61.52    9.11 
   1  10  -3   60.95    7.52 
   1  10  -3   62.51    6.03 
   1  10  -3   74.45    9.72 
   1  10  -3   56.43    8.32 
  -1 -10   3   61.84    7.62 
  -8  -4   7   48.74    3.93 
  -8  -4   7   52.46    3.61 
   8   4  -7   47.98    6.62 
  -8  -4   7   56.84    8.05 
   8   4  -7   56.46    3.82 
   8   4  -7   44.40    2.96 
   8   4  -7   50.36    3.60 
   8   4   0  525.42   16.87 
   8   4   0  524.57   20.34 
   8   4   0  510.63   22.00 
  -5   2  10  452.57   17.17 
  -5   2  10  450.49   15.16 
  -5   2  10  457.54   18.77 
   5  -2 -10  433.27   19.42 
   5  -2 -10  420.92   15.02 
   5  -2 -10  448.95   13.98 
   5  -2 -10  449.64   14.48 
   5  -8  -4  182.92   13.81 
  -5   8   4  214.17    9.64 
  -5   8   4  175.31    9.01 
   5  -8  -4  187.63    9.79 
  -5   8   4  167.89    8.08 
  -5   8   4  158.21    6.51 
   4  -9   2  176.30    9.05 
  -4   9  -2  168.54    9.59 
  -4   9  -2  157.88    9.23 
   4  -9   2  178.60    9.22 
   4  -9   2  147.53   14.24 
   4  -9   2  180.71    9.81 
  -4   9  -2  160.82   14.39 
  -4   9  -2  180.06   13.92 
   6   4   4  581.63   16.39 
   6   4   4  571.90   19.17 
   6   4   4  598.30   27.38 
   6   4   4  559.99   14.43 
  -2  -8  -4   24.86    4.12 
  -2  -8  -4   29.59    4.46 
   2   8   4   27.13    4.73 
   2   8   4   39.99    4.56 
   2   8   4   27.00    4.68 
   2   8   4   20.16    7.52 
   2   8   4   33.97    7.83 
  -2  -8  -4   26.08    4.65 
   3  -5   8  593.62   17.56 
   3  -5   8  623.58   20.63 
  -3   5  -8  563.37   19.66 
  -3   5  -8  618.68   18.34 
  -3   5  -8  644.51   20.15 
  -3   5  -8  650.97   21.00 
   3  -5   8  631.41   22.10 
   3  -5   8  632.28   18.25 
  -9   3   4  361.48   16.45 
   9  -3  -4  362.08   17.46 
   9  -3  -4  334.63   13.34 
   9  -3  -4  376.74   16.51 
  -9   3   4  340.49   13.31 
   5  -1   7  491.25   13.32 
   5  -1   7  474.50   18.11 
   5  -1   7  478.39   14.27 
  -5   1  -7  483.06   14.26 
  -5   1  -7  519.72   20.50 
  -5   1  -7  479.92   13.12 
   9   3  -4  314.76   10.70 
   9   3  -4  305.69   10.24 
  -9  -3   4  322.76   12.44 
   9   3  -4  318.86   10.71 
  -7   5  -3  164.39    8.95 
   7  -5   3  184.78    8.33 
  -7   5  -3  182.74   10.48 
  -7   5  -3  169.80   10.66 
  -7   5  -3  177.75    8.42 
   7  -5   3  184.11   11.20 
   7  -5   3  193.12   12.41 
   7  -5   3  157.85    5.77 
   6   5  -9   57.74    5.91 
   6   5  -9   44.83    5.41 
   6   5  -9   53.70    5.07 
  -6  -5   9   43.21    3.37 
  -6  -5   9   37.71    5.14 
  -6  -5   9   42.60    7.54 
   6   5  -9   40.34    3.28 
  -4  -9   1    6.49    3.62 
  -4  -9   1    3.70    3.01 
  -4  -9   1    5.84    2.30 
   4   9  -1    9.70    5.39 
   4   9  -1   11.98    4.14 
   4   9  -1    3.36    2.98 
   4   9  -1    2.69    2.28 
   3   9   1  733.55   25.63 
   3   9   1  794.78   33.18 
   3   9   1  693.45   23.05 
   3   9   1  679.88   28.04 
  -3  -9  -1  705.46   25.55 
  -3  -9  -1  753.06   25.07 
  -3  -9  -1  705.73   22.36 
  -3  -9  -1  761.80   33.40 
   5  -4  -9    0.31    2.28 
   5  -4  -9    3.01    3.68 
  -5   4   9    1.98    2.27 
  -5   4   9    1.36    2.28 
  -5   4   9    1.02    3.67 
   5  -4  -9   -1.45    2.33 
  -5   4   9    1.54    1.92 
   4   5 -10  283.83    9.56 
   4   5 -10  276.75   13.44 
   4   5 -10  315.44   13.13 
  -4  -5  10  294.93   13.61 
   4   5 -10  285.31   13.63 
  -4  -5  10  288.72   13.24 
  -4  -5  10  310.96   15.86 
  -4   8   5  295.38   13.07 
  -4   8   5  297.54   16.40 
   4  -8  -5  319.88   13.63 
   4  -8  -5  353.28   19.13 
   4  -8  -5  344.58   17.14 
  -4   8   5  350.33   19.61 
  -4   8   5  301.17   11.77 
  -4   8   5  320.99   14.14 
   6   6   2  497.65   19.50 
   6   6   2  505.45   24.99 
   6   6   2  498.87   16.12 
  -5   7   6  256.57   14.82 
   5  -7  -6  265.84   15.21 
  -5   7   6  262.22   13.07 
  -5   7   6  252.26    9.45 
  -5   7   6  264.80    9.88 
   5  -7  -6  284.54   13.27 
   5  -7  -6  305.34   17.26 
  -5   7   6  287.99   12.67 
  -1  -5  10   11.75    4.43 
  -1  -5  10   11.65    5.17 
   1   5 -10   16.00    4.71 
   1   5 -10   11.62    4.41 
   1   5 -10   12.08    4.07 
  -1  -5  10   15.73    4.82 
   1   5 -10    8.87    4.71 
  -5   2  -7  132.70    6.03 
  -5   2  -7  143.06    6.96 
   5  -2   7  144.52    8.61 
   5  -2   7  133.46    6.12 
   5  -2   7  140.81    6.97 
  -5   2  -7  145.07    7.15 
   9   3  -3  474.96   17.84 
   9   3  -3  472.38   14.79 
   9   3  -3  481.29   14.46 
  -9  -3   3  490.49   16.11 
  -9  -2   6  550.33   14.07 
   9   2  -6  541.56   14.02 
   9   2  -6  560.15   16.99 
   9   2  -6  586.38   20.27 
   9   2  -6  578.10   14.25 
  -9  -2   6  567.53   20.05 
  -9  -2   6  540.63   17.58 
   1   7   6    4.53    2.29 
  -1  -7  -6    4.22    2.09 
  -1  -7  -6    6.48    3.41 
  -1  -7  -6    8.59    3.41 
   1   7   6    4.36    2.21 
   1   7   6    8.19    4.78 
   1   7   6    6.98    4.88 
   1   7   6    3.00    3.46 
  -1  -6  -7    4.69    3.25 
   1   6   7    3.97    3.32 
   1   6   7    3.08    3.13 
  -1  -6  -7    4.95    3.14 
   1   6   7    3.57    3.15 
   1   6   7    6.05    2.92 
  -1  -9  -3    7.23    5.27 
   1   9   3    8.28    2.76 
   1   9   3    5.65    3.90 
   1   9   3    8.37    5.11 
  -1  -9  -3   10.10    3.91 
  -1  -9  -3    4.05    4.18 
  -1  -9  -3   11.24    4.15 
   1   9   3    7.70    4.24 
   9  -1   0  287.83    9.72 
  -2   9  -5  638.47   30.71 
  -2   9  -5  616.00   21.56 
   2  -9   5  663.41   27.50 
  -2   9  -5  647.83   21.62 
   2  -9   5  646.91   19.91 
   2  -9   5  625.45   21.01 
   2  -9   5  623.06   25.09 
  -2   9  -5  625.30   25.58 
   9   0   0   42.92    5.09 
   9   0   0   38.35    2.65 
   9   0   0   38.35    3.74 
  -6   7   5  213.84   13.90 
   6  -7  -5  205.14   15.10 
   6  -7  -5  215.81   10.73 
  -6   7   5  194.98   15.43 
   6  -7  -5  187.55    9.84 
  -6   7   5  208.14   10.55 
   4  -1   8  399.39   10.89 
   4  -1   8  437.72   17.18 
  -4   1  -8  413.17   13.28 
  -4   1  -8  417.03   18.74 
  -4   1  -8  396.49   12.30 
   4  -1   8  393.57   12.41 
   6  -6   4   98.75   10.35 
   6  -6   4  120.62    8.07 
  -6   6  -4  125.46    7.40 
   6  -6   4  130.46    9.97 
   6  -6   4  120.49    5.93 
  -6   6  -4  127.36    9.96 
  -6   6  -4  125.37    8.10 
  -6   6  -4  109.58   10.34 
  -2  10  -1  395.23   20.31 
  -2  10  -1  382.88   21.42 
  -2  10  -1  369.01   17.41 
  -2  10  -1  390.37   16.73 
   2 -10   1  411.23   20.73 
   2 -10   1  380.97   15.74 
   2 -10   1  391.00   18.01 
   2 -10   1  407.63   22.37 
   7   5  -8   29.24    6.05 
  -7  -5   8   33.68    6.99 
  -7  -5   8   39.24    3.96 
  -7  -5   8   35.84    3.87 
   7   5  -8   21.66    3.94 
   7   5  -8   41.50    4.77 
   7   5  -8   37.27    3.83 
  -1   1 -10  430.70   14.44 
  -1   1 -10  427.64   12.58 
   1  -1  10  435.73   12.52 
   1  -1  10  443.27   13.34 
   1  -1  10  425.08   19.51 
  -1   1 -10  440.27   13.17 
   6   3 -10    0.56    2.49 
   6   3 -10    9.52    2.65 
   6   3 -10    0.10    2.35 
  -6  -3  10   -1.87    2.76 
  -6  -3  10   -0.32    3.29 
   6   3 -10    1.57    2.71 
  -6  -3  10    0.81    2.76 
   1  -2  10   30.10    3.91 
   1  -2  10   29.26    3.02 
  -1   2 -10   21.36    3.08 
  -1   2 -10   20.66    5.93 
   1  -2  10   24.37    4.99 
  -1   2 -10   22.25    4.89 
   4   8   2  256.80   11.46 
  -4  -8  -2  300.99   10.92 
   4   8   2  304.00   10.28 
   4   8   2  280.82   11.18 
  -4  -8  -2  299.46    9.83 
  -4  -8  -2  336.97   20.77 
   4   8   2  343.30   19.61 
  -1  -3  -9  552.73   18.81 
  -1  -3  -9  579.37   19.27 
   1   3   9  557.23   19.15 
   1   3   9  578.43   20.02 
   1   3   9  560.17   23.48 
   1   3   9  553.30   18.75 
   5   6  -9  253.35   11.39 
   5   6  -9  240.38   12.60 
   5   6  -9  261.94   11.33 
  -5  -6   9  245.97   10.65 
   5   6  -9  249.28   12.68 
  -5  -6   9  254.66   11.23 
  -5  -6   9  244.10   11.41 
   4  -2   8  381.34   12.41 
   4  -2   8  356.88   15.63 
  -4   2  -8  376.80   13.41 
  -4   2  -8  399.33   13.75 
   4  -2   8  393.93   13.78 
  -4   2  -8  408.07   12.72 
  -1  10  -3  182.16   10.41 
  -1  10  -3  177.25   13.25 
  -1  10  -3  154.83   11.94 
   1 -10   3  158.05    8.61 
   1 -10   3  148.02   13.25 
   1 -10   3  183.96   14.01 
  -1  10  -3  163.56   13.20 
   1 -10   3  168.76   13.28 
   6  -8  -1  509.79   19.67 
  -6   8   1  569.90   25.95 
  -6   8   1  551.97   20.21 
  -6   8   1  514.32   25.94 
   6  -8  -1  556.37   25.32 
   6  -8  -1  529.47   20.20 
   9   2  -1  465.03   16.52 
   9   2  -1  448.34   13.67 
   9   2  -1  485.73   15.95 
  -6   1  10  198.72   11.37 
  -6   1  10  184.66   11.86 
  -6   1  10  172.06    9.84 
   6  -1 -10  185.12   11.71 
   6  -1 -10  176.83    7.47 
   6  -1 -10  204.16   11.56 
   6  -1 -10  189.61    6.19 
   3   9  -6    2.91    3.10 
   3   9  -6    1.99    4.94 
  -3  -9   6   -0.57    3.93 
  -3  -9   6    2.00    5.03 
  -3  -9   6    4.53    3.17 
   3   9  -6    4.50    3.41 
   3   9  -6    4.73    2.88 
  -3  -9   6    6.85    3.31 
   3  -9   4  380.48   15.26 
   3  -9   4  409.58   20.74 
  -3   9  -4  376.08   16.86 
  -3   9  -4  393.52   15.73 
  -3   9  -4  363.76   19.21 
  -3   9  -4  372.48   15.71 
   3  -9   4  398.21   12.78 
   3  -9   4  378.78   19.36 
   5   7  -8  176.52   11.61 
   5   7  -8  181.06    9.07 
   5   7  -8  174.15   11.43 
   5   7  -8  174.09    8.74 
  -5  -7   8  187.58    9.02 
  -5  -7   8  178.75    9.04 
  -5  -7   8  179.66   13.91 
   8   3  -8  315.34   11.05 
   8   3  -8  306.89   10.27 
   8   3  -8  307.60   10.79 
   8   3  -8  319.77   14.12 
  -8  -3   8  305.37   10.62 
  -8  -3   8  337.79   16.00 
  -8  -3   8  315.31   11.35 
  -3  -1  11  273.06   13.92 
   3   1 -11  269.32    6.93 
   3   1 -11  282.39    8.43 
   3   1 -11  281.48   13.85 
   3   1 -11  284.70   13.09 
   3   1 -11  306.06   12.97 
  -3  -1  11  268.22   13.11 
  -3  -1  11  276.24   14.83 
   7  -7  -2  581.45   26.12 
   7  -7  -2  530.22   26.27 
   7  -7  -2  546.90   24.51 
  -7   7   2  572.08   24.84 
  -7   7   2  550.01   25.95 
  -7   7   2  531.33   25.57 
  -2  10   0   63.92    8.81 
  -2  10   0   57.12    6.36 
   2 -10   0   49.53    9.35 
  -2  10   0   56.56    6.63 
   2 -10   0   52.03    7.00 
   2 -10   0   48.86    8.67 
   2 -10   0   65.02    9.49 
  -2  10   0   60.31    9.21 
  -7   7   1  281.25   16.27 
   7  -7  -1  281.13   12.09 
   7  -7  -1  268.12   15.91 
   7  -7  -1  269.60   17.10 
  -7   7   1  271.43   12.96 
  -7   7   1  262.40   12.08 
  -1 -10   0  214.76   10.39 
  -1 -10   0  197.68   13.00 
   1  10   0  227.99   12.41 
   1  10   0  212.49   10.97 
   1  10   0  217.57   13.25 
  -1 -10   0  221.31   12.28 
   1  10   0  213.02   14.91 
  -1 -10   0  210.59   14.23 
  -7   6  -2  304.29   14.75 
  -7   6  -2  327.42   16.91 
   7  -6   2  313.33   17.47 
  -7   6  -2  332.67   13.38 
   7  -6   2  325.96   14.34 
   7  -6   2  323.21   16.86 
   3  -3 -10  172.18   11.43 
  -3   3  10  147.42   10.97 
  -3   3  10  165.42    7.96 
  -3   3  10  169.91    9.39 
  -3   3  10  168.13   11.34 
   3  -3 -10  150.96    7.89 
  -5   8  -3  360.18   14.71 
  -5   8  -3  377.09   14.99 
   5  -8   3  383.80   19.70 
   5  -8   3  362.78   14.90 
   5  -8   3  347.78   12.46 
   5  -8   3  387.13   18.39 
  -5   8  -3  360.06   19.93 
  -5   8  -3  390.16   18.52 
   7  -2  -9  557.61   21.96 
  -7   2   9  546.79   22.11 
   7  -2  -9  554.51   19.21 
  -7   2   9  561.24   18.68 
  -7   2   9  529.36   21.34 
   7  -2  -9  551.36   21.62 
   7  -2  -9  503.34   15.39 
   8   2   2  339.15   10.82 
   8   2   2  346.34   17.47 
   8   2   2  342.16   12.56 
   8   2   2  337.56    9.16 
   9   3  -5   12.59    2.75 
  -9  -3   5   10.24    3.58 
   9   3  -5    8.06    2.41 
   3   2 -11  327.96    8.66 
   3   2 -11  325.27   14.54 
  -3  -2  11  325.81   11.58 
  -3  -2  11  307.07   14.63 
  -3  -2  11  337.29   15.97 
   3   2 -11  332.75   10.55 
   3   2 -11  331.60   14.58 
   3   2 -11  317.84   11.44 
   5   0   7  171.00    6.09 
   5   0   7  166.25   10.45 
  -5   0  -7  175.64    6.70 
   5   0   7  169.29    6.76 
  -5   0  -7  169.16    5.83 
   5   3   6  492.74   17.70 
   5   3   6  510.81   21.85 
  -2 -10   2  261.05   14.91 
  -2 -10   2  245.14   12.25 
   2  10  -2  232.22   12.22 
   2  10  -2  251.42   16.85 
  -2 -10   2  253.76   14.05 
  -2 -10   2  239.72   17.50 
   2  10  -2  261.72   16.39 
   2  10  -2  250.41   13.69 
   4   9  -5  185.54   13.50 
   4   9  -5  173.38   14.36 
   4   9  -5  184.72    8.80 
   4   9  -5  177.71   10.12 
  -4  -9   5  185.73   10.60 
  -4  -9   5  192.07   10.08 
  -4  -9   5  185.16    8.75 
  -7  -6   0    0.78    7.51 
   7   6   0   30.10    7.54 
   7   6   0   38.12    4.51 
   2   7  -9  343.68   16.93 
   2   7  -9  356.02   15.10 
  -2  -7   9  325.28   17.59 
  -2  -7   9  348.81   15.44 
  -2  -7   9  340.24   15.81 
   2   7  -9  371.78   15.82 
   2   7  -9  337.40   17.05 
   4   3   7  171.69    6.44 
  -4  -3  -7  167.11    6.68 
  -4  -3  -7  173.84    6.24 
   4   3   7  177.59    6.73 
   4   3   7  178.30    9.04 
   9  -3  -1   89.13    8.87 
   9  -3  -1   96.65    5.66 
  -9   3   1   87.88    5.52 
  -9   3   1   81.20    5.88 
   9  -3  -1   88.37    6.19 
   2   8  -8  452.43   18.82 
   2   8  -8  417.00   16.10 
   2   8  -8  473.67   21.24 
   2   8  -8  451.38   14.15 
  -2  -8   8  455.54   18.33 
  -2  -8   8  458.25   20.94 
  -2  -8   8  456.61   14.06 
  -2  -8   8  453.78   14.21 
  -1  10   1    3.56    4.53 
  -1  10   1    4.23    4.74 
   1 -10  -1    2.85    5.08 
   1 -10  -1    7.41    4.73 
  -1  10   1    7.91    5.25 
   1 -10  -1    6.80    2.64 
   1 -10  -1    5.30    4.68 
  -1  10   1    6.29    4.05 
  -8  -5   6  580.43   27.49 
   8   5  -6  558.29   22.02 
  -8  -5   6  568.19   14.12 
  -8  -5   6  574.50   14.85 
   8   5  -6  552.73   19.10 
   8   5  -6  569.88   14.82 
   8   5  -6  570.55   14.25 
  -3   6   8  397.95   20.33 
  -3   6   8  388.11   13.13 
   3  -6  -8  392.20   14.85 
   3  -6  -8  409.69   20.67 
  -3   6   8  396.95   20.28 
   3  -6  -8  392.20   20.12 
  -3   6   8  384.97   12.98 
  -6   8   0  498.30   24.50 
   6  -8   0  556.49   25.94 
   6  -8   0  499.88   25.53 
   6  -8   0  496.14   18.44 
  -6   8   0  532.95   26.16 
  -6   8   0  512.09   18.83 
   6  -8  -2   74.59   10.96 
   6  -8  -2   96.60   10.45 
  -6   8   2   89.51    7.14 
  -6   8   2  104.14   10.77 
  -6   8   2  100.04   10.33 
   6  -8  -2   83.70   10.98 
  -2   6   8  319.90   12.46 
   2  -6  -8  330.49   13.13 
   2  -6  -8  321.27   16.76 
   2  -6  -8  312.46   11.70 
  -2   6   8  328.98   12.71 
  -2   6   8  315.84   15.36 
  -2   6   8  270.64   10.59 
  -2   6   8  335.19   16.13 
   2  -7  -7  396.65   15.67 
  -2   7   7  433.76   18.79 
  -2   7   7  426.12   15.84 
  -2   7   7  401.97   15.54 
  -2   7   7  449.80   16.15 
  -2   7   7  431.82   19.39 
   2  -7  -7  459.79   16.50 
   2  -7  -7  447.81   16.28 
   6   7  -7    0.31    2.09 
   6   7  -7    2.20    1.94 
   6   7  -7    0.84    3.38 
  -6  -7   7    0.85    2.00 
  -6  -7   7    5.46    4.24 
   6   7  -7    3.89    3.37 
  -6  -7   7    0.84    2.04 
   6  -1   6  139.05    6.05 
   6  -1   6  120.20    8.28 
  -6   1  -6  137.78    6.03 
   6  -1   6  133.00    4.89 
  -6   1  -6  126.52    4.78 
   2 -10   2  548.47   22.93 
   2 -10   2  557.83   26.52 
   2 -10   2  560.12   25.72 
  -2  10  -2  566.44   25.80 
  -2  10  -2  535.80   25.95 
  -2  10  -2  566.65   29.05 
  -2  10  -2  525.76   22.16 
   2 -10   2  523.62   20.08 
  -2 -10   3    2.71    3.39 
   2  10  -3    4.78    4.55 
   2  10  -3    1.72    1.93 
   2  10  -3    4.82    2.80 
  -2 -10   3    0.66    4.33 
  -2 -10   3    0.00    1.93 
   2  10  -3   -0.35    3.31 
  -2 -10   3    0.85    3.75 
   2   4   8  523.58   17.36 
   2   4   8  530.42   19.58 
   2   4   8  542.22   17.42 
  -2  -4  -8  529.68   17.00 
  -2  -4  -8  524.92   17.17 
   2   4   8  527.02   23.69 
   2  -3 -10  237.77    9.46 
  -2   3  10  250.15   14.23 
  -2   3  10  239.97   12.81 
  -2   3  10  244.57   12.41 
   2  -3 -10  265.67   13.71 
  -2   3  10  249.48   13.66 
  -8   5   5  450.79   21.99 
   8  -5  -5  419.29   19.97 
   8  -5  -5  445.59   21.35 
   8  -5  -5  423.79   21.22 
  -8   5   5  417.41   19.80 
  -9   2   0  549.56   14.29 
  -9   2   0  493.21   12.21 
   9  -2   0  509.13   12.44 
   9  -2   0  582.86   21.51 
   9  -2   0  528.94   13.99 
  -2   9   4  424.41   19.85 
  -2   9   4  438.08   20.99 
  -2   9   4  437.88   18.65 
   2  -9  -4  484.49   17.32 
   2  -9  -4  476.42   21.80 
   2  -9  -4  426.32   20.11 
  -2   9   4  417.33   17.43 
  -2   9   4  447.94   21.68 
   1  10  -4  189.85   15.59 
   1  10  -4  214.34   10.75 
   1  10  -4  208.11   12.62 
  -1 -10   4  220.04   12.54 
  -1 -10   4  200.30   14.26 
  -1 -10   4  214.60   15.36 
   1  10  -4  214.88   13.95 
  -1 -10   4  217.71   13.80 
   2   1 -11  338.41   14.43 
   2   1 -11  316.35   14.67 
  -2  -1  11  309.70   11.14 
  -2  -1  11  313.66   10.75 
  -2  -1  11  322.00   16.03 
   2   1 -11  312.59   10.99 
   4   0   8   19.11    3.15 
   4   0   8   27.59    3.57 
  -4   0  -8   26.35    3.11 
  -4   0  -8   30.07    3.49 
  -4   0  -8   36.24    4.19 
   4   0   8   30.15    5.75 
  -8   2   8  391.27   17.78 
   8  -2  -8  365.71   12.10 
   8  -2  -8  358.85   17.15 
   8  -2  -8  373.08   15.81 
  -8   2   8  355.19   11.99 
   4   1 -11  238.88   13.07 
   4   1 -11  237.69   11.12 
   4   1 -11  237.46    7.43 
   4   1 -11  239.64    8.53 
  -4  -1  11  218.95   13.22 
  -4  -1  11  246.96    9.62 
  -4  -1  11  246.60    9.03 
   4   1 -11  239.28    8.87 
   0  -4  -9  297.63   13.52 
   0   4   9  267.54    9.91 
   0   4   9  305.28   15.44 
   0   4   9  303.32   17.11 
   0   4   9  306.43   13.46 
   0  -4  -9  288.32   10.00 
   0 -10  -1    1.30    3.99 
   0  10   1   -0.62    3.88 
   0  10   1    5.08    3.63 
   0 -10  -1    0.71    4.43 
   0 -10  -1    3.82    4.07 
   0 -10  -1    7.06    3.69 
   0  10   1    6.60    3.99 
   0  10   1   -5.08    4.39 
  -3   7   7  417.71   16.60 
  -3   7   7  383.19   16.02 
  -3   7   7  428.72   21.63 
  -3   7   7  399.97   13.03 
  -3   7   7  402.24   17.06 
   3  -7  -7  410.98   17.43 
   3  -7  -7  428.35   16.46 
   3  -7  -7  448.31   21.18 
  -1   9   4  430.74   20.79 
  -1   9   4  356.07   18.24 
  -1   9   4  411.34   18.66 
  -1   9   4  422.56   14.74 
  -1   9   4  395.16   18.36 
   1  -9  -4  431.40   16.06 
   1  -9  -4  387.36   18.77 
   1  -9  -4  420.14   15.18 
  -1  -8   8  421.99   14.24 
  -1  -8   8  433.20   18.48 
  -1  -8   8  446.06   16.94 
  -1  -8   8  447.63   15.49 
   1   8  -8  453.32   18.50 
   1   8  -8  443.64   20.99 
   1   8  -8  443.88   21.38 
   1   8  -8  435.43   14.70 
   7   6  -7  385.01   11.45 
   7   6  -7  343.50   15.40 
  -7  -6   7  359.13   20.58 
   7   6  -7  390.19   11.92 
   7   6  -7  368.27   17.25 
  -7  -6   7  369.40   11.51 
  -7  -6   7  380.11   11.79 
   2   2 -11  282.56   12.55 
  -2  -2  11  251.74   14.61 
  -2  -2  11  248.58   13.25 
  -2  -2  11  259.24   12.92 
   2   2 -11  246.51   13.39 
   2   2 -11  264.20    9.84 
  -3  -7   9  424.85   17.14 
   3   7  -9  441.29   17.14 
  -3  -7   9  434.01   17.37 
   3   7  -9  425.63   17.42 
   3   7  -9  397.29   14.49 
   3   7  -9  419.69   14.22 
  -3  -7   9  416.56   20.14 
  -9   2   6   77.91    6.25 
  -9   2   6   78.02    8.01 
   9  -2  -6   79.30    6.21 
   9  -2  -6   80.32    8.04 
   9  -2  -6   80.18    7.90 
   5  -3   7  242.73   10.58 
  -5   3  -7  241.09    9.12 
  -5   3  -7  251.13   13.20 
  -5   3  -7  254.78   10.44 
   5  -3   7  237.15    8.50 
   5  -3   7  236.07    9.04 
   9   3  -2  381.43   15.42 
   9   3  -2  369.84   14.96 
   9   3  -2  377.74   13.27 
   9   3  -2  381.22   13.46 
  -6   2  -6   75.59    4.13 
  -6   2  -6   81.45    7.53 
   6  -2   6   67.02    4.98 
   6  -2   6   77.54    6.13 
   6  -2   6   72.52    4.20 
   6  -2   6   71.84    5.23 
  -6   2  -6   79.23    5.25 
   0  10  -4   16.20    5.70 
   0  10  -4   15.29    6.10 
   0  10  -4   17.15    4.53 
   0  10  -4   17.41    6.16 
   0 -10   4   16.60    5.91 
   0 -10   4   14.51    6.22 
   0 -10   4   14.48    6.20 
   0 -10   4   17.12    5.70 
  -1   0 -10  513.66   17.51 
   1   0  10  492.39   17.29 
   1   0  10  512.75   17.50 
  -1   0 -10  535.53   18.81 
  -1   0 -10  502.13   21.01 
   1   0  10  521.59   18.44 
  -4   3  10  107.56    6.92 
   4  -3 -10  107.75    6.99 
  -4   3  10  110.96    7.30 
   4  -3 -10  111.68    9.74 
   4  -3 -10  104.14    6.09 
  -4   3  10  114.26    8.60 
  -4   3  10  112.76    9.72 
   9   1   0  844.04   22.19 
   9   1   0  846.86   26.16 
   9   1   0  844.63   26.49 
  -1   3 -10  466.01   17.36 
   1  -3  10  451.56   19.83 
   1  -3  10  455.02   14.17 
  -1   3 -10  448.18   15.45 
  -1   3 -10  476.31   14.27 
   1  -3  10  437.61   16.80 
   4   2 -11  661.79   17.50 
  -4  -2  11  656.15   20.06 
   4   2 -11  687.31   23.09 
  -4  -2  11  665.35   25.43 
   4   2 -11  684.44   19.46 
   4   2 -11  659.51   23.35 
   4   2 -11  641.19   20.13 
  -4  -2  11  635.51   23.31 
  -6   7  -3  582.15   25.40 
  -6   7  -3  562.30   21.73 
   6  -7   3  567.93   20.37 
   6  -7   3  565.51   25.94 
   6  -7   3  598.41   23.01 
   6  -7   3  554.84   16.61 
  -6   7  -3  580.32   23.07 
  -3   0  11   -2.12    2.57 
   3   0 -11   -0.77    2.34 
  -3   0  11   -0.02    2.44 
  -3   0  11    4.44    2.39 
   3   0 -11   -2.24    1.58 
   3   0 -11    2.91    2.12 
   6  -5   5  425.03   18.95 
   6  -5   5  458.55   14.40 
   6  -5   5  454.84   12.52 
   6  -5   5  476.97   19.13 
  -6   5  -5  462.69   12.83 
  -6   5  -5  478.03   19.15 
  -6   5  -5  429.20   17.07 
  -6   5  -5  443.13   13.63 
   2  10  -1  475.32   15.28 
   2  10  -1  528.48   18.76 
   2  10  -1  493.20   20.91 
  -2 -10   1  511.03   25.54 
  -2 -10   1  470.12   15.05 
  -2 -10   1  468.65   22.05 
  -2 -10   1  487.39   20.07 
   2  10  -1  458.58   23.70 
   9  -3  -5    1.78    3.08 
   9  -3  -5    0.15    3.94 
   9  -3  -5    4.07    3.77 
  -9   3   5    5.01    3.00 
  -9   3   5    6.21    3.76 
   7  -7  -3  211.09   11.12 
   7  -7  -3  204.80   10.91 
  -7   7   3  219.65   10.91 
  -7   7   3  222.67   16.12 
   7  -7  -3  242.27   11.07 
  -7   7   3  227.30   10.81 
  -4   3  -8   21.00    4.97 
   4  -3   8   12.56    4.44 
   4  -3   8   14.24    3.29 
   4  -3   8   14.75    3.66 
  -4   3  -8   11.65    3.27 
  -4   3  -8   10.46    3.69 
   7  -4   4  378.69   17.61 
   7  -4   4  408.61   16.35 
   7  -4   4  399.90   13.84 
   7  -4   4  381.92   11.90 
  -7   4  -4  378.45   10.03 
  -7   4  -4  397.82   15.98 
  -7   4  -4  396.65   17.24 
   7  -7   0  106.43   10.16 
  -7   7   0  113.26   10.40 
  -7   7   0  122.60   12.07 
   7  -7   0  118.02   11.36 
   7  -7   0  110.88   11.91 
  -7   7   0  110.47   11.33 
   1  -9   6  188.94   12.66 
   1  -9   6  174.37    8.56 
   1  -9   6  187.98   12.07 
  -1   9  -6  169.81   12.85 
  -1   9  -6  183.96    9.34 
   1  -9   6  197.17   12.96 
  -1   9  -6  207.22   14.92 
  -1   9  -6  165.42   12.86 
  -4   9   3  372.12   13.44 
   4  -9  -3  382.17   20.63 
   4  -9  -3  395.06   20.77 
  -4   9   3  363.55   13.42 
  -4   9   3  383.79   20.85 
   4  -9  -3  380.15   20.98 
  -4   9   3  354.08   19.11 
  -4   9   3  403.82   21.21 
   7   2   4  412.83   16.32 
   7   2   4  425.39   20.97 
   7   2   4  426.64   12.08 
   7   2   4  423.48   12.34 
   8   5  -1  468.59   13.60 
  -8  -5   1  460.53   21.15 
   8   5  -1  485.17   16.60 
   1   7  -9  162.57   12.10 
  -1  -7   9  176.33    8.51 
  -1  -7   9  178.74   11.28 
  -1  -7   9  176.26   10.29 
  -1  -7   9  149.37    5.92 
   1   7  -9  178.29   11.05 
   1   7  -9  169.94   10.43 
   1   7  -9  162.29   11.57 
  -6  -8   3  221.16   16.99 
  -6  -8   3  188.01    5.76 
  -6  -8   3  200.34    7.96 
   6   8  -3  217.46   12.55 
   6   8  -3  169.52    7.92 
   6   8  -3  229.84   10.56 
  -7  -4   9  640.82   26.37 
   7   4  -9  670.03   23.32 
   7   4  -9  644.39   20.30 
   7   4  -9  650.29   20.76 
  -7  -4   9  648.04   20.77 
   7   4  -9  642.46   20.53 
  -7  -4   9  629.67   20.26 
   7   7  -4  543.18   17.13 
   7   7  -4  529.68   23.55 
  -7  -7   4  561.44   29.20 
  -2  -2  -9    0.17    2.46 
   2   2   9    4.24    2.45 
   2   2   9   -0.98    4.11 
  -2  -2  -9    3.79    1.43 
   2   2   9    1.01    1.42 
   2   2   9   -0.37    2.33 
   3   8  -8  276.29    9.99 
   3   8  -8  273.36   12.83 
  -3  -8   8  280.32    9.89 
  -3  -8   8  292.98   12.93 
   3   8  -8  283.82   12.00 
   3   8  -8  263.20   11.36 
  -3  -8   8  290.07   17.46 
   6   0   6  521.92   15.33 
   6   0   6  521.59   19.20 
  -6   0  -6  524.90   15.48 
   6   0   6  504.55   12.10 
  -6   0  -6  507.55   11.76 
   4  -7   6  368.43   17.10 
   4  -7   6  373.47   11.86 
   4  -7   6  386.31   16.53 
   4  -7   6  385.80   17.81 
  -4   7  -6  373.35   16.54 
  -4   7  -6  389.50   17.84 
  -4   7  -6  408.01   19.62 
  -4   7  -6  371.03   16.19 
   2 -10  -1   18.32    4.14 
  -2  10   1   24.03    6.73 
  -2  10   1   21.66    3.95 
  -2  10   1   14.38    3.04 
   2 -10  -1   13.59    6.36 
   2 -10  -1   21.69    6.64 
   2 -10  -1   13.23    3.11 
  -2  10   1   22.45    4.21 
  -7  -7   3  188.09   16.81 
   7   7  -3  175.09   10.97 
   7   7  -3  170.46   12.97 
   6   8  -4    0.23    1.58 
  -6  -8   4    1.91    2.07 
  -6  -8   4    0.50    5.14 
  -6  -8   4    2.69    1.55 
   6   8  -4    0.72    2.72 
   6   8  -4    5.39    2.63 
   6   8  -4    3.03    2.28 
   7  -5  -7    8.26    4.48 
   7  -5  -7    2.54    4.56 
   7  -5  -7   -1.05    3.98 
  -7   5   7    6.86    4.61 
  -7   5   7    3.86    4.51 
   9   0  -7  764.22   27.52 
   9   0  -7  784.80   25.80 
   9   0  -7  752.87   22.03 
  -9   0   7  757.68   25.92 
  -9   0   7  716.14   21.66 
   3   3 -11   32.77    4.06 
   3   3 -11   36.86    6.38 
   3   3 -11   42.98    3.80 
   3   3 -11   28.46    5.92 
  -3  -3  11   31.66    6.19 
  -3  -3  11   27.92    6.66 
  -3  -3  11   35.15    3.84 
   8  -1   3  542.78   21.29 
   8  -1   3  551.45   19.05 
   8  -1   3  572.73   16.07 
   1   8   5   72.53    6.59 
  -1  -8  -5   81.84    7.25 
  -1  -8  -5   64.57    7.00 
   1   8   5   75.31    9.76 
   1   8   5   69.00    7.43 
  -1  -8  -5   73.66    5.98 
   1   8   5   58.31    6.19 
   1   8   5   81.33    7.21 
  -1   6  -9  542.51   21.08 
   1  -6   9  518.64   19.63 
   1  -6   9  529.16   21.08 
   1  -6   9  533.03   21.82 
   1  -6   9  503.74   15.36 
  -1   6  -9  554.35   19.69 
  -1   6  -9  486.09   21.87 
  -1   6  -9  513.06   21.38 
  -1  -5  -8  118.18    5.67 
   1   5   8  127.96    8.58 
  -1  -5  -8  133.38    8.37 
   1   5   8  128.71    5.69 
   1   5   8  123.28   11.26 
   1   5   8  126.48   12.16 
  -9  -1   7   94.50    5.28 
   9   1  -7   87.60    5.21 
   9   1  -7  102.37    6.87 
   9   1  -7   98.91    8.36 
  -9  -1   7   96.44    6.85 
  -8   4  -2  288.69   10.29 
  -8   4  -2  289.19   13.61 
   8  -4   2  279.99   10.12 
   8  -4   2  292.11   13.81 
   8  -4   2  321.49   15.99 
   1  -7  -7  397.81   17.13 
   1  -7  -7  407.87   14.54 
   1  -7  -7  387.39   19.02 
  -1   7   7  388.43   19.54 
  -1   7   7  377.41   14.72 
  -1   7   7  384.15   14.30 
  -1   7   7  398.23   19.22 
  -1   7   7  324.97   13.35 
  -3   7  -7  472.62   19.07 
   3  -7   7  458.71   19.67 
   3  -7   7  472.39   14.34 
   3  -7   7  481.30   19.02 
   3  -7   7  463.79   18.19 
  -3   7  -7  463.78   19.83 
  -3   7  -7  450.33   21.57 
  -3   7  -7  447.48   19.63 
  -4   0  11   20.14    5.24 
  -4   0  11   23.18    5.29 
  -4   0  11   20.98    3.43 
   4   0 -11   18.71    2.45 
   4   0 -11   17.95    5.13 
   4   0 -11   14.31    4.21 
   4   0 -11   18.99    2.72 
   4   0 -11   19.39    3.55 
   0  -2 -10  497.17   18.61 
   0   2  10  482.50   17.37 
   0   2  10  490.09   18.73 
   0  -2 -10  469.47   15.76 
   0  -2 -10  479.45   17.26 
   0   2  10  462.89   22.32 
   7  -4  -8   58.27    8.58 
   7  -4  -8   57.20    7.10 
  -7   4   8   60.86    8.69 
  -7   4   8   56.71    6.04 
   7  -4  -8   70.37    5.71 
   4   6   5  356.40   16.03 
   4   6   5  338.34   11.01 
   4   6   5  392.59   21.07 
  -4  -6  -5  387.80   11.57 
   4   6   5  351.90   12.19 
  -4  -6  -5  385.30   12.20 
  -8   5  -1  356.88   16.83 
  -8   5  -1  353.07   17.71 
   8  -5   1  382.05   17.18 
  -8   5  -1  356.44   14.19 
   8  -5   1  365.53   14.11 
   8  -5   1  365.98   18.92 
   2   0 -11   11.94    3.93 
   2   0 -11    7.29    3.95 
  -2   0  11    4.69    4.04 
  -2   0  11    4.88    4.47 
  -2   0  11    5.67    3.89 
   2   0 -11    7.06    4.16 
   6   3   5  272.85   16.63 
   6   3   5  277.81   14.91 
   6  -5  -8  106.25    7.49 
  -6   5   8   82.77    5.24 
  -6   5   8   92.10   10.81 
  -6   5   8   97.41    7.47 
  -6   5   8   92.99    5.32 
   6  -5  -8  101.74    7.13 
   6  -5  -8   98.77    8.38 
   4   9   0  311.08   19.38 
  -4  -9   0  286.04   11.57 
   4   9   0  266.06   11.61 
   4   9   0  264.52   15.03 
  -4  -9   0  303.50   14.66 
  -4  -9   0  276.37    9.54 
   4   9   0  251.84    9.83 
   4  -6  -8  339.36   19.06 
   4  -6  -8  346.26   19.56 
  -4   6   8  310.70   13.12 
  -4   6   8  308.00   18.81 
  -4   6   8  313.73   13.75 
  -4   6   8  324.41   18.96 
   4  -6  -8  321.97   14.00 
  -3   8  -6    4.30    3.76 
   3  -8   6    3.08    2.40 
   3  -8   6    1.57    4.06 
   3  -8   6    1.23    1.99 
   3  -8   6    6.98    3.69 
  -3   8  -6    3.79    3.51 
  -3   8  -6    3.82    4.36 
  -3   8  -6    2.29    4.07 
  -3   1  -9    1.86    2.39 
  -3   1  -9    3.03    2.45 
  -3   1  -9    2.69    2.57 
   3  -1   9    2.67    3.72 
   3  -1   9    3.89    2.37 
   3  -1   9    2.46    2.67 
  -1   6   8  178.50    8.66 
  -1   6   8  170.20   12.89 
  -1   6   8  178.46   12.11 
  -1   6   8  166.48    8.26 
   1  -6  -8  175.00    8.20 
   1  -6  -8  167.53   11.82 
  -3   2  -9  363.90   17.63 
  -3   2  -9  393.34   13.64 
   3  -2   9  386.71   14.48 
   3  -2   9  379.36   16.92 
  -3   2  -9  392.46   14.19 
   3  -2   9  364.62   13.21 
   8   0   3  276.62   10.98 
   8   0   3  255.97    9.46 
   8   0   3  259.07   13.73 
  -4   9  -3    5.26    5.69 
  -4   9  -3    8.28    5.48 
   4  -9   3   13.17    5.47 
   4  -9   3    8.89    5.53 
  -4   9  -3    5.47    3.53 
   4  -9   3    9.28    3.32 
   4  -9   3    7.13    3.33 
  -4   9  -3    2.84    3.40 
   3  -5  -9  285.27   13.20 
   3  -5  -9  297.01   12.07 
   3  -5  -9  297.70   17.24 
  -3   5   9  284.36   14.89 
  -3   5   9  277.64   13.44 
  -3   5   9  310.85   17.21 
  -2 -10   4  115.43   10.86 
  -2 -10   4  119.72   13.11 
   2  10  -4  107.17   12.63 
   2  10  -4  140.24   13.17 
   2  10  -4  128.08    9.21 
  -2 -10   4  112.49    9.42 
   2  10  -4  122.86    7.12 
  -2 -10   4  123.11    7.03 
  -2  -3  11    8.64    4.83 
  -2  -3  11   11.92    4.32 
  -2  -3  11   12.57    2.83 
   2   3 -11    9.17    2.92 
   2   3 -11    8.12    4.28 
   2   3 -11    6.56    4.39 
   2   3 -11    7.06    2.96 
  -3   9   4  418.92   15.51 
   3  -9  -4  402.37   16.08 
   3  -9  -4  384.55   14.91 
  -3   9   4  382.95   15.83 
  -3   9   4  401.54   15.68 
  -3   9   4  371.38   19.15 
   6  -8   1  182.22   10.21 
   6  -8   1  191.81    9.33 
   6  -8   1  177.16   15.06 
  -6   8  -1  159.63   14.52 
  -6   8  -1  179.43   10.09 
  -6   8  -1  190.01    9.67 
  -9  -3   6  319.44   14.29 
   9   3  -6  337.28   12.69 
   9   3  -6  293.29    9.75 
   9   3  -6  295.76    8.02 
   9   3  -6  323.02   15.44 
  -9  -3   6  307.56    8.15 
  -9  -3   6  319.80   12.52 
   6  -8  -3    7.13    3.49 
   6  -8  -3    0.56    5.24 
  -6   8   3    3.09    3.36 
  -6   8   3    5.84    3.47 
  -6   8   3    7.55    5.24 
   6  -8  -3   12.62    3.52 
  -2   5  -9  383.41   11.85 
  -2   5  -9  392.80   17.63 
  -2   5  -9  386.22   16.30 
   2  -5   9  388.24   16.10 
   2  -5   9  381.30   11.82 
   2  -5   9  328.95   10.16 
   2  -5   9  370.46   16.84 
  -2   5  -9  338.49   13.90 
   8  -2   3   59.07    3.65 
   8  -2   3   64.85    4.00 
   8  -2   3   67.29    6.98 
   8  -2   3   68.64    6.06 
   8  -2   3   59.93    4.93 
  -8   2  -3   59.91    5.00 
  -8   2  -3   61.83    3.74 
  -3  -3  -8   78.35    5.32 
  -3  -3  -8   73.89    5.22 
   3   3   8   82.54    5.24 
   3   3   8   78.83    6.37 
   3   3   8   78.34    5.33 
   3   3   8   75.33   10.25 
   6  -6  -7  262.10   14.99 
   6  -6  -7  288.10   18.12 
   6  -6  -7  269.72   16.67 
  -6   6   7  249.42   17.86 
  -6   6   7  276.44   17.30 
   6   8  -2  466.38   23.33 
   6   8  -2  425.51   18.87 
  -6  -8   2  430.53   25.88 
  -5  -5  10  350.72   14.35 
  -5  -5  10  337.91   10.98 
   5   5 -10  340.26   11.16 
   5   5 -10  313.63   14.66 
   5   5 -10  319.99   14.39 
   5   5 -10  358.92   14.30 
  -5  -5  10  333.93   17.30 
  -5  -1  -7   57.30    3.44 
  -5  -1  -7   61.11    3.71 
   5   1   7   61.17    7.96 
   5   1   7   58.72    4.83 
   5   1   7   53.47    3.84 
   5   1   7   54.58    3.47 
  -6   3  -6  540.31   20.26 
  -6   3  -6  536.85   17.65 
   6  -3   6  519.63   15.04 
   6  -3   6  531.42   17.90 
   6  -3   6  482.55   17.67 
  -6   3  -6  518.11   15.06 
   6  -3   6  533.44   14.83 
  -7  -7   5  474.97   12.07 
   7   7  -5  485.42   21.08 
   7   7  -5  467.34   15.30 
   7   7  -5  496.39   21.03 
  -7  -7   5  503.85   15.11 
   7   7  -5  463.39   12.32 
  -7  -7   5  507.54   27.08 
   0   9   4  294.89   15.01 
   0  -9  -4  308.53   15.29 
   0  -9  -4  318.48   16.48 
   0  -9  -4  339.08   17.40 
   0   9   4  292.94   16.25 
   0   9   4  319.31   17.21 
   0   9   4  294.45   14.86 
   0   9   4  298.58   16.80 
   4   3 -11   95.27    6.30 
   4   3 -11   93.08    8.24 
   4   3 -11   91.11    8.70 
   4   3 -11   94.66    7.89 
  -4  -3  11  100.53    5.93 
  -4  -3  11  106.98    8.48 
  -4  -3  11   98.04    6.45 
  -8   6   2  293.09   16.30 
  -8   6   2  318.32   16.93 
  -8   6   2  294.86   18.54 
   8  -6  -2  326.71   17.25 
   8  -6  -2  291.16   18.52 
   8  -6  -2  287.15   16.17 
  -2   5   9  275.19   14.15 
  -2   5   9  268.18   11.61 
  -2   5   9  296.07   15.93 
   2  -5  -9  289.52   15.77 
   2  -5  -9  268.99   15.79 
  -2   5   9  285.21   15.61 
  -9   4   3   92.88    5.88 
   9  -4  -3  100.09    6.84 
   9  -4  -3   92.81    8.51 
   9  -4  -3   91.14    5.18 
  -9   4   3  105.63    5.50 
   0   5 -10    5.86    2.62 
   0   5 -10    7.61    4.27 
   0   5 -10    6.32    2.47 
   0  -5  10    6.16    2.42 
   0  -5  10    5.69    2.63 
   0  -5  10    8.61    4.42 
   0   5 -10    5.66    3.56 
   4  -8   5  230.00    9.46 
  -4   8  -5  218.40   11.97 
  -4   8  -5  213.41   10.59 
  -4   8  -5  222.37   14.74 
  -4   8  -5  214.86    9.62 
   4  -8   5  213.73   10.31 
   4  -8   5  219.55   10.24 
   4  -8   5  203.55   10.52 
  -2   8   6  452.29   22.67 
  -2   8   6  472.35   19.98 
  -2   8   6  487.91   17.89 
   2  -8  -6  479.15   17.40 
   2  -8  -6  497.51   23.27 
   2  -8  -6  481.02   19.42 
  -2   8   6  439.73   19.59 
  -2   8   6  410.50   17.69 
   6   7   1  284.41   13.61 
  -6  -7  -1  275.28   13.97 
   6   7   1  270.76   12.10 
   5  -9   0  404.05   16.29 
  -5   9   0  429.49   17.45 
   5  -9   0  391.47   22.32 
  -5   9   0  408.01   22.43 
   5  -9   0  367.04   13.37 
  -5   9   0  353.59   15.18 
   5  -9   0  419.98   17.03 
  -5   9   0  423.95   16.61 
   1 -10   4   15.86    5.75 
  -1  10  -4    8.93    3.41 
   1 -10   4   12.69    5.79 
   1 -10   4   10.72    3.47 
   1 -10   4    8.83    5.12 
  -1  10  -4    7.67    5.25 
  -1  10  -4    7.90    4.18 
  -1  10  -4    5.28    5.87 
   5  -9  -1   40.44    8.57 
   5  -9  -1   32.76    8.32 
   5  -9  -1   40.80    8.44 
   5  -9  -1   43.09    3.78 
  -5   9   1   37.81    8.59 
  -5   9   1   37.08    3.84 
  -5   9   1   27.71    5.18 
  -5   9   1   45.01    8.21 
   2 -10   3  185.75   15.34 
   2 -10   3  202.90   12.59 
   2 -10   3  198.91   10.26 
  -2  10  -3  197.50   16.75 
   2 -10   3  184.94   10.60 
  -2  10  -3  176.51   12.64 
  -2  10  -3  180.33   10.27 
  -2  10  -3  198.85   10.50 
   9  -1  -7  201.13   11.34 
   9  -1  -7  190.96   11.76 
  -9   1   7  180.75    8.71 
  -9   1   7  188.86   11.22 
   9  -1  -7  182.55    8.86 
   3   6   6  393.72   16.64 
  -3  -6  -6  387.89   13.87 
   3   6   6  390.47   14.52 
   3   6   6  385.76   16.62 
   3   6   6  385.32   12.59 
  -3  -6  -6  413.05   12.53 
   4  -7  -7  449.70   23.20 
  -4   7   7  433.01   23.00 
  -4   7   7  434.35   17.00 
  -4   7   7  395.91   15.81 
  -4   7   7  413.34   18.12 
  -4   7   7  432.37   16.29 
   4  -7  -7  422.72   18.51 
   4  -7  -7  438.15   17.14 
  -9   4   2  301.79   13.44 
  -9   4   2  306.25   13.89 
   9  -4  -2  279.84   10.35 
   9  -4  -2  303.68   12.23 
   9  -4  -2  320.04   13.32 
  -7  -7   2   -0.64    6.37 
   7   7  -2    6.98    5.53 
   7   7  -2   14.97    4.15 
  -6  -4  10  361.97   11.36 
  -6  -4  10  375.87   13.90 
   6   4 -10  369.25   14.83 
   6   4 -10  367.67   11.01 
   6   4 -10  354.51   14.55 
   6   4 -10  348.13   14.15 
  -6  -4  10  359.67   14.78 
   1  10   1   19.89    5.33 
   1  10   1   20.81    5.77 
   1  10   1   27.55    6.49 
  -1 -10  -1   28.60    5.63 
  -1 -10  -1   22.11    5.48 
  -1 -10  -1   25.87    6.58 
   1  10   1   16.32    6.79 
  -1 -10  -1   25.22    6.97 
   6   8  -5  350.82   14.45 
   6   8  -5  358.24   18.19 
  -6  -8   5  365.76   16.36 
  -6  -8   5  381.89   12.20 
   6   8  -5  350.55   12.18 
   6   8  -5  373.80   11.46 
  -6  -8   5  375.25   11.13 
   4   7   4  436.47   17.76 
   4   7   4  505.10   26.13 
   4   7   4  434.40   13.84 
   4   7   4  489.09   25.51 
  -4  -7  -4  468.39   14.17 
  -4  -7  -4  457.41   12.44 
   0  -8   8  347.29   11.57 
   0  -8   8  363.51   12.59 
   0   8  -8  353.47   13.24 
   0   8  -8  350.06   12.40 
   0   8  -8  355.46   13.88 
   0  -8   8  356.42   13.24 
   0  -8   8  367.36   17.72 
   0   8  -8  374.05   19.34 
   1  -3 -10  222.42   12.34 
   1  -3 -10  235.61   12.95 
  -1   3  10  245.55   12.96 
  -1   3  10  237.33   12.09 
  -1   3  10  251.68   14.73 
  -1   3  10  231.68    9.51 
  -5  -8   7  601.09   20.24 
   5   8  -7  587.62   24.68 
  -5  -8   7  632.35   22.92 
   5   8  -7  586.89   26.32 
   5   8  -7  625.26   19.60 
   5   8  -7  605.02   20.73 
  -5  -8   7  598.92   19.65 
  -5  -8  -1   10.42    4.20 
   5   8   1    9.09    3.81 
   5   8   1    4.92    2.34 
  -9  -2   7  279.94   12.12 
   9   2  -7  286.74   13.97 
   9   2  -7  291.16   11.41 
   9   2  -7  275.31    8.33 
   9   2  -7  283.16    9.27 
  -9  -2   7  286.65    9.25 
  -9  -2   7  289.01   11.19 
   3   7   5  219.52   16.12 
   3   7   5  202.62   17.03 
   3   7   5  206.25    8.88 
  -3  -7  -5  222.98   12.11 
  -3  -7  -5  219.72    8.63 
   3   7   5  203.54   11.11 
   3   7   5  229.63   12.60 
   5   6   4   84.63    5.13 
   5   6   4   92.78    8.14 
   5   6   4   98.35   11.73 
  -4  -7   9  499.19   18.27 
  -4  -7   9  453.92   17.90 
   4   7  -9  482.72   20.70 
   4   7  -9  490.01   17.94 
   4   7  -9  499.10   20.56 
   4   7  -9  488.97   18.64 
  -4  -7   9  448.42   22.68 
  -4  -5  -6  308.81    8.70 
   4   5   6  284.64   10.52 
   4   5   6  334.70   19.47 
   4   5   6  316.60   18.61 
  -4  -5  -6  304.70   10.45 
   4   5   6  292.77    8.65 
   2   6 -10  175.13    7.89 
   2   6 -10  163.86    7.19 
   2   6 -10  163.49   10.86 
  -2  -6  10  152.19    8.35 
  -2  -6  10  163.87    7.03 
  -2  -6  10  152.63    7.64 
   2   6 -10  157.30    7.77 
  -8  -1   9  563.86   19.90 
  -8  -1   9  546.62   18.61 
  -8  -1   9  551.37   20.92 
   8   1  -9  569.05   19.93 
   8   1  -9  536.84   18.66 
   8   1  -9  535.04   15.04 
   8   1  -9  536.23   19.91 
   6  -2 -10  279.69   11.23 
  -6   2  10  286.77   12.65 
  -6   2  10  299.48   15.71 
   6  -2 -10  293.45   15.57 
   6  -2 -10  286.64    9.87 
  -6   2  10  277.41   15.78 
   8  -6  -3  507.03   22.94 
   8  -6  -3  465.80   24.17 
   8  -6  -3  455.57   16.94 
  -8   6   3  478.60   25.11 
  -8   6   3  444.38   16.84 
  -8   6   3  518.37   23.30 
   3   6 -10  140.70    9.51 
   3   6 -10  136.58    9.58 
   3   6 -10  151.48   10.48 
   3   6 -10  145.07    9.90 
  -3  -6  10  149.92   10.31 
  -3  -6  10  145.40    8.13 
  -3  -6  10  132.33    9.44 
  -5   7  -5   21.56    4.07 
   5  -7   5   17.08    6.07 
   5  -7   5   26.32    6.30 
   5  -7   5   25.00    5.36 
  -5   7  -5   26.97    4.84 
   5  -7   5   23.13    3.78 
  -5   7  -5   16.24    6.61 
  -5   7  -5   20.89    5.42 
  -1  -1  11  279.35   13.40 
   1   1 -11  274.55   13.28 
   1   1 -11  290.64   10.57 
   1   1 -11  286.13   14.03 
  -1  -1  11  287.64   15.87 
  -1  -1  11  282.07   13.94 
  -1  -2  11  301.92   14.12 
  -1  -2  11  292.45   16.09 
  -1  -2  11  306.62   10.85 
   1   2 -11  303.65   13.99 
   1   2 -11  313.90   15.12 
   1   2 -11  295.19   10.77 
  -4  -1  -8  429.41   12.86 
   4   1   8  410.95   12.20 
   4   1   8  403.62   12.89 
  -4  -1  -8  413.21   12.35 
   4   1   8  415.46   19.32 
   7   5   2  403.84   22.06 
   7   5   2  418.91   15.96 
   7   5   2  406.48   13.41 
   9  -3   0   56.25    6.91 
   9  -3   0   37.07    3.69 
  -9   3   0   37.97    3.62 
  -3  10   0   21.87    7.93 
   3 -10   0   26.23    7.23 
  -3  10   0   19.34    7.47 
  -3  10   0   29.50    7.50 
  -3  10   0   40.97    4.88 
   3 -10   0   18.91    7.28 
   3 -10   0   21.19    5.05 
   3 -10   0   24.73    7.81 
  -5  -1  11  200.22   11.73 
   5   1 -11  179.43   11.26 
   5   1 -11  196.45   11.63 
   5   1 -11  183.86    9.48 
   5   1 -11  187.61    7.43 
  -5  -1  11  182.98   11.44 
   5   1 -11  191.46    8.04 
  -5  -1  11  186.96   11.89 
  -8   6   1   63.42    8.57 
   8  -6  -1   49.98    7.97 
   8  -6  -1   74.22   10.01 
   8  -6  -1   65.24    8.59 
  -8   6   1   82.76   10.03 
  -8   6   1   69.59    8.00 
  -2 -10   0  430.48   18.33 
   2  10   0  423.42   18.47 
  -2 -10   0  420.18   20.68 
   2  10   0  433.78   22.70 
   2  10   0  383.27   21.59 
   2  10   0  424.24   17.26 
  -2 -10   0  424.79   17.12 
  -2 -10   0  429.93   17.51 
  -1  -9   7   63.13    9.15 
  -1  -9   7   66.52    7.89 
  -1  -9   7   54.21    7.64 
   1   9  -7   68.67    5.41 
   1   9  -7   68.76    6.26 
   1   9  -7   51.64    9.67 
   1   9  -7   76.39    7.69 
  -1  -9   7   56.30    5.20 
  -2  -9   7  117.76    9.13 
  -2  -9   7  116.01    6.38 
   2   9  -7  108.02    9.15 
   2   9  -7   93.34   11.72 
   2   9  -7  121.09    8.97 
  -2  -9   7  106.94    7.74 
  -2  -9   7  108.11    8.99 
   2   9  -7  101.87   11.50 
   4  -6   7   59.37    6.46 
  -4   6  -7   63.21    7.45 
  -4   6  -7   66.56    7.85 
   4  -6   7   56.05    5.96 
   4  -6   7   69.35    4.18 
   4  -6   7   53.01    7.24 
  -4   6  -7   64.07    7.47 
  -4   6  -7   64.92    6.47 
  -7  -1  10  478.84   14.59 
  -7  -1  10  469.74   18.72 
  -7  -1  10  505.53   18.42 
   7   1 -10  431.16   13.61 
   7   1 -10  510.04   18.37 
   7   1 -10  468.60   14.52 
   7   1 -10  495.09   16.94 
   7   1 -10  488.35   14.65 
  -3   0  -9  268.08   10.62 
   3   0   9  269.81   10.84 
  -3   0  -9  267.59   15.27 
   3   0   9  262.79   10.77 
  -3   0  -9  250.62    9.76 
   3   0   9  255.40    9.83 
   3 -10   1  218.59   11.50 
   3 -10   1  225.45   15.44 
  -3  10  -1  190.15   11.31 
   3 -10   1  196.74   11.75 
  -3  10  -1  234.28   16.46 
  -3  10  -1  218.20   15.49 
  -3  10  -1  205.71   11.81 
   3 -10   1  184.94   16.17 
  -7   6   6   42.78    8.77 
   7  -6  -6   45.47    8.60 
   7  -6  -6   47.78    5.30 
  -7   6   6   55.43    8.84 
   7  -6  -6   48.90    8.73 
   3  -8  -6  429.46   22.11 
  -3   8   6  396.19   16.69 
  -3   8   6  379.66   17.63 
  -3   8   6  409.70   21.92 
  -3   8   6  421.48   17.13 
  -3   8   6  414.81   22.23 
   3  -8  -6  452.67   22.24 
   3  -8  -6  444.86   15.11 
  -2   8  -7  301.76   18.44 
  -2   8  -7  299.46   15.65 
  -2   8  -7  338.87   17.15 
  -2   8  -7  317.68   16.78 
   2  -8   7  317.86   14.97 
   2  -8   7  310.43   11.10 
   2  -8   7  308.95   15.73 
   2  -8   7  321.58   16.96 
  -4   5   9  285.89   13.59 
   4  -5  -9  289.32   17.13 
   4  -5  -9  320.29   17.88 
  -4   5   9  278.25   16.88 
   4  -5  -9  272.65   11.91 
  -4   5   9  282.89   12.30 
   7   4   3  177.10    6.85 
   7   4   3  172.30   10.36 
   7   4   3  195.74   12.24 
   7   4   3  177.45    7.21 
  -3   3  -9  481.98   20.47 
  -3   3  -9  486.28   14.38 
  -3   3  -9  488.80   16.73 
   3  -3   9  491.54   16.72 
   3  -3   9  484.82   15.74 
   3  -3   9  478.51   14.24 
   8   0  -9  144.03    6.00 
   8   0  -9  128.53    6.17 
  -8   0   9  141.36    9.36 
   8   0  -9  152.22    9.47 
   8   0  -9  135.03    8.97 
  -8   0   9  131.15    8.13 
  -8   0   9  137.05    6.01 
  -3   1  11  314.76   11.84 
  -3   1  11  306.35   14.74 
   3  -1 -11  276.90   11.23 
  -3   1  11  287.37   11.00 
   3  -1 -11  292.23   10.33 
   3  -1 -11  298.75   14.65 
  -1  -1 -10    8.03    4.19 
  -1  -1 -10    3.97    3.37 
   1   1  10    6.72    3.09 
   1   1  10    1.00    4.78 
   1   1  10    8.21    3.34 
  -1  -1 -10    3.15    3.15 
   5  -3 -10   30.12    4.07 
   5  -3 -10   25.92    4.32 
  -5   3  10   22.49    4.45 
  -5   3  10   20.39    4.23 
  -5   3  10   26.94    4.81 
  -5   3  10   19.67    3.82 
   5  -3 -10   30.56    4.18 
   5   2 -11  541.20   20.87 
  -5  -2  11  558.30   21.56 
   5   2 -11  560.41   17.76 
   5   2 -11  544.37   19.24 
  -5  -2  11  557.96   21.16 
  -5  -2  11  557.18   22.63 
   5   2 -11  557.94   21.75 
   5   2 -11  572.09   16.54 
   5   5   5    4.71    6.00 
   5   5   5   10.04    3.67 
   1 -10  -2  279.48   16.59 
  -1  10   2  271.24   17.24 
  -1  10   2  253.12   15.80 
   1 -10  -2  283.71   16.04 
  -1  10   2  286.07   14.67 
   1 -10  -2  258.80   11.70 
  -1  10   2  280.08   12.09 
   1 -10  -2  290.05   15.33 
   1  -8  -6  533.87   24.04 
  -1   8   6  499.89   18.46 
  -1   8   6  533.47   23.61 
  -1   8   6  525.30   23.29 
  -1   8   6  463.47   18.55 
  -1   8   6  551.21   24.21 
   1  -8  -6  546.35   23.40 
   1  -8  -6  582.49   22.54 
   9  -4  -4   23.98    5.74 
  -9   4   4   22.11    5.75 
   9  -4  -4   16.88    4.94 
   9  -4  -4   26.46    6.50 
  -9   4   4   16.39    4.95 
  -4  -9   6    5.76    5.00 
  -4  -9   6    3.57    2.73 
   4   9  -6    3.76    3.06 
  -4  -9   6   -1.61    3.00 
   4   9  -6    0.58    2.71 
   4   9  -6    4.85    2.77 
   4   9  -6    3.58    4.77 
   1  -4  10  418.89   17.26 
  -1   4 -10  401.53   17.13 
   1  -4  10  394.92   18.61 
   1  -4  10  419.08   16.14 
  -1   4 -10  397.99   15.83 
  -1   4 -10  407.15   19.25 
   9   3  -1  127.25    7.77 
   9   3  -1  134.64    8.53 
   9   3  -1  151.29    8.57 
   9   3  -1  133.37    5.81 
  -9  -4   4  787.24   28.23 
   9   4  -4  748.25   22.16 
  -7   7   4    4.81    5.04 
  -7   7   4   10.59    5.24 
   7  -7  -4    2.65    3.46 
   7  -7  -4    6.61    5.16 
   7  -7  -4    5.43    5.29 
  -7   7   4    6.27    5.26 
   9   2   0  261.87   11.99 
   9   2   0  254.00    9.48 
   9   2   0  252.77   11.41 
   8   4  -8  276.14   14.15 
   8   4  -8  274.15    9.85 
   8   4  -8  267.65   10.66 
   8   4  -8  277.25    9.79 
  -8  -4   8  280.23    9.74 
  -8  -4   8  275.64   10.00 
  -8  -4   8  276.68   17.41 
  -5   8   5  498.76   22.88 
  -5   8   5  512.82   19.52 
   5  -8  -5  534.05   19.99 
   5  -8  -5  521.47   19.55 
  -5   8   5  481.28   14.78 
  -5   8   5  445.81   14.81 
  -5   8   5  477.46   18.95 
   5  -8  -5  507.03   24.19 
   8   4   1  533.24   16.60 
   8   4   1  531.63   23.95 
   8   4   1  555.30   21.44 
   8   4   1  539.80   17.24 
  -7   7  -1   24.40    6.78 
  -7   7  -1   23.43    4.08 
   7  -7   1   30.90    7.26 
   7  -7   1   22.68    4.03 
  -7   7  -1   18.41    7.31 
   7  -7   1   29.44    6.97 
   5  -4   7  460.73   17.11 
  -5   4  -7  466.69   15.11 
   5  -4   7  461.86   15.12 
   5  -4   7  467.63   17.23 
  -5   4  -7  457.96   17.02 
  -5   4  -7  399.11   12.48 
  -5   4  -7  486.28   19.54 
   5  -4   7  424.37   16.35 
   6   1   6  125.94   10.70 
   6   1   6  125.98    6.24 
  -8   4   7  202.52   14.13 
   8  -4  -7  181.10   12.61 
   8  -4  -7  185.23   12.26 
   8  -4  -7  192.29   13.60 
  -8   4   7  185.77   12.65 
   6  -4  -9   14.67    4.10 
  -6   4   9   13.77    3.22 
  -6   4   9    7.46    2.70 
   6  -4  -9   15.38    5.71 
   6  -4  -9   15.20    5.83 
  -6   4   9    3.70    5.72 
  -6   4   9   16.54    3.81 
   8   5  -7  271.35   13.79 
  -8  -5   7  279.03   18.62 
  -8  -5   7  275.13    9.10 
  -8  -5   7  262.24    8.71 
   8   5  -7  270.07    8.72 
   8   5  -7  275.60    9.14 
   8   5  -7  270.23   11.50 
  -4   4  -8  333.43   12.59 
  -4   4  -8  325.76   15.77 
   4  -4   8  321.34   14.55 
   4  -4   8  322.41   13.77 
   4  -4   8  319.49   12.53 
  -4   4  -8  320.36   13.66 
  -5   9  -1  464.23   23.90 
  -5   9  -1  474.34   24.72 
   5  -9   1  506.60   25.66 
  -5   9  -1  423.72   15.43 
   5  -9   1  495.21   23.68 
  -5   9  -1  481.86   18.79 
   5  -9   1  445.60   15.51 
   5  -9   1  472.89   25.43 
   7   0 -10   -1.72    2.20 
  -7   0  10    5.00    3.54 
  -7   0  10   -0.01    2.25 
   7   0 -10    6.38    2.24 
   7   0 -10    2.57    2.10 
  -7   0  10   12.12    3.25 
   7   0 -10    8.63    2.88 
   5   9  -3  623.84   22.75 
   5   9  -3  569.65   19.71 
   5   9  -3  604.76   25.82 
  -5  -9   3  587.08   16.88 
  -5  -9   3  607.87   31.65 
  -5  -9   3  610.51   19.83 
   5   9  -3  572.25   17.27 
   7  -1   5   54.87    5.56 
   7  -1   5   50.55    5.37 
   5  -9  -2   71.92    6.47 
  -5   9   2   63.06    6.22 
  -5   9   2   52.34    5.80 
  -5   9   2   70.20    6.85 
   5  -9  -2   64.46    4.55 
  -5   9   2   59.17    6.02 
   5  -9  -2   66.19    7.06 
   5  -9  -2   70.98    9.89 
   0  -7   9   35.16    5.68 
   0   7  -9   30.40    6.18 
   0   7  -9   22.66    6.56 
   0   7  -9   29.50    6.40 
   0   7  -9   28.17    5.66 
   0  -7   9   22.34    4.06 
   0  -7   9   33.69    6.32 
   0  -7   9   33.98    6.68 
   9  -1   1    3.58    3.17 
   9  -1   1    2.44    1.39 
   9  -1   1    4.60    2.24 
   8   1   3   21.80    4.08 
   8   1   3   35.99    4.08 
   8   1   3   26.61    6.55 
  -2  -9  -3    1.61    2.78 
   2   9   3   -2.58    4.13 
  -2  -9  -3    2.73    2.80 
  -2  -9  -3    1.96    2.63 
   2   9   3   -2.68    2.81 
   2   9   3    0.50    2.58 
   2   9   3    4.31    3.09 
   2   9   3    1.33    2.82 
   7   2 -10  347.47   14.42 
   7   2 -10  358.72   14.04 
   7   2 -10  348.00   11.21 
   7   2 -10  349.48   12.26 
  -7  -2  10  346.23   11.26 
  -7  -2  10  366.45   16.47 
  -7  -2  10  336.80   11.15 
   7   2 -10  361.26   11.41 
  -1 -10   5  276.05   15.09 
  -1 -10   5  267.98   12.88 
  -1 -10   5  263.14   15.27 
   1  10  -5  263.83   12.35 
  -1 -10   5  255.22   15.78 
   1  10  -5  266.03   12.96 
   1  10  -5  260.63   15.08 
   1  10  -5  269.26   14.97 
  -2   7  -8  108.19    8.98 
   2  -7   8   89.22    8.69 
   2  -7   8   75.46    6.36 
   2  -7   8   77.06    7.99 
  -2   7  -8   85.39    8.03 
  -2   7  -8   90.13    8.70 
   2  -7   8   67.83    7.99 
  -2   7  -8   68.63    9.56 
   8   6  -4  243.63   13.33 
  -8  -6   4  259.38   13.02 
   8   6  -4  245.10   13.51 
   5  -6   6  456.11   14.81 
  -5   6  -6  448.37   15.09 
   5  -6   6  460.62   16.14 
  -5   6  -6  439.94   18.22 
  -5   6  -6  460.72   17.14 
   5  -6   6  429.87   18.53 
  -5   6  -6  394.85   17.23 
   5  -6   6  448.34   16.72 
  -3  -9  -2  165.97   11.35 
  -3  -9  -2  162.54    8.58 
   3   9   2  168.54    8.69 
   3   9   2  153.71    9.32 
  -3  -9  -2  180.36   15.71 
  -3  -9  -2  161.27   10.30 
   3   9   2  156.66   11.17 
   3   9   2  206.40   14.74 
   8   2  -9  180.20    7.77 
   8   2  -9  198.74    9.08 
   8   2  -9  198.36    9.48 
   8   2  -9  175.42    7.38 
  -8  -2   9  193.48    9.58 
  -8  -2   9  175.70    8.81 
  -8  -2   9  182.24   11.54 
   8   2  -9  181.85   10.53 
  -9  -4   3  257.63   12.91 
   9   4  -3  278.38   11.49 
   9   4  -3  265.43   12.56 
  -3 -10   3    2.98    3.46 
   3  10  -3    4.10    4.77 
   3  10  -3    2.86    3.38 
   3  10  -3    7.12    2.94 
  -3 -10   3    3.70    4.15 
   3  10  -3   -3.27    4.75 
  -3 -10   3    1.07    2.95 
  -3 -10   3    2.24    3.34 
   4  -1 -11  477.48   21.04 
   4  -1 -11  475.39   15.10 
   4  -1 -11  474.89   17.40 
   4  -1 -11  477.38   20.15 
   4  -1 -11  498.60   13.55 
  -4   1  11  477.62   20.01 
  -4   1  11  500.95   20.95 
  -4   1  11  489.46   21.24 
   5   0 -11   42.40    3.92 
   5   0 -11   27.32    4.67 
   5   0 -11   34.19    3.63 
   5   0 -11   39.91    4.23 
  -5   0  11   39.20    4.15 
  -5   0  11   37.81    6.59 
   5   0 -11   30.88    6.65 
  -5   0  11   37.36    6.09 
   4   8  -8  172.86   13.15 
   4   8  -8  179.38   10.20 
   4   8  -8  166.64   12.37 
  -4  -8   8  181.74   14.35 
  -4  -8   8  173.23    9.87 
  -4  -8   8  156.35    9.81 
   4   8  -8  173.38    9.65 
  -3 -10   2  106.04   12.56 
  -3 -10   2  103.26    7.26 
  -3 -10   2  100.66    9.99 
   3  10  -2  102.58    8.37 
   3  10  -2  115.24   11.56 
   3  10  -2   94.46    7.37 
   3  10  -2   89.09   11.06 
  -3 -10   2   84.24    8.54 
   9   0   1  432.10   15.85 
   9   0   1  446.49   12.25 
   9   0   1  481.47   17.15 
   9  -4  -1  490.51   17.80 
  -9   4   1  484.25   17.34 
   9  -4  -1  468.80   17.24 
  -2  10   2  216.26   14.81 
  -2  10   2  203.83   15.48 
  -2  10   2  209.32   11.96 
   2 -10  -2  219.54   11.99 
   2 -10  -2  230.53   15.34 
   2 -10  -2  220.26   14.89 
   2 -10  -2  239.70   14.76 
  -2  10   2  227.76   15.61 
   3 -10  -1   84.32    7.37 
  -3  10   1   89.65    7.50 
  -3  10   1  116.86   11.80 
  -3  10   1   95.15   11.26 
  -3  10   1   95.60    7.34 
   3 -10  -1   84.58    7.51 
   3 -10  -1  111.36   11.65 
   3 -10  -1   96.08    7.51 
   8   3   2  455.87   14.45 
   8   3   2  428.05   17.00 
   8   3   2  457.84   21.78 
   8   3   2  428.54   13.41 
  -3  -4  11  333.74   17.23 
  -3  -4  11  332.61   15.08 
   3   4 -11  322.85   16.08 
  -3  -4  11  321.42   16.05 
   3   4 -11  344.91   15.83 
   3   4 -11  330.18   12.90 
   3   4 -11  327.14   14.56 
   8  -3   3  177.27    6.33 
   8  -3   3  182.55    9.65 
   8  -3   3  178.06    8.86 
   8  -3   3  183.16   11.66 
  -8   3  -3  176.54    6.34 
  -8   3  -3  166.44    9.48 
   8  -3   3  174.00    6.26 
  -7   3   9  251.96   14.55 
   7  -3  -9  233.08   14.81 
   7  -3  -9  246.98   12.21 
  -7   3   9  224.50   14.99 
   5   9  -4  420.23   16.03 
   5   9  -4  448.53   22.96 
  -5  -9   4  431.25   15.67 
   5   9  -4  419.49   13.50 
   5   9  -4  415.30   20.49 
  -5  -9   4  434.42   13.29 
  -5  -9   4  427.05   25.57 
   7  -2   5  414.68   14.27 
  -7   2  -5  408.65   10.89 
  -7   2  -5  421.67   14.30 
   7  -2   5  378.44   16.27 
   7  -2   5  435.40   11.27 
   7  -2   5  426.18   14.58 
   9   4  -5  361.33   12.61 
  -9  -4   5  360.59   16.92 
   9   4  -5  375.16   12.87 
  -8  -6   3  631.21   23.81 
   8   6  -3  677.71   24.62 
   8   6  -3  660.35   26.20 
  -2   1  11  276.91   14.20 
   2  -1 -11  289.56   14.60 
   2  -1 -11  293.20   14.30 
  -2   1  11  278.80   11.65 
   2  -1 -11  287.76   13.89 
  -2   1  11  288.56   14.59 
   9  -3  -6  170.04   12.24 
  -9   3   6  157.61   12.03 
  -9   3   6  165.20   10.20 
   9  -3  -6  181.50   10.39 
   9  -3  -6  181.47   11.99 
  -3   6  -8  123.80   10.03 
   3  -6   8  121.42    9.91 
   3  -6   8  131.42    8.94 
   3  -6   8  128.64    9.31 
   3  -6   8  121.75    6.86 
  -3   6  -8  129.00   10.03 
  -3   6  -8  125.43    9.86 
  -3   6  -8  138.09    8.97 
   1   0 -11   15.30    2.92 
  -1   0  11   15.46    3.78 
  -1   0  11   14.54    4.90 
  -1   0  11   13.96    2.81 
   1   0 -11   17.02    3.25 
   1   0 -11   18.61    4.82 
   0 -10  -2  112.94    7.08 
   0  10   2  115.26   11.64 
   0  10   2  124.20    7.23 
   0 -10  -2  123.38   11.05 
   0  10   2  120.51    6.96 
   0 -10  -2  125.05    8.00 
   0  10   2  129.45    7.34 
   0 -10  -2  126.29    7.35 
  -1  -3  11    0.67    2.19 
  -1  -3  11   -0.97    4.05 
   1   3 -11    2.87    2.17 
   1   3 -11    5.55    3.54 
   1   3 -11    3.59    2.38 
  -1  -3  11    3.10    3.45 
   1  -5  -9   97.00    9.12 
  -1   5   9   86.94    9.17 
   1  -5  -9  100.05    9.00 
  -1   5   9  100.82    9.26 
  -1   5   9   86.41    6.97 
  -1   5   9   90.40    8.75 
   3   5   7  604.56   18.45 
   3   5   7  599.50   27.99 
  -3  -5  -7  607.22   19.68 
  -3  -5  -7  634.69   18.35 
   3   5   7  589.41   20.13 
   3   5   7  583.78   28.90 
   0  10  -5  268.70   15.86 
   0 -10   5  288.97   17.03 
   0 -10   5  254.97   16.70 
   0  10  -5  245.81   13.46 
   0 -10   5  273.84   15.84 
   0  10  -5  280.49   12.54 
   0  10  -5  279.64   16.85 
   0 -10   5  261.73   16.70 
   0   7   7  371.50   19.98 
   0  -7  -7  371.44   17.46 
   0   7   7  386.90   17.91 
   0   7   7  350.28   17.77 
   0   7   7  376.82   20.87 
   0  -7  -7  381.92   17.94 
  -1  -6  10  250.33    9.34 
  -1  -6  10  261.08   14.09 
   1   6 -10  248.62   14.02 
   1   6 -10  234.57    9.11 
   1   6 -10  244.82   13.59 
   1   6 -10  236.49   14.17 
  -1  -6  10  261.26   15.07 
  -3  10  -2  481.28   19.90 
  -3  10  -2  443.81   19.66 
  -3  10  -2  526.43   25.87 
   3 -10   2  477.71   20.42 
   3 -10   2  488.46   19.82 
  -3  10  -2  473.90   26.67 
   3 -10   2  497.96   25.38 
   3 -10   2  511.61   24.52 
   6   8  -1  435.04   18.53 
   6   8  -1  466.62   24.15 
  -6  -8   1  442.19   26.74 
   5   7   3  186.46    9.27 
   5   7   3  195.51   11.87 
   5   7   3  224.82   16.31 
  -5  -9   2  126.63    5.65 
  -5  -9   2  151.00   10.81 
   5   9  -2  122.27    5.79 
   5   9  -2  149.56   10.86 
   5   9  -2  121.22    7.75 
   5   9  -2  170.14   13.57 
  -5  -9   2  137.39    7.71 
   7   0   5  236.81   10.98 
   7   0   5  225.76    9.73 
   8  -3  -8  349.57   13.75 
  -8   3   8  358.94   17.23 
   8  -3  -8  363.03   17.54 
   8  -3  -8  354.46   16.42 
  -8   3   8  371.49   18.69 
  -8   5   6   69.99   10.22 
  -8   5   6   71.96    6.20 
   8  -5  -6   65.98   10.07 
   8  -5  -6   96.51    9.96 
   8  -5  -6   85.01    6.21 
  -4  -6  10   87.12    5.21 
  -4  -6  10   84.89    6.26 
  -4  -6  10   81.38    8.07 
   4   6 -10   87.47    8.01 
   4   6 -10   74.99    5.50 
   4   6 -10   85.08    7.48 
   4   6 -10   80.61    7.73 
   0  -9   7   30.92    6.54 
   0  -9   7   38.88    7.19 
   0  -9   7   37.50    4.80 
   0   9  -7   26.11    8.49 
   0   9  -7   34.88    7.40 
   0   9  -7   46.37    7.20 
   0   9  -7   31.20    7.77 
   0  -9   7   39.94    4.81 
  -2  -4  11  411.89   16.99 
  -2  -4  11  394.11   19.19 
  -2  -4  11  408.28   18.21 
   2   4 -11  404.95   18.39 
   2   4 -11  389.05   13.68 
   2   4 -11  381.40   15.22 
   2   4 -11  388.77   17.25 
   7   7  -6  189.03    8.69 
   7   7  -6  181.04    7.31 
   7   7  -6  203.38   11.86 
  -7  -7   6  170.33    6.49 
  -7  -7   6  183.36    7.18 
  -7  -7   6  176.52   11.38 
   7   7  -6  167.46    6.66 
  -8  -6   5    5.66    4.47 
   8   6  -5   -0.51    2.03 
   8   6  -5    2.14    2.81 
   3   9  -7  223.32   16.44 
  -3  -9   7  215.62   12.08 
   3   9  -7  221.28   11.73 
   3   9  -7  209.86   15.32 
   3   9  -7  222.72   12.27 
  -3  -9   7  228.48   11.85 
  -3  -9   7  208.50   16.81 
  -6   7   6  373.49   20.90 
   6  -7  -6  372.55   20.77 
   6  -7  -6  349.40   19.45 
   6  -7  -6  362.67   22.19 
  -6   7   6  369.36   22.04 
  -6   7   6  351.14   19.26 
  -8   6   4  255.31   12.77 
   8  -6  -4  246.01   17.01 
  -8   6   4  281.41   16.53 
  -8   6   4  269.94   15.96 
   8  -6  -4  260.21   16.32 
   8  -6  -4  265.45   16.57 
   9  -2   1  523.20   21.03 
   2  10  -5  520.67   27.02 
  -2 -10   5  538.77   18.98 
  -2 -10   5  561.86   27.13 
   2  10  -5  542.64   23.56 
   2  10  -5  585.48   27.98 
  -2 -10   5  581.52   22.82 
  -2 -10   5  553.53   23.19 
   2  10  -5  558.73   22.44 
   8  -6   0   89.92   11.58 
   8  -6   0   92.25   10.00 
  -8   6   0   96.76    9.96 
  -8   6   0  101.73    9.24 
  -8   6   0  117.72    7.65 
   8  -6   0  101.41    9.06 
   8  -1  -9   92.31    8.62 
  -8   1   9  100.46    8.72 
   8  -1  -9   92.86    8.00 
  -8   1   9   88.45    7.87 
   8  -1  -9   89.38    7.74 
  -7   6  -3   77.53    8.29 
   7  -6   3   76.39    6.73 
   7  -6   3   57.09    3.81 
   7  -6   3   74.03    9.15 
   7  -6   3   74.08    8.45 
  -7   6  -3   79.28    8.65 
  -7   6  -3   58.71    4.67 
  -7   6  -3   66.82    6.57 
   6   6  -9  193.66    8.15 
  -6  -6   9  210.68   14.64 
  -6  -6   9  194.44    9.46 
  -6  -6   9  182.89    6.99 
   6   6  -9  185.84    7.13 
   6   6  -9  188.55   11.60 
   6   6  -9  195.38    9.28 
   7   6   1  432.23   15.03 
   7   6   1  389.26   22.76 
   7   6   1  424.70   23.34 
  -2  -7  -6    9.88    2.14 
  -2  -7  -6    5.71    3.06 
   2   7   6    3.17    3.38 
   2   7   6    8.81    5.48 
   2   7   6    4.91    3.10 
   2   7   6    1.61    2.16 
   3  -9   5  635.71   28.00 
   3  -9   5  593.78   25.38 
   3  -9   5  583.12   22.76 
  -3   9  -5  609.44   25.76 
   3  -9   5  613.01   27.30 
  -3   9  -5  557.83   28.68 
  -3   9  -5  585.09   24.77 
  -3   9  -5  589.99   27.32 
   5   3 -11   92.52    6.54 
   5   3 -11   73.05    7.50 
  -5  -3  11   91.75    8.49 
   5   3 -11  100.74    8.22 
  -5  -3  11   93.61    9.15 
   5   3 -11   78.91    5.45 
  -5  -3  11   94.91    5.42 
  -5   8  -4  283.68   18.29 
   5  -8   4  273.34   17.55 
   5  -8   4  280.58   11.44 
  -5   8  -4  289.26   17.74 
   5  -8   4  297.87   17.72 
  -5   8  -4  290.20   13.62 
   5  -8   4  320.81   16.25 
  -5   8  -4  285.97   16.42 
   8   5   0  254.88   14.41 
   8   5   0  233.02   10.34 
   8   5   0  246.40   15.58 
  -9   2   7   25.10    5.78 
   9  -2  -7   20.67    4.71 
   9  -2  -7   21.39    5.84 
   9  -2  -7   26.54    5.59 
  -9   2   7   21.96    4.55 
   5  -6  -8  399.18   22.84 
   5  -6  -8  404.29   17.35 
  -5   6   8  375.16   14.25 
  -5   6   8  359.26   14.24 
  -5   6   8  394.84   21.75 
  -5   6   8  400.68   15.84 
   5  -6  -8  407.44   22.18 
  -3 -10   4  208.19   10.83 
  -3 -10   4  196.84   12.26 
  -3 -10   4  182.43    9.44 
  -3 -10   4  199.11   17.08 
   3  10  -4  205.38   15.67 
   3  10  -4  185.59   11.42 
   3  10  -4  214.83   12.38 
   3  10  -4  204.83   10.66 
  -6   8  -2    7.52    4.32 
  -6   8  -2    2.83    3.13 
  -6   8  -2    2.64    2.99 
   6  -8   2    5.69    4.23 
   6  -8   2    4.97    3.05 
   6  -8   2    3.82    4.78 
   6  -8   2    0.17    2.05 
  -6   8  -2    2.42    4.71 
  -6   8   4  213.82   15.28 
  -6   8   4  212.22   11.46 
  -6   8   4  215.87   11.09 
   6  -8  -4  221.36   11.26 
   6  -8  -4  208.95   10.97 
   6  -8  -4  191.96   11.29 
   0   6   8   90.47    8.79 
   0   6   8   98.79    8.87 
   0   6   8   94.09   11.33 
   0   6   8  106.23    6.99 
   0  -6  -8  106.51    8.74 
   0  -6  -8   94.63    9.06 
  -4  -4  11  321.55   11.42 
  -4  -4  11  344.39   15.89 
  -4  -4  11  299.16   17.34 
   4   4 -11  338.91   14.80 
   4   4 -11  316.01   13.10 
   4   4 -11  331.84   11.30 
   4   4 -11  340.42   15.80 
   4  -9  -4  684.34   29.85 
  -4   9   4  593.10   21.09 
  -4   9   4  626.98   20.89 
  -4   9   4  617.94   27.94 
  -4   9   4  679.75   30.09 
   4  -9  -4  697.29   29.99 
   7   7  -1  196.43   10.92 
  -7  -7   1  177.70   16.92 
   7   7  -1  214.42   11.02 
   6  -4   6  260.08    7.54 
   6  -4   6  254.05    8.40 
  -6   4  -6  268.95   13.01 
   6  -4   6  244.81   12.06 
  -6   4  -6  264.75    9.13 
  -6   4  -6  245.47    7.53 
   6  -4   6  267.76   12.15 
   3   8   4  147.71   14.18 
   3   8   4  137.46    8.68 
   3   8   4  135.05    7.62 
   3   8   4  140.41   14.31 
   3   8   4  137.01    8.14 
  -3  -8  -4  145.37    7.81 
  -3  -8  -4  138.65    7.53 
  -2  -6  -7   60.11    5.85 
  -2  -6  -7   57.47    5.29 
   2   6   7   29.87    9.54 
   2   6   7   63.71    6.64 
   2   6   7   48.30    5.90 
   2   6   7   49.57    3.63 
   3  10  -1  408.22   21.48 
  -3 -10   1  452.78   16.37 
   3  10  -1  417.38   16.59 
   3  10  -1  446.49   18.22 
  -3 -10   1  420.76   20.47 
  -3 -10   1  440.71   18.15 
   3  10  -1  422.60   18.52 
  -6  -8   6  459.33   14.20 
   6   8  -6  465.22   16.60 
   6   8  -6  430.60   13.81 
   6   8  -6  450.87   21.46 
   6   8  -6  466.04   15.79 
  -6  -8   6  468.75   15.40 
  -6  -8   6  450.06   25.78 
  -2   9  -6  241.92   12.58 
  -2   9  -6  237.87   10.92 
  -2   9  -6  227.66   10.38 
  -2   9  -6  254.88   15.39 
   2  -9   6  235.55   10.03 
   2  -9   6  224.73   15.30 
   2  -9   6  234.86   10.62 
   2  -9   6  237.41   10.72 
  -7   5  -4  591.44   19.28 
  -7   5  -4  619.95   23.48 
  -7   5  -4  617.63   24.25 
  -7   5  -4  589.95   20.58 
   7  -5   4  601.79   19.24 
   7  -5   4  584.81   17.04 
   7  -5   4  626.82   24.60 
   7  -5   4  573.53   25.66 
   9   3  -7  450.95   15.28 
   9   3  -7  517.72   15.98 
   9   3  -7  473.01   14.47 
   9   3  -7  484.45   20.75 
  -9  -3   7  484.72   13.42 
  -9  -3   7  497.91   15.59 
  -9  -3   7  467.90   20.02 
   9   3  -7  486.26   13.54 
  -4   8   6  244.38   11.60 
  -4   8   6  282.72   17.32 
  -4   8   6  253.91   14.53 
  -4   8   6  249.34   11.51 
   4  -8  -6  290.62   18.02 
   4  -8  -6  264.06   15.59 
  -4   8   6  281.29   12.78 
   4  -8  -6  271.11   12.87 
   9   4  -2    7.72    4.22 
   9   4  -2   12.99    2.76 
   9   4  -2   16.59    3.97 
   7   3   4    1.60    1.41 
   7   3   4    3.04    3.16 
   7   3   4    1.43    4.14 
   7   3   4   -1.43    2.14 
   9   1   1  436.09   15.80 
   9   1   1  438.27   17.86 
   9   1   1  429.52   13.07 
   6   7  -8  295.85   11.88 
   6   7  -8  306.15   12.05 
   6   7  -8  294.22   11.83 
   6   7  -8  313.88   15.84 
  -6  -7   8  319.25   19.62 
  -6  -7   8  304.26   11.66 
  -6  -7   8  285.86   11.74 
  -7   1  10  570.47   20.87 
   7  -1 -10  554.98   19.16 
   7  -1 -10  523.40   15.50 
   7  -1 -10  542.22   22.37 
  -7   1  10  567.31   22.96 
  -7   1  10  546.25   22.30 
   9  -4  -5  466.11   20.58 
   9  -4  -5  393.55   20.30 
   9  -4  -5  413.86   18.30 
  -9   4   5  435.90   20.49 
  -9   4   5  397.09   17.95 
   3   1   9  345.72   11.97 
  -3  -1  -9  337.64   11.93 
   3   1   9  338.71   13.31 
  -3  -1  -9  352.10   12.51 
   3   1   9  333.80   18.17 
   3   1   9  340.50   12.58 
  -7  -6   8  439.71   23.41 
  -7  -6   8  464.28   14.95 
   7   6  -8  465.17   14.80 
   7   6  -8  440.21   17.96 
   7   6  -8  458.96   15.55 
  -7  -6   8  446.24   14.64 
   7   6  -8  457.39   15.05 
   1   9   4  261.48   12.23 
  -1  -9  -4  254.50   13.92 
  -1  -9  -4  245.60   13.07 
   1   9   4  277.58   13.34 
   1   9   4  254.87   16.80 
   1   9   4  217.58   13.36 
  -1  -9  -4  267.69   13.45 
   1   9   4  247.77   14.08 
   6   5   4  374.18   13.21 
   6   5   4  380.18   11.40 
   6   5   4  430.65   21.52 
   6   5   4  439.71   17.33 
  -1  -4  -9  380.70   15.26 
  -1  -4  -9  358.92   14.96 
   1   4   9  381.82   19.58 
   1   4   9  372.55   15.37 
   1   4   9  373.09   21.43 
   1   4   9  372.26   15.23 
   7   3 -10    0.72    2.06 
   7   3 -10    1.26    1.96 
   7   3 -10   -1.50    1.07 
  -7  -3  10    1.63    2.00 
   7   3 -10    3.40    1.92 
  -7  -3  10   -0.60    1.96 
  -7  -3  10   -1.96    2.34 
  -8  -6   2  291.97   13.60 
   8   6  -2  290.19   16.42 
   8   6  -2  310.64   13.86 
  -5  -9   5   81.68    5.37 
  -5  -9   5   74.35   11.67 
   5   9  -5   71.26    5.28 
  -5  -9   5   68.25    6.26 
   5   9  -5   68.68    6.41 
   5   9  -5   72.77    6.52 
   5   9  -5   83.15   10.32 
   4   8   3  425.21   16.98 
   4   8   3  520.67   27.36 
   4   8   3  393.94   12.79 
   4   8   3  417.80   14.71 
   4   8   3  510.90   19.58 
  -4  -9  -1  414.35   15.03 
  -4  -9  -1  447.14   18.86 
   4   9   1  362.18   13.18 
   4   9   1  400.12   18.25 
   4   9   1  465.20   24.06 
  -4  -9  -1  414.02   12.82 
   4   9   1  380.13   14.72 
   3  -4   9    3.32    2.87 
  -3   4  -9    3.55    2.49 
   3  -4   9    3.14    3.46 
  -3   4  -9    0.59    2.84 
   3  -4   9    1.76    3.06 
  -3   4  -9    0.91    3.10 
  -3   4  10   66.26    9.18 
  -3   4  10   61.83    8.15 
   3  -4 -10   67.77    8.70 
   3  -4 -10   64.30    9.20 
  -3   4  10   79.95    7.09 
   5   2   7  432.54   19.45 
   5   2   7  375.99   10.35 
   7   5  -9  116.89    8.81 
   7   5  -9  104.78    6.84 
   7   5  -9  109.57    5.27 
   7   5  -9  112.06    7.09 
  -7  -5   9  109.81    7.02 
  -7  -5   9  106.83    6.96 
  -7  -5   9  100.69   10.81 
  -2  10  -4    4.60    3.69 
  -2  10  -4    1.62    4.95 
  -2  10  -4    6.45    3.47 
  -2  10  -4    4.37    4.25 
   2 -10   4    2.43    5.01 
   2 -10   4    4.54    3.29 
   2 -10   4   -0.82    4.19 
   2 -10   4    7.63    3.40 
   0   8   6  418.35   21.75 
   0   8   6  323.74   14.70 
   0  -8  -6  408.48   16.16 
   0  -8  -6  412.95   18.74 
   0  -8  -6  404.29   19.02 
   0   8   6  403.61   18.52 
   0   8   6  403.40   19.08 
   0   8   6  411.70   21.43 
  -7   3  -5  201.05    7.31 
  -7   3  -5  227.40   10.43 
   7  -3   5  206.48    7.54 
   7  -3   5  200.73    8.81 
   7  -3   5  186.86   11.58 
   7  -3   5  198.53   10.42 
   6   6   3  161.10    7.59 
   6   6   3  147.85   15.15 
   6   6   3  156.06   14.46 
   5   4   6   84.19   10.39 
   5   4   6   69.76    6.85 
  -5   5   9  386.95   15.08 
  -5   5   9  424.76   22.69 
  -5   5   9  390.49   15.61 
  -5   5   9  380.73   16.51 
   5  -5  -9  409.16   16.79 
   5  -5  -9  420.90   22.14 
   5  -5  -9  438.94   23.12 
   8   3  -9  130.53    7.56 
  -8  -3   9  120.23   11.11 
   8   3  -9  112.49    7.27 
   8   3  -9  130.50    9.43 
  -8  -3   9  121.97    7.35 
  -8  -3   9  124.52    7.49 
   8   3  -9  121.54    6.60 
  -5   7   7  418.41   19.53 
   5  -7  -7  459.22   23.12 
   5  -7  -7  429.53   15.27 
   5  -7  -7  454.77   24.03 
  -5   7   7  409.23   16.93 
  -5   7   7  418.81   17.40 
  -5   7   7  398.35   14.63 
  -5   7   7  413.08   23.73 
  -5   9  -2  226.20   16.98 
   5  -9   2  251.98   17.23 
   5  -9   2  224.60   17.58 
   5  -9   2  232.76   10.34 
  -5   9  -2  222.11   17.08 
  -5   9  -2  229.95   16.43 
  -5   9  -2  226.12   10.56 
   5  -9   2  248.32   16.03 
   5  -1 -11  475.54   16.71 
   5  -1 -11  489.33   14.58 
   5  -1 -11  488.66   20.93 
  -5   1  11  469.03   20.25 
   5  -1 -11  503.90   16.83 
  -5   1  11  463.23   16.93 
  -5   1  11  508.80   21.65 
   5  -1 -11  505.58   15.28 
   4   4   7   57.67    4.76 
   4   4   7   47.67    9.48 
  -4  -4  -7   66.29    4.02 
  -4  -4  -7   65.33    4.66 
   4   4   7   65.45    4.13 
   4   4   7   95.14   10.18 
   9   4  -6   25.11    3.75 
   9   4  -6   33.31    4.04 
  -9  -4   6   36.29    6.57 
   2   3   9  329.21   18.71 
  -2  -3  -9  293.92   11.91 
  -2  -3  -9  299.01   12.64 
   2   3   9  318.43   12.62 
   2   3   9  279.31   11.86 
   2   3   9  317.41   12.99 
   2  -2  10   67.91    7.95 
  -2   2 -10   57.06    6.31 
  -2   2 -10   56.34    7.86 
  -2   2 -10   52.73    4.01 
   2  -2  10   52.41    3.83 
   2  -2  10   56.86    6.35 
  -5   9   3  270.69   12.73 
  -5   9   3  341.07   20.31 
  -5   9   3  255.77   10.14 
  -5   9   3  311.39   13.38 
  -5   9   3  261.62    9.67 
   5  -9  -3  312.76   18.64 
   5  -9  -3  326.59   13.48 
   5  -9  -3  314.65   19.70 
  -8   5  -2   71.92    5.89 
   8  -5   2   72.80    6.01 
   8  -5   2   59.58    7.91 
   8  -5   2   63.30    5.79 
  -8   5  -2   62.29    7.94 
  -2   1 -10  260.90   11.09 
  -2   1 -10  276.97   12.45 
   2  -1  10  286.79   12.65 
   2  -1  10  268.10   11.41 
   2  -1  10  261.63   15.13 
  -2   1 -10  275.58   11.63 
   2  10   1   24.08    7.96 
  -2 -10  -1   53.39    5.92 
  -2 -10  -1   51.39    6.54 
  -2 -10  -1   44.93    6.06 
   2  10   1   37.73    9.06 
  -2 -10  -1   42.62    7.86 
   2  10   1   50.45    6.54 
   2  10   1   44.71    6.18 
   3 -10  -2  310.29   13.58 
   3 -10  -2  349.23   19.66 
   3 -10  -2  322.48   19.72 
   3 -10  -2  335.17   14.39 
  -3  10   2  307.68   18.69 
  -3  10   2  316.20   20.03 
  -3  10   2  306.16   13.98 
  -3  10   2  348.58   19.51 
   4  -9   4  245.68   16.51 
   4  -9   4  237.92   17.07 
   4  -9   4  237.89   12.18 
  -4   9  -4  238.26   15.89 
  -4   9  -4  255.15   17.23 
   4  -9   4  245.72   15.73 
  -4   9  -4  221.59   13.03 
  -4   9  -4  260.18   17.32 
  -9  -1   8  406.56   16.08 
   9   1  -8  428.05   17.71 
   9   1  -8  427.53   16.14 
   9   1  -8  418.91   13.97 
  -9  -1   8  426.25   14.18 
  -1   8  -8  542.47   22.26 
  -1   8  -8  582.37   27.40 
   1  -8   8  544.23   20.69 
   1  -8   8  557.51   22.69 
  -1   8  -8  590.63   24.82 
  -1   8  -8  565.86   24.48 
   1  -8   8  559.30   24.05 
   1  -8   8  550.31   22.97 
  -9   0   8  334.16   12.83 
   9   0  -8  335.36   12.83 
   9   0  -8  359.28   15.02 
   9   0  -8  327.61   11.91 
  -9   0   8  333.90   14.91 
   5   9  -1    3.38    2.42 
   5   9  -1    2.41    1.71 
   5   9  -1    4.37    3.88 
   5   9  -1    3.85    3.33 
  -5  -9   1    1.67    5.58 
   6  -6   5  491.18   17.62 
   6  -6   5  462.97   15.32 
   6  -6   5  468.95   21.97 
   6  -6   5  460.56   21.27 
  -6   6  -5  465.60   17.83 
  -6   6  -5  484.01   20.99 
  -6   6  -5  481.10   18.75 
  -6   6  -5  469.08   20.19 
   6  -7   4  175.19    8.05 
  -6   7  -4  182.08    9.64 
   6  -7   4  210.34   14.66 
   6  -7   4  200.47   10.06 
  -6   7  -4  194.50    8.47 
  -6   7  -4  201.44   10.48 
  -6   7  -4  184.45   10.10 
   6  -7   4  193.40    8.48 
  -2   4  10   21.77    5.93 
  -2   4  10   23.18    6.03 
  -2   4  10   15.58    3.47 
   2  -4 -10   18.61    5.62 
   2  -4 -10   22.83    5.88 
   1 -10   5  242.74   17.04 
   1 -10   5  267.52   17.95 
  -1  10  -5  273.09   13.50 
  -1  10  -5  269.20   17.42 
   1 -10   5  246.80   17.13 
  -1  10  -5  273.23   16.23 
   1 -10   5  269.38   15.96 
  -1  10  -5  238.48   16.52 
  -5  -7   9  407.78   15.67 
   5   7  -9  388.36   18.50 
   5   7  -9  390.32   15.25 
  -5  -7   9  404.75   16.00 
   5   7  -9  387.35   18.46 
   5   7  -9  379.21   15.53 
  -5  -7   9  407.50   21.76 
   4   2   8  247.00   11.22 
   4   2   8  245.81    8.82 
   4   2   8  243.14    8.95 
  -4  -2  -8  262.29    8.85 
  -4  -2  -8  241.33    8.75 
   0  -3 -10  333.95   14.66 
   0   3  10  321.40   14.37 
   0   3  10  334.54   15.03 
   0   3  10  336.17   19.02 
   0   3  10  327.37   13.04 
   0  -3 -10  334.70   15.24 
  10   0  -4  132.70   10.14 
   7   1   5  374.12   15.41 
   7   1   5  372.30   19.26 
   2   8   5   29.24    4.95 
  -2  -8  -5   29.21    5.14 
  -2  -8  -5   34.14    4.13 
  -2  -8  -5   35.62    5.16 
   2   8   5   25.83    5.10 
   2   8   5   33.61    8.54 
   2   8   5   22.45    4.63 
   2   8   5   36.14    8.31 
  -4   4  10  174.48   11.23 
   4  -4 -10  153.07    8.33 
   4  -4 -10  181.07   13.52 
  -4   4  10  170.88   13.30 
  -4   4  10  192.29   13.81 
   4  -4 -10  162.98   14.05 
  -4   4  10  177.64    9.43 
  -9   4   0  242.63   12.01 
   9  -4   0  232.07   10.24 
   9  -4   0  227.73   15.27 
  -9   4   0  228.15   10.20 
   9  -4   0  260.28   12.12 
  -1 -10  -2   95.68    8.97 
  -1 -10  -2  123.82   10.81 
   1  10   2  104.73    7.43 
  -1 -10  -2   93.81    9.43 
  -1 -10  -2   85.31   11.23 
   1  10   2   96.58    9.48 
   1  10   2   84.30    8.79 
   1  10   2  101.47   10.37 
   8   6  -6  184.30    6.39 
  -8  -6   6  209.36   17.00 
   8   6  -6  217.57   12.44 
   8   6  -6  201.59   10.69 
   8   6  -6  174.75    6.11 
   1  -1 -11  283.79    9.97 
   1  -1 -11  294.86   15.35 
   1  -1 -11  292.97   14.33 
  -1   1  11  282.80   14.25 
  -1   1  11  296.24   17.02 
  -1   1  11  282.07   10.28 
  -2   9   5  402.30   21.55 
  -2   9   5  358.55   18.09 
  -2   9   5  404.68   20.57 
   2  -9  -5  430.45   21.24 
   2  -9  -5  360.67   14.12 
   2  -9  -5  413.83   21.71 
  -2   9   5  402.66   18.50 
  -2   9   5  410.78   18.29 
   1   4 -11  234.44   14.26 
  -1  -4  11  263.42   13.88 
  -1  -4  11  226.43   10.72 
   1   4 -11  247.67   13.12 
   1   4 -11  256.01   10.10 
  -1  -4  11  248.35   13.14 
  10   0  -3  379.47   12.91 
   8   2   3  444.77   22.90 
   8   2   3  473.77   17.29 
   8   2   3  463.96   13.30 
   8   2   3  497.96   15.42 
   0   2 -11  213.25    9.27 
   0  -2  11  208.46    8.61 
   0   2 -11  199.77    8.25 
   0  -2  11  208.77    8.08 
   0   2 -11  210.34    8.61 
   0  -2  11  201.91   13.79 
  -3   2  11  290.58   15.65 
  -3   2  11  296.81   11.67 
   3  -2 -11  264.82   10.89 
   3  -2 -11  278.88   13.31 
   3  -2 -11  283.01   11.22 
  -3   2  11  270.71   10.94 
   0  -1  11  536.22   20.83 
   0   1 -11  528.95   20.51 
   0   1 -11  534.25   19.37 
   0   1 -11  516.75   22.56 
   0  -1  11  507.21   19.60 
   0  -1  11  512.37   23.51 
   6   2   6  105.27    9.39 
   6   1 -11  104.37    8.70 
   6   1 -11  100.24    6.70 
   6   1 -11  108.34    9.10 
   6   1 -11  120.01    6.42 
  -6  -1  11  113.22    9.26 
  -6  -1  11   98.49    9.00 
  -6  -1  11   94.75    8.83 
   6   1 -11  100.98    6.87 
   9  -3   1  459.30   20.13 
   9  -3   1  432.64   14.99 
  -9   3  -1  442.76   15.20 
  -9   3  -1  394.68   12.93 
   9  -3   1  387.69   13.05 
   6   5 -10  273.90    9.61 
  -6  -5  10  292.99   16.26 
   6   5 -10  273.02   10.09 
   6   5 -10  266.57   12.84 
   6   5 -10  285.28    9.51 
  -6  -5  10  299.14    9.73 
  -6  -5  10  266.05    9.58 
   3 -10   3  254.18   17.95 
   3 -10   3  242.80   18.07 
  -3  10  -3  255.74   19.00 
  -3  10  -3  239.70   13.72 
   3 -10   3  255.03   10.18 
  -3  10  -3  258.06   12.30 
   3 -10   3  230.79   12.14 
  -3  10  -3  250.65   17.74 
   1   2  10  306.59   18.12 
   1   2  10  307.28   13.20 
   1   2  10  282.01   12.29 
  -1  -2 -10  318.68   13.41 
  -1  -2 -10  293.35   12.48 
   1   2  10  287.54   16.46 
   7  -7  -5  198.06   11.01 
  -7   7   5  194.33   15.30 
  -7   7   5  179.21   10.94 
  -7   7   5  194.86   15.35 
   7  -7  -5  183.44   15.25 
   7  -7  -5  203.75   15.13 
  -7   7  -2  341.83   17.89 
  -7   7  -2  354.47   19.77 
  -7   7  -2  355.36   21.39 
   7  -7   2  355.29   15.14 
   7  -7   2  337.98   17.33 
   7  -7   2  364.97   19.60 
  10  -1  -3   -1.02    3.17 
 -10   1   4  167.88    8.50 
 -10   1   4  157.65    5.97 
  10  -1  -4  165.48    6.01 
  10  -1  -4  178.56    8.31 
  10  -1  -4  155.07    8.61 
   1  -5  10    1.40    3.86 
  -1   5 -10   -0.28    3.22 
  -1   5 -10    2.19    3.80 
   1  -5  10    4.16    3.17 
  -1   5 -10    2.43    2.22 
   1  -5  10    1.71    2.28 
  -1   9   5  573.17   25.74 
  -1   9   5  541.50   23.70 
  -1   9   5  484.52   21.13 
  -1   9   5  547.21   24.80 
   1  -9  -5  555.00   25.35 
   1  -9  -5  597.23   25.40 
   1  -9  -5  486.84   17.37 
  -1   9   5  550.52   19.48 
  -2   6  -9  416.87   17.70 
  -2   6  -9  435.25   19.18 
  -2   6  -9  390.39   18.60 
  -2   6  -9  445.57   19.57 
   2  -6   9  432.67   17.37 
   2  -6   9  443.49   19.28 
   2  -6   9  406.47   13.50 
   2  -6   9  432.21   14.68 
   9   3   0   31.71    4.87 
   9   3   0   39.86    4.79 
   9   3   0   26.49    4.60 
   9   3   0   34.84    6.00 
  10   1  -4  544.68   17.21 
   8  -4   3  487.24   16.74 
  -8   4  -3  486.44   19.68 
  -8   4  -3  472.48   14.58 
   8  -4   3  509.80   19.85 
   8  -4   3  521.07   22.76 
   3  10  -5  499.90   19.36 
  -3 -10   5  520.79   21.60 
   3  10  -5  514.19   26.74 
   3  10  -5  489.12   26.18 
   3  10  -5  513.46   22.14 
  -3 -10   5  528.89   19.98 
  -3 -10   5  506.34   21.01 
  -3 -10   5  517.09   23.03 
   2  -3  10  725.48   25.82 
   2  -3  10  675.32   21.94 
  -2   3 -10  720.18   25.58 
   2  -3  10  729.80   24.33 
  -2   3 -10  728.47   24.56 
  -2   3 -10  709.35   28.23 
  -6  -2  11  433.80   14.20 
   6   2 -11  440.93   14.46 
   6   2 -11  438.84   14.91 
   6   2 -11  440.28   12.87 
   6   2 -11  414.67   15.71 
  -6  -2  11  428.91   14.04 
   6   2 -11  438.71   13.81 
  -6  -2  11  425.90   19.29 
   6  -3 -10   15.85    6.24 
  -6   3  10   15.32    5.89 
  -6   3  10   13.51    4.19 
   6  -3 -10   17.98    5.86 
  -6   3  10    6.77    6.31 
  -6   3  10   15.44    3.25 
   6  -3 -10   28.50    4.07 
  -4   2  11  171.63    8.24 
   4  -2 -11  152.34    6.58 
   4  -2 -11  168.86   12.34 
  -4   2  11  164.33    8.15 
   4  -2 -11  162.38    8.24 
  -4   2  11  173.57   12.86 
  -5   5  -7   81.35    7.98 
  -5   5  -7   73.29    6.39 
   5  -5   7   76.19    6.39 
   5  -5   7   69.50    6.12 
   5  -5   7   88.08    6.71 
  -5   5  -7   69.51    5.35 
  -5   5  -7   80.07    7.67 
   5  -5   7   73.50    7.56 
   2   0  10  519.47   17.76 
   2   0  10  515.25   24.16 
  -2   0 -10  532.09   19.03 
  -2   0 -10  531.77   22.79 
   2   0  10  549.87   19.28 
  -2   0 -10  520.25   17.77 
   0   6 -10  167.48   12.38 
   0   6 -10  152.45   11.63 
   0   6 -10  171.45   12.02 
   0  -6  10  162.52   12.46 
   0  -6  10  159.82   10.89 
   0  -6  10  176.58   11.79 
   0   6 -10  163.92   10.81 
  -9  -2   8    5.49    2.10 
   9   2  -8    2.80    2.11 
   9   2  -8   -3.01    3.37 
   9   2  -8   -1.30    2.46 
   9   2  -8    1.09    2.13 
  -9  -2   8    6.15    3.08 
  -9  -2   8   -0.72    2.52 
   6   4   5  319.89   20.29 
   6   4   5  324.06   18.56 
  -4   5  -8  491.02   19.22 
  -4   5  -8  477.97   21.15 
   4  -5   8  456.30   14.72 
   4  -5   8  497.10   18.97 
  -4   5  -8  487.80   13.99 
   4  -5   8  476.38   13.59 
  -4   5  -8  397.01   14.67 
   4  -5   8  426.31   14.33 
 -10   0   5   15.95    2.47 
 -10   0   5   16.79    5.58 
  10   0  -5   10.48    5.56 
  10   0  -5   26.57    3.55 
  10   1  -3  253.90   13.63 
   8  -2  -9  526.62   16.59 
  -8   2   9  507.12   22.53 
  -8   2   9  520.36   21.44 
   8  -2  -9  503.83   21.51 
  -1  10   3  417.42   19.96 
  -1  10   3  428.56   20.59 
   1 -10  -3  440.28   20.64 
   1 -10  -3  423.99   21.10 
   1 -10  -3  408.09   19.74 
   1 -10  -3  388.26   15.74 
  -1  10   3  377.50   20.97 
  -1  10   3  431.38   21.57 
   8  -6  -5   29.07    7.85 
   8  -6  -5   39.00    8.30 
  -8   6   5   38.13    7.98 
  -8   6   5   37.54    8.16 
   8  -6  -5   34.77    8.02 
   4 -10   0    2.96    5.26 
   4 -10   0    2.55    5.46 
  -4  10   0    5.48    2.91 
  -4  10   0    1.37    5.06 
  -4  10   0    2.47    5.39 
   4 -10   0    5.27    5.25 
  -4  10   0    6.18    5.32 
   4 -10   0    4.03    3.06 
   1  -9   7   11.06    6.09 
   1  -9   7   13.33    3.52 
   1  -9   7   14.13    3.37 
   1  -9   7   12.70    3.67 
  -1   9  -7   17.85    3.67 
  -1   9  -7   11.97    6.02 
  -1   9  -7   15.86    4.40 
  -1   9  -7   13.53    6.14 
   2   5   8  163.68   13.77 
   2   5   8  177.83    9.40 
   2   5   8  182.02   15.57 
   2   5   8  181.52    9.17 
  -2  -5  -8  186.36    9.12 
  -2  -5  -8  172.13    9.55 
  -5  -4  11  117.42    6.50 
  -5  -4  11  126.31    9.34 
  -5  -4  11  134.42    7.71 
   5   4 -11  111.25    6.34 
   5   4 -11  113.46    9.08 
   5   4 -11  125.82    9.15 
   5   4 -11  128.75    8.51 
   3  10   0  350.50   20.80 
   3  10   0  299.87   18.45 
   3  10   0  330.18   15.14 
   3  10   0  307.14   13.71 
  -3 -10   0  345.58   13.63 
  -3 -10   0  340.25   14.88 
  -3 -10   0  351.36   21.52 
  -3 -10   0  336.08   13.71 
  -3   9   5  327.99   18.98 
  -3   9   5  298.60   14.03 
   3  -9  -5  310.50   19.14 
  -3   9   5  277.58   13.99 
   3  -9  -5  308.23   18.60 
   3  -9  -5  313.79   16.57 
  -3   9   5  267.91   11.86 
  -3   9   5  302.08   18.95 
   9  -1  -8    2.57    3.67 
  -9   1   8    2.85    2.95 
  -9   1   8    7.36    3.73 
   9  -1  -8    3.51    2.96 
   9  -1  -8    0.88    3.66 
  -5  -6  10    7.19    4.00 
  -5  -6  10    7.37    5.42 
  -5  -6  10    6.39    4.01 
   5   6 -10    9.92    4.01 
   5   6 -10    8.57    4.35 
   5   6 -10   10.55    4.01 
   5   6 -10   10.36    4.34 
   6   0 -11  115.73    6.87 
   6   0 -11  119.67    7.50 
  -6   0  11  130.71   10.17 
   6   0 -11  120.59   10.26 
   6   0 -11  125.92    6.82 
  -6   0  11  124.40    6.76 
  -6   0  11  132.04   10.43 
   6   0 -11  137.69    9.97 
   4   9  -7  258.25   17.53 
   4   9  -7  261.81   12.93 
   4   9  -7  238.24   11.78 
   4   9  -7  254.74   12.08 
  -4  -9   7  264.72   12.26 
  -4  -9   7  254.30   12.57 
  -4  -9   7  268.27   19.39 
   9  -5  -3  133.95   10.52 
  -9   5   3  133.92   10.56 
  -9   5   3  132.03   11.06 
   9  -5  -3  130.61   10.89 
   9  -5  -3  131.55    8.77 
  -8   6  -1  213.14   10.97 
   8  -6   1  199.59    9.00 
   8  -6   1  201.74   15.51 
   8  -6   1  202.10   13.74 
  -8   6  -1  199.94   13.57 
  -8   6  -1  216.79    8.89 
  -2   2  11  331.56   13.93 
  -2   2  11  331.25   17.42 
  -2   2  11  350.68   16.73 
   2  -2 -11  357.39   17.10 
   2  -2 -11  351.59   12.39 
   2  -2 -11  338.22   16.30 
   0  -5  -9    3.75    4.42 
   0   5   9   12.79    5.90 
   0   5   9    5.09    4.42 
   0   5   9    7.62    5.20 
   0   5   9   10.99    2.77 
   0  -5  -9    8.65    2.73 
   9  -5  -2    6.94    4.74 
   9  -5  -2    3.45    3.59 
   9  -5  -2    0.24    3.53 
  -9   5   2    2.30    3.56 
  -9   5   2    0.71    3.58 
   1  -7   9   60.50    8.06 
  -1   7  -9   41.79    8.38 
  -1   7  -9   53.71    5.06 
   1  -7   9   43.23    7.66 
   1  -7   9   58.73    4.82 
   1  -7   9   53.44    5.17 
  -1   7  -9   58.84    5.26 
  -1   7  -9   72.99    8.10 
   6   8   0  137.73    9.63 
  -6  -8   0  138.42   10.70 
   6   8   0  165.66   15.11 
   2 -10  -3  475.91   24.06 
   2 -10  -3  454.29   15.53 
   2 -10  -3  455.13   22.16 
   2 -10  -3  435.51   21.78 
  -2  10   3  401.67   17.05 
  -2  10   3  469.10   22.44 
  -2  10   3  440.98   18.83 
  -2  10   3  479.60   24.20 
  -3  -5  11  661.83   27.86 
   3   5 -11  646.68   25.68 
  -3  -5  11  638.47   23.87 
  -3  -5  11  667.62   26.00 
   3   5 -11  625.48   23.04 
   3   5 -11  644.14   23.66 
   3   5 -11  602.77   25.09 
   0  -3  11   15.63    6.17 
   0  -3  11   17.59    5.07 
   0  -3  11   17.52    4.79 
   0   3 -11   14.97    5.75 
   0   3 -11   16.79    5.11 
   2   8  -9   65.47    8.33 
  -2  -8   9   64.12    9.74 
  -2  -8   9   78.76    8.22 
   2   8  -9   72.15    9.42 
   2   8  -9   75.31    9.32 
   2   8  -9   71.62    8.06 
  -2  -8   9   69.35    7.93 
  10   0  -2  426.82   13.91 
   7   7  -7    8.97    3.18 
  -7  -7   7    9.37    2.57 
   7   7  -7    7.46    2.72 
   7   7  -7    5.44    2.92 
  -7  -7   7    6.74    6.31 
  -7  -7   7   10.31    2.73 
   7   7  -7    6.56    2.61 
   6   7   2    0.44    3.65 
   6   7   2    8.36    3.58 
   6   7   2    3.04    2.91 
  10   1  -5  498.32   21.19 
  -5  -8   8   73.46    4.67 
  -5  -8   8   74.57    7.96 
   5   8  -8   74.21    9.85 
   5   8  -8   92.54   10.13 
   5   8  -8   89.72    4.67 
   5   8  -8   85.87    4.81 
  -5  -8   8   84.45    4.76 
   1  10  -6  401.73   19.44 
  -1 -10   6  363.01   19.03 
  -1 -10   6  379.27   19.36 
  -1 -10   6  382.34   16.31 
   1  10  -6  384.57   18.70 
   1  10  -6  373.63   16.45 
   1  10  -6  370.22   22.36 
  -1 -10   6  368.47   19.24 
  -7   5   8  146.52   13.29 
   7  -5  -8  131.96   11.07 
   7  -5  -8  153.42   12.65 
   7  -5  -8  120.76   12.92 
  -7   5   8  115.88   13.14 
   5   8   2  416.88   23.74 
   5   8   2  375.67   17.87 
   5   8   2  346.74   15.54 
   0   0  11   81.30    7.60 
   0   0 -11   79.59    8.09 
   0   0 -11   71.79    9.19 
   0   0 -11   73.01    7.49 
   0   0  11   86.34    6.61 
   0   0  11   90.02    8.09 
  -3  -4  -8  488.21   16.44 
   3   4   8  485.37   15.89 
   3   4   8  471.21   16.53 
   3   4   8  496.12   25.86 
   3   4   8  474.79   23.78 
  -3  -4  -8  508.70   15.87 
  -8  -5   8    2.01    2.39 
  -8  -5   8    0.59    1.63 
  -8  -5   8   -0.57    1.64 
   8   5  -8    0.84    1.64 
   8   5  -8   -2.55    2.81 
   8   5  -8    0.76    1.68 
   8   5  -8   -0.89    2.08 
  -4  10  -1  125.43    9.59 
  -4  10  -1  115.70    8.99 
  -4  10  -1   97.94    8.40 
   4 -10   1  114.49    8.79 
   4 -10   1  145.09    9.17 
   4 -10   1  124.04    9.41 
   4 -10   1  126.66    8.70 
  -4  10  -1  136.24    8.75 
   9   2   1   23.84    2.48 
   9   2   1   19.68    3.76 
   9   2   1   15.33    5.50 
   9   2   1   17.69    4.13 
  10  -1  -2  141.90   10.44 
   9   4  -1  154.36    9.11 
   9   4  -1  151.41    9.75 
   9   4  -1  140.85   10.34 
   9   4  -1  143.91    8.96 
  -4  10   1  110.14    7.46 
   4 -10  -1  104.80    8.79 
  -4  10   1  114.33   12.47 
  -4  10   1  145.75   12.89 
   4 -10  -1  131.20   12.77 
   4 -10  -1   97.35   12.92 
   4 -10  -1  121.98    7.79 
  -4  10   1  125.68   13.26 
  10  -1  -5  480.38   14.56 
 -10   1   5  485.44   14.50 
  10  -1  -5  528.54   19.91 
  10  -1  -5  536.48   22.65 
 -10   1   5  500.25   19.66 
  -2  -5  11  486.09   20.77 
  -2  -5  11  434.54   18.94 
  -2  -5  11  464.22   17.18 
   2   5 -11  431.04   18.25 
   2   5 -11  446.75   18.34 
   2   5 -11  443.28   15.43 
   2   5 -11  465.61   20.41 
  -8  -6   1   47.12    6.11 
   8   6  -1   66.50    6.13 
   8   6  -1   60.34    6.40 
  -5  -9   6   36.59    4.25 
  -5  -9   6   19.29    4.97 
   5   9  -6   22.51    4.26 
  -5  -9   6   33.56    5.70 
   5   9  -6   40.60    7.92 
   5   9  -6   17.77    4.91 
   5   9  -6   25.79    4.78 
  -9   3   7  376.20   17.21 
   9  -3  -7  363.08   18.57 
   9  -3  -7  403.20   19.55 
   9  -3  -7  374.51   17.07 
  -9   3   7  371.55   15.02 
   7  -2 -10  250.34    9.15 
   7  -2 -10  255.18   15.54 
  -7   2  10  276.37   15.42 
  -7   2  10  263.76   15.34 
  -7   2  10  247.89   14.42 
   7  -2 -10  278.34   12.09 
  -2 -10   6  381.99   18.28 
  -2 -10   6  361.13   14.41 
  -2 -10   6  365.02   22.64 
   2  10  -6  376.67   13.56 
   2  10  -6  388.70   18.52 
   2  10  -6  387.69   23.04 
  -2 -10   6  370.65   17.81 
   2  10  -6  363.48   16.74 
  10  -2  -3  386.05   14.12 
 -10   2   3  369.19   11.91 
 -10   2   3  397.33   14.13 
  10  -2  -3  418.90   18.86 
  10  -2  -3  374.50   11.79 
  -3  -8   9    3.42    4.31 
   3   8  -9    6.01    4.18 
  -3  -8   9   13.14    4.26 
  -3  -8   9   10.80    5.67 
   3   8  -9    6.47    4.26 
   3   8  -9    7.60    3.37 
   3   8  -9    8.85    3.36 
   7  -4   5   19.46    5.28 
   7  -4   5   17.19    3.41 
   7  -4   5   24.11    4.76 
  -7   4  -5   11.69    3.17 
  -7   4  -5   16.60    4.64 
  -7   4  -5   19.22    4.77 
   7  -4   5   18.87    3.22 
   1   7   7  219.45   13.11 
   1   7   7  251.00   13.13 
  -1  -7  -7  239.12   12.96 
  -1  -7  -7  264.09   13.12 
   1   7   7  247.79   12.45 
   1   7   7  253.02   18.24 
   7   7   0  307.07   13.60 
   7   7   0  316.53   20.11 
  -7  -7   0  291.07   20.73 
   7   4 -10  239.16   11.10 
  -7  -4  10  245.62   11.53 
  -7  -4  10  223.15   14.60 
   7   4 -10  240.81   12.68 
   7   4 -10  241.74   11.47 
  -7  -4  10  252.34   11.56 
   7   4 -10  228.06   11.46 
   1  -4 -10    6.43    2.64 
   1  -4 -10    2.16    4.33 
  -1   4  10    3.35    4.40 
  -1   4  10    7.61    4.28 
  -1   4  10    5.62    5.21 
   7  -8  -1  266.97   16.81 
  -7   8   1  240.03   13.00 
  -7   8   1  284.44   19.01 
   7  -8  -1  274.54   13.44 
   7  -8  -1  290.83   18.53 
  -7   8   1  275.71   17.16 
   4  10  -3   22.07    8.09 
  -4 -10   3   22.14    4.84 
  -4 -10   3   18.50    3.97 
  -4 -10   3   29.29    8.19 
   4  10  -3   18.99    6.95 
   4  10  -3   18.50    3.95 
   4  10  -3   15.66    4.82 
   8  -1   4  291.74   15.36 
   8  -1   4  290.16   11.17 
   8  -1   4  299.14   13.90 
   9  -4  -6  387.08   20.25 
  -9   4   6  390.26   18.39 
   9  -4  -6  435.34   20.90 
   9  -4  -6  393.18   18.74 
  -9   4   6  398.53   16.01 
 -10   2   4  339.69   11.85 
  10  -2  -4  368.66   17.86 
  10  -2  -4  332.62   14.73 
  10  -2  -4  341.25   13.83 
 -10   2   4  348.17   14.91 
   7  -6  -7  433.25   23.81 
  -7   6   7  410.37   23.26 
  -7   6   7  389.60   16.99 
   7  -6  -7  418.46   17.02 
   7  -6  -7  394.20   20.72 
   0 -10  -3  427.47   21.20 
   0 -10  -3  425.76   21.66 
   0 -10  -3  414.36   14.90 
   0  10   3  398.51   15.82 
   0  10   3  375.30   20.43 
   0  10   3  391.28   14.61 
   6   3 -11  234.46   12.51 
  -6  -3  11  206.69   12.40 
  -6  -3  11  229.66   14.13 
   6   3 -11  225.12   11.09 
   6   3 -11  216.80   10.86 
   6   3 -11  242.06   12.09 
  -6  -3  11  221.49    8.85 
  -9   5   4  655.93   26.96 
   9  -5  -4  622.58   26.89 
   9  -5  -4  650.74   30.17 
   9  -5  -4  645.22   27.22 
  -9   5   4  667.48   27.77 
   6   8  -7  326.89   13.31 
  -6  -8   7  318.97   11.89 
   6   8  -7  319.56   13.09 
  -6  -8   7  328.66   12.73 
  -6  -8   7  313.51   21.07 
   6   8  -7  333.62   12.84 
   6   8  -7  319.71   11.85 
   1   8  -9   41.54    7.40 
   1   8  -9   37.69    4.58 
   1   8  -9   49.78    8.25 
   1   8  -9   31.38    8.10 
  -1  -8   9   19.10    5.70 
  -1  -8   9   50.05    4.46 
  -1  -8   9   47.96    5.04 
  -1  -8   9   48.97    7.39 
  -7   8   2   40.93    8.87 
  -7   8   2   45.12    5.72 
  -7   8   2   34.15    9.38 
   7  -8  -2   48.79    5.68 
   7  -8  -2   33.32    8.97 
   7  -8  -2   34.10    8.68 
   5  -4 -10  187.88   13.98 
   5  -4 -10  194.72   14.51 
  -5   4  10  184.50   14.88 
  -5   4  10  171.27   10.25 
  -5   4  10  190.32   13.91 
  -5   4  10  165.17    8.81 
   5  -4 -10  173.12    9.31 
   9   5  -4  139.65    8.99 
  -9  -5   4  138.13   11.49 
   9   5  -4  138.77    7.24 
   4   5 -11  579.73   17.78 
   4   5 -11  576.99   22.87 
   4   5 -11  591.49   23.15 
  -4  -5  11  587.53   20.79 
   4   5 -11  574.87   21.99 
  -4  -5  11  582.08   23.47 
  -4  -5  11  584.03   22.53 
  -9   5   1  179.81   11.22 
  -9   5   1  166.66    7.62 
   9  -5  -1  156.45    7.49 
   9  -5  -1  162.73   14.32 
   9  -5  -1  169.25   11.06 
  10   1  -2   38.85    6.20 
   0  10  -6  387.21   20.40 
   0  10  -6  334.63   22.59 
   0  10  -6  344.31   18.99 
   0 -10   6  350.24   14.28 
   0 -10   6  344.25   19.47 
   0 -10   6  356.80   14.12 
   0 -10   6  345.12   19.13 
   0  10  -6  349.73   15.22 
  10   2  -4  197.77   11.99 
  -6   5  -6   81.04    7.69 
  -6   5  -6   82.72    6.20 
   6  -5   6   74.70    7.88 
   6  -5   6   82.80    6.13 
   6  -5   6   83.50    6.15 
   6  -5   6   74.32    8.13 
  -6   5  -6   76.34    8.13 
  -6   5  -6   70.94    6.05 
   5  -8  -6  325.94   18.02 
  -5   8   6  341.26   20.07 
  -5   8   6  280.17   16.98 
  -5   8   6  311.35   20.34 
  -5   8   6  279.17   11.32 
  -5   8   6  286.68   11.15 
   5  -8  -6  316.03   20.83 
   5  -8  -6  321.65   20.71 
   3   2   9   10.91    3.50 
  -3  -2  -9   11.56    3.35 
   3   2   9    5.38    6.03 
   3   2   9   17.20    2.15 
   3   2   9   10.38    6.27 
  -3  -2  -9   15.44    3.44 
   9   4  -7   95.91    5.55 
   9   4  -7   84.04    4.49 
   9   4  -7   83.62    5.61 
   9   4  -7   75.43    9.40 
  -9  -4   7   88.76    4.53 
  -9  -4   7   94.45    5.51 
  -9  -4   7  103.43   10.14 
  -6   8  -3  103.99    7.89 
  -6   8  -3  102.82   12.16 
  -6   8  -3   92.08   10.50 
   6  -8   3  116.57   10.38 
   6  -8   3  124.59   12.28 
   6  -8   3   84.54    7.72 
   6  -8   3   92.40    6.02 
  -6   8  -3   97.13    7.27 
   9  -1   2  106.71    7.94 
   9  -1   2   90.39    4.69 
   9  -1   2   83.53    7.23 
   6  -8  -5  414.68   16.80 
   6  -8  -5  375.33   16.16 
  -6   8   5  389.53   16.65 
   6  -8  -5  434.46   23.87 
  -6   8   5  383.20   23.39 
  -6   8   5  377.96   21.15 
   4  -8   6    7.31    4.34 
   4  -8   6    1.03    3.22 
   4  -8   6    1.36    2.61 
   4  -8   6    4.88    4.58 
  -4   8  -6    4.27    2.70 
  -4   8  -6    6.01    3.93 
  -4   8  -6    5.57    4.57 
  -4   8  -6    4.21    4.66 
   0  -9  -5  377.88   17.88 
   0   9   5  333.21   16.42 
   0   9   5  368.56   17.51 
   0   9   5  375.93   20.03 
   0  -9  -5  359.47   14.29 
   0   9   5  375.12   19.99 
   0   9   5  341.77   18.69 
   0  -9  -5  378.17   18.32 
  -4 -10   2   68.49   12.37 
  -4 -10   2   81.53    5.79 
   4  10  -2   67.80    7.01 
   4  10  -2   76.84   10.15 
   4  10  -2   59.49    5.80 
   4  10  -2   67.95    7.53 
  -4 -10   2   76.51    7.00 
   8   4  -9  445.75   19.45 
  -8  -4   9  461.40   23.96 
   8   4  -9  449.72   15.74 
   8   4  -9  428.32   15.52 
   8   4  -9  459.66   15.49 
  -8  -4   9  453.96   15.56 
  -8  -4   9  456.52   16.06 
  -2  -7  10  664.26   21.26 
  -2  -7  10  656.69   28.48 
  -2  -7  10  653.38   25.25 
   2   7 -10  660.79   22.69 
   2   7 -10  633.06   27.09 
   2   7 -10  656.62   24.56 
   2   7 -10  663.68   20.96 
   8   4   2   94.17    5.99 
   8   4   2  103.17    6.37 
   8   4   2  108.68    9.32 
   8   4   2  113.66   11.68 
   8  -2   4  378.43   12.28 
   8  -2   4  366.11   16.63 
   8  -2   4  358.14   17.23 
  -3   8  -7  223.78   15.84 
  -3   8  -7  238.23   14.67 
  -3   8  -7  242.99   14.87 
  -3   8  -7  240.16   14.32 
   3  -8   7  228.92   13.56 
   3  -8   7  228.69   12.47 
   3  -8   7  224.52   14.03 
   3  -8   7  237.03   14.88 
   5  -2 -11  135.64   11.17 
   5  -2 -11  137.61    5.75 
  -5   2  11  131.96    8.29 
  -5   2  11  138.91   11.22 
   5  -2 -11  146.81    8.17 
   5  -2 -11  133.47    7.13 
  -5   2  11  135.35    7.31 
   7  -4  -9   71.38    9.22 
  -7   4   9   48.63    9.41 
  -7   4   9   56.52    6.37 
   7  -4  -9   58.70    7.05 
   7  -4  -9   67.41    6.23 
  -3  -7  10  614.81   29.12 
   3   7 -10  627.01   25.88 
   3   7 -10  607.48   26.29 
   3   7 -10  655.35   25.00 
   3   7 -10  632.50   23.37 
  -3  -7  10  647.07   24.24 
  -3  -7  10  652.11   24.94 
  -4 -10   4  286.24   13.93 
   4  10  -4  259.38   13.65 
   4  10  -4  252.93   11.59 
   4  10  -4  275.76   17.42 
   4  10  -4  266.27   13.56 
  -4 -10   4  263.68   20.31 
  -4 -10   4  258.87   11.73 
   2   9  -8  419.43   22.85 
  -2  -9   8  431.14   14.77 
   2   9  -8  449.44   20.19 
   2   9  -8  430.99   18.00 
  -2  -9   8  440.30   19.85 
   2   9  -8  445.15   14.89 
  -2  -9   8  445.33   22.95 
  -2  -9   8  432.45   19.28 
   3  -5   9  513.00   21.60 
   3  -5   9  542.56   21.24 
   3  -5   9  540.01   19.82 
  -3   5  -9  515.74   19.58 
  -3   5  -9  518.29   18.68 
  -3   5  -9  526.15   20.85 
   3  -7  -8  259.90   17.41 
  -3   7   8  267.98   14.40 
  -3   7   8  266.90   12.73 
  -3   7   8  259.66   14.33 
   3  -7  -8  258.82   12.51 
  -3   7   8  236.86   12.00 
   3  -7  -8  279.85   18.63 
  -3   7   8  296.07   18.03 
   9   5  -5  418.44   16.30 
   9   5  -5  428.67   14.45 
  -4   7  -7  472.38   23.49 
  -4   7  -7  468.46   19.47 
  -4   7  -7  470.43   20.78 
  -4   7  -7  442.53   20.92 
   4  -7   7  497.61   21.29 
   4  -7   7  490.62   19.72 
   4  -7   7  450.36   18.09 
   4  -7   7  458.25   19.32 
  -5  -9   0  139.29   15.55 
   5   9   0  125.23   14.95 
   5   9   0  126.71    7.17 
   8   0   4    2.37    3.77 
   8   0   4    2.75    3.66 
   8   0   4    1.42    2.43 
   9   5  -3    5.47    3.97 
  -9  -5   3    8.99    4.69 
   9   5  -3    8.77    4.08 
   5  -9   3    6.51    4.50 
   5  -9   3    3.12    2.56 
   5  -9   3    2.65    4.85 
   5  -9   3   -3.87    4.71 
  -5   9  -3    7.40    4.77 
  -5   9  -3    0.78    4.45 
  -5   9  -3    0.97    4.91 
  -5   9  -3    0.65    2.87 
  -6   6   8  395.90   17.41 
   6  -6  -8  408.34   19.66 
   6  -6  -8  444.52   23.35 
  -6   6   8  434.78   23.45 
   6  -6  -8  415.64   18.51 
  -8   4   8    6.50    3.75 
   8  -4  -8    7.86    5.86 
   8  -4  -8    9.93    3.67 
   8  -4  -8   18.36    3.35 
  -8   4   8   11.61    3.69 
  -2   7   8  350.82   17.70 
  -2   7   8  341.87   17.66 
  -2   7   8  337.74   14.12 
   2  -7  -8  352.54   14.55 
  -2   7   8  255.69   12.00 
   2  -7  -8  323.20   18.69 
   2  -7  -8  317.58   13.08 
  -2   7   8  337.85   18.95 
   3   9   3   13.77    3.88 
  -3  -9  -3   14.59    3.86 
   3   9   3   22.66    7.81 
   3   9   3   19.41    4.56 
   3   9   3    9.39    3.94 
   3   9   3   17.20    4.73 
  -3  -9  -3   11.10    3.94 
   8  -5  -7   17.81    6.23 
   8  -5  -7   19.03    6.56 
   8  -5  -7   16.68    6.74 
  -8   5   7   22.98    6.70 
  -8   5   7   16.78    6.59 
   9   0   2  524.81   21.22 
   9   0   2  529.20   15.42 
   9   0   2  527.20   19.26 
  10  -2  -2   12.33    5.26 
  -5   9   4  364.92   15.75 
   5  -9  -4  371.27   21.04 
   5  -9  -4  377.65   15.95 
  -3  10   3  404.58   21.58 
  -3  10   3  407.53   17.10 
   3 -10  -3  354.29   15.47 
  -3  10   3  404.55   21.16 
  -3  10   3  394.46   16.38 
  -3  10   3  351.57   12.50 
   3 -10  -3  410.13   21.57 
   3 -10  -3  382.96   16.74 
  10   2  -3   -0.39    2.72 
   2  -4  10  304.77   13.89 
   2  -4  10  303.30   14.85 
   2  -4  10  294.16   11.83 
  -2   4 -10  291.45   13.72 
  -2   4 -10  281.90   12.48 
  -2   4 -10  302.09   14.48 
   1   6   8  182.46   10.84 
   1   6   8  195.09   16.00 
   1   6   8  192.91   14.61 
   1   6   8  175.50   11.39 
  -1  -6  -8  186.37   11.33 
  -1  -6  -8  178.40   11.03 
  10   0  -6  298.72   13.43 
  10   0  -6  283.25    9.23 
 -10   0   6  280.00   13.47 
 -10   0   6  248.19    9.13 
  10   0  -6  279.77   15.04 
   1   8   6  207.31   10.49 
   1   8   6  270.35   17.97 
   1   8   6  254.54   13.98 
   1   8   6  263.14   12.81 
   1   8   6  274.43   13.80 
  -1  -8  -6  297.03   14.01 
  -1  -8  -6  252.24   13.91 
  -1  -8  -6  232.57   10.45 
   8   5   1    0.78    1.40 
   8   5   1   -0.51    3.52 
   8   5   1    1.85    2.67 
  -6   1  11  534.73   23.12 
  -6   1  11  526.87   22.90 
   6  -1 -11  526.06   22.75 
   6  -1 -11  493.41   16.70 
   6  -1 -11  516.18   16.63 
  -6   1  11  496.14   21.16 
   7  -8   0  416.67   17.95 
   7  -8   0  455.90   18.27 
   7  -8   0  408.69   21.85 
  -7   8   0  409.58   24.62 
  -7   8   0  442.83   18.38 
  -7   8   0  444.45   22.79 
   7   5   3  432.63   13.71 
   7   5   3  438.59   14.06 
   7   5   3  456.14   22.79 
   7   5   3  430.41   25.73 
   0 -11   2  414.28   23.00 
   0 -11   2  410.93   17.24 
   0 -11   2  397.01   23.71 
   0  11  -2  448.42   17.29 
   0  11  -2  384.28   22.76 
   0  11  -2  402.70   19.16 
   0  11  -2  409.69   21.32 
   0 -11   2  405.69   21.28 
   7   2   5   29.21    5.88 
   7   2   5   31.62    7.39 
   8   6  -7  299.08    9.76 
  -8  -6   7  290.62    9.57 
  -8  -6   7  298.15    9.63 
  -8  -6   7  319.17   21.62 
   8   6  -7  305.81   15.89 
   8   6  -7  277.11    9.63 
   8   6  -7  302.09   14.03 
  10   2  -5  560.05   22.89 
   9   3  -8  306.04   15.23 
   9   3  -8  302.34   12.04 
   9   3  -8  283.49   10.43 
   9   3  -8  309.30   10.59 
   9   3  -8  294.29   16.15 
  -9  -3   8  300.01   10.43 
  -9  -3   8  323.55   12.04 
  -9  -3   8  300.94   16.57 
   1   9  -8  408.62   16.90 
  -1  -9   8  414.68   19.75 
  -1  -9   8  402.25   18.45 
  -1  -9   8  414.11   16.44 
   1   9  -8  411.02   17.10 
   1   9  -8  415.87   20.61 
  -1  -9   8  410.20   14.74 
   1   9  -8  415.81   14.98 
   5  -1   8  289.13   10.68 
  -5   1  -8  289.47    9.92 
  -5   1  -8  295.66   10.96 
   5  -1   8  282.63   15.00 
   5  -1   8  290.78   10.07 
  -5   1  -8  290.57   12.15 
  -6   9   1    8.96    6.15 
   6  -9  -1    7.96    6.07 
   6  -9  -1   16.16    5.96 
  -6   9   1   -2.02    5.79 
  -6   9   1    2.19    5.95 
   6  -9  -1    9.64    5.72 
   4 -10   2  448.11   18.42 
   4 -10   2  458.06   24.21 
   4 -10   2  476.45   25.62 
  -4  10  -2  414.31   18.11 
  -4  10  -2  460.33   26.49 
  -4  10  -2  442.22   25.65 
   4 -10   2  467.46   18.60 
  -4  10  -2  457.72   24.67 
  -5   2  -8  209.53    9.55 
  -5   2  -8  187.47    8.36 
   5  -2   8  207.35    9.48 
  -5   2  -8  218.61   13.72 
   5  -2   8  203.28   12.00 
   5  -2   8  211.27    8.47 
  -2  -1 -10   23.57    4.01 
   2   1  10   20.37    4.11 
   2   1  10   21.72    6.89 
  -2  -1 -10   19.33    4.18 
  -2  -1 -10   16.63    4.51 
   2   1  10   19.27    4.50 
   0 -11   1   68.51    9.64 
   0 -11   1   69.37    8.97 
   0  11  -1   70.80    9.66 
   0  11  -1   67.42    7.49 
   0  11  -1   71.56    9.19 
   0  11  -1   64.29    9.31 
   0 -11   1   65.65    6.91 
   0 -11   1   56.19    9.75 
   9  -2   2  135.08   10.45 
   4 -10  -2  482.06   17.30 
  -4  10   2  474.67   19.15 
  -4  10   2  440.13   24.00 
  -4  10   2  480.92   24.98 
  -4  10   2  425.60   16.78 
   4 -10  -2  414.88   23.93 
   4 -10  -2  476.62   18.39 
   4 -10  -2  457.14   25.85 
  10   1  -6    7.45    3.53 
  10   1  -6    6.09    2.66 
  10   1  -6   10.32    4.59 
  -8   7   2  459.32   23.22 
  -8   7   2  448.86   17.62 
   8  -7  -2  436.12   18.37 
   8  -7  -2  469.43   23.02 
   8  -7  -2  432.63   17.51 
  -8   7   2  425.11   26.05 
  -3   6   9  375.89   17.20 
  -3   6   9  374.68   15.51 
   3  -6  -9  397.32   21.67 
  -3   6   9  373.29   21.73 
   3  -6  -9  373.09   15.46 
   3  -6  -9  341.74   14.57 
  -3   6   9  371.09   18.22 
   6  -5  -9  389.77   16.85 
  -6   5   9  371.25   15.73 
   6  -5  -9  352.00   15.43 
  -6   5   9  333.77   12.81 
  -6   5   9  376.46   21.91 
  -6   5   9  320.09   13.00 
   6  -5  -9  357.46   21.76 
 -10   2   5  225.29   13.22 
 -10   2   5  212.95    9.38 
  10  -2  -5  228.22    9.68 
  10  -2  -5  225.54   14.21 
  10  -2  -5  217.67   12.91 
  -2  10  -5  208.17   16.75 
  -2  10  -5  222.83   14.97 
  -2  10  -5  242.54   18.28 
  -2  10  -5  217.27   11.81 
   2 -10   5  228.44   16.19 
   2 -10   5  207.28   10.11 
   2 -10   5  225.70   12.35 
   2 -10   5  239.42   16.55 
  -9   2   8  326.70   17.65 
  -9   2   8  331.30   15.27 
   9  -2  -8  333.10   15.39 
   9  -2  -8  338.81   17.47 
   9  -2  -8  344.56   16.82 
   4  -9  -5  159.15   13.89 
   4  -9  -5  172.71    9.91 
  -4   9   5  151.41   14.19 
  -4   9   5  127.55    8.44 
  -4   9   5  145.98    8.68 
  -4   9   5  136.08   13.77 
   4  -9  -5  144.16   12.46 
  -4   9   5  144.21    8.38 
   7  -8  -3   52.94    8.92 
   7  -8  -3   43.41    6.40 
  -7   8   3   38.57    9.20 
  -7   8   3   41.82    9.05 
  -7   8   3   48.99    6.07 
   7  -8  -3   51.60    6.17 
   1 -11   1   21.98    7.40 
  -1  11  -1   29.84    7.86 
  -1  11  -1   12.93    6.00 
  -1  11  -1   17.14    6.83 
  -1  11  -1   19.59    7.14 
   1 -11   1   13.52    7.12 
   1 -11   1   14.83    6.22 
   1 -11   1   12.23    6.74 
   2   9   4  129.75   10.01 
   2   9   4  151.48   14.12 
   2   9   4  156.29    9.38 
  -2  -9  -4  148.18    9.39 
  -2  -9  -4  143.45    9.54 
  -2  -9  -4  141.71    9.88 
   2   9   4  180.03   14.58 
   2   9   4  127.16   10.18 
   0  -4  11  277.87   16.92 
   0  -4  11  293.49   14.50 
   0  -4  11  297.75   11.38 
   0   4 -11  307.56   16.67 
   0   4 -11  302.01   15.62 
   0   4 -11  309.26   14.77 
   1  -2 -11  457.90   20.77 
   1  -2 -11  464.68   15.48 
   1  -2 -11  481.19   20.77 
  -1   2  11  466.92   23.86 
  -1   2  11  466.13   20.36 
  -1   2  11  507.23   19.91 
   6  -9   0  272.35   19.08 
   6  -9   0  288.56   19.94 
   6  -9   0  265.38   12.96 
  -6   9   0  299.18   19.58 
  -6   9   0  265.23   13.07 
  -6   9   0  264.86   18.86 
  -9   4  -1    2.52    2.17 
  -9   4  -1    1.77    2.93 
   9  -4   1    2.90    4.16 
   9  -4   1    1.90    2.98 
   9  -4   1    1.46    2.18 
  -7  -8   4   14.98    7.97 
   7   8  -4   13.46    3.48 
   7   8  -4    7.26    3.97 
   5  -7   6  288.80   15.99 
  -5   7  -6  306.19   15.37 
   5  -7   6  284.08   12.73 
   5  -7   6  306.87   14.84 
   5  -7   6  282.44   17.34 
  -5   7  -6  313.28   15.22 
  -5   7  -6  302.42   16.90 
  -5   7  -6  308.21   14.20 
   1   5 -11  309.54   15.26 
   1   5 -11  298.65   16.53 
   1   5 -11  319.17   16.48 
   1   5 -11  264.36   14.07 
  -1  -5  11  302.40   17.82 
  -1  -5  11  313.03   16.34 
  -1  -5  11  322.30   15.25 
   5   3   7  253.26   16.48 
   8   1 -10  278.95    9.94 
   8   1 -10  287.26   13.30 
  -8  -1  10  284.80   10.61 
  -8  -1  10  283.48   13.12 
  -8  -1  10  296.75   15.27 
   8   1 -10  290.71   13.68 
   6  -1   7  477.65   13.29 
   6  -1   7  484.07   15.46 
  -6   1  -7  482.89   13.21 
  -6   1  -7  495.91   15.25 
   6  -1   7  469.82   17.74 
  -8   7   1  366.12   23.12 
   8  -7  -1  378.45   16.26 
  -8   7   1  376.05   20.73 
   8  -7  -1  388.10   20.58 
   8  -7  -1  349.28   19.58 
  -8   7   1  347.67   19.49 
  -3   7  -8  187.97   11.53 
  -3   7  -8  178.70   12.72 
   3  -7   8  173.83    9.53 
   3  -7   8  171.09    8.01 
   3  -7   8  181.19   12.74 
  -3   7  -8  178.58   12.61 
   3  -7   8  191.94   11.56 
  -3   7  -8  175.27   13.08 
  10   0  -1  100.16    8.65 
  10  -1  -1  616.89   23.78 
   2  10   2   86.76   10.35 
  -2 -10  -2   68.66    8.58 
  -2 -10  -2   48.65    4.82 
  -2 -10  -2   69.95    4.70 
   2  10   2   64.19    7.05 
   2  10   2   65.56    8.72 
  -2 -10  -2   78.58    7.18 
   2  10   2   50.15    4.85 
   2  -6  -9  440.88   21.70 
  -2   6   9  413.43   21.94 
  -2   6   9  404.70   20.64 
  -2   6   9  393.59   20.85 
  -2   6   9  413.66   20.19 
   2  -6  -9  402.14   20.54 
   1  11  -2  377.46   20.69 
   1  11  -2  388.44   19.54 
   1  11  -2  405.18   22.08 
  -1 -11   2  389.31   19.14 
   1  11  -2  359.77   24.07 
  -1 -11   2  390.79   22.19 
  -1 -11   2  376.03   16.79 
  -1 -11   2  368.00   20.86 
   1 -11   2  183.35   16.36 
  -1  11  -2  191.03   14.21 
   1 -11   2  185.09   16.04 
   1 -11   2  181.60   14.72 
  -1  11  -2  181.93   15.93 
  -1  11  -2  173.12   18.18 
  -1  11  -2  198.44   14.64 
   1 -11   2  187.79   13.99 
   3 -10   4    6.47    3.67 
   3 -10   4    7.95    4.15 
   3 -10   4    4.37    5.61 
  -3  10  -4    8.11    5.60 
  -3  10  -4    5.60    4.47 
  -3  10  -4    3.04    6.06 
   3 -10   4    8.81    6.11 
  -3  10  -4   10.80    6.16 
  -3  -9   8  640.62   24.31 
  -3  -9   8  610.25   23.46 
   3   9  -8  624.77   20.01 
  -3  -9   8  604.79   19.80 
   3   9  -8  639.77   24.08 
   3   9  -8  627.85   29.87 
   3   9  -8  596.49   22.67 
   7   8  -3  112.83   10.65 
   7   8  -3  126.98   12.58 
  -7  -8   3  122.15   10.18 
  10  -1  -6  495.88   22.47 
  10  -1  -6  506.23   16.07 
 -10   1   6  539.91   22.00 
 -10   1   6  502.96   16.24 
  10  -1  -6  553.03   21.90 
   7   6   2  500.96   26.56 
   7   6   2  552.71   28.94 
   7   6   2  504.36   17.08 
   0  -1 -11  202.14   11.04 
   0   1  11  185.85    7.84 
   0   1  11  199.11   11.82 
   0   1  11  200.20   15.11 
   0  -1 -11  191.05    9.35 
   0  -1 -11  204.49   11.59 
  -6   2  -7   43.75    4.61 
  -6   2  -7   38.30    3.68 
  -6   2  -7   40.17    4.61 
   6  -2   7   35.11    4.61 
   6  -2   7   37.12    3.69 
   6  -2   7   27.68    5.51 
   6  -9  -2  154.40    9.95 
  -6   9   2  162.24    9.81 
  -6   9   2  145.36   10.28 
  -6   9   2  149.06   14.15 
   6  -9  -2  134.18    9.69 
   6  -9  -2  160.88    9.93 
  -2   8   7  188.17   14.10 
  -2   8   7  181.83   12.24 
  -2   8   7  131.67    9.87 
   2  -8  -7  163.43    9.57 
   2  -8  -7  177.00   14.30 
   2  -8  -7  166.65    9.97 
  -2   8   7  164.21    9.06 
  -2   8   7  167.07    8.86 
   3  10  -6  505.26   20.28 
  -3 -10   6  464.44   20.33 
  -3 -10   6  485.13   21.24 
  -3 -10   6  494.75   19.86 
  -3 -10   6  486.34   22.83 
   3  10  -6  481.74   27.32 
   3  10  -6  483.48   26.10 
   3  10  -6  486.85   20.94 
   1   7 -10  491.22   20.76 
   1   7 -10  476.83   22.29 
  -1  -7  10  477.34   23.27 
   1   7 -10  496.99   17.03 
   1   7 -10  474.53   22.90 
  -1  -7  10  491.00   17.04 
  -1  -7  10  500.36   20.86 
   4   9   2  221.42   18.10 
   4   9   2  210.05   12.70 
  -4  -9  -2  211.73   19.31 
   0 -11   3  356.34   16.11 
   0  11  -3  384.71   25.58 
   0  11  -3  365.50   21.34 
   0  11  -3  371.59   20.83 
   0 -11   3  373.41   21.49 
   0  11  -3  376.39   21.49 
   0 -11   3  372.71   17.21 
   0 -11   3  398.20   20.59 
   4   8  -9   -0.32    4.32 
   4   8  -9    4.70    3.98 
  -4  -8   9    0.97    3.22 
   4   8  -9    3.35    3.22 
  -4  -8   9    6.15    3.17 
  -4  -8   9   -0.98    3.10 
   4   8  -9   -0.61    3.16 
  -8   7   3  105.74   12.48 
  -8   7   3  131.58    9.68 
   8  -7  -3  128.35   13.68 
   8  -7  -3  122.67   12.19 
  -7   6  -4   44.43    5.18 
   7  -6   4   63.55    6.05 
  -7   6  -4   25.94    7.85 
  -7   6  -4   52.81    6.12 
  -7   6  -4   37.61    7.40 
   7  -6   4   57.23    5.52 
   7  -6   4   47.36    4.14 
   7  -6   4   37.04    7.83 
  -5   8  -5  266.56   14.82 
   5  -8   5  294.94   18.75 
   5  -8   5  278.80   17.17 
   5  -8   5  280.49   12.13 
   5  -8   5  288.51   16.13 
  -5   8  -5  290.47   18.31 
  -5   8  -5  291.91   16.14 
  -5   8  -5  278.45   13.24 
  -3   8   7  168.65   11.05 
  -3   8   7  142.30   14.71 
  -3   8   7  163.52    9.70 
   3  -8  -7  169.03    9.62 
   3  -8  -7  171.47   14.74 
   3  -8  -7  152.08   10.44 
  -3   8   7  130.93   10.52 
  -3   8   7  167.52   10.93 
   4  -7  -8  184.16   11.63 
   4  -7  -8  188.66   11.38 
  -4   7   8  208.06   11.41 
   4  -7  -8  205.68   11.25 
  -4   7   8  172.78   11.10 
  -4   7   8  210.82   11.22 
  -4   7   8  179.10   10.71 
  -4   7   8  182.53    8.15 
   8   3   3  267.19   12.80 
   8   3   3  257.82    9.10 
   8   3   3  260.16    9.91 
   8   3   3  252.54    9.79 
   4   7   5  408.14   25.77 
   4   7   5  391.13   24.67 
   6  -7  -7  348.48   15.33 
   6  -7  -7  353.86   22.60 
  -6   7   7  347.74   15.52 
   6  -7  -7  352.13   13.92 
  -6   7   7  337.80   22.84 
  -6   7   7  297.13   18.44 
  -4 -10   1  271.13   12.83 
  -4 -10   1  304.47   15.18 
  -4 -10   1  282.16   10.99 
   4  10  -1  308.19   19.99 
   4  10  -1  277.11   17.44 
   4  10  -1  251.49   11.06 
   4  10  -1  259.70   13.39 
   8   0 -10    4.44    3.15 
  -8   0  10    5.22    3.13 
   8   0 -10    2.35    1.83 
   8   0 -10    0.03    3.42 
  -8   0  10    0.35    3.29 
  -8   0  10    3.47    3.66 
   7   4   4  324.08   18.34 
   7   4   4  340.09   21.14 
   4   6   6  445.19   19.18 
   4   6   6  442.05   26.14 
   3  -9   6  358.56   15.00 
   3  -9   6  352.59   16.98 
  -3   9  -6  370.57   22.01 
   3  -9   6  390.52   20.95 
  -3   9  -6  369.24   19.62 
  -3   9  -6  386.28   14.94 
  -3   9  -6  380.03   21.43 
   3  -9   6  387.00   19.84 
   5   0   8    4.08    2.25 
   5   0   8   -0.61    2.44 
   5   0   8    2.32    1.96 
  -5   0  -8    1.62    2.26 
  -5   0  -8    4.58    1.92 
   4  -2   9  383.95   14.88 
   4  -2   9  373.81   17.75 
   4  -2   9  359.51   10.48 
  -4   2  -9  366.39   14.57 
  -4   2  -9  391.35   14.28 
  -4   2  -9  368.72   10.58 
   8  -3   4    2.16    1.83 
   8  -3   4    2.96    3.06 
  -8   3  -4    5.71    3.02 
   8  -3   4    2.43    3.13 
  -8   3  -4    1.13    1.84 
   8  -3   4    2.29    2.08 
   8  -3   4   15.81    3.77 
  -4   1  -9   13.91    3.33 
  -4   1  -9   12.87    5.86 
   4  -1   9   19.19    3.32 
   4  -1   9   14.97    3.72 
   4  -1   9   13.52    5.35 
  -4   1  -9   10.22    3.70 
   4   7 -10  306.86   16.17 
   4   7 -10  300.84   14.52 
   4   7 -10  313.64   17.13 
  -4  -7  10  314.74   18.65 
  -4  -7  10  323.57   14.84 
   4   7 -10  303.94   14.97 
  -4  -7  10  313.55   15.22 
  -1 -11   1  108.58    8.35 
  -1 -11   1  117.55   12.49 
  -1 -11   1  112.06   11.01 
   1  11  -1  114.64   12.05 
  -1 -11   1   97.95   10.15 
   1  11  -1   87.32   13.47 
   1  11  -1  115.38   10.28 
   1  11  -1  111.56   10.99 
  -1 -11   3  551.46   27.64 
  -1 -11   3  586.07   27.23 
  -1 -11   3  577.55   22.77 
   1  11  -3  582.36   29.29 
   1  11  -3  499.87   31.25 
   1  11  -3  574.32   20.48 
  -1 -11   3  563.86   20.04 
   1  11  -3  574.95   26.85 
  -1  11   0   99.68    7.69 
   1 -11   0   93.84   10.16 
   1 -11   0   93.21    8.15 
   1 -11   0  113.53   10.96 
  -1  11   0   89.84    9.69 
  -1  11   0   95.62   13.16 
  -1  11   0  102.36   11.13 
   1 -11   0   93.85    7.80 
   4  -6  -9  380.46   22.77 
   4  -6  -9  345.64   15.13 
   4  -6  -9  408.07   21.90 
  -4   6   9  340.20   16.20 
  -4   6   9  373.34   22.15 
  -4   6   9  352.37   16.81 
  -4   6   9  385.15   21.97 
   9  -5  -5  401.75   16.17 
   9  -5  -5  387.32   15.81 
   9  -5  -5  384.77   19.48 
  -9   5   5  349.50   14.40 
  -9   5   5  396.00   15.93 
   8   2 -10  431.07   18.46 
   8   2 -10  417.43   16.55 
   8   2 -10  421.49   14.20 
   8   2 -10  435.90   17.80 
   8   2 -10  469.85   17.73 
  -8  -2  10  474.01   21.99 
  -8  -2  10  417.59   16.79 
  -8  -2  10  472.45   18.47 
   5  -3   8   -0.23    2.21 
   5  -3   8    2.14    2.62 
  -5   3  -8    2.08    2.20 
   5  -3   8    0.46    3.16 
  -5   3  -8    0.46    3.65 
  -5   3  -8    3.06    2.69 
  -1   7   8  275.20   17.70 
   1  -7  -8  308.05   17.16 
  -1   7   8  329.72   18.15 
   1  -7  -8  301.42   17.92 
  -1   7   8  312.13   17.67 
  -1   7   8  298.19   18.50 
   7   8  -5  338.98   18.67 
  -7  -8   5  352.37   24.58 
   7   8  -5  343.23   19.28 
  -9  -5   6  395.74   21.80 
   9   5  -6  373.79   14.22 
   9   5  -6  394.06   14.64 
   0 -11   0   38.94    6.00 
   0 -11   0   39.80    8.38 
   0  11   0   37.23    8.29 
   0 -11   0   47.32    8.06 
   0  11   0   41.84    7.86 
   0  11   0   38.95    6.36 
   0  11   0   41.90    5.14 
   0 -11   0   45.84    5.09 
  -3 -10  -1   54.78    7.46 
  -3 -10  -1   52.00    6.06 
   3  10   1   34.85    5.67 
   3  10   1   52.34    6.11 
   3  10   1   46.09    9.93 
   3  10   1   32.37    7.84 
  -3 -10  -1   51.87   10.16 
  -3 -10  -1   34.83    5.55 
   9   1   2  114.04   10.47 
   9   1   2  127.81    5.71 
   9   1   2  127.18    6.70 
   4  10  -5  552.96   29.59 
   4  10  -5  553.39   20.23 
   4  10  -5  540.90   22.45 
   4  10  -5  547.37   21.25 
  -4 -10   5  559.61   22.63 
  -4 -10   5  581.95   24.04 
  -4 -10   5  575.75   20.20 
  -4  -3  -8    7.15    3.43 
   4   3   8    5.88    3.48 
  -4  -3  -8   14.66    2.84 
   4   3   8   15.79    6.12 
   4   3   8    6.33    2.88 
  -9  -5   2  195.79   13.14 
   9   5  -2  205.55    8.08 
   9   5  -2  195.64   12.36 
   5   6   5  284.53   20.07 
   5   6   5  282.43   20.56 
  10   2  -2  281.96   14.29 
   0  -8   9   92.89   10.44 
   0  -8   9   95.69    7.67 
   0   8  -9  105.63   11.52 
   0   8  -9   97.49   10.34 
   0   8  -9  102.48   10.73 
   0  -8   9  110.03    9.92 
   0  -8   9  106.93   10.22 
   0   8  -9  103.96    9.59 
   9  -5   0  358.76   16.74 
   9  -5   0  353.33   20.34 
   9  -5   0  350.10   15.11 
  -9   5   0  350.12   15.19 
  -9   5   0  321.77   16.39 
   6   3   6  359.32   21.26 
   6   3   6  370.60   19.30 
   8   1   4  286.71   11.68 
   8   1   4  310.83   12.85 
   8   1   4  321.07   13.61 
   8   1   4  289.37    9.06 
  10  -3  -3  283.72   13.75 
  10  -3  -3  328.42   13.23 
  10  -3  -3  292.74   12.07 
 -10   3   3  298.67   12.17 
 -10   3   3  304.55   14.05 
  -2   8  -8  521.50   23.98 
   2  -8   8  514.19   21.81 
   2  -8   8  522.55   22.33 
  -2   8  -8  500.57   25.99 
  -2   8  -8  505.35   23.50 
  -2   8  -8  532.88   22.48 
   2  -8   8  526.03   23.53 
   2  -8   8  461.52   19.81 
   7   6  -9  234.91   10.17 
  -7  -6   9  206.16   16.67 
  -7  -6   9  225.42   10.33 
  -7  -6   9  219.61   10.36 
   7   6  -9  205.25   13.71 
   7   6  -9  231.51   12.26 
   7   6  -9  219.72   10.42 
  -3   3  11    3.13    3.92 
  -3   3  11    2.61    4.18 
  -3   3  11    1.53    3.16 
   3  -3 -11   -2.30    4.23 
   3  -3 -11    3.02    2.60 
   6   0   7  310.62   15.37 
   6   9  -4  322.32   20.53 
   6   9  -4  280.25   11.72 
  -6  -9   4  338.74   12.08 
  -6  -9   4  322.50   16.72 
  -6  -9   4  316.29   12.37 
   6   9  -4  272.07   12.10 
   6   9  -4  372.57   18.98 
  -8   3   9  205.52   15.28 
   8  -3  -9  213.30   14.21 
  -8   3   9  217.99   14.20 
   8  -3  -9  205.34   12.14 
   8  -3  -9  215.10   15.19 
  -6  -9   3  578.76   32.66 
   6   9  -3  548.86   25.48 
   6   9  -3  589.73   29.71 
  -8   5  -3   92.96    8.69 
   8  -5   3   82.71    8.73 
  -8   5  -3   74.51    6.10 
   8  -5   3   74.60    5.93 
   8  -5   3   90.21    9.96 
   7  -7  -6  496.27   25.34 
   7  -7  -6  468.64   25.93 
   7  -7  -6  435.18   17.69 
  -7   7   6  464.83   25.35 
  -7   7   6  454.59   25.44 
  -7   7   6  445.46   24.52 
  -5  -5  11  345.27   19.01 
   5   5 -11  334.41   15.58 
  -5  -5  11  340.49   12.00 
  -5  -5  11  334.38   12.40 
   5   5 -11  346.72   12.17 
   5   5 -11  342.06   11.89 
   5   5 -11  339.72   15.97 
  10   2  -6  401.24   14.05 
  -1  10  -6  498.40   28.75 
  -1  10  -6  484.86   26.05 
  -1  10  -6  520.67   25.54 
   1 -10   6  506.89   25.62 
  -1  10  -6  553.93   26.95 
   1 -10   6  539.46   26.41 
   1 -10   6  550.31   25.43 
   1 -10   6  522.17   25.03 
   8  -6  -6  101.27   11.51 
   8  -6  -6   97.65    7.54 
  -8   6   6   88.56   11.40 
  -8   6   6   85.93    7.56 
   8  -6  -6   93.86   11.25 
  -4   9  -5  348.81   17.82 
  -4   9  -5  358.29   20.20 
   4  -9   5  355.54   16.06 
   4  -9   5  368.44   22.15 
  -4   9  -5  361.79   21.46 
  -4   9  -5  376.56   22.41 
   4  -9   5  362.51   21.20 
   4  -9   5  384.24   20.02 
   6   7  -9  472.31   17.83 
   6   7  -9  477.92   21.90 
   6   7  -9  481.33   17.75 
   6   7  -9  457.45   21.28 
  -6  -7   9  487.14   18.02 
  -6  -7   9  499.79   26.46 
  -6  -7   9  504.26   18.00 
  -8  -7   4  556.72   30.89 
   8   7  -4  505.79   22.01 
   8   7  -4  497.83   23.85 
   1  10   3  450.62   17.32 
   1  10   3  434.92   19.95 
   1  10   3  400.91   21.23 
  -1 -10  -3  461.88   19.91 
  -1 -10  -3  476.26   21.43 
  -1 -10  -3  440.98   22.14 
   1  10   3  458.59   21.36 
  -7   7  -3  597.64   27.92 
  -7   7  -3  592.02   23.47 
   7  -7   3  593.49   24.59 
   7  -7   3  592.14   28.18 
   7  -7   3  581.51   28.35 
  -7   7  -3  624.81   25.09 
   6   4 -11   73.13    7.72 
  -6  -4  11   77.25    7.94 
  -6  -4  11   77.81    9.67 
   6   4 -11   76.69    7.28 
   6   4 -11   84.96    7.49 
   6   4 -11   75.61    7.84 
  -6  -4  11   92.99    7.91 
  10   1  -1   75.76    5.16 
  10  -2  -1  130.88   10.52 
   1   3  10  326.79   10.73 
   1   3  10  322.19   13.41 
   1   3  10  334.45   15.02 
   1   3  10  326.50   15.42 
  -1  -3 -10  341.11   14.64 
  -1  -3 -10  332.56   11.02 
  10  -3  -4   50.73    8.50 
  10  -3  -4   61.01    7.17 
 -10   3   4   44.03    5.63 
 -10   3   4   62.45    7.03 
  10  -3  -4   55.05    5.73 
   0  -9   8  258.08   10.36 
   0   9  -8  252.47   12.64 
   0   9  -8  244.44   11.13 
   0   9  -8  248.78   18.34 
   0   9  -8  267.26   16.21 
   0  -9   8  251.17   16.33 
   0  -9   8  263.02   11.22 
   0  -9   8  248.44   15.82 
   3   7   6    1.06    2.05 
   3   7   6    0.28    4.69 
   3   7   6    3.10    4.41 
  -3  -7  -6    0.90    2.04 
  -3  -7  -6    0.56    2.40 
   3   7   6   -0.25    2.50 
   8  -6   2  376.05   19.30 
  -8   6  -2  354.85   16.33 
  -8   6  -2  362.91   19.24 
  -8   6  -2  352.89   20.68 
   8  -6   2  369.57   16.43 
   8  -6   2  371.74   21.28 
  -6   9  -1  573.29   22.83 
  -6   9  -1  509.75   21.71 
   6  -9   1  565.72   22.64 
   6  -9   1  545.75   27.70 
   6  -9   1  553.24   22.36 
  -6   9  -1  568.36   28.17 
   5   7   4  454.58   19.39 
   5   7   4  460.36   26.04 
   5   7   4  366.15   14.12 
  -3  -2  12  425.37   18.77 
  -3  -2  12  384.77   19.77 
   3   2 -12  410.39   18.27 
   3   2 -12  391.33   18.34 
   3   2 -12  396.33   19.12 
  -3  -2  12  384.50   18.88 
   3   1 -12   50.08    5.52 
   3   1 -12   58.22    7.18 
  -3  -1  12   46.12    8.60 
  -3  -1  12   56.05    4.97 
   3   1 -12   64.15    5.09 
  -3  -1  12   50.17    5.56 
  -7   8  -1  242.33   17.09 
  -7   8  -1  241.21   18.48 
   7  -8   1  258.67   17.12 
   7  -8   1  268.00   13.43 
   7  -8   1  279.34   18.50 
  -7   8  -1  261.31   18.24 
  -1   8   7  259.23   12.37 
  -1   8   7  214.77   11.37 
  -1   8   7  266.30   12.14 
  -1   8   7  280.62   12.32 
  -1   8   7  278.40   16.30 
   1  -8  -7  272.26   12.43 
   1  -8  -7  243.44   12.61 
   1  -8  -7  272.56   16.02 
   9  -3   2  533.11   24.00 
  -4   3  11   30.49    4.74 
  -4   3  11   20.08    3.95 
  -4   3  11   21.08    5.02 
   4  -3 -11   29.64    4.43 
   4  -3 -11   28.74    4.66 
  -4   3  11   24.80    4.23 
   1 -11   3  351.23   15.03 
   1 -11   3  350.91   20.07 
  -1  11  -3  346.76   15.23 
  -1  11  -3  337.03   24.18 
  -1  11  -3  322.84   14.42 
   1 -11   3  353.64   21.48 
  -1  11  -3  332.17   21.28 
   1 -11   3  327.90   22.41 
   1  -6  10  178.02   13.20 
   1  -6  10  173.20    8.25 
  -1   6 -10  176.80   11.58 
  -1   6 -10  173.78    8.98 
  -1   6 -10  184.34    8.20 
   1  -6  10  188.24   12.54 
  -1   6 -10  185.52   12.62 
  -6   3  -7  279.11   11.59 
  -6   3  -7  295.51   10.51 
  -6   3  -7  287.23   12.53 
   6  -3   7  288.28   12.71 
   6  -3   7  316.73   13.44 
   6  -3   7  296.08   10.62 
   7   8  -2  532.19   22.41 
   7   8  -2  557.00   28.16 
  -7  -8   2  551.28   31.21 
  -1   2 -11  154.69   10.42 
  -1   2 -11  152.43    8.32 
   1  -2  11  151.95   10.91 
   1  -2  11  148.25    6.77 
  -1   2 -11  146.84    6.86 
   1  -2  11  141.06    8.60 
   2   4   9  375.64   14.60 
  -2  -4  -9  369.42   14.19 
  -2  -4  -9  350.87   14.51 
   2   4   9  372.86   20.77 
   2   4   9  347.74   14.19 
   2   4   9  364.19   22.43 
   9   3   1  286.41   11.31 
   9   3   1  291.97   12.59 
   9   3   1  275.05   11.99 
   9   3   1  281.21   16.25 
   8  -7   0  103.80   10.83 
  -8   7   0  119.39   11.69 
  -8   7   0  123.26   13.36 
   8  -7   0  116.01   11.77 
   8  -7   0  118.84    8.83 
  -8   7   0  116.74   10.95 
  -2  11  -1    0.76    2.80 
  -2  11  -1   -0.98    2.29 
   2 -11   1    2.11    3.87 
   2 -11   1    5.11    2.92 
   2 -11   1   -2.05    2.44 
   2 -11   1   -0.36    2.28 
  -2  11  -1   -2.17    2.58 
  -2  11  -1    3.24    3.83 
   9   4   0  406.49   15.54 
   9   4   0  400.95   16.83 
   9   4   0  379.52   18.68 
   9   4   0  369.29   14.49 
  -1   1 -11  621.67   22.02 
   1  -1  11  607.10   22.48 
  -1   1 -11  608.35   19.01 
  -1   1 -11  610.83   25.93 
   1  -1  11  612.33   27.32 
   1  -1  11  626.01   19.20 
   8   7  -3  292.96   12.76 
  -8  -7   3  267.50   20.64 
   8   7  -3  275.09   14.65 
   2  -9   7    0.35    4.94 
   2  -9   7   13.01    5.50 
   2  -9   7   16.48    3.35 
  -2   9  -7    9.62    6.31 
  -2   9  -7    6.42    5.63 
  -2   9  -7    4.79    5.38 
  -2   9  -7   13.30    3.91 
   2  -9   7    9.41    3.70 
   8   6   0   26.38    4.97 
   8   6   0   31.35    5.19 
   8   6   0   23.84    8.00 
   4  -3   9  192.77   10.41 
   4  -3   9  177.10    8.61 
   4  -3   9  186.47    9.35 
  -4   3  -9  189.05   10.10 
  -4   3  -9  189.15    9.49 
  -4   3  -9  204.64   13.31 
  10  -3  -2  396.45   19.86 
  10  -3  -2  353.93   13.91 
 -10   3   2  358.41   15.73 
 -10   3   2  373.60   13.93 
  10  -3  -2  360.47   15.66 
   9   1  -9  349.83   11.08 
  -9  -1   9  334.82   10.67 
   9   1  -9  378.25   17.32 
   9   1  -9  384.69   16.24 
  -9  -1   9  381.92   16.17 
  -7  -1  11   24.90    4.14 
  -7  -1  11   33.70    6.51 
   7   1 -11   32.20    4.99 
   7   1 -11   36.48    4.26 
   7   1 -11   36.17    6.12 
   7   1 -11   36.62    4.12 
   7   1 -11   43.19    5.20 
  -7  -1  11   33.63    6.18 
  10   3  -4  113.38    9.17 
  10   3  -4  115.13    9.52 
  10   3  -4   87.73    5.43 
  -4  -1  12   -0.91    3.33 
  -4  -1  12    2.35    3.33 
   4   1 -12   -0.65    2.71 
   4   1 -12    0.48    1.96 
   4   1 -12   -0.49    3.37 
  -4  -1  12    1.16    2.04 
   8   7  -5  292.65   16.34 
   8   7  -5  271.57   11.69 
  -8  -7   5  278.63   21.71 
  -6  -8  -1    6.85    4.04 
   6   8   1   -3.38    5.88 
   6   8   1    5.82    3.55 
   4   0   9  137.41    7.49 
  -4   0  -9  124.85    6.60 
  -4   0  -9  137.86    7.25 
   4   0   9  123.74    7.60 
   4   0   9  126.65    6.62 
   4   2 -12  455.21   15.53 
  -4  -2  12  453.57   22.06 
  -4  -2  12  477.06   20.34 
  -4  -2  12  460.80   21.05 
   4   2 -12  455.51   12.73 
   4   2 -12  454.56   20.81 
   4   2 -12  471.50   19.31 
   4   2 -12  431.65   19.73 
  -6  -6  10    5.17    3.63 
  -6  -6  10    5.19    3.65 
  -6  -6  10    1.13    5.48 
   6   6 -10    8.11    3.59 
   6   6 -10    5.17    3.57 
   6   6 -10    6.33    2.64 
   6   6 -10    7.24    4.30 
   5   9  -7  391.52   22.35 
   5   9  -7  361.54   21.38 
   5   9  -7  410.23   15.20 
  -5  -9   7  378.89   25.26 
   5   9  -7  375.57   15.96 
  -5  -9   7  380.17   15.44 
  -5  -9   7  387.42   15.32 
   9   0  -9   -0.01    3.64 
  -9   0   9    0.74    3.70 
  -9   0   9   13.77    4.61 
   9   0  -9   16.17    4.51 
   9   0  -9   18.06    4.31 
   3   6   7  139.31    8.85 
   3   6   7  157.01   15.89 
   3   6   7  150.00   15.20 
   3   6   7  145.77    7.66 
  -3  -6  -7  151.48    8.56 
  -3  -6  -7  151.67    7.75 
   5  -6   7  163.64    9.79 
   5  -6   7  160.68   10.20 
   5  -6   7  183.50    8.36 
   5  -6   7  172.35    7.11 
  -5   6  -7  158.77    8.35 
  -5   6  -7  153.05    9.92 
  -5   6  -7  164.78   11.55 
  -5   6  -7  160.59    7.07 
  -4   6  -8   51.83    6.37 
  -4   6  -8   55.22    7.45 
   4  -6   8   47.97    6.73 
   4  -6   8   52.56    6.35 
   4  -6   8   45.39    7.45 
   4  -6   8   31.69    5.15 
  -4   6  -8   43.32    5.57 
  -4   6  -8   60.13    7.36 
  -1   6   9  175.86   12.86 
  -1   6   9  152.84   12.61 
  -1   6   9  169.89   12.77 
  -1   6   9  147.39   13.88 
   1  -6  -9  145.82   12.59 
   1  -6  -9  164.83   12.36 
   0  -4 -10    2.93    2.18 
   0  -4 -10    2.43    3.35 
   0   4  10    0.83    2.19 
   0   4  10    0.34    3.04 
   0   4  10    2.90    2.69 
   2  -3 -11    9.78    5.22 
  -2   3  11    8.34    2.97 
  -2   3  11    3.05    5.05 
  -2   3  11   12.25    5.35 
   2  -3 -11    8.78    4.91 
  -6   9   3  326.59   21.77 
  -6   9   3  291.38   19.18 
   6  -9  -3  268.39   19.77 
   6  -9  -3  301.88   20.87 
  -6   9   3  297.29   20.10 
   6  -9  -3  307.84   19.81 
  -2  11   0  231.19   14.38 
   2 -11   0  222.64   10.18 
   2 -11   0  242.23   18.21 
   2 -11   0  268.03   17.34 
   2 -11   0  245.51   12.79 
  -2  11   0  262.86   17.19 
  -2  11   0  246.38   12.91 
  -2  11   0  239.58   18.58 
  -7  -7   8  143.31   15.46 
   7   7  -8  158.47   12.59 
  -7  -7   8  161.87    8.21 
   7   7  -8  155.40    8.25 
  -7  -7   8  160.21    7.99 
   7   7  -8  172.59    8.01 
   7   7  -8  154.81   11.59 
   4  -8  -7   38.29    9.95 
   4  -8  -7   58.16   10.44 
  -4   8   7   47.69   10.40 
  -4   8   7   52.44    6.24 
  -4   8   7   53.69    6.32 
  -4   8   7   61.35    7.45 
  -4   8   7   68.48    9.82 
   4  -8  -7   70.25    7.66 
 -10   2   6   19.93    5.46 
 -10   2   6   13.15    2.53 
  10  -2  -6   15.67    2.50 
  10  -2  -6   14.80    3.67 
  10  -2  -6   15.54    5.32 
   8  -1 -10  368.74   17.56 
  -8   1  10  381.33   17.60 
   8  -1 -10  364.75   16.26 
  -8   1  10  364.69   18.92 
   8  -7  -4    4.38    5.26 
   8  -7  -4    5.50    5.01 
   8  -7  -4    2.23    5.69 
  -8   7   4   -3.61    5.88 
  -8   7   4    7.83    5.12 
  -8   7   4   11.18    5.29 
   6   9  -5   36.15    8.14 
  -6  -9   5   42.48    3.89 
  -6  -9   5   24.19    4.88 
  -6  -9   5   18.90   10.08 
   6   9  -5   34.60    8.67 
   6   9  -5   35.67    3.96 
   6   9  -5   39.72    4.85 
   7   2 -11  312.19   12.45 
   7   2 -11  336.61   15.55 
  -7  -2  11  323.95   15.16 
   7   2 -11  311.67   14.18 
  -7  -2  11  332.60   15.35 
  -7  -2  11  300.27   16.22 
   7   2 -11  319.02   15.22 
   7   2 -11  328.75   10.48 
  -7   8   4  267.16   18.45 
  -7   8   4  278.70   19.30 
   7  -8  -4  283.40   18.16 
   7  -8  -4  278.92   19.52 
  -7   8   4  254.70   19.25 
   7  -8  -4  251.54   19.04 
   3  -5 -10  414.84   21.45 
   3  -5 -10  408.16   16.66 
  -3   5  10  378.62   16.34 
  -3   5  10  391.73   17.67 
  -3   5  10  377.05   19.52 
   7  -5   5  318.37   16.38 
   7  -5   5  298.14   16.59 
   7  -5   5  307.75   11.51 
   7  -5   5  313.45   12.03 
  -7   5  -5  315.25   16.21 
  -7   5  -5  321.22   12.04 
  -7   5  -5  307.56   14.67 
  -7   5  -5  291.74   13.72 
 -10  -3   5   15.14    3.71 
  10   3  -5   23.21    5.82 
  10   3  -5   16.44    2.81 
  10   3  -5   18.09    3.70 
   1   5   9   47.10    6.08 
   1   5   9   34.15    8.58 
   1   5   9   32.52    6.16 
  -1  -5  -9   36.21    6.16 
  -1  -5  -9   49.97    6.36 
   1   5   9   33.79    6.18 
   7  -3 -10   18.36    3.00 
  -7   3  10   13.54    4.18 
  -7   3  10   14.89    6.40 
   7  -3 -10   21.43    6.52 
  -6  -9   2  273.79   16.04 
   6   9  -2  291.99   20.04 
   6   9  -2  271.80   15.94 
   5   5   6  141.27   15.19 
   5   5   6  158.06   15.06 
   4 -10   3  309.10   21.02 
  -4  10  -3  314.98   21.21 
   4 -10   3  305.66   14.92 
  -4  10  -3  299.21   19.78 
  -4  10  -3  265.34   14.35 
   4 -10   3  299.37   14.82 
   4 -10   3  327.10   19.97 
  -4  10  -3  283.54   20.56 
  -6   4  10  124.90    7.21 
  -6   4  10  116.24    8.44 
  -6   4  10  144.21    8.99 
  -6   4  10  131.75    9.09 
   6  -4 -10  134.85    9.34 
   6  -4 -10  144.64    8.90 
   6  -4 -10  129.37    9.37 
  -1  -9  -5  353.46   17.15 
  -1  -9  -5  339.81   15.41 
   1   9   5  356.28   16.68 
   1   9   5  316.19   17.11 
   1   9   5  347.48   15.66 
   1   9   5  352.66   20.82 
   1   9   5  281.07   15.23 
  -1  -9  -5  379.58   16.97 
  -2  10   4  178.92    8.96 
  -2  10   4  186.91   10.15 
  -2  10   4  163.60   13.72 
   2 -10  -4  219.51   15.57 
   2 -10  -4  214.71   10.26 
   2 -10  -4  211.64   13.77 
  -2  10   4  200.63   12.53 
  -2  10   4  212.95   15.70 
  -2 -11   2  332.17   18.20 
  -2 -11   2  337.11   16.27 
  -2 -11   2  344.74   15.13 
   2  11  -2  371.74   21.45 
   2  11  -2  346.11   17.07 
   2  11  -2  309.18   17.91 
  -2 -11   2  339.22   17.00 
   2  11  -2  322.93   21.85 
  -2  11  -2  201.53   15.72 
   2 -11   2  175.16   11.32 
  -2  11  -2  164.48    9.05 
   2 -11   2  171.26   13.10 
  -2  11  -2  179.32   17.30 
  -2  11  -2  175.98   11.28 
   2 -11   2  197.59   16.45 
   2 -11   2  178.74   15.53 
   1  11   0   14.64    6.52 
   1  11   0   26.52    6.51 
  -1 -11   0   25.48    6.40 
  -1 -11   0   42.39    5.03 
  -1 -11   0   19.79    6.45 
  -1 -11   0   30.46    7.87 
   1  11   0   16.76    7.20 
   1  11   0   18.02    8.15 
   1  11  -4  134.48   11.44 
   1  11  -4  124.59   14.75 
   1  11  -4  116.50    8.30 
   1  11  -4  119.66   13.37 
  -1 -11   4  125.54   11.33 
  -1 -11   4  126.62    8.23 
  -1 -11   4  108.59   13.96 
  -1 -11   4  108.20    8.53 
   4   8   4  111.44   13.37 
   4   8   4   93.00    7.49 
   4   8   4  120.56   14.34 
  -3  -6  11   69.40    9.66 
   3   6 -11   52.77    7.41 
   3   6 -11   50.90    4.98 
   3   6 -11   55.66    5.40 
   3   6 -11   60.60    8.31 
  -3  -6  11   62.27    8.35 
  -3  -6  11   58.28    5.03 
  10   3  -3  377.40   16.42 
  10   3  -3  358.35   16.41 
  10   3  -3  327.65   12.51 
  10   3  -3  320.59   11.59 
   7  -1   6    0.06    6.05 
   7  -1   6   87.62    6.02 
   4 -10  -3  594.09   22.61 
   4 -10  -3  558.79   27.30 
  -4  10   3  483.61   26.32 
  -4  10   3  568.23   22.13 
  -4  10   3  577.47   22.03 
  -4  10   3  500.91   19.83 
  -4  10   3  521.74   19.75 
   4 -10  -3  583.61   21.95 
   0 -11   4   91.48   12.25 
   0 -11   4  116.62   11.36 
   0 -11   4   84.10    8.28 
   0 -11   4  102.73   12.44 
   0  11  -4   86.96   11.86 
   0  11  -4  109.52   11.44 
   0  11  -4   99.66    7.72 
   0  11  -4  112.22   14.06 
   1 -10  -4  219.42   14.58 
   1 -10  -4  250.59   15.08 
   1 -10  -4  255.28   16.61 
  -1  10   4  238.23   15.05 
  -1  10   4  238.39   14.03 
  -1  10   4  192.67   14.50 
  -1  10   4  236.11   16.26 
  -1  10   4  209.09   10.35 
   7   0 -11  164.30    8.96 
   7   0 -11  150.98    7.70 
   7   0 -11  157.73   11.32 
  -7   0  11  152.70   11.77 
  -7   0  11  157.38   10.86 
  -2 -11   3  264.44   19.48 
   2  11  -3  261.25   19.00 
  -2 -11   3  242.75   14.28 
   2  11  -3  237.48   15.52 
  -2 -11   3  241.17   17.35 
   2  11  -3  240.32   13.40 
   2  11  -3  251.82   14.69 
  -2 -11   3  241.75   15.56 
  -6   2  11  121.29   11.61 
  -6   2  11  112.78   11.83 
  -6   2  11  120.71    9.47 
   6  -2 -11  118.82   11.41 
   6  -2 -11  123.66    7.53 
   6  -2 -11  120.10   12.16 
   6  -2 -11  124.42    7.20 
  -6   7  -5   -0.11    3.79 
  -6   7  -5    2.53    4.16 
  -6   7  -5    3.11    3.15 
   6  -7   5   -1.91    3.86 
   6  -7   5   -0.26    2.36 
   6  -7   5    1.47    2.13 
   6  -7   5   -0.81    3.17 
  -6   7  -5    3.02    3.14 
  -7  -5  10  339.73   14.20 
   7   5 -10  315.78   14.66 
  -7  -5  10  312.49   14.17 
   7   5 -10  322.60   14.26 
   7   5 -10  319.98   16.58 
   7   5 -10  348.86   14.06 
  -7  -5  10  355.72   19.80 
  -2  -2  12  376.60   20.49 
   2   2 -12  390.26   17.56 
   2   2 -12  362.03   13.82 
   2   2 -12  369.08   18.50 
  -2  -2  12  369.75   17.82 
  -2  -2  12  389.79   18.80 
  10   0  -7  526.79   16.86 
  10   0  -7  556.11   22.25 
  10   0  -7  562.53   23.39 
 -10   0   7  525.83   16.69 
 -10   0   7  572.83   22.35 
   4   5   7  387.41   16.96 
   4   5   7  367.05   23.67 
  -2  -1  12   28.39    6.02 
  -2  -1  12   28.87    6.77 
  -2  -1  12   22.27    7.35 
   2   1 -12   33.64    6.37 
   2   1 -12   28.29    6.70 
   2   1 -12   28.98    6.14 
  -1   3 -11  164.88   11.32 
   1  -3  11  168.51   11.42 
   1  -3  11  162.93   13.03 
  -1   3 -11  162.47   10.64 
  -1   3 -11  165.86   13.08 
   1  -3  11  172.73   10.47 
   3   8   5   12.42    5.09 
   3   8   5   16.14    4.96 
  -3  -8  -5   15.50    3.75 
   3   8   5   14.95    3.94 
   3   8   5   16.28    3.84 
  -3  -8  -5   20.82    4.05 
  -3  -3  12  282.16   17.30 
  -3  -3  12  301.53   15.83 
  -3  -3  12  285.16   16.38 
   3   3 -12  306.77   15.78 
   3   3 -12  295.66   16.16 
   3   3 -12  305.65   15.86 
   8   3 -10   16.87    4.66 
   8   3 -10   18.67    2.28 
  -8  -3  10   11.69    4.13 
   8   3 -10   13.26    5.08 
  -8  -3  10   23.42    6.46 
  -8  -3  10   13.11    4.36 
   8   3 -10    9.11    4.35 
   8   3 -10   14.52    4.17 
  -3   0  12  138.09    8.25 
   3   0 -12  143.27   10.26 
   3   0 -12  126.49   10.80 
   3   0 -12  139.22   11.65 
  -3   0  12  144.86   11.86 
  -3   0  12  141.29   10.76 
   7  -2   6  143.83    6.92 
   7  -2   6   -0.07    6.65 
  -1  11   1  319.87   21.79 
  -1  11   1  335.67   14.51 
  -1  11   1  347.44   15.42 
  -1  11   1  322.85   17.54 
   1 -11  -1  334.55   14.30 
   1 -11  -1  329.34   15.11 
   1 -11  -1  325.20   15.08 
   1 -11  -1  351.07   18.47 
   9   2  -9  182.14   11.39 
  -9  -2   9  170.56    8.59 
   9   2  -9  146.75    6.75 
   9   2  -9  170.53    8.67 
  -9  -2   9  153.09   11.21 
  -9  -2   9  166.29    9.77 
   9   2  -9  171.59    8.30 
   9   2  -9  175.23    9.74 
  10   1  -7   98.80    8.12 
  10   1  -7  101.53   10.02 
  10   1  -7   88.12    5.37 
 -10  -1   7  110.34    8.09 
 -10  -1   7   91.28    5.41 
   4   9  -8  462.64   19.15 
  -4  -9   8  470.55   15.81 
  -4  -9   8  483.70   19.08 
   4   9  -8  457.03   24.56 
   4   9  -8  486.51   15.95 
   4   9  -8  482.82   24.87 
  -4  -9   8  466.72   19.53 
   2  -5  10   84.24    6.23 
   2  -5  10   97.79    8.21 
   2  -5  10   83.38    9.81 
  -2   5 -10   80.71    5.90 
  -2   5 -10   88.17    8.11 
  -2   5 -10   83.83    9.90 
  -9   4   7  128.22   11.47 
  -9   4   7  134.04    8.68 
   9  -4  -7  132.57   11.74 
   9  -4  -7  149.73    8.62 
   9  -4  -7  126.40   12.19 
  -7  -8   6  350.63   11.02 
  -7  -8   6  351.02   12.40 
  -7  -8   6  347.76   23.79 
   7   8  -6  347.94   19.65 
   7   8  -6  335.78   12.49 
   7   8  -6  339.28   18.96 
  10  -3  -5    7.95    3.25 
  10  -3  -5    4.48    4.51 
 -10   3   5    7.84    4.60 
 -10   3   5    5.94    3.51 
  10  -3  -5    5.26    3.60 
  -2  -6  11    2.27    2.51 
  -2  -6  11    2.13    4.32 
   2   6 -11    2.81    4.05 
  -2  -6  11    0.20    2.35 
   2   6 -11   -0.03    3.49 
   2   6 -11    5.00    2.30 
   2   6 -11    2.05    2.54 
   5   1   8  310.86   10.85 
   5   1   8  328.50   10.39 
  -5  -1  -8  357.36   10.58 
  -5  -1  -8  337.92   11.05 
   5   1   8  377.84   18.58 
  -2   7  -9   14.84    3.21 
   2  -7   9   10.97    3.26 
   2  -7   9   13.36    3.62 
  -2   7  -9   11.40    5.52 
   2  -7   9    9.58    3.53 
   2  -7   9   13.87    3.28 
  -2   7  -9   17.33    5.89 
  -2   7  -9    9.01    5.63 
   9   4  -8  256.25   10.54 
   9   4  -8  261.56    9.63 
   9   4  -8  265.85   15.53 
  -9  -4   8  279.97    9.64 
  -9  -4   8  276.32   10.98 
  -9  -4   8  285.63   17.91 
   9   4  -8  267.72   10.70 
   4   0 -12  289.14   15.46 
   4   0 -12  295.48   16.56 
  -4   0  12  294.00   15.50 
   4   0 -12  280.98   13.79 
  -4   0  12  274.38   16.55 
  -4   0  12  291.26   17.20 
  -4   5  10  374.78   18.48 
  -4   5  10  392.20   17.05 
   4  -5 -10  389.34   16.95 
   4  -5 -10  430.51   22.57 
  -4   5  10  380.32   13.19 
   7   7   1  260.71   12.78 
   7   7   1  265.77   14.71 
   7   7   1  294.68   20.16 
   6   6   4   54.81    6.67 
   6   6   4   28.61    6.44 
  -1 -10   7  159.74   12.90 
   1  10  -7  171.97   13.42 
  -1 -10   7  172.23   13.03 
  -1 -10   7  153.23   10.21 
   1  10  -7  153.34   15.59 
   1  10  -7  166.46   15.37 
   1  10  -7  175.75   12.87 
  -1 -10   7  171.55   13.56 
   2  -5 -10  280.02   16.21 
  -2   5  10  274.84   15.44 
   2  -5 -10  270.19   17.07 
  -2   5  10  269.90   17.36 
  -2   5  10  270.84   17.20 
  -1   0 -11  111.79    6.21 
  -1   0 -11  119.60   11.34 
   1   0  11  124.36   11.96 
   1   0  11  119.82    8.50 
   1   0  11  107.72    6.26 
  -1   0 -11  103.24    8.27 
   2  10  -7  101.18    8.79 
   2  10  -7   97.14    9.72 
  -2 -10   7   99.81    9.87 
  -2 -10   7   91.37    6.77 
  -2 -10   7   94.02   12.59 
  -2 -10   7  103.40   10.07 
   2  10  -7  108.39    8.79 
   2  10  -7   94.27   10.11 
   2   2  10  170.64   15.36 
   2   2  10  169.99    6.77 
   2   2  10  167.21   13.69 
   2   2  10  175.69    9.82 
  -2  -2 -10  173.61    9.31 
  -2  -2 -10  176.95    9.83 
  -4  -3  12  466.33   22.61 
  -4  -3  12  482.14   21.38 
  -4  -3  12  449.52   20.19 
   4   3 -12  476.43   16.96 
   4   3 -12  464.99   15.61 
   4   3 -12  462.77   20.41 
   4   3 -12  444.91   13.54 
   4   3 -12  475.53   21.48 
   0   7 -10  257.19   17.05 
   0  -7  10  272.22   16.30 
   0  -7  10  282.51   12.42 
   0   7 -10  289.39   10.90 
   0   7 -10  279.62   17.21 
   0   7 -10  283.42   16.18 
   0  -7  10  278.12   10.99 
  -5   4  -8  228.34   10.48 
   5  -4   8  238.59   10.61 
   5  -4   8  223.53   12.70 
   5  -4   8  221.59   12.22 
  -5   4  -8  227.87   11.98 
  -5   4  -8  242.61   14.50 
   0  11   1  259.56   15.53 
   0  11   1  239.84   16.11 
   0  11   1  279.06   16.24 
   0 -11  -1  258.95   16.76 
   0  11   1  228.75   18.61 
   0 -11  -1  238.86   16.13 
   0 -11  -1  258.26   13.11 
   0 -11  -1  246.72   15.36 
   6   8  -8   88.44    9.92 
  -6  -8   8   78.42    6.40 
  -6  -8   8   70.69    6.56 
  -6  -8   8   69.28   12.22 
   6   8  -8   75.07    6.65 
   6   8  -8   75.53    6.37 
   6   8  -8   77.60    6.67 
  -5  10   0    1.42    3.23 
  -5  10   0    0.31    4.96 
   5 -10   0    6.06    4.88 
   5 -10   0    2.19    3.09 
   5 -10   0    0.47    3.30 
  -5  10   0    2.21    2.97 
   5   9   1  316.46   16.99 
  -5  -9  -1  379.88   25.09 
   5   9   1  375.26   23.60 
  -2   9   6   70.02    8.68 
   2  -9  -6   83.27   10.54 
  -2   9   6   80.28   10.69 
   2  -9  -6   73.39    8.17 
  -2   9   6   71.88    8.66 
   2  -9  -6   70.56   10.22 
  -2   9   6   65.31    7.64 
  -2   9   6   86.65    9.84 
   5  -6  -9  209.74   12.03 
   5  -6  -9  216.48   17.18 
   5  -6  -9  230.91   17.70 
  -5   6   9  221.72   17.56 
  -5   6   9  198.71   11.02 
  -5   6   9  230.22   17.84 
  -5   6   9  208.16   10.96 
  -4 -10   0  365.33   14.97 
  -4 -10   0  375.65   23.62 
   4  10   0  399.40   23.19 
   4  10   0  287.11   12.85 
   4  10   0  322.27   14.08 
  -4 -10   0  342.76   12.84 
   4  10   0  351.11   15.17 
   6   1   7   31.77    6.64 
   8   5  -9  122.39    7.89 
   8   5  -9  112.92    7.22 
   8   5  -9  112.00   10.52 
   8   5  -9  119.03    7.20 
  -8  -5   9  106.26   13.52 
  -8  -5   9  116.02    7.15 
  -8  -5   9  120.55    7.13 
  -2 -11   1  119.09   13.44 
  -2 -11   1  113.49    6.75 
  -2 -11   1  117.60   10.60 
  -2 -11   1  114.04    8.17 
   2  11  -1  133.87   13.09 
   2  11  -1  112.76   10.58 
   2  11  -1  130.09   10.03 
   2  11  -1  100.16   13.03 
   0  -5  11  274.71   15.36 
   0  -5  11  257.24   14.25 
   0  -5  11  255.19   16.17 
   0   5 -11  269.58   15.17 
   0   5 -11  248.31   16.01 
   0   5 -11  263.60   14.43 
  -5   7   8  117.96    8.15 
  -5   7   8  115.12    8.03 
  -5   7   8  156.57   14.47 
  -5   7   8  154.73   14.29 
   5  -7  -8  124.14   10.54 
   5  -7  -8  159.47   14.54 
   5  -7  -8  117.62   13.66 
   8   7  -2    3.02    2.99 
  -8  -7   2   -0.43    2.82 
   8   7  -2   -1.78    3.77 
   7   0   6  316.26   14.04 
  -5  10   1  149.22    9.94 
   5 -10  -1  178.28   14.52 
   5 -10  -1  129.04   15.10 
  -5  10   1  156.80   15.81 
  -5  10   1  168.56   14.49 
   5 -10  -1  138.95   15.57 
  -9   3   8  209.89   13.19 
  -9   3   8  185.44   14.78 
   9  -3  -8  211.53   14.73 
   9  -3  -8  201.51   13.38 
   9  -3  -8  200.05   13.22 
   5  -3 -11   36.63    5.31 
  -5   3  11   34.49    3.33 
  -5   3  11   38.13    6.44 
  -5   3  11   29.09    8.10 
  -5   3  11   35.38    5.07 
   5  -3 -11   29.83    8.11 
   5  -3 -11   38.14    4.80 
   9  -1  -9  163.48    7.49 
  -9   1   9  176.39    7.66 
  -9   1   9  191.74   12.38 
   9  -1  -9  167.31   11.44 
   3   3   9  241.91   10.46 
  -3  -3  -9  237.55   10.41 
  -3  -3  -9  249.62   10.38 
   3   3   9  227.11   10.44 
   3   3   9  248.19   16.79 
   3   3   9  238.70   12.88 
  10  -1   0  301.06   14.94 
   8  -4   4  292.86   10.25 
  -8   4  -4  320.98   11.06 
  -8   4  -4  333.72   15.48 
   8  -4   4  322.42   11.09 
   8  -4   4  342.85   17.14 
   8  -4   4  346.27   15.93 
   3  -2  10   25.71    5.47 
   3  -2  10   30.15    4.99 
   3  -2  10   28.19    7.14 
  -3   2 -10   33.51    3.48 
  -3   2 -10   32.66    7.50 
  -3   2 -10   39.70    5.00 
  -4  -6  11   16.41    5.03 
   4   6 -11   15.97    5.03 
   4   6 -11    7.55    3.15 
   4   6 -11   17.34    5.23 
  -4  -6  11   14.32    5.25 
   4   6 -11   11.13    5.26 
  -4  -6  11   16.40    6.34 
  10  -1  -7  150.49   10.73 
  10  -1  -7  129.64    7.56 
  10  -1  -7  150.51   11.39 
 -10   1   7  129.58   10.83 
 -10   1   7  117.11    7.49 
  -8  -6   8  226.38    9.22 
  -8  -6   8  247.29   19.18 
   8   6  -8  212.21    8.79 
   8   6  -8  243.24   10.95 
   8   6  -8  228.19    9.27 
   8   6  -8  231.54    9.05 
  -8  -6   8  221.17    9.00 
   9   2   2  108.78    7.06 
   9   2   2   99.26    7.12 
   9   2   2  110.26   10.54 
   9   2   2   99.04    6.21 
   9   5  -7  135.98   11.26 
   9   5  -7  124.55    8.00 
  -9  -5   7  129.49   13.43 
   8   7  -6   20.21    4.35 
   8   7  -6   25.57    6.00 
  -8  -7   6   23.76    9.07 
   9  -6  -2  376.86   19.59 
  -9   6   2  369.24   19.60 
   9  -6  -2  377.70   22.90 
   2   3 -12  143.22   11.50 
   2   3 -12  143.65    8.03 
  -2  -3  12  140.70    8.73 
  -2  -3  12  147.01   11.28 
  -2  -3  12  137.49    7.97 
   2   3 -12  146.60   10.97 
   3  -1  10   93.57    6.83 
  -3   1 -10   96.55    7.11 
   3  -1  10   91.83    5.12 
  -3   1 -10   89.85    6.84 
  -3   1 -10   87.68    5.10 
   3  -1  10   79.35   10.31 
  10   2  -1  431.68   17.28 
  10   2  -1  376.56   12.43 
  10   2  -1  367.33   13.59 
  -5  -1  12    7.96    4.97 
  -5  -1  12    9.66    3.21 
   5   1 -12    5.29    3.96 
   5   1 -12    8.23    2.58 
   5   1 -12    5.12    3.93 
   5   1 -12    8.91    4.82 
  -5  -1  12    6.24    4.92 
   5   1 -12   13.04    3.32 
  -5   9  -4   40.07    9.89 
   5  -9   4   40.09    9.12 
   5  -9   4   56.88    5.85 
   5  -9   4   44.92    9.78 
   5  -9   4   48.59    6.50 
  -5   9  -4   48.31    6.64 
  -5   9  -4   48.93    9.28 
  -5   9  -4   54.50    6.35 
   3 -10  -4   98.23    7.15 
  -3  10   4   63.52    6.60 
  -3  10   4   87.71    6.94 
  -3  10   4   90.73    7.49 
   3 -10  -4   83.43    7.74 
   3 -10  -4   78.01    9.90 
  -3  10   4   78.33    7.44 
  -3  10   4   72.79    7.83 
  10   0   0    6.82    2.59 
  10  -3  -1   93.01    6.93 
   9   5  -1  482.52   22.65 
   9   5  -1  457.37   21.24 
   9   5  -1  493.95   15.02 
   7   3   5  217.75   13.95 
   7   3   5  223.82   16.83 
   2 -11  -1  429.96   23.62 
   2 -11  -1  434.48   23.15 
  -2  11   1  443.94   24.30 
  -2  11   1  391.70   25.44 
   2 -11  -1  413.43   19.75 
   2 -11  -1  409.69   24.33 
  -2  11   1  434.80   19.83 
  -2  11   1  413.43   22.87 
  -4 -10   6  367.38   15.50 
   4  10  -6  350.43   16.13 
   4  10  -6  360.00   15.56 
   4  10  -6  354.82   23.32 
   4  10  -6  369.49   13.46 
  -4 -10   6  361.19   12.94 
  -4 -10   6  380.53   25.35 
   5   7 -10  322.74   15.27 
   5   7 -10  320.87   17.21 
   5   7 -10  333.61   15.27 
   5   7 -10  304.25   17.02 
  -5  -7  10  325.47   15.13 
  -5  -7  10  318.97   20.61 
  -5  -7  10  319.98   15.48 
   9  -6  -3  428.29   25.35 
   9  -6  -3  432.16   22.36 
  -9   6   3  401.66   21.53 
  -9   6   3  425.02   21.45 
   9  -6  -3  420.35   21.48 
   6   5   5   32.16    5.94 
   6   5   5   31.84    8.69 
  -5  -2  12  418.01   16.11 
  -5  -2  12  426.95   14.89 
  -5  -2  12  443.14   20.67 
   5   2 -12  428.59   20.79 
   5   2 -12  441.64   14.04 
   5   2 -12  418.85   13.48 
   5   2 -12  425.81   14.84 
   5   2 -12  436.48   15.34 
  -5   9   5  231.41   12.44 
  -5   9   5  218.55   15.84 
   5  -9  -5  231.02   12.53 
   5  -9  -5  249.17   17.56 
   5  -9  -5  226.33   17.05 
  -5   9   5  231.33   16.94 
  -2 -11   4  141.38   10.62 
  -2 -11   4  155.96   11.44 
  -2 -11   4  146.20   13.92 
  -2 -11   4  136.84   12.76 
   2  11  -4  134.23   11.62 
   2  11  -4  148.85   10.62 
   2  11  -4  160.96   15.85 
   2  11  -4  151.30   12.72 
   6  -6   6  451.90   17.79 
   6  -6   6  467.29   21.88 
  -6   6  -6  478.42   22.13 
   6  -6   6  446.75   16.64 
  -6   6  -6  476.19   20.33 
   6  -6   6  423.19   20.31 
  -6   6  -6  416.49   18.83 
  -6   6  -6  468.49   17.91 
   0   2  11  495.82   20.24 
   0  -2 -11  508.70   16.34 
   0  -2 -11  519.25   21.51 
   0   2  11  524.58   21.55 
   0   2  11  521.38   20.83 
   3  -6   9  574.23   23.52 
   3  -6   9  540.94   23.32 
   3  -6   9  554.26   21.57 
  -3   6  -9  576.82   24.42 
  -3   6  -9  530.01   24.57 
  -3   6  -9  492.91   20.09 
  -3   6  -9  554.31   21.72 
  -3   9   6   33.03    5.33 
  -3   9   6   29.21    5.36 
   3  -9  -6   21.64    8.10 
  -3   9   6   23.67    7.30 
  -3   9   6   14.45    7.99 
  -3   9   6   12.74    5.80 
   3  -9  -6   21.21    5.98 
   3  -9  -6   19.26    7.54 
   0   7   8  319.48   15.18 
   0  -7  -8  306.93   17.22 
   0   7   8  316.34   17.36 
   0   7   8  323.22   17.35 
   0   7   8  328.43   14.68 
   0  -7  -8  304.57   17.10 
   7   3 -11  157.54   10.06 
   7   3 -11  160.24    9.15 
   7   3 -11  149.76    8.86 
   7   3 -11  151.14   10.10 
   7   3 -11  149.09   10.57 
  -7  -3  11  154.00   10.28 
  -7  -3  11  157.49   10.37 
  -7  -3  11  155.18   12.37 
   6  -8   4  341.02   21.78 
   6  -8   4  389.91   21.79 
   6  -8   4  373.09   19.79 
  -6   8  -4  386.02   16.98 
  -6   8  -4  352.44   16.49 
   6  -8   4  326.76   13.34 
  -6   8  -4  376.12   19.74 
  -6   8  -4  360.67   21.17 
  10   3  -6  267.98   10.80 
  10   3  -6  258.67   15.55 
   6  -8  -6  293.33   19.89 
   6  -8  -6  286.72   20.96 
  -6   8   6  252.97   17.40 
  -6   8   6  278.67   14.54 
  -6   8   6  274.93   19.55 
   6  -8  -6  267.88   17.94 
   2   0 -12  185.42    8.84 
   2   0 -12  167.72   12.27 
  -2   0  12  168.58   14.30 
   2   0 -12  182.18    8.46 
  -2   0  12  175.11   12.10 
  -2   0  12  164.44    8.64 
  -5  -8   9    0.38    5.18 
   5   8  -9    4.28    3.16 
   5   8  -9    2.15    4.45 
   5   8  -9    1.33    2.84 
  -5  -8   9    1.74    3.27 
  -5  -8   9    3.57    3.24 
   5   8  -9    4.05    3.31 
   2   7   7  151.17   10.23 
  -2  -7  -7  156.55    9.49 
  -2  -7  -7  169.57   10.09 
   2   7   7  152.16   15.49 
   2   7   7  163.56   16.19 
   2   7   7  150.75    9.33 
   5   8   3  415.43   24.73 
   5   8   3  340.84   15.27 
   5   8   3  405.58   19.02 
   8   2   4  308.97   14.45 
   8   2   4  333.23   20.45 
  -1  11  -4  291.25   15.93 
   1 -11   4  295.38   19.47 
   1 -11   4  279.76   20.35 
   1 -11   4  287.45   18.65 
   1 -11   4  297.06   20.60 
  -1  11  -4  264.50   20.49 
  -1  11  -4  270.45   18.28 
  -1  11  -4  294.72   19.12 
   6  -4   7  245.59   12.83 
   6  -4   7  262.68   10.45 
   6  -4   7  248.63    9.02 
  -6   4  -7  244.85   10.23 
  -6   4  -7  247.20   14.22 
  -6   4  -7  237.80   12.66 
  10   2  -7  113.41    7.00 
   6  -9   2  184.82   15.67 
   6  -9   2  200.83   16.88 
  -6   9  -2  195.58   15.97 
  -6   9  -2  200.36   11.87 
  -6   9  -2  190.30   16.56 
   6  -9   2  191.93   11.75 
  -7  -8   1  366.79   25.50 
   7   8  -1  366.52   22.29 
   7   8  -1  344.81   17.33 
   4  -4   9    7.41    3.55 
  -4   4  -9    8.91    4.99 
  -4   4  -9    8.35    3.57 
  -4   4  -9   10.20    4.17 
   4  -4   9    7.04    2.98 
   4  -4   9    8.75    4.03 
   9  -5  -6   81.73   10.25 
  -9   5   6   72.18   10.09 
   9  -5  -6   51.84    6.42 
  -9   5   6   72.63    9.36 
   9  -5  -6   79.77    6.82 
   7  -3   6  436.33   15.82 
  -7   3  -6  402.52   12.74 
  -7   3  -6  410.37   16.30 
   7  -3   6  398.65   16.57 
   7  -3   6  402.44   12.69 
   0  10   4  186.17   13.91 
   0  10   4  173.17   10.04 
   0 -10  -4  198.21   13.82 
   0  10   4  189.59   12.59 
   0  10   4  187.88   10.17 
   0  10   4  151.72   12.57 
   0 -10  -4  221.46   15.51 
   0 -10  -4  194.44   12.54 
  -2  11  -3  449.86   26.02 
  -2  11  -3  451.70   24.79 
  -2  11  -3  436.03   20.57 
  -2  11  -3  407.89   21.61 
   2 -11   3  444.62   25.24 
   2 -11   3  417.35   21.87 
   2 -11   3  437.96   26.51 
   2 -11   3  430.36   24.97 
  -1   9   6  128.15   11.77 
  -1   9   6  132.27    7.77 
  -1   9   6  114.26   11.13 
   1  -9  -6  136.17   11.78 
   1  -9  -6  114.63    7.52 
   1  -9  -6  111.32    9.75 
  -1   9   6   87.56    6.03 
  -1   9   6  120.34    7.94 
   6   7   3  168.55    8.99 
   6   7   3  177.88   17.30 
   6   7   3  174.81   17.40 
   5 -10   1  126.75   12.79 
   5 -10   1  104.45    9.47 
   5 -10   1   94.49    7.09 
  -5  10  -1  112.14    9.34 
  -5  10  -1  113.58   12.95 
  -5  10  -1  128.72   13.81 
  -5  10  -1   94.54    7.17 
   0   8   7  350.04   14.81 
   0   8   7  367.52   19.09 
   0   8   7  386.60   22.56 
   0  -8  -7  367.60   14.81 
   0   8   7  380.21   22.04 
   0  -8  -7  414.30   19.20 
  10   3  -2  531.62   16.45 
  10   3  -2  533.99   20.90 
  10   3  -2  495.17   17.15 
  10   3  -2  490.77   17.33 
   4   1   9  330.44   12.21 
  -4  -1  -9  322.00   12.08 
   4   1   9  325.56   11.46 
   4   1   9  318.25   13.49 
  -4  -1  -9  312.82   11.28 
   8  -7   1    3.93    4.96 
  -8   7  -1    6.89    4.93 
  -8   7  -1    2.52    4.58 
   8  -7   1    4.64    4.44 
   8  -7   1    4.19    5.46 
  -8   7  -1    6.54    5.55 
   9  -5   1  484.31   24.37 
  -9   5  -1  430.96   20.47 
  -9   5  -1  444.61   17.53 
   9  -5   1  463.73   17.47 
   9  -5   1  457.34   20.72 
   0  10  -7  231.99   15.60 
   0  10  -7  222.05   16.86 
   0 -10   7  225.70   15.80 
   0 -10   7  210.18   16.07 
   0 -10   7  201.14   14.79 
   0  10  -7  220.95   18.22 
   0  10  -7  214.67   16.00 
   0 -10   7  218.18   11.05 
  -7   1  11  461.00   21.75 
  -7   1  11  442.62   19.53 
   7  -1 -11  452.95   21.42 
   7  -1 -11  432.29   17.09 
   7  -1 -11  443.66   16.62 
  -7   1  11  453.45   16.49 
   6   9  -6   68.31    7.19 
   6   9  -6   71.85    6.41 
   6   9  -6   66.28   10.25 
   6   9  -6   75.97    5.76 
  -6  -9   6   77.55    6.25 
  -6  -9   6   89.17   13.07 
  -6  -9   6   71.20    5.55 
  10  -2   0  471.13   16.51 
   6   9  -1   17.81    4.96 
  -6  -9   1   15.54    8.39 
   6   9  -1   10.34    5.53 
  -3   3 -10  345.14   19.36 
  -3   3 -10  342.37   15.32 
   3  -3  10  328.47   18.20 
   3  -3  10  365.23   14.44 
  -3   3 -10  356.93   14.68 
   3  -3  10  350.48   15.60 
  -1   3  11   29.95    5.31 
   1  -3 -11   34.51    6.22 
  -1   3  11   26.19    6.97 
  -1   3  11   32.03    6.61 
   1  -3 -11   17.82    6.55 
  -5 -10   3   10.57    3.11 
   5  10  -3    4.70    3.16 
   5  10  -3   19.83    6.42 
   5  10  -3   10.25    4.07 
   5  10  -3   17.53    4.75 
  -5 -10   3   17.96    3.97 
  -5 -10   3   19.87    7.79 
   9  -4   2  107.49   11.80 
  -9   4  -2  113.07    6.11 
   9  -4   2  111.65    8.80 
  -9   4  -2  130.13    8.94 
   9  -4   2  112.37    6.00 
   9  -6  -1  111.40    7.27 
   9  -6  -1  118.76   13.13 
   9  -6  -1  103.92    9.99 
  -9   6   1  106.87    7.35 
  -9   6   1   98.21    6.86 
   2   8   6  163.42   15.98 
   2   8   6  154.55   10.23 
  -2  -8  -6  166.87   10.45 
   2   8   6  162.30   15.88 
   2   8   6  155.87   10.59 
  -2  -8  -6  159.27   10.11 
   1   6 -11   13.70    5.32 
  -1  -6  11    9.61    3.04 
  -1  -6  11    7.90    5.22 
  -1  -6  11    9.87    5.74 
   1   6 -11   10.89    5.09 
   1   6 -11    4.62    3.00 
   1   6 -11    7.94    4.68 
   5   0 -12  407.63   19.73 
   5   0 -12  396.18   12.91 
   5   0 -12  415.13   12.94 
   5   0 -12  427.92   13.86 
  -5   0  12  413.24   21.24 
  -5   0  12  409.74   20.34 
  -5   0  12  435.08   20.23 
   5   0 -12  392.85   21.33 
  -3  -5  -8  222.61   10.77 
   3   5   8  231.50   10.07 
   3   5   8  242.38   12.96 
   3   5   8  230.04   18.06 
   3   5   8  208.14   11.25 
  -3  -5  -8  234.53    9.88 
   3  10  -7   56.35    4.89 
  -3 -10   7   61.50    7.69 
  -3 -10   7   53.18    4.93 
   3  10  -7   57.04   10.55 
   3  10  -7   43.58   10.91 
  -3 -10   7   72.14    7.43 
  -3 -10   7   38.23    5.56 
   3  10  -7   51.48    7.82 
   1  -9   8  121.90   11.34 
  -1   9  -8  131.16   12.64 
  -1   9  -8  133.38   12.64 
  -1   9  -8  101.73    9.36 
   1  -9   8  129.39    7.01 
  -1   9  -8  131.39   11.41 
   1  -9   8  123.73   12.78 
   1  -9   8  123.21   11.41 
  -7   8  -2   12.69    5.83 
   7  -8   2   11.67    5.61 
   7  -8   2   10.99    4.12 
   7  -8   2    9.88    6.34 
  -7   8  -2    5.85    6.63 
  -7   8  -2    7.00    6.32 
  -5  10   2  379.08   22.01 
   5 -10  -2  381.46   22.61 
   5 -10  -2  338.65   16.29 
  -5  10   2  326.33   16.33 
   5 -10  -2  369.15   23.65 
  -5  10   2  395.93   23.90 
   1  -8   9  117.41    7.42 
  -1   8  -9  116.11   12.76 
  -1   8  -9  128.09    8.14 
  -1   8  -9  124.11    7.47 
  -1   8  -9  117.96   11.99 
   1  -8   9  121.14    8.52 
   1  -8   9  127.39   11.75 
   1  -8   9  131.06   11.39 
   3 -10   5  102.28   12.33 
   3 -10   5   95.14   11.67 
   3 -10   5  105.18   11.42 
   3 -10   5   81.14    9.07 
  -3  10  -5   80.73    6.74 
  -3  10  -5   85.90   12.43 
  -3  10  -5   72.29    8.13 
  -3  10  -5   91.73   11.33 
  -9  -3   9    9.23    6.13 
   9   3  -9   13.02    3.30 
   9   3  -9   22.90    3.56 
   9   3  -9   21.50    5.82 
  -9  -3   9   23.05    3.78 
   9   3  -9   25.67    3.68 
  -9  -3   9    9.82    2.65 
   1  -4  11  441.05   16.78 
   1  -4  11  423.47   14.18 
   1  -4  11  450.71   20.20 
  -1   4 -11  449.95   20.09 
  -1   4 -11  439.94   22.09 
  -1   4 -11  445.49   14.58 
  -5 -10   4  416.26   14.33 
   5  10  -4  382.40   16.76 
   5  10  -4  423.78   24.91 
   5  10  -4  357.87   14.30 
  -5 -10   4  381.85   16.79 
  -5 -10   4  424.68   19.78 
   5  10  -4  412.86   23.11 
  10  -4  -3   -0.64    4.68 
  10  -4  -3    8.09    3.71 
 -10   4   3    7.23    3.61 
 -10   4   3   -1.80    3.19 
  10  -4  -3    1.19    3.20 
  -3   0 -10  389.93   15.03 
   3   0  10  381.63   14.05 
   3   0  10  380.48   12.05 
   3   0  10  379.24   20.80 
  -3   0 -10  386.53   21.20 
  -3   0 -10  385.07   14.06 
   3   4 -12   28.00    4.45 
   3   4 -12   32.89    6.37 
   3   4 -12   32.65    4.62 
  -3  -4  12   31.65    7.08 
  -3  -4  12   32.53    6.70 
  -3  -4  12   35.29    7.67 
   3   4 -12   23.30    5.15 
   3 -11   1    9.08    4.36 
  -3  11  -1   12.30    4.56 
   3 -11   1   12.35    6.87 
  -3  11  -1   15.30    7.26 
  -3  11  -1    9.70    7.04 
  -3  11  -1   13.63    4.31 
   3 -11   1    6.25    7.24 
   3 -11   1   11.80    4.91 
  10   1   0  312.31   14.80 
   9  -6  -4  300.87   12.99 
  -9   6   4  270.08   17.19 
   9  -6  -4  265.74   17.10 
  -9   6   4  279.10   12.75 
   9  -6  -4  263.12   19.46 
   3 -11   0  178.54   11.39 
   3 -11   0  196.00   16.38 
   3 -11   0  182.62   11.62 
  -3  11   0  189.51   16.27 
  -3  11   0  194.13   11.76 
  -3  11   0  149.44   16.98 
  -3  11   0  189.90   11.88 
   3 -11   0  218.17   16.33 
  -3   1  12  258.35   15.82 
   3  -1 -12  248.09   13.38 
  -3   1  12  233.10   11.60 
   3  -1 -12  247.49   10.54 
   3  -1 -12  247.83   15.77 
  -3   1  12  245.32   10.60 
   9   6  -4  106.09    6.70 
   9   6  -4  101.56    9.43 
  -9  -6   4   96.02   12.15 
   8  -2 -10  393.59   17.08 
  -8   2  10  393.05   19.89 
   8  -2 -10  384.10   19.77 
  -8   2  10  392.49   20.83 
  -7   6   8  365.26   23.50 
   7  -6  -8  387.74   20.10 
  -7   6   8  383.19   23.85 
   7  -6  -8  380.32   17.99 
   7  -6  -8  393.03   23.07 
   5   3 -12  310.75   14.85 
   5   3 -12  305.04   12.33 
  -5  -3  12  284.83   12.42 
   5   3 -12  302.35   13.20 
   5   3 -12  312.85   11.74 
  -5  -3  12  309.76   17.37 
  -5  -3  12  325.36   11.96 
   5   3 -12  303.57   11.26 
   6  -9  -4  216.58   17.54 
   6  -9  -4  233.25   13.42 
  -6   9   4  248.77   13.31 
  -6   9   4  218.95   17.70 
  -6   9   4  246.26   17.94 
   6  -9  -4  260.44   17.97 
   1   2 -12  319.93   17.85 
   1   2 -12  330.45   12.80 
  -1  -2  12  336.98   16.74 
  -1  -2  12  322.77   12.57 
  -1  -2  12  315.94   19.03 
   1   2 -12  327.80   12.11 
   2 -10   6  331.98   15.41 
   2 -10   6  334.08   13.69 
   2 -10   6  367.35   22.24 
  -2  10  -6  343.01   21.28 
   2 -10   6  362.07   14.83 
  -2  10  -6  344.64   23.08 
  -2  10  -6  354.33   19.92 
  -2  10  -6  337.09   14.78 
   9  -1   3  308.53   15.84 
   9  -1   3  325.55   11.31 
   9  -1   3  344.77   16.46 
  -5   5  10  320.66   19.34 
  -5   5  10  274.14   14.01 
  -5   5  10  266.17   13.03 
   5  -5 -10  315.35   19.28 
  -5   5  10  285.91   20.56 
   5  -5 -10  279.59   13.63 
   5  -5 -10  301.52   20.36 
   6   5 -11  426.52   18.13 
   6   5 -11  416.39   13.82 
   6   5 -11  417.41   14.31 
  -6  -5  11  415.09   13.95 
  -6  -5  11  411.92   14.02 
  -6  -5  11  423.13   17.42 
   6   5 -11  419.02   18.41 
   8   5   2  151.99    8.01 
   8   5   2  129.09    7.40 
   8   5   2  132.82   10.11 
   8   5   2  140.94   12.70 
   1  11   1  275.34   13.03 
   1  11   1  260.51   15.87 
   1  11   1  249.11   13.32 
   1  11   1  257.37   11.74 
  -1 -11  -1  271.84   18.67 
  -1 -11  -1  273.07   15.60 
  -1 -11  -1  270.26   11.72 
  -1 -11  -1  296.30   18.88 
  -8   7   5  185.23   10.72 
   8  -7  -5  173.55   10.80 
   8  -7  -5  204.67   15.34 
   8  -7  -5  161.78   10.90 
  -8   7   5  169.87   10.26 
  -8   7   5  178.58   11.60 
   4  -1 -12  246.86   10.65 
  -4   1  12  247.55   11.05 
   4  -1 -12  234.53   12.65 
  -4   1  12  231.47   11.26 
  -4   1  12  242.53   15.90 
   4  -1 -12  235.31   15.94 
   8  -5  -8  266.89   12.03 
   8  -5  -8  271.43   19.07 
  -8   5   8  270.43   19.04 
   8  -5  -8  274.61   18.91 
  -8   5   8  291.84   19.42 
   1  11  -5    8.67    6.28 
   1  11  -5   10.73    7.46 
  -1 -11   5    7.02    7.09 
  -1 -11   5   11.59    6.33 
  -1 -11   5   12.11    4.17 
  -1 -11   5    7.85    5.66 
   1  11  -5   18.30    6.84 
  -1  -1  12   74.34    9.34 
  -1  -1  12   46.86    5.26 
   1   1 -12   49.23    5.35 
   1   1 -12   61.68    7.44 
   1   1 -12   48.61    8.42 
  -1  -1  12   66.18    7.32 
   2   6   8   44.56    6.72 
   2   6   8   67.13    7.14 
  -2  -6  -8   61.36    6.21 
   2   6   8   59.57    4.27 
  -2  -6  -8   65.76    6.83 
  -1   5  10  171.35   12.90 
   1  -5 -10  164.41   12.59 
  -1   5  10  160.46   12.96 
  -1   5  10  171.67   14.85 
   1  -5 -10  172.18   13.09 
   7  -5  -9  261.33   15.60 
  -7   5   9  265.05   19.56 
  -7   5   9  278.85   19.47 
   7  -5  -9  280.56   20.07 
   7  -5  -9  265.05   18.83 
 -10   4   4   90.78    8.51 
 -10   4   4  111.16    9.41 
  10  -4  -4   91.60    8.63 
  10  -4  -4   99.32    9.57 
  -3 -10  -2   69.27    7.07 
   3  10   2   61.21    8.79 
   3  10   2   61.89    7.06 
  -3 -10  -2   63.60    6.48 
   5  -8  -7   18.28    6.10 
  10  -3  -6  210.45   11.96 
   2  11   0    5.91    4.06 
   2  11   0   -1.13    5.19 
  -2 -11   0    7.26    3.72 
  -2 -11   0    0.42    5.55 
  -2 -11   0    1.86    2.49 
   9   6  -5    9.48    4.80 
  -9  -6   5    0.52    6.02 
  -2 -10  -3  516.99   21.83 
   2  10   3  494.83   21.63 
   2  10   3  438.78   22.46 
  -2 -10  -3  510.98   20.81 
   0  -6  -9  357.03   13.70 
   0   6   9  367.71   21.00 
;
_shelx_hkl_checksum              48605
loop_
_space_group_symop_operation_xyz
'x, y, z'
'-x, -y, -z'
loop_
_atom_site_label
_atom_site_type_symbol
_atom_site_fract_x
_atom_site_fract_y
_atom_site_fract_z
_atom_site_U_iso_or_equiv
_atom_site_adp_type
_atom_site_occupancy
_atom_site_site_symmetry_order
_atom_site_calc_flag
_atom_site_refinement_flags_posn
_atom_site_refinement_flags_adp
Ir1 Ir 0.52393(2) 0.33593(2) 0.89142(2) 0.00995(3) Uani 1 1 d . .
O1 O 0.8352(2) 0.3793(2) 1.1641(2) 0.0193(4) Uani 1 1 d . .
O2 O 0.7271(3) 0.4690(2) 0.7219(2) 0.0251(4) Uani 1 1 d . .
O3 O 0.3744(2) 0.2403(2) 0.98825(19) 0.0162(4) Uani 1 1 d . .
N1 N 0.2954(3) 0.3033(2) 0.7156(2) 0.0127(4) Uani 1 1 d . .
C1 C 0.7163(3) 0.3608(3) 1.0601(3) 0.0145(5) Uani 1 1 d . .
C2 C 0.6501(3) 0.4203(3) 0.7893(3) 0.0163(5) Uani 1 1 d . .
C3 C 0.2655(3) 0.3532(3) 0.5814(3) 0.0174(5) Uani 1 1 d . .
H3 H 0.3566 0.4045 0.5619 0.021 Uiso 1 1 calc R U
C4 C 0.1081(3) 0.3322(3) 0.4730(3) 0.0195(5) Uani 1 1 d . .
H4 H 0.0908 0.3680 0.3798 0.023 Uiso 1 1 calc R U
C5 C -0.0264(3) 0.2575(3) 0.5014(3) 0.0189(5) Uani 1 1 d . .
H5 H -0.1370 0.2425 0.4285 0.023 Uiso 1 1 calc R U
C6 C 0.0050(3) 0.2060(3) 0.6376(3) 0.0163(5) Uani 1 1 d . .
H6 H -0.0842 0.1535 0.6587 0.020 Uiso 1 1 calc R U
C7 C 0.1670(3) 0.2306(3) 0.7443(3) 0.0126(4) Uani 1 1 d . .
C8 C 0.2095(3) 0.1805(3) 0.8977(3) 0.0127(4) Uani 1 1 d . .
C9 C 0.0799(3) 0.2413(3) 0.9741(3) 0.0185(5) Uani 1 1 d . .
H9A H 0.1149 0.2182 1.0770 0.028 Uiso 1 1 calc R U
H9B H -0.0338 0.1924 0.9188 0.028 Uiso 1 1 calc R U
H9C H 0.0757 0.3522 0.9753 0.028 Uiso 1 1 calc R U
C10 C 0.2050(4) 0.0055(3) 0.8791(3) 0.0189(5) Uani 1 1 d . .
H10A H 0.2858 -0.0315 0.8271 0.028 Uiso 1 1 calc R U
H10B H 0.0889 -0.0360 0.8206 0.028 Uiso 1 1 calc R U
H10C H 0.2375 -0.0280 0.9779 0.028 Uiso 1 1 calc R U
O4 O 0.5261(3) 0.2211(2) 0.2860(2) 0.0226(4) Uani 1 1 d . .
H4A H 0.481(5) 0.223(4) 0.205(5) 0.035(11) Uiso 1 1 d . .
C11 C 0.4389(3) 0.0985(3) 0.3216(3) 0.0183(5) Uani 1 1 d . .
H11A H 0.4219 0.0083 0.2436 0.022 Uiso 1 1 calc R U
H11B H 0.3249 0.1294 0.3258 0.022 Uiso 1 1 calc R U
C12 C 0.5464(3) 0.0590(3) 0.4723(3) 0.0171(5) Uani 1 1 d . .
H12A H 0.5750 0.1531 0.5466 0.020 Uiso 1 1 calc R U
H12B H 0.6552 0.0185 0.4639 0.020 Uiso 1 1 calc R U
loop_
_atom_site_aniso_label
_atom_site_aniso_U_11
_atom_site_aniso_U_22
_atom_site_aniso_U_33
_atom_site_aniso_U_23
_atom_site_aniso_U_13
_atom_site_aniso_U_12
Ir1 0.00862(5) 0.01097(5) 0.01041(5) 0.00309(3) 0.00262(3) -0.00013(3)
O1 0.0144(9) 0.0247(10) 0.0154(9) 0.0024(7) 0.0001(7) 0.0011(7)
O2 0.0212(10) 0.0345(11) 0.0229(10) 0.0072(8) 0.0107(8) -0.0060(9)
O3 0.0128(8) 0.0223(9) 0.0125(8) 0.0055(7) 0.0019(7) -0.0051(7)
N1 0.0107(10) 0.0154(10) 0.0119(9) 0.0031(8) 0.0030(8) -0.0006(8)
C1 0.0163(12) 0.0134(11) 0.0163(11) 0.0028(9) 0.0083(10) 0.0020(9)
C2 0.0139(12) 0.0188(12) 0.0145(11) 0.0034(9) 0.0016(9) 0.0002(10)
C3 0.0152(12) 0.0225(13) 0.0169(12) 0.0080(10) 0.0062(10) -0.0007(10)
C4 0.0195(13) 0.0254(13) 0.0133(11) 0.0077(10) 0.0028(10) 0.0001(11)
C5 0.0142(12) 0.0232(13) 0.0164(12) 0.0042(10) 0.0002(10) -0.0008(10)
C6 0.0111(11) 0.0199(12) 0.0172(12) 0.0031(9) 0.0038(9) -0.0029(9)
C7 0.0147(12) 0.0107(10) 0.0131(11) 0.0021(8) 0.0055(9) -0.0006(9)
C8 0.0124(11) 0.0142(11) 0.0120(10) 0.0042(9) 0.0036(9) -0.0013(9)
C9 0.0160(12) 0.0254(13) 0.0159(12) 0.0035(10) 0.0074(10) 0.0008(10)
C10 0.0244(14) 0.0143(12) 0.0182(12) 0.0045(9) 0.0061(10) -0.0011(10)
O4 0.0225(10) 0.0280(11) 0.0165(10) 0.0100(8) 0.0023(8) -0.0032(8)
C11 0.0159(12) 0.0252(13) 0.0138(11) 0.0057(10) 0.0034(10) -0.0002(10)
C12 0.0148(12) 0.0226(13) 0.0120(11) 0.0033(10) 0.0015(9) -0.0013(10)
loop_
_atom_type_symbol
_atom_type_description
_atom_type_scat_dispersion_real
_atom_type_scat_dispersion_imag
_atom_type_scat_source
C C 0.0033 0.0016 'International Tables Vol C Tables 4.2.6.8 and 6.1.1.4'
H H 0.0000 0.0000 'International Tables Vol C Tables 4.2.6.8 and 6.1.1.4'
Ir Ir -1.4442 7.9887 'International Tables Vol C Tables 4.2.6.8 and 6.1.1.4'
N N 0.0061 0.0033 'International Tables Vol C Tables 4.2.6.8 and 6.1.1.4'
O O 0.0106 0.0060 'International Tables Vol C Tables 4.2.6.8 and 6.1.1.4'
loop_
_geom_angle_atom_site_label_1
_geom_angle_atom_site_label_2
_geom_angle_atom_site_label_3
_geom_angle
_geom_angle_site_symmetry_1
_geom_angle_site_symmetry_3
C2 Ir1 C1 89.00(11) . .
C2 Ir1 O3 175.97(9) . .
C1 Ir1 O3 94.96(9) . .
C2 Ir1 N1 96.33(9) . .
C1 Ir1 N1 174.57(9) . .
O3 Ir1 N1 79.72(8) . .
C8 O3 Ir1 118.22(14) . .
C7 N1 C3 119.3(2) . .
C7 N1 Ir1 114.78(16) . .
C3 N1 Ir1 125.85(17) . .
O1 C1 Ir1 178.6(2) . .
O2 C2 Ir1 177.8(2) . .
N1 C3 C4 122.2(2) . .
N1 C3 H3 118.9 . .
C4 C3 H3 118.9 . .
C3 C4 C5 119.1(2) . .
C3 C4 H4 120.4 . .
C5 C4 H4 120.4 . .
C6 C5 C4 118.5(2) . .
C6 C5 H5 120.8 . .
C4 C5 H5 120.8 . .
C5 C6 C7 120.2(2) . .
C5 C6 H6 119.9 . .
C7 C6 H6 119.9 . .
N1 C7 C6 120.7(2) . .
N1 C7 C8 116.3(2) . .
C6 C7 C8 123.1(2) . .
O3 C8 C7 110.04(19) . .
O3 C8 C9 108.1(2) . .
C7 C8 C9 109.8(2) . .
O3 C8 C10 109.5(2) . .
C7 C8 C10 108.8(2) . .
C9 C8 C10 110.6(2) . .
C8 C9 H9A 109.5 . .
C8 C9 H9B 109.5 . .
H9A C9 H9B 109.5 . .
C8 C9 H9C 109.5 . .
H9A C9 H9C 109.5 . .
H9B C9 H9C 109.5 . .
C8 C10 H10A 109.5 . .
C8 C10 H10B 109.5 . .
H10A C10 H10B 109.5 . .
C8 C10 H10C 109.5 . .
H10A C10 H10C 109.5 . .
H10B C10 H10C 109.5 . .
C11 O4 H4A 104(3) . .
O4 C11 C12 108.6(2) . .
O4 C11 H11A 110.0 . .
C12 C11 H11A 110.0 . .
O4 C11 H11B 110.0 . .
C12 C11 H11B 110.0 . .
H11A C11 H11B 108.4 . .
C11 C12 C12 112.2(3) . 2_656
C11 C12 H12A 109.2 . .
C12 C12 H12A 109.2 2_656 .
C11 C12 H12B 109.2 . .
C12 C12 H12B 109.2 2_656 .
H12A C12 H12B 107.9 . .
loop_
_geom_bond_atom_site_label_1
_geom_bond_atom_site_label_2
_geom_bond_distance
_geom_bond_site_symmetry_2
Ir1 C2 1.839(3) .
Ir1 C1 1.853(3) .
Ir1 O3 1.9919(17) .
Ir1 N1 2.074(2) .
O1 C1 1.144(3) .
O2 C2 1.148(3) .
O3 C8 1.411(3) .
N1 C7 1.347(3) .
N1 C3 1.357(3) .
C3 C4 1.371(4) .
C3 H3 0.9500 .
C4 C5 1.397(4) .
C4 H4 0.9500 .
C5 C6 1.380(3) .
C5 H5 0.9500 .
C6 C7 1.393(3) .
C6 H6 0.9500 .
C7 C8 1.518(3) .
C8 C9 1.531(3) .
C8 C10 1.532(3) .
C9 H9A 0.9800 .
C9 H9B 0.9800 .
C9 H9C 0.9800 .
C10 H10A 0.9800 .
C10 H10B 0.9800 .
C10 H10C 0.9800 .
O4 C11 1.427(3) .
O4 H4A 0.75(4) .
C11 C12 1.519(3) .
C11 H11A 0.9900 .
C11 H11B 0.9900 .
C12 C12 1.526(5) 2_656
C12 H12A 0.9900 .
C12 H12B 0.9900 .
loop_
_geom_hbond_atom_site_label_D
_geom_hbond_atom_site_label_H
_geom_hbond_atom_site_label_A
_geom_hbond_distance_DH
_geom_hbond_distance_HA
_geom_hbond_distance_DA
_geom_hbond_angle_DHA
_geom_hbond_site_symmetry_A
C4 H4 O2 0.95 2.55 3.279(3) 134.0 2_666
C4 H4 O1 0.95 2.45 3.172(3) 132.8 1_454
O4 H4A O3 0.75(4) 2.00(4) 2.743(3) 175(4) 1_554
loop_
_geom_torsion_atom_site_label_1
_geom_torsion_atom_site_label_2
_geom_torsion_atom_site_label_3
_geom_torsion_atom_site_label_4
_geom_torsion
_geom_torsion_site_symmetry_4
C7 N1 C3 C4 0.0(4) .
Ir1 N1 C3 C4 -177.3(2) .
N1 C3 C4 C5 0.3(4) .
C3 C4 C5 C6 -0.7(4) .
C4 C5 C6 C7 1.0(4) .
C3 N1 C7 C6 0.3(4) .
Ir1 N1 C7 C6 177.83(18) .
C3 N1 C7 C8 -179.1(2) .
Ir1 N1 C7 C8 -1.5(3) .
C5 C6 C7 N1 -0.7(4) .
C5 C6 C7 C8 178.5(2) .
Ir1 O3 C8 C7 -11.1(2) .
Ir1 O3 C8 C9 -130.99(17) .
Ir1 O3 C8 C10 108.41(18) .
N1 C7 C8 O3 7.9(3) .
C6 C7 C8 O3 -171.4(2) .
N1 C7 C8 C9 126.8(2) .
C6 C7 C8 C9 -52.6(3) .
N1 C7 C8 C10 -112.1(2) .
C6 C7 C8 C10 68.6(3) .
O4 C11 C12 C12 173.6(3) 2_656
