#------------------------------------------------------------------------------
#$Date: 2019-11-23 07:04:40 +0200 (Sat, 23 Nov 2019) $
#$Revision: 232384 $
#$URL: file:///home/coder/svn-repositories/cod/cif/4/34/75/4347573.cif $
#------------------------------------------------------------------------------
#
# This file is available in the Crystallography Open Database (COD),
# http://www.crystallography.net/
#
# All data on this site have been placed in the public domain by the
# contributors.
#
data_4347573
loop_
_publ_author_name
'Harriman, Katie L. M.'
'K\"uhne, Irina A'
'Leitch, Alicea A.'
'Korobkov, Ilia'
'Cl\'erac, Rodolphe'
'Murugesu, Muralee'
'Brusso, Jaclyn L.'
_publ_section_title
;
 Halide Influence on Molecular and Supramolecular Arrangements of Iron
 Complexes with a 3,5-Bis(2-Pyridyl)-1,2,4,6-Thiatriazine Ligand.
;
_journal_issue                   11
_journal_name_full               'Inorganic chemistry'
_journal_page_first              5375
_journal_page_last               5383
_journal_paper_doi               10.1021/acs.inorgchem.6b00357
_journal_volume                  55
_journal_year                    2016
_chemical_formula_sum            'C12 H8 Br2 Fe N5 S'
_chemical_formula_weight         469.96
_space_group_crystal_system      triclinic
_space_group_IT_number           2
_space_group_name_Hall           '-P 1'
_space_group_name_H-M_alt        'P -1'
_atom_sites_solution_hydrogens   geom
_audit_creation_method           SHELXL-2013
_cell_angle_alpha                75.61(2)
_cell_angle_beta                 89.52(3)
_cell_angle_gamma                63.74(2)
_cell_formula_units_Z            2
_cell_length_a                   7.609(3)
_cell_length_b                   8.283(3)
_cell_length_c                   13.493(7)
_cell_measurement_reflns_used    696
_cell_measurement_temperature    200(2)
_cell_measurement_theta_max      22.89
_cell_measurement_theta_min      2.85
_cell_volume                     733.6(6)
_computing_cell_refinement       'APEX II, Bruker (2009)'
_computing_data_collection       'APEX II, Bruker (2009)'
_computing_data_reduction        'XPREP, Bruker (2009)'
_computing_molecular_graphics    'SHELXTL, Bruker (2004)'
_computing_publication_material  'SHELXTL, Bruker (2004)'
_computing_structure_refinement  'SHELXL-2013 (Sheldrick, 2013)'
_computing_structure_solution    'SHELXS-03 (Sheldrick, 2003)'
_diffrn_ambient_temperature      200(2)
_diffrn_measured_fraction_theta_full 0.860
_diffrn_measured_fraction_theta_max 0.906
_diffrn_measurement_device_type  'Bruker APEX-II CCD'
_diffrn_measurement_method       '\f and \w scans'
_diffrn_radiation_type           MoK\a
_diffrn_radiation_wavelength     0.71073
_diffrn_reflns_av_unetI/netI     0.1534
_diffrn_reflns_Laue_measured_fraction_full 0.860
_diffrn_reflns_Laue_measured_fraction_max 0.906
_diffrn_reflns_limit_h_max       8
_diffrn_reflns_limit_h_min       -8
_diffrn_reflns_limit_k_max       9
_diffrn_reflns_limit_k_min       -9
_diffrn_reflns_limit_l_max       15
_diffrn_reflns_limit_l_min       0
_diffrn_reflns_number            4085
_diffrn_reflns_point_group_measured_fraction_full 0.860
_diffrn_reflns_point_group_measured_fraction_max 0.906
_diffrn_reflns_theta_full        25.242
_diffrn_reflns_theta_max         24.760
_diffrn_reflns_theta_min         2.850
_exptl_absorpt_coefficient_mu    6.614
_exptl_absorpt_correction_T_max  0.745113
_exptl_absorpt_correction_T_min  0.339868
_exptl_absorpt_correction_type   multi-scan
_exptl_absorpt_process_details   'SADABS, Bruker (2003)'
_exptl_crystal_colour            black
_exptl_crystal_density_diffrn    2.127
_exptl_crystal_density_meas      ?
_exptl_crystal_description       block
_exptl_crystal_F_000             454
_exptl_crystal_size_max          0.150
_exptl_crystal_size_mid          0.100
_exptl_crystal_size_min          0.090
_refine_diff_density_max         1.676
_refine_diff_density_min         -1.908
_refine_diff_density_rms         0.299
_refine_ls_extinction_method     none
_refine_ls_goodness_of_fit_ref   1.090
_refine_ls_hydrogen_treatment    constr
_refine_ls_matrix_type           full
_refine_ls_number_parameters     192
_refine_ls_number_reflns         2207
_refine_ls_number_restraints     327
_refine_ls_restrained_S_all      1.018
_refine_ls_R_factor_all          0.1721
_refine_ls_R_factor_gt           0.1171
_refine_ls_shift/su_max          0.000
_refine_ls_shift/su_mean         0.000
_refine_ls_structure_factor_coef Fsqd
_refine_ls_weighting_details
'w=1/[\s^2^(Fo^2^)+(0.1283P)^2^+14.3475P] where P=(Fo^2^+2Fc^2^)/3'
_refine_ls_weighting_scheme      calc
_refine_ls_wR_factor_gt          0.2643
_refine_ls_wR_factor_ref         0.2985
_reflns_Friedel_coverage         0.000
_reflns_number_gt                1372
_reflns_number_total             2207
_reflns_threshold_expression     'I > 2\s(I)'
_cod_data_source_file            ic6b00357_si_003.cif
_cod_data_source_block           mm389_5
_cod_depositor_comments
;
The following automatic conversions were performed:

data item '_exptl_crystal_density_meas' value 'n/a' was changed to
'?' -- the value is perceived as not measured.

Automatic conversion script
Id: cif_fix_values 6909 2019-04-08 15:41:33Z antanas 
;
_cod_original_cell_volume        733.7(6)
_cod_database_code               4347573
_shelx_space_group_comment
; 
The symmetry employed for this shelxl refinement is uniquely defined 
by the following loop, which should always be used as a source of 
symmetry information in preference to the above space-group names. 
They are only intended as comments. 
;
_shelx_estimated_absorpt_t_min   0.437
_shelx_estimated_absorpt_t_max   0.587
_shelxl_version_number           2013-4
_shelx_res_file
; 
TITL mm389_4a in P-1 
CELL 0.71073   7.60870   8.28310  13.49340  75.6126  89.5155  63.7399 
ZERR    2.00   0.00340   0.00330   0.00659   0.0222   0.0346   0.0231 
LATT  1 
SFAC C H N S BR FE 
UNIT 24 16 10 2 4 2 
TEMP -73.150 
SIZE 0.09 0.10 0.15 
  
L.S. 80 
ACTA 
CONF 
LIST 0 
BOND 
FMAP 2 
PLAN 5 
  
SIMU 
RIGU 
OMIT     1   9   2 
OMIT     6   4  11 
OMIT     3   4   4 
OMIT     3  -5   4 
OMIT     5   4  12 
OMIT     0   8   0 
OMIT     6  -2   3 
OMIT     5  -2   3 
OMIT     3  -5   1 
OMIT     2   7   5 
OMIT     1   0   0 
OMIT     4   4   6 
OMIT    -1   0   1 
OMIT     5   3   6 
OMIT     3  -5   3 
OMIT     6   2   8 
OMIT    -1   0   2 
OMIT     6   4  10 
OMIT     1  -7   1 
OMIT     3  -1   1 
OMIT     6   3  10 
  
WGHT    0.128300   14.347500 
BASF   0.45477   0.03967 
FVAR       0.44087 
FE1   6    0.374342    0.660786    0.686924    11.00000    0.03330    0.01434 = 
         0.03861   -0.00704    0.00664   -0.00907 
BR1   5    0.638745    0.696932    0.608925    11.00000    0.03993    0.03112 = 
         0.07900   -0.02240    0.02346   -0.01902 
BR2   5    0.121589    0.723019    0.566096    11.00000    0.03008    0.02352 = 
         0.05237   -0.00513   -0.00242   -0.00704 
S1    4    0.236378    0.486969    1.045354    11.00000    0.07711    0.04333 = 
         0.03800   -0.00843    0.01529   -0.02642 
N1    3    0.318049    0.592446    0.829495    11.00000    0.04910    0.02302 = 
         0.04497   -0.01021    0.00917   -0.02100 
N2    3    0.358115    0.344320    0.977884    11.00000    0.05067    0.03599 = 
         0.04033   -0.00806    0.01008   -0.02173 
N3    3    0.179857    0.714553    0.973757    11.00000    0.07061    0.03474 = 
         0.04472   -0.00930    0.01897   -0.02037 
N4    3    0.514030    0.363606    0.727450    11.00000    0.02952    0.01338 = 
         0.04228   -0.00635    0.00157   -0.00985 
N5    3    0.258072    0.916993    0.724147    11.00000    0.03706    0.02085 = 
         0.04132   -0.01286    0.01303   -0.01159 
C1    1    0.390527    0.403474    0.881965    11.00000    0.04899    0.02303 = 
         0.04239   -0.00885    0.00916   -0.02201 
C2    1    0.231698    0.726421    0.883002    11.00000    0.04367    0.02719 = 
         0.04155   -0.01202    0.00885   -0.02138 
C3    1    0.485326    0.287060    0.821170    11.00000    0.05097    0.02024 = 
         0.04504   -0.00834    0.00907   -0.01946 
C4    1    0.605623    0.058507    0.856971    11.00000    0.05136    0.01965 = 
         0.05741   -0.00843    0.00758   -0.02294 
AFIX  43 
H4A   2    0.607632   -0.008968    0.925452    11.00000   -1.20000 
AFIX   0 
C5    1    0.692300   -0.024016    0.795161    11.00000    0.03421    0.02582 = 
         0.05861   -0.01304   -0.00005   -0.01592 
AFIX  43 
H5A   2    0.755188   -0.156944    0.815754    11.00000   -1.20000 
AFIX   0 
C6    1    0.703782    0.066398    0.696189    11.00000    0.03631    0.02280 = 
         0.05865   -0.01388    0.00300   -0.01476 
AFIX  43 
H6A   2    0.774122   -0.003233    0.650237    11.00000   -1.20000 
AFIX   0 
C7    1    0.610242    0.261863    0.664851    11.00000    0.05974    0.02588 = 
         0.05366   -0.01518    0.01485   -0.01403 
AFIX  43 
H7A   2    0.615779    0.323948    0.596368    11.00000   -1.20000 
AFIX   0 
C8    1    0.197217    0.913939    0.817760    11.00000    0.03461    0.02487 = 
         0.03868   -0.01793    0.01053   -0.02196 
C9    1    0.103618    1.054071    0.852042    11.00000    0.05979    0.02811 = 
         0.05122   -0.02364    0.02343   -0.02560 
AFIX  43 
H9A   2    0.057641    1.039921    0.917788    11.00000   -1.20000 
AFIX   0 
C10   1    0.066347    1.247086    0.784826    11.00000    0.04937    0.02853 = 
         0.06026   -0.01943    0.02055   -0.02299 
AFIX  43 
H10A  2    0.002588    1.357624    0.806906    11.00000   -1.20000 
AFIX   0 
C11   1    0.132839    1.247036    0.689897    11.00000    0.03965    0.02190 = 
         0.05755   -0.01140    0.01573   -0.01035 
AFIX  43 
H11A  2    0.125274    1.359373    0.645671    11.00000   -1.20000 
AFIX   0 
C12   1    0.208791    1.089193    0.658755    11.00000    0.01874    0.02044 = 
         0.04877   -0.00801    0.00727   -0.00621 
AFIX  43 
H12A  2    0.228773    1.098360    0.588382    11.00000   -1.20000 
  
AFIX   0 
HKLF 5 
  
REM  mm389_4a in P-1 
REM R1 =  0.1171 for    1372 Fo > 4sig(Fo)  and  0.1721 for all    2207 data 
REM    192 parameters refined using    327 restraints 
  
END 
  
WGHT      0.1687     11.5277 
  
REM Highest difference peak  1.676,  deepest hole -1.908,  1-sigma level  0.299 
Q1    1   0.2447  0.6222  0.6017  11.00000  0.05    1.68 
Q2    1   0.5473  0.6569  0.5984  11.00000  0.05    1.56 
Q3    1   0.6015  0.5847  0.5650  11.00000  0.05    1.53 
Q4    1   0.6636  0.7794  0.5571  11.00000  0.05    1.46 
Q5    1   0.2251  0.7213  0.6289  11.00000  0.05    1.39 
;
_shelx_res_checksum              76269
_shelx_hkl_file
; 
   1   0   0 466.343 15.9777   1 
   2   2   1 885.158 36.3591  -2 
   2   0   0 885.158 36.3591   1 
   3   0   0 81.2931 7.96050   1 
   4   4   2 1609.54 94.8214  -2 
   4   0   0 1609.54 94.8214   1 
   5   5   2 15.4508 10.9131  -2 
   5   0   0 15.4508 10.9131   1 
   6   6   3 31.5212 16.3311  -2 
   6   0   0 31.5212 16.3311   1 
   7   7   3 33.9501 20.9616  -2 
   7   0   0 33.9501 20.9616   1 
   6   7   4 -1.8256 39.5717  -2 
  -6   1   0 -1.8256 39.5717   1 
  -7  -1   3 146.776 23.7826  -3 
   6   7   4 146.776 23.7826  -2 
  -6   1   0 146.776 23.7826   1 
  -5   1   0 -0.6825 23.1647   1 
   4   5   3 498.835 23.2827  -2 
  -4   1   0 498.835 23.2827   1 
   3   4   2 132.512 11.7179  -2 
  -3   1   0 132.512 11.7179   1 
   2   3   2 716.173 29.7640  -2 
  -2   1   0 716.173 29.7640   1 
  -1   1   0 -1.4582 2.96962   1 
   0   1   1 936.751 42.8640  -2 
   0   1   0 936.751 42.8640   1 
   1   1   0 764.031 40.3108   1 
   2   1   0 539.353 32.5325  -2 
   2   1   0 539.353 32.5325   1 
   3   1   0 9.94790 3.44236   1 
  -4  -2   2 38.9320 10.6228  -3 
   4   3   1 38.9320 10.6228  -2 
   4   1   0 38.9320 10.6228   1 
   5   4   1 14.5984 11.8709  -2 
   5   1   0 14.5984 11.8709   1 
  -5  -2   3 18.3763 16.8088  -3 
   5   1   0 18.3763 16.8088   1 
   6   5   2 180.997 21.5722  -2 
   6   1   0 180.997 21.5722   1 
   7   6   2 33.6198 17.6121  -2 
   7   1   0 33.6198 17.6121   1 
   8   7   3 -37.993 47.2775  -2 
   8   1   0 -37.993 47.2775   1 
  -7   0   3 34.8354 19.9485  -3 
  -6   2   0 34.8354 19.9485   1 
  -6   0   2 7.30509 26.6809  -3 
   5   7   4 7.30509 26.6809  -2 
  -5   2   0 7.30509 26.6809   1 
   5   7   4 17.4223 13.9594  -2 
  -5   2   0 17.4223 13.9594   1 
   4   6   4 735.421 32.6279  -2 
  -4   2   0 735.421 32.6279   1 
   3   5   3 188.928 12.0855  -2 
  -3   2   0 188.928 12.0855   1 
  -3   1   1 3.68415 8.90844  -3 
   2   4   3 3.68415 8.90844  -2 
  -2   2   0 3.68415 8.90844   1 
   1   3   3 7.22408 16.3935  -2 
  -1   2   0 7.22408 16.3935   1 
   0   2   2 2290.76 89.2081  -2 
   0   2   0 2290.76 89.2081   1 
   1   2   0 9.56771 2.42051   1 
  -2   0   1 1293.01 76.2101  -2 
   2   2   0 1293.01 76.2101   1 
   3   2   0 27.3035 4.07739   1 
   4   2   0 1921.78 97.0817  -2 
   4   2   0 1921.78 97.0817   1 
   5   3   0 -6.4542 10.9194  -2 
   5   2   0 -6.4542 10.9194   1 
   6   4   1 5.67450 16.6104  -2 
   6   2   0 5.67450 16.6104   1 
   7   5   1 27.2436 15.7184  -2 
   7   2   0 27.2436 15.7184   1 
   8   6   2 128.036 48.1084  -2 
   8   2   0 128.036 48.1084   1 
  -6   3   0 29.9691 16.2697   1 
   5   8   5 41.8020 16.0713  -2 
  -5   3   0 41.8020 16.0713   1 
   4   7   5 784.089 35.0937  -2 
  -4   3   0 784.089 35.0937   1 
   3   6   4 161.441 15.2205  -2 
  -3   3   0 161.441 15.2205   1 
   2   5   4 795.858 43.4775  -2 
  -2   3   0 795.858 43.4775   1 
   1   4   4 315.394 36.8376  -2 
  -1   3   0 315.394 36.8376   1 
   0   3   3 3576.07 163.114  -2 
   0   3   0 3576.07 163.114   1 
   1   3   0 500.268 23.4102   1 
  -2   1   2 926.708 42.9182  -2 
   2   3   0 926.708 42.9182   1 
  -2  -3   2 207.351 25.7887  -3 
  -3   0   1 207.351 25.7887  -2 
   3   3   0 207.351 25.7887   1 
  -4  -1   1 1105.66 66.1801  -2 
   4   3   0 1105.66 66.1801   1 
  -5  -2   1 43.6038 10.0064  -2 
   5   3   0 43.6038 10.0064   1 
   6   3   0 401.837 25.2733  -2 
   6   3   0 401.837 25.2733   1 
   7   4   0 -6.0831 13.6308  -2 
   7   3   0 -6.0831 13.6308   1 
   8   5   1 97.2227 27.5916  -2 
   8   3   0 97.2227 27.5916   1 
   5   9   6 122.651 17.5112  -2 
  -5   4   0 122.651 17.5112   1 
  -4   4   0 17.5952 9.84424   1 
   3   7   6 99.5320 43.3840  -2 
  -3   4   0 99.5320 43.3840   1 
   2   6   5 356.117 20.7756  -2 
  -2   4   0 356.117 20.7756   1 
   1   5   4 69.4727 15.4480  -2 
  -1   4   0 69.4727 15.4480   1 
   0   4   4 127.618 8.59410  -2 
   0   4   0 127.618 8.59410   1 
  -1   3   4 668.216 66.4673  -2 
   1   4   0 668.216 66.4673   1 
  -2   2   3 314.428 33.6832  -2 
   2   4   0 314.428 33.6832   1 
   3   4   0 90.5967 7.74390   1 
  -4   0   2 254.637 17.6652  -2 
   4   4   0 254.637 17.6652   1 
  -5  -1   2 31.8457 10.7768  -2 
   5   4   0 31.8457 10.7768   1 
  -6  -2   1 145.643 15.1221  -2 
   6   4   0 145.643 15.1221   1 
  -7  -3   1 51.2543 16.8291  -2 
   7   4   0 51.2543 16.8291   1 
   8   4   0 82.7230 25.4346  -2 
   8   4   0 82.7230 25.4346   1 
   4   9   7 183.820 20.8831  -2 
  -4   5   0 183.820 20.8831   1 
  -5   3   1 133.195 28.9819  -3 
   3   8   6 133.195 28.9819  -2 
  -3   5   0 133.195 28.9819   1 
   2   7   6 28.2828 17.0930  -2 
  -2   5   0 28.2828 17.0930   1 
  -4   3   1 45.0894 36.6499  -3 
   2   7   6 45.0894 36.6499  -2 
  -2   5   0 45.0894 36.6499   1 
  -1   5   0 0.15883 7.44616   1 
   0   5   5 1475.25 68.5545  -2 
   0   5   0 1475.25 68.5545   1 
   1   5   0 9.75296 4.21257   1 
  -2   3   4 432.545 26.8707  -2 
   2   5   0 432.545 26.8707   1 
   3   5   0 5.21433 12.4256   1 
  -4   1   3 574.921 36.2631  -2 
   4   5   0 574.921 36.2631   1 
  -5   0   3 86.9847 12.9390  -2 
   5   5   0 86.9847 12.9390   1 
  -6  -1   2 122.741 27.9964  -2 
   6   5   0 122.741 27.9964   1 
  -7  -6   4 174.657 30.2849  -3 
  -8  -3   1 174.657 30.2849  -2 
   8   5   0 174.657 30.2849   1 
   2   8   7 334.529 34.8308  -2 
  -2   6   0 334.529 34.8308   1 
   1   7   6 157.246 24.7410  -2 
  -1   6   0 157.246 24.7410   1 
   0   6   6 19.3191 16.6564  -2 
   0   6   0 19.3191 16.6564   1 
  -2   4   5 757.428 75.8765  -2 
   2   6   0 757.428 75.8765   1 
  -3   3   5 98.4815 11.4751  -2 
   3   6   0 98.4815 11.4751   1 
  -4   2   4 35.7412 25.0212  -2 
   4   6   0 35.7412 25.0212   1 
  -3  -6   3 34.5333 31.7056  -3 
   5   6   0 34.5333 31.7056   1 
  -6   0   3 520.369 59.7064  -2 
   6   6   0 520.369 59.7064   1 
  -7  -1   3 37.4450 32.8634  -2 
   7   6   0 37.4450 32.8634   1 
  -8  -2   2 36.6400 24.7289  -2 
   8   6   0 36.6400 24.7289   1 
   1   8   7 201.975 27.8995  -2 
  -1   7   0 201.975 27.8995   1 
   0   7   7 65.9769 14.2443  -2 
   0   7   0 65.9769 14.2443   1 
  -2   5   6 24.6744 9.58131  -2 
   2   7   0 24.6744 9.58131   1 
   3   7   0 5.35491 17.3465   1 
  -4   3   5 310.280 44.0873  -2 
   4   7   0 310.280 44.0873   1 
   5   7   0 8.17664 17.1791   1 
  -4  -7   3 19.5430 39.2705  -3 
  -6   1   4 19.5430 39.2705  -2 
   6   7   0 19.5430 39.2705   1 
   7   7   0 12.7374 20.5177   1 
  -8  -1   3 91.9713 36.2407  -2 
   8   7   0 91.9713 36.2407   1 
   3  -6   1 194.335 29.8003  -3 
   0   8   8 194.335 29.8003  -2 
   0   8   0 194.335 29.8003   1 
   2  -6   1 68.1434 28.6620  -3 
  -1   7   7 68.1434 28.6620  -2 
   1   8   0 68.1434 28.6620   1 
  -2   6   7 377.448 25.2853  -2 
   2   8   0 377.448 25.2853   1 
  -3   5   6 108.287 33.7996  -2 
   3   8   0 108.287 33.7996   1 
  -4   4   6 65.4044 30.6427  -2 
   4   8   0 65.4044 30.6427   1 
   5   8   0 13.9512 18.8939   1 
  -4  -8   3 368.694 57.6235  -3 
  -6   2   5 368.694 57.6235  -2 
   6   8   0 368.694 57.6235   1 
   7   8   0 10.0484 24.0403   1 
  -2   7   8 109.998 27.0617  -2 
   2   9   0 109.998 27.0617   1 
  -3   6   7 184.657 40.1330  -2 
   3   9   0 184.657 40.1330   1 
  -1  -8   2 17.3515 37.8535  -3 
  -4   5   7 17.3515 37.8535  -2 
   4   9   0 17.3515 37.8535   1 
  -6   3   6 138.214 44.0609  -2 
   6   9   0 138.214 44.0609   1 
  -5  -9   1 7.93569 22.3682   1 
  -4   5   8 30.4243 32.9367  -2 
  -4  -9   1 30.4243 32.9367   1 
   0  -8   1 97.7947 37.0419  -3 
  -3   6   8 97.7947 37.0419  -2 
  -3  -9   1 97.7947 37.0419   1 
  -7   1   6 32.0540 49.1235  -2 
  -7  -8   1 32.0540 49.1235   1 
  -6   2   6 159.210 44.3718  -2 
  -6  -8   1 159.210 44.3718   1 
  -5  -8   1 13.5217 20.4066   1 
  -3   5   7 116.125 35.3116  -2 
  -3  -8   1 116.125 35.3116   1 
  -2   6   8 124.861 14.1820  -2 
  -2  -8   1 124.861 14.1820   1 
  -1  -8   1 21.1805 13.0648   1 
   0   8   9 108.397 23.5866  -2 
   0  -8   1 108.397 23.5866   1 
  -8  -1   4 90.6827 27.9721  -2 
  -8  -7   1 90.6827 27.9721   1 
  -7   0   5 116.464 42.8063  -2 
  -7  -7   1 116.464 42.8063   1 
  -6   1   5 284.202 46.4568  -2 
  -6  -7   1 284.202 46.4568   1 
  -2  -7   1 52.1489 32.9733  -3 
  -4   3   6 52.1489 32.9733  -2 
  -4  -7   1 52.1489 32.9733   1 
  -3   4   7 187.209 20.5588  -2 
  -3  -7   1 187.209 20.5588   1 
  -2   5   7 144.761 15.3779  -2 
  -2  -7   1 144.761 15.3779   1 
  -1   6   8 73.1339 21.4079  -2 
  -1  -7   1 73.1339 21.4079   1 
   0   7   8 44.7578 18.5827  -2 
   0  -7   1 44.7578 18.5827   1 
   1   8   8 238.352 31.2065  -2 
   1  -7   1 238.352 31.2065   1 
  -8  -2   3 74.3472 25.1101  -2 
  -8  -6   1 74.3472 25.1101   1 
  -7  -1   4 43.0108 33.6498  -2 
  -7  -6   1 43.0108 33.6498   1 
  -6   0   4 607.378 67.3798  -2 
  -6  -6   1 607.378 67.3798   1 
  -5   1   5 -2.1343 34.4872  -2 
  -5  -6   1 -2.1343 34.4872   1 
  -4   2   5 200.901 32.8072  -2 
  -4  -6   1 200.901 32.8072   1 
  -3   3   6 231.963 23.0833  -2 
  -3  -6   1 231.963 23.0833   1 
  -2   4   6 735.227 44.6649  -2 
  -2  -6   1 735.227 44.6649   1 
  -1  -6   1 111.408 15.6990   1 
  -2   5   1 130.840 16.4833  -3 
   0   6   7 130.840 16.4833  -2 
   0  -6   1 130.840 16.4833   1 
   1   7   7 117.622 23.5446  -2 
   1  -6   1 117.622 23.5446   1 
   2   8   8 474.334 43.7365  -2 
   2  -6   1 474.334 43.7365   1 
  -8  -3   2 30.3688 24.3071  -2 
  -8  -5   1 30.3688 24.3071   1 
  -7  -2   3 36.2032 24.5233  -2 
  -7  -5   1 36.2032 24.5233   1 
  -5  -6   2 57.2857 31.3727  -3 
  -6  -1   3 57.2857 31.3727  -2 
  -6  -5   1 57.2857 31.3727   1 
  -6  -1   3 51.8479 14.6718  -2 
  -6  -5   1 51.8479 14.6718   1 
  -5   0   4 3.33353 12.0877  -2 
  -5  -5   1 3.33353 12.0877   1 
  -4   1   4 539.161 34.6606  -2 
  -4  -5   1 539.161 34.6606   1 
  -3   2   5 83.9239 11.8930  -2 
  -3  -5   1 83.9239 11.8930   1 
  -2   3   5 13.3350 6.23091  -2 
  -2  -5   1 13.3350 6.23091   1 
  -1   4   6 49.4225 17.8312  -2 
  -1  -5   1 49.4225 17.8312   1 
   0   5   6 49.9915 10.5571  -2 
   0  -5   1 49.9915 10.5571   1 
   1   6   6 107.157 22.5134  -2 
   1  -5   1 107.157 22.5134   1 
   2   7   7 42.4903 14.0442  -2 
   2  -5   1 42.4903 14.0442   1 
   3   8   7 74.0623 15.6009  -2 
   3  -5   1 74.0623 15.6009   1 
  -8  -4   1 8.86490 24.6692  -2 
  -8  -4   1 8.86490 24.6692   1 
  -7  -3   2 65.9381 14.0189  -2 
  -7  -4   1 65.9381 14.0189   1 
  -6  -2   2 599.696 48.8368  -2 
  -6  -4   1 599.696 48.8368   1 
  -5  -1   3 116.604 27.1648  -2 
  -5  -4   1 116.604 27.1648   1 
  -4   0   3 33.6698 8.51423  -2 
  -4  -4   1 33.6698 8.51423   1 
  -3   1   4 26.8563 8.71350  -2 
  -3  -4   1 26.8563 8.71350   1 
  -2   2   4 1878.78 97.9333  -2 
  -2  -4   1 1878.78 97.9333   1 
   1   4   0 3014.28 287.819  -3 
  -2   2   4 3014.28 287.819  -2 
  -2  -4   1 3014.28 287.819   1 
  -1  -4   1 -0.2006 3.49541   1 
   0   4   5 174.908 10.7495  -2 
   0  -4   1 174.908 10.7495   1 
   1   5   5 292.441 28.5283  -2 
   1  -4   1 292.441 28.5283   1 
   2   6   6 489.472 26.4463  -2 
   2  -4   1 489.472 26.4463   1 
   3   7   6 168.146 17.6967  -2 
   3  -4   1 168.146 17.6967   1 
   4   8   7 70.9981 14.7492  -2 
   4  -4   1 70.9981 14.7492   1 
   8   5   0 148.792 40.8554  -2 
  -8  -3   1 148.792 40.8554   1 
  -7  -4   1 69.3745 14.6160  -2 
  -7  -3   1 69.3745 14.6160   1 
  -6  -3   1 191.100 17.1100  -2 
  -6  -3   1 191.100 17.1100   1 
  -5  -2   2 59.9355 11.3693  -2 
  -5  -3   1 59.9355 11.3693   1 
  -4  -1   2 864.937 52.2596  -2 
  -4  -3   1 864.937 52.2596   1 
  -3   0   3 57.0802 8.39427  -2 
  -3  -3   1 57.0802 8.39427   1 
  -2   1   3 542.677 25.6624  -2 
  -2  -3   1 542.677 25.6624   1 
  -1  -3   1 2.71803 2.50647   1 
   0   3   4 1304.45 60.1904  -2 
   0  -3   1 1304.45 60.1904   1 
   1  -3   1 44.2305 6.38966   1 
   2   5   5 106.188 12.2797  -2 
   2  -3   1 106.188 12.2797   1 
   3   6   6 105.486 39.4476  -2 
   3  -3   1 105.486 39.4476   1 
   3   6   5 52.8677 20.1953  -2 
   3  -3   1 52.8677 20.1953   1 
   4   7   6 231.645 17.3974  -2 
   4  -3   1 231.645 17.3974   1 
   5   8   6 53.4830 13.8896  -2 
   5  -3   1 53.4830 13.8896   1 
   6  -3   1 59.3241 19.4522   1 
  -8  -4   3 15.8132 62.1828  -3 
   8   6   1 15.8132 62.1828  -2 
  -8  -2   1 15.8132 62.1828   1 
   7   5   0 45.3021 17.7123  -2 
  -7  -2   1 45.3021 17.7123   1 
   6   4   0 124.520 15.3674  -2 
  -6  -2   1 124.520 15.3674   1 
  -5  -3   1 34.1905 11.1385  -2 
  -5  -2   1 34.1905 11.1385   1 
  -4  -2   1 125.179 15.4112  -2 
  -4  -2   1 125.179 15.4112   1 
  -3  -2   1 31.3066 3.92613   1 
  -2   0   2 630.706 37.6631  -2 
  -2  -2   1 630.706 37.6631   1 
  -1  -2   1 425.374 13.6869   1 
   0   2   3 317.895 15.5945  -2 
   0  -2   1 317.895 15.5945   1 
   1  -2   1 1.78710 3.99368   1 
   2   4   4 427.893 24.7164  -2 
   2  -2   1 427.893 24.7164   1 
  -4   1   2 240.323 30.1568  -3 
   3   5   4 240.323 30.1568  -2 
   3  -2   1 240.323 30.1568   1 
   4   6   5 1.46798 19.9529  -2 
   4  -2   1 1.46798 19.9529   1 
  -5   1   3 11.2704 24.9443  -3 
   4   6   5 11.2704 24.9443  -2 
   4  -2   1 11.2704 24.9443   1 
   5   7   5 51.9038 12.5211  -2 
   5  -2   1 51.9038 12.5211   1 
   6  -2   1 12.2826 12.2279   1 
   8   7   2 69.8845 50.8171  -2 
  -8  -1   1 69.8845 50.8171   1 
   7   6   1 10.0041 17.8263  -2 
  -7  -1   1 10.0041 17.8263   1 
   6   5   1 331.345 27.1132  -2 
  -6  -1   1 331.345 27.1132   1 
   5   4   0 9.76469 12.1447  -2 
  -5  -1   1 9.76469 12.1447   1 
   4   3   0 1115.72 67.6645  -2 
  -4  -1   1 1115.72 67.6645   1 
  -3  -2   1 135.712 16.2567  -3 
  -3  -1   1 135.712 16.2567   1 
  -2  -1   1 2507.48 125.413  -2 
  -2  -1   1 2507.48 125.413   1 
  -1  -1   1 55.3454 3.40920   1 
   0   1   2 620.985 32.6173  -2 
   0  -1   1 620.985 32.6173   1 
   1  -1   1 68.7921 6.41583   1 
   2   3   3 1157.25 52.3504  -2 
   2  -1   1 1157.25 52.3504   1 
   3   4   3 154.438 14.2004  -2 
   3  -1   1 154.438 14.2004   1 
   4   5   4 1144.70 48.2253  -2 
   4  -1   1 1144.70 48.2253   1 
   5   6   4 5.03468 11.4258  -2 
   5  -1   1 5.03468 11.4258   1 
   6   7   5 97.3204 17.0919  -2 
   6  -1   1 97.3204 17.0919   1 
  -8   0   1 15.7713 37.0644   1 
   7   7   2 20.9469 20.0547  -2 
  -7   0   1 20.9469 20.0547   1 
   6   6   2 54.6586 17.7476  -2 
  -6   0   1 54.6586 17.7476   1 
   5   5   1 31.2834 10.2356  -2 
  -5   0   1 31.2834 10.2356   1 
   4   4   1 1412.53 65.9181  -2 
  -4   0   1 1412.53 65.9181   1 
  -3   0   1 146.927 11.1781   1 
   2   2   0 1446.34 58.7259  -2 
  -2   0   1 1446.34 58.7259   1 
  -1   0   1 157.792 8.70766   1 
   1   0   1 218.103 10.6485   1 
  -2   0   2 424.504 32.6148  -3 
   2   2   2 424.504 32.6148  -2 
   2   0   1 424.504 32.6148   1 
   3   3   2 180.716 21.8077  -2 
   3   0   1 180.716 21.8077   1 
   4   4   3 813.886 39.3916  -2 
   4   0   1 813.886 39.3916   1 
   5   5   3 13.9264 11.1177  -2 
   5   0   1 13.9264 11.1177   1 
   6   6   4 33.1572 16.2014  -2 
   6   0   1 33.1572 16.2014   1 
   7   7   4 99.8290 21.8869  -2 
   7   0   1 99.8290 21.8869   1 
   6   7   3 151.232 17.4401  -2 
  -6   1   1 151.232 17.4401   1 
  -7  -1   2 89.6009 50.2965  -3 
   6   7   3 89.6009 50.2965  -2 
  -6   1   1 89.6009 50.2965   1 
   5   6   2 105.543 13.9595  -2 
  -5   1   1 105.543 13.9595   1 
  -6  -1   2 143.558 54.7107  -3 
  -5   1   1 143.558 54.7107   1 
   4   5   2 132.435 12.1755  -2 
  -4   1   1 132.435 12.1755   1 
   3   4   1 105.083 13.4482  -2 
  -3   1   1 105.083 13.4482   1 
   2   3   1 1596.07 73.4562  -2 
  -2   1   1 1596.07 73.4562   1 
  -1   1   1 103.617 6.27012   1 
   0   1   0 934.340 42.7389  -2 
   0   1   1 934.340 42.7389   1 
   1   1   1 2.64820 1.06257   1 
   2   1   1 1013.09 60.0910  -2 
   2   1   1 1013.09 60.0910   1 
   3   1   1 894.600 61.4807   1 
   4   3   2 8.14955 8.99330  -2 
   4   1   1 8.14955 8.99330   1 
   5   1   1 5.21136 12.3806   1 
  -6  -2   4 178.493 23.4916  -3 
   6   5   3 178.493 23.4916  -2 
   6   1   1 178.493 23.4916   1 
   7   6   3 78.7911 19.2553  -2 
   7   1   1 78.7911 19.2553   1 
  -7   2   1 53.3611 16.2886   1 
   6   8   4 49.2073 24.7688  -2 
  -6   2   1 49.2073 24.7688   1 
   5   7   3 15.5713 19.1292  -2 
  -5   2   1 15.5713 19.1292   1 
  -5   0   1 1167.64 89.3616  -3 
   4   6   3 1167.64 89.3616  -2 
  -4   2   1 1167.64 89.3616   1 
   3   5   2 83.3910 13.9178  -2 
  -3   2   1 83.3910 13.9178   1 
   2   4   2 -3.8857 6.11073  -2 
  -2   2   1 -3.8857 6.11073   1 
  -1   2   1 7.77668 2.93329   1 
   0   2   1 7542.04 560.742  -2 
   0   2   1 7542.04 560.742   1 
   1  -1   1 6975.87 361.639  -3 
   0   2   1 6975.87 361.639  -2 
   0   2   1 6975.87 361.639   1 
   1   2   1 52.8893 9.67608   1 
   2   0   0 735.446 43.7087  -2 
   2   2   1 735.446 43.7087   1 
   3   2   1 279.140 22.5737   1 
   4   2   1 3488.47 174.799  -2 
   4   2   1 3488.47 174.799   1 
   5   3   1 0.83597 12.2440  -2 
   5   2   1 0.83597 12.2440   1 
   6   4   2 7.02083 13.9942  -2 
   6   2   1 7.02083 13.9942   1 
   7   5   2 15.0193 15.6237  -2 
   7   2   1 15.0193 15.6237   1 
  -6   3   1 42.5109 16.5373   1 
   5   8   4 48.6576 22.8817  -2 
  -5   3   1 48.6576 22.8817   1 
   4   7   4 132.287 15.4451  -2 
  -4   3   1 132.287 15.4451   1 
   3   6   3 158.848 20.1137  -2 
  -3   3   1 158.848 20.1137   1 
   2   5   3 240.414 14.6182  -2 
  -2   3   1 240.414 14.6182   1 
  -1   3   1 9.96363 3.58319   1 
   1  -2   1 740.448 55.9929  -3 
   0   3   2 740.448 55.9929  -2 
   0   3   1 740.448 55.9929   1 
  -1   2   2 43.1665 14.2288  -2 
   1   3   1 43.1665 14.2288   1 
  -2   1   1 1348.08 129.264  -2 
   2   3   1 1348.08 129.264   1 
   3   3   1 33.8445 8.07088   1 
  -3  -3   3 81.2913 10.1005  -3 
   4   1   0 81.2913 10.1005  -2 
   4   3   1 81.2913 10.1005   1 
   5   2   0 25.4221 11.3675  -2 
   5   3   1 25.4221 11.3675   1 
   6   3   1 115.057 14.0757  -2 
   6   3   1 115.057 14.0757   1 
   7   4   1 25.0730 13.2944  -2 
   7   3   1 25.0730 13.2944   1 
   8   5   2 -26.058 32.5647  -2 
   8   3   1 -26.058 32.5647   1 
   4   8   5 500.524 40.5684  -2 
  -4   4   1 500.524 40.5684   1 
   3   7   4 56.4230 12.9640  -2 
  -3   4   1 56.4230 12.9640   1 
  -4   2   0 41.9566 16.7280  -3 
   2   6   4 41.9566 16.7280  -2 
  -2   4   1 41.9566 16.7280   1 
   2   6   4 4.47548 29.8215  -2 
  -2   4   1 4.47548 29.8215   1 
   1   5   3 29.3431 12.8623  -2 
  -1   4   1 29.3431 12.8623   1 
   1   5   4 44.8290 26.0374  -2 
  -1   4   1 44.8290 26.0374   1 
   0   4   3 720.763 33.8931  -2 
   0   4   1 720.763 33.8931   1 
  -1   3   3 134.224 21.2733  -2 
   1   4   1 134.224 21.2733   1 
  -2   2   2 12.2073 11.6248  -2 
   2   4   1 12.2073 11.6248   1 
   3   4   1 74.6870 7.25699   1 
  -4   0   1 1343.01 79.8712  -2 
   4   4   1 1343.01 79.8712   1 
  -5  -1   1 19.8731 10.0689  -2 
   5   4   1 19.8731 10.0689   1 
   6   2   0 8.36875 11.9859  -2 
   6   4   1 8.36875 11.9859   1 
   7   3   0 28.5109 13.1050  -2 
   7   4   1 28.5109 13.1050   1 
  -7  -5   5 234.710 35.5688  -3 
   8   4   1 234.710 35.5688  -2 
   8   4   1 234.710 35.5688   1 
   3   8   5 210.044 27.2194  -2 
  -3   5   1 210.044 27.2194   1 
  -4   3   0 566.207 30.0463  -3 
   2   7   5 566.207 30.0463  -2 
  -2   5   1 566.207 30.0463   1 
   1   6   5 47.5004 31.5502  -2 
  -1   5   1 47.5004 31.5502   1 
   0   5   4 829.040 39.2782  -2 
   0   5   1 829.040 39.2782   1 
  -2   3   3 677.288 67.5502  -2 
   2   5   1 677.288 67.5502   1 
   3   5   1 353.185 38.7787   1 
  -4   1   2 1356.38 132.322  -2 
   4   5   1 1356.38 132.322   1 
   5   5   1 -4.6649 12.7750   1 
  -6  -1   1 354.520 43.6964  -2 
   6   5   1 354.520 43.6964   1 
  -7  -2   1 20.9482 28.4145  -2 
   7   5   1 20.9482 28.4145   1 
   8   3   0 132.208 25.2221  -2 
   8   5   1 132.208 25.2221   1 
   3   9   6 125.879 26.4968  -2 
  -3   6   1 125.879 26.4968   1 
   2   8   6 120.444 23.8522  -2 
  -2   6   1 120.444 23.8522   1 
   1   7   6 136.193 37.2065  -2 
  -1   6   1 136.193 37.2065   1 
   0   6   5 94.0201 15.0190  -2 
   0   6   1 94.0201 15.0190   1 
   0  -5   2 21.9714 22.1059  -3 
  -2   4   4 21.9714 22.1059  -2 
   2   6   1 21.9714 22.1059   1 
  -4   2   3 86.9419 27.4344  -2 
   4   6   1 86.9419 27.4344   1 
   5   6   1 47.3119 17.5322   1 
  -6   0   2 159.881 32.6941  -2 
   6   6   1 159.881 32.6941   1 
  -8  -2   1 85.0747 25.0158  -2 
   8   6   1 85.0747 25.0158   1 
   1   8   7 122.306 39.5827  -2 
  -1   7   1 122.306 39.5827   1 
   0   7   6 449.028 30.9854  -2 
   0   7   1 449.028 30.9854   1 
  -2   5   5 65.5427 10.4997  -2 
   2   7   1 65.5427 10.4997   1 
   3   7   1 0.94969 15.8410   1 
  -4   3   4 704.415 75.9599  -2 
   4   7   1 704.415 75.9599   1 
   5   7   1 4.92964 16.0760   1 
  -6   1   3 152.941 35.7012  -2 
   6   7   1 152.941 35.7012   1 
  -5  -7   5 28.3679 36.8083  -3 
   7   7   1 28.3679 36.8083   1 
   0   8   7 104.793 22.2395  -2 
   0   8   1 104.793 22.2395   1 
   3  -6   1 73.8370 31.0781  -3 
   0   8   7 73.8370 31.0781  -2 
   0   8   1 73.8370 31.0781   1 
   3   8   1 49.9511 18.1966   1 
  -4   4   5 16.3536 28.0255  -2 
   4   8   1 16.3536 28.0255   1 
   5   8   1 52.7080 22.4617   1 
  -6   2   4 267.615 47.0353  -2 
   6   8   1 267.615 47.0353   1 
   7   8   1 32.9202 25.4163   1 
  -2   7   7 35.5942 22.7310  -2 
   2   9   1 35.5942 22.7310   1 
  -3   6   6 35.9778 31.3722  -2 
   3   9   1 35.9778 31.3722   1 
  -4   5   6 59.3360 30.7571  -2 
   4   9   1 59.3360 30.7571   1 
   5   9   1 33.5589 22.9461   1 
  -3  -8   4 48.7529 49.2386  -3 
  -6   3   5 48.7529 49.2386  -2 
   6   9   1 48.7529 49.2386   1 
  -4   5   9 10.6791 31.9009  -2 
  -4  -9   2 10.6791 31.9009   1 
  -5  -8   2 21.2130 22.7847   1 
  -4   4   8 104.171 31.7400  -2 
  -4  -8   2 104.171 31.7400   1 
  -2   6   9 60.2470 14.9064  -2 
  -2  -8   2 60.2470 14.9064   1 
  -1  -8   2 46.8117 14.5437   1 
  -5  -8   2 227.211 52.2925  -3 
  -7   0   6 227.211 52.2925  -2 
  -7  -7   2 227.211 52.2925   1 
  -6   1   6 714.882 80.6222  -2 
  -6  -7   2 714.882 80.6222   1 
  -5  -7   2 8.62840 20.5339   1 
  -4   3   7 15.1411 27.2974  -2 
  -4  -7   2 15.1411 27.2974   1 
  -2   5   8 389.791 33.3339  -2 
  -2  -7   2 389.791 33.3339   1 
   0   7   1 632.937 69.8053  -3 
  -2   5   8 632.937 69.8053  -2 
  -2  -7   2 632.937 69.8053   1 
  -1  -7   2 6.40397 12.0976   1 
   0   7   9 60.0580 19.6839  -2 
   0  -7   2 60.0580 19.6839   1 
   1   8   9 218.863 30.5304  -2 
   1  -7   2 218.863 30.5304   1 
  -8  -2   4 63.1696 25.6549  -2 
  -8  -6   2 63.1696 25.6549   1 
  -7  -1   5 97.3961 29.3304  -2 
  -7  -6   2 97.3961 29.3304   1 
  -6   0   5 260.244 39.9385  -2 
  -6  -6   2 260.244 39.9385   1 
  -5   1   6 18.0600 36.1320  -2 
  -5  -6   2 18.0600 36.1320   1 
  -4   2   6 19.3363 25.6750  -2 
  -4  -6   2 19.3363 25.6750   1 
  -3   3   7 64.5623 16.8177  -2 
  -3  -6   2 64.5623 16.8177   1 
  -2   4   7 320.809 23.1583  -2 
  -2  -6   2 320.809 23.1583   1 
  -1  -6   2 4.72928 11.5298   1 
   0   6   8 151.413 21.4856  -2 
   0  -6   2 151.413 21.4856   1 
  -3   5   2 103.578 24.6975  -3 
   1   7   8 103.578 24.6975  -2 
   1  -6   2 103.578 24.6975   1 
  -4   5   3 129.427 26.8396  -3 
   2   8   9 129.427 26.8396  -2 
   2  -6   2 129.427 26.8396   1 
  -8  -3   3 61.0543 38.8700  -2 
  -8  -5   2 61.0543 38.8700   1 
  -7  -2   4 25.8999 24.6102  -2 
  -7  -5   2 25.8999 24.6102   1 
  -6  -1   4 194.839 18.7908  -2 
  -6  -5   2 194.839 18.7908   1 
  -4  -6   1 44.7446 37.9012  -3 
  -5   0   5 44.7446 37.9012  -2 
  -5  -5   2 44.7446 37.9012   1 
  -4   1   5 163.914 13.6101  -2 
  -4  -5   2 163.914 13.6101   1 
  -3   2   6 480.404 38.4115  -2 
  -3  -5   2 480.404 38.4115   1 
  -2   3   6 356.780 20.2868  -2 
  -2  -5   2 356.780 20.2868   1 
  -1  -5   2 44.8515 5.77115   1 
   0   5   7 22.0710 8.60442  -2 
   0  -5   2 22.0710 8.60442   1 
   1   6   7 248.322 29.8796  -2 
   1  -5   2 248.322 29.8796   1 
   3   8   8 77.0075 16.7498  -2 
   3  -5   2 77.0075 16.7498   1 
  -7  -3   3 80.5766 14.7628  -2 
  -7  -4   2 80.5766 14.7628   1 
  -6  -2   3 820.617 45.2712  -2 
  -6  -4   2 820.617 45.2712   1 
  -5  -1   4 26.6404 11.3631  -2 
  -5  -4   2 26.6404 11.3631   1 
   3   5   0 614.210 38.7804  -3 
  -4   0   4 614.210 38.7804  -2 
  -4  -4   2 614.210 38.7804   1 
  -3   1   5 810.215 38.9209  -2 
  -3  -4   2 810.215 38.9209   1 
  -2   2   5 815.693 43.4491  -2 
  -2  -4   2 815.693 43.4491   1 
  -1  -4   2 81.0045 7.18469   1 
  -1   4   2 163.848 20.4517  -3 
   0   4   6 163.848 20.4517  -2 
   0  -4   2 163.848 20.4517   1 
   0   4   6 160.088 17.6111  -2 
   0  -4   2 160.088 17.6111   1 
   1   5   6 153.358 22.3604  -2 
   1  -4   2 153.358 22.3604   1 
   2   6   7 1017.10 56.2231  -2 
   2  -4   2 1017.10 56.2231   1 
   3   7   7 161.392 18.5163  -2 
   3  -4   2 161.392 18.5163   1 
   4   8   8 157.077 17.1183  -2 
   4  -4   2 157.077 17.1183   1 
  -8  -5   1 24.3782 38.6117  -2 
  -8  -3   2 24.3782 38.6117   1 
  -7  -4   2 28.7567 16.2863  -2 
  -7  -3   2 28.7567 16.2863   1 
  -6  -3   2 67.2818 13.8958  -2 
  -6  -3   2 67.2818 13.8958   1 
  -5  -2   3 67.2129 11.4330  -2 
  -5  -3   2 67.2129 11.4330   1 
  -4  -1   3 403.978 25.8389  -2 
  -4  -3   2 403.978 25.8389   1 
  -3   0   4 159.147 13.1178  -2 
  -3  -3   2 159.147 13.1178   1 
  -2   1   4 45.7442 4.88388  -2 
  -2  -3   2 45.7442 4.88388   1 
  -1  -3   2 83.8805 5.70784   1 
  -1   3   2 172.723 13.7254  -3 
   0   3   5 172.723 13.7254  -2 
   0  -3   2 172.723 13.7254   1 
   0   3   5 162.074 15.0993  -2 
   0  -3   2 162.074 15.0993   1 
   1  -3   2 900.674 48.4086   1 
   2   5   6 28.4100 11.1976  -2 
   2  -3   2 28.4100 11.1976   1 
   3   6   6 138.615 17.3542  -2 
   3  -3   2 138.615 17.3542   1 
  -5   2   4 87.2080 20.0141  -3 
   4   7   7 87.2080 20.0141  -2 
   4  -3   2 87.2080 20.0141   1 
   5   8   7 94.6652 26.2265  -2 
   5  -3   2 94.6652 26.2265   1 
   6  -3   2 70.6763 19.5799   1 
   8   6   0 -73.100 48.2970  -2 
  -8  -2   2 -73.100 48.2970   1 
  -7  -5   1 47.8311 18.1943  -2 
  -7  -2   2 47.8311 18.1943   1 
  -7  -4   2 31.6504 71.3995  -3 
  -7  -5   1 31.6504 71.3995  -2 
  -7  -2   2 31.6504 71.3995   1 
  -6  -4   1 735.961 41.7120  -3 
  -6  -4   1 735.961 41.7120  -2 
  -6  -2   2 735.961 41.7120   1 
  -4  -2   2 51.2033 8.17964  -2 
  -4  -2   2 51.2033 8.17964   1 
  -3  -1   3 228.008 37.4879  -2 
  -3  -2   2 228.008 37.4879   1 
  -2   0   3 3363.21 197.234  -2 
  -2  -2   2 3363.21 197.234   1 
  -1  -2   2 56.6975 4.10485   1 
   0   2   4 328.567 18.3548  -2 
   0  -2   2 328.567 18.3548   1 
   1  -2   2 769.141 41.1403   1 
   2   4   5 2249.67 118.119  -2 
   2  -2   2 2249.67 118.119   1 
   3   5   5 77.3098 19.4937  -2 
   3  -2   2 77.3098 19.4937   1 
   4   6   6 82.4123 22.3347  -2 
   4  -2   2 82.4123 22.3347   1 
  -5   1   4 72.0036 26.1833  -3 
   4   6   6 72.0036 26.1833  -2 
   4  -2   2 72.0036 26.1833   1 
  -6   1   4 33.7030 32.0853  -3 
   5   7   6 33.7030 32.0853  -2 
   5  -2   2 33.7030 32.0853   1 
   5   7   6 113.027 16.1645  -2 
   5  -2   2 113.027 16.1645   1 
   6   8   7 316.500 35.8024  -2 
   6  -2   2 316.500 35.8024   1 
   8   7   1 87.3773 53.8247  -2 
  -8  -1   2 87.3773 53.8247   1 
   7   6   0 36.0740 19.3747  -2 
  -7  -1   2 36.0740 19.3747   1 
   6   5   0 112.778 19.6782  -2 
  -6  -1   2 112.778 19.6782   1 
  -5  -4   1 37.4084 13.7192  -2 
  -5  -1   2 37.4084 13.7192   1 
  -5  -3   1 16.1463 24.3495  -3 
  -5  -1   2 16.1463 24.3495   1 
  -4  -3   1 920.653 47.9017  -2 
  -4  -1   2 920.653 47.9017   1 
  -3  -1   2 54.4292 9.48843   1 
  -2  -1   2 1839.99 175.610  -2 
  -2  -1   2 1839.99 175.610   1 
   2   2   1 2280.76 218.965  -3 
  -2  -1   2 2280.76 218.965  -2 
  -2  -1   2 2280.76 218.965   1 
  -1  -1   2 12.4445 2.09327   1 
   0   1   3 4110.07 306.089  -2 
   0  -1   2 4110.07 306.089   1 
   1  -1   2 8.47803 4.05947   1 
   2   3   4 236.454 12.6169  -2 
   2  -1   2 236.454 12.6169   1 
   3   4   4 193.217 12.6891  -2 
   3  -1   2 193.217 12.6891   1 
   4   5   5 436.641 23.5060  -2 
   4  -1   2 436.641 23.5060   1 
   5   6   5 67.0574 12.7431  -2 
   5  -1   2 67.0574 12.7431   1 
   6   7   6 129.356 18.9079  -2 
   6  -1   2 129.356 18.9079   1 
  -8   0   2 17.5822 38.3990   1 
  -7   0   2 17.4136 33.8592   1 
   6   6   1 150.533 20.3588  -2 
  -6   0   2 150.533 20.3588   1 
   5   5   0 26.4499 15.3178  -2 
  -5   0   2 26.4499 15.3178   1 
   4   4   0 253.355 19.5909  -2 
  -4   0   2 253.355 19.5909   1 
  -3   0   2 57.4175 6.21388   1 
  -2  -2   1 759.678 45.9712  -2 
  -2   0   2 759.678 45.9712   1 
  -1   0   2 136.530 11.0263   1 
   0   0   2 76.3845 3.45326  -2 
   0   0   2 76.3845 3.45326   1 
   1   0   2 316.387 16.0033   1 
   2   2   3 1648.49 74.0720  -2 
   2   0   2 1648.49 74.0720   1 
  -3   0   3 185.609 25.0546  -3 
   3   3   3 185.609 25.0546  -2 
   3   0   2 185.609 25.0546   1 
   4   4   4 40.7264 16.3868  -2 
   4   0   2 40.7264 16.3868   1 
   5   5   4 8.51605 12.1086  -2 
   5   0   2 8.51605 12.1086   1 
   6   6   5 115.884 16.5878  -2 
   6   0   2 115.884 16.5878   1 
  -8  -2   2 -19.976 45.5196  -3 
  -7   1   2 -19.976 45.5196   1 
   6   7   2 298.241 28.5083  -2 
  -6   1   2 298.241 28.5083   1 
   5   6   1 18.8673 12.0521  -2 
  -5   1   2 18.8673 12.0521   1 
   4   5   1 1312.12 70.0031  -2 
  -4   1   2 1312.12 70.0031   1 
   3   4   0 181.220 17.6159  -2 
  -3   1   2 181.220 17.6159   1 
   4   1   1 125.388 18.2146  -3 
   3   4   0 125.388 18.2146  -2 
  -3   1   2 125.388 18.2146   1 
   4   1   0 180.487 39.1111  -3 
  -3   1   2 180.487 39.1111   1 
   2   3   0 1070.25 43.8047  -2 
  -2   1   2 1070.25 43.8047   1 
  -1   1   2 251.543 12.4672   1 
   0  -1   1 677.989 40.0900  -2 
   0   1   2 677.989 40.0900   1 
   1   1   2 225.165 12.6850   1 
   2   1   2 9999.99 584.891  -2 
   2   1   2 9999.99 584.891   1 
   3   1   2 236.260 18.2056   1 
   4   3   3 1504.64 76.6847  -2 
   4   1   2 1504.64 76.6847   1 
   5   4   3 -3.7844 12.6493  -2 
   5   1   2 -3.7844 12.6493   1 
   6   5   4 57.7392 18.9121  -2 
   6   1   2 57.7392 18.9121   1 
  -7  -2   5 62.7411 26.4937  -3 
   7   6   4 62.7411 26.4937  -2 
   7   1   2 62.7411 26.4937   1 
  -7   2   2 18.7276 13.6190   1 
   6   8   3 44.3781 15.2382  -2 
  -6   2   2 44.3781 15.2382   1 
   5   7   2 37.2922 13.4844  -2 
  -5   2   2 37.2922 13.4844   1 
   4   6   2 663.479 32.1956  -2 
  -4   2   2 663.479 32.1956   1 
   5   0   0 770.372 91.0057  -3 
   4   6   2 770.372 91.0057  -2 
  -4   2   2 770.372 91.0057   1 
   3   5   1 323.675 31.5937  -2 
  -3   2   2 323.675 31.5937   1 
   2   4   1 25.2804 6.01872  -2 
  -2   2   2 25.2804 6.01872   1 
  -1   2   2 27.2609 3.15901   1 
   0   2   0 2185.12 85.0862  -2 
   0   2   2 2185.12 85.0862   1 
   1   2   2 1.23661 2.68466   1 
   2   0   1 361.687 22.2328  -2 
   2   2   2 361.687 22.2328   1 
   3   2   2 58.2520 8.61631   1 
   4   2   2 1108.80 66.7069  -2 
   4   2   2 1108.80 66.7069   1 
   5   3   2 35.1148 12.3468  -2 
   5   2   2 35.1148 12.3468   1 
   6   4   3 161.611 17.1563  -2 
   6   2   2 161.611 17.1563   1 
   7   5   3 23.5328 17.1238  -2 
   7   2   2 23.5328 17.1238   1 
   6   9   4 53.2063 52.6114  -2 
  -6   3   2 53.2063 52.6114   1 
   5   8   3 32.3972 14.7026  -2 
  -5   3   2 32.3972 14.7026   1 
   4   7   3 21.9145 12.8442  -2 
  -4   3   2 21.9145 12.8442   1 
   3   6   2 24.4209 15.0037  -2 
  -3   3   2 24.4209 15.0037   1 
   2   5   2 1019.13 48.1658  -2 
  -2   3   2 1019.13 48.1658   1 
  -1   3   2 276.301 13.8639   1 
   0   3   1 838.199 38.9259  -2 
   0   3   2 838.199 38.9259   1 
   1   3   2 -3.7142 3.90813   1 
  -1  -2   3 578.808 57.1244  -3 
  -2   1   0 578.808 57.1244  -2 
   2   3   2 578.808 57.1244   1 
   3   3   2 115.197 11.2168   1 
   4   1   1 16.5968 7.82320  -2 
   4   3   2 16.5968 7.82320   1 
   5   3   2 9.94323 10.6323   1 
  -5  -3   5 85.5887 16.5461  -3 
   6   3   2 85.5887 16.5461  -2 
   6   3   2 85.5887 16.5461   1 
   7   4   2 103.051 14.9184  -2 
   7   3   2 103.051 14.9184   1 
   8   5   3 41.9632 26.4943  -2 
   8   3   2 41.9632 26.4943   1 
  -7   1   1 -14.488 36.8386  -3 
  -5   4   2 -14.488 36.8386   1 
  -6   1   0 535.123 76.9615  -3 
   4   8   4 535.123 76.9615  -2 
  -4   4   2 535.123 76.9615   1 
   3   7   3 28.5966 17.5677  -2 
  -3   4   2 28.5966 17.5677   1 
   2   6   3 27.1509 9.14774  -2 
  -2   4   2 27.1509 9.14774   1 
  -1   4   2 13.6871 3.95836   1 
   0   4   2 3211.79 167.087  -2 
   0   4   2 3211.79 167.087   1 
   1   4   2 205.769 13.8456   1 
  -2   2   1 0.32086 11.7987  -2 
   2   4   2 0.32086 11.7987   1 
   3   4   2 32.5256 10.4599   1 
   4   0   0 1413.53 84.0069  -2 
   4   4   2 1413.53 84.0069   1 
   5   1   0 34.7667 11.9250  -2 
   5   4   2 34.7667 11.9250   1 
  -5  -4   5 35.4647 15.8884  -3 
   6   2   1 35.4647 15.8884  -2 
   6   4   2 35.4647 15.8884   1 
   7   3   1 43.0911 13.2386  -2 
   7   4   2 43.0911 13.2386   1 
   8   4   2 246.891 30.8612  -2 
   8   4   2 246.891 30.8612   1 
   4   9   5 201.422 53.3745  -2 
  -4   5   2 201.422 53.3745   1 
   3   8   4 180.980 23.8350  -2 
  -3   5   2 180.980 23.8350   1 
   2   7   4 51.9221 11.2923  -2 
  -2   5   2 51.9221 11.2923   1 
  -1   5   2 3.99088 4.64222   1 
   2  -3   2 521.563 25.6395  -3 
   0   5   3 521.563 25.6395  -2 
   0   5   2 521.563 25.6395   1 
  -2   3   2 811.944 80.1191  -2 
   2   5   2 811.944 80.1191   1 
   3   5   2 45.3297 13.7850   1 
   5   5   2 45.5952 14.9118   1 
   6   1   0 199.630 32.0886  -2 
   6   5   2 199.630 32.0886   1 
   7   2   0 38.6432 28.5092  -2 
   7   5   2 38.6432 28.5092   1 
   8   3   1 42.1139 21.9697  -2 
   8   5   2 42.1139 21.9697   1 
   3   9   5 112.828 24.8559  -2 
  -3   6   2 112.828 24.8559   1 
   2   8   5 62.4372 17.7988  -2 
  -2   6   2 62.4372 17.7988   1 
  -1   6   2 49.9738 23.3543   1 
   0   6   4 170.162 21.2010  -2 
   0   6   2 170.162 21.2010   1 
  -2   4   3 73.8173 10.6361  -2 
   2   6   2 73.8173 10.6361   1 
   3   6   2 57.2288 16.2628   1 
  -2  -5   4 857.273 88.7764  -3 
  -4   2   2 857.273 88.7764  -2 
   4   6   2 857.273 88.7764   1 
   5   6   2 34.0475 16.0916   1 
  -6   0   1 68.1471 27.3064  -2 
   6   6   2 68.1471 27.3064   1 
   7   6   2 -1.1518 16.3638   1 
   5  -4   1 204.549 52.0254  -3 
   2   9   6 204.549 52.0254  -2 
  -2   7   2 204.549 52.0254   1 
  -1   7   2 37.2467 23.4848   1 
   0   7   5 481.697 32.8473  -2 
   0   7   2 481.697 32.8473   1 
  -2   5   4 299.046 20.6805  -2 
   2   7   2 299.046 20.6805   1 
   3   7   2 -3.1883 14.1500   1 
   5   7   2 27.5957 18.1932   1 
  -6   1   2 380.234 50.6069  -2 
   6   7   2 380.234 50.6069   1 
   7   7   2 17.8849 19.0612   1 
  -6  -7   6 132.107 47.6324  -3 
  -8  -1   1 132.107 47.6324  -2 
   8   7   2 132.107 47.6324   1 
  -1   8   2 18.6736 26.3972   1 
   0   8   6 70.7448 16.5358  -2 
   0   8   2 70.7448 16.5358   1 
   1  -6   3 63.2943 25.4364  -3 
  -2   6   5 63.2943 25.4364  -2 
   2   8   2 63.2943 25.4364   1 
  -4   4   4 48.8833 27.9603  -2 
   4   8   2 48.8833 27.9603   1 
   5   8   2 10.2410 20.0808   1 
  -6   2   3 50.0987 35.4872  -2 
   6   8   2 50.0987 35.4872   1 
  -4  -7   6 9.20402 35.6768  -3 
   7   8   2 9.20402 35.6768   1 
  -1   8   7 190.156 26.3090  -2 
   1   9   2 190.156 26.3090   1 
  -1   8   6 60.7579 31.5613  -2 
   1   9   2 60.7579 31.5613   1 
   1  -7   3 81.5402 25.8722  -3 
  -2   7   6 81.5402 25.8722  -2 
   2   9   2 81.5402 25.8722   1 
  -4   5   5 263.855 40.4562  -2 
   4   9   2 263.855 40.4562   1 
   5   9   2 0.47295 21.5060   1 
   4   9   0 114.257 56.8184  -3 
  -6   2   8 114.257 56.8184  -2 
  -6  -8   3 114.257 56.8184   1 
  -4   4   9 261.072 44.0802  -2 
  -4  -8   3 261.072 44.0802   1 
  -2   6  10 104.550 16.5806  -2 
  -2  -8   3 104.550 16.5806   1 
  -1  -8   3 41.3767 14.6958   1 
  -7   0   7 24.7921 42.2189  -2 
  -7  -7   3 24.7921 42.2189   1 
  -4  -8   1 59.1402 42.6474  -3 
  -6   1   7 59.1402 42.6474  -2 
  -6  -7   3 59.1402 42.6474   1 
  -4   3   8 -17.105 28.2341  -2 
  -4  -7   3 -17.105 28.2341   1 
  -3   4   9 82.9962 20.8639  -2 
  -3  -7   3 82.9962 20.8639   1 
   0   7   2 156.689 23.7499  -3 
  -2   5   9 156.689 23.7499  -2 
  -2  -7   3 156.689 23.7499   1 
  -1   7   2 36.6309 19.0753  -3 
  -1  -7   3 36.6309 19.0753   1 
   0   7  10 52.7966 19.9282  -2 
   0  -7   3 52.7966 19.9282   1 
  -7  -8   1 86.5366 35.4263  -3 
  -8  -2   5 86.5366 35.4263  -2 
  -8  -6   3 86.5366 35.4263   1 
  -6   0   6 39.7868 28.7943  -2 
  -6  -6   3 39.7868 28.7943   1 
  -5   1   7 65.7478 36.6630  -2 
  -5  -6   3 65.7478 36.6630   1 
  -4   2   7 129.303 31.0020  -2 
  -4  -6   3 129.303 31.0020   1 
  -3   3   8 109.705 19.5936  -2 
  -3  -6   3 109.705 19.5936   1 
  -2   4   8 19.0994 13.3680  -2 
  -2  -6   3 19.0994 13.3680   1 
  -1   6   2 79.7651 21.7415  -3 
  -1  -6   3 79.7651 21.7415   1 
   0   6   9 13.7353 16.2212  -2 
   0  -6   3 13.7353 16.2212   1 
   1   7   9 330.415 35.5288  -2 
   1  -6   3 330.415 35.5288   1 
   2   8  10 123.520 25.4417  -2 
   2  -6   3 123.520 25.4417   1 
  -6  -7   1 140.806 29.5456  -3 
  -7  -2   5 140.806 29.5456  -2 
  -7  -5   3 140.806 29.5456   1 
  -6  -1   5 567.403 48.7259  -2 
  -6  -5   3 567.403 48.7259   1 
  -5   0   6 3.78176 14.6780  -2 
  -5  -5   3 3.78176 14.6780   1 
  -4   1   6 15.4819 9.97673  -2 
  -4  -5   3 15.4819 9.97673   1 
  -3   2   7 362.302 32.6656  -2 
  -3  -5   3 362.302 32.6656   1 
  -2   3   7 809.123 43.6335  -2 
  -2  -5   3 809.123 43.6335   1 
  -1  -5   3 0.56865 5.95131   1 
   0   5   8 -15.424 10.6380  -2 
   0  -5   3 -15.424 10.6380   1 
   1   6   8 311.020 22.9327  -2 
   1  -5   3 311.020 22.9327   1 
   2   7   9 226.047 19.3863  -2 
   2  -5   3 226.047 19.3863   1 
  -5   4   4 135.000 21.5361  -3 
   3   8   9 135.000 21.5361  -2 
   3  -5   3 135.000 21.5361   1 
  -8  -4   3 23.7285 24.0351  -2 
  -8  -4   3 23.7285 24.0351   1 
  -7  -3   4 56.8829 14.6186  -2 
  -7  -4   3 56.8829 14.6186   1 
  -6  -2   4 150.191 15.9440  -2 
  -6  -4   3 150.191 15.9440   1 
  -5  -1   5 28.1218 12.2818  -2 
  -5  -4   3 28.1218 12.2818   1 
  -4   0   5 175.364 15.1781  -2 
  -4  -4   3 175.364 15.1781   1 
  -3  -4   3 67.4568 10.3928   1 
  -2   2   6 242.335 15.2189  -2 
  -2  -4   3 242.335 15.2189   1 
  -1  -4   3 1.70489 4.67712   1 
   0   4   7 82.6431 9.42539  -2 
   0  -4   3 82.6431 9.42539   1 
   1   5   7 193.630 26.0862  -2 
   1  -4   3 193.630 26.0862   1 
   2   6   8 66.7984 14.4112  -2 
   2  -4   3 66.7984 14.4112   1 
   3   7   8 66.6490 22.8191  -2 
   3  -4   3 66.6490 22.8191   1 
   4   8   9 114.937 19.4381  -2 
   4  -4   3 114.937 19.4381   1 
  -8  -5   2 56.6239 39.2068  -2 
  -8  -3   3 56.6239 39.2068   1 
  -7  -4   3 56.7407 15.4165  -2 
  -7  -3   3 56.7407 15.4165   1 
  -6  -3   3 220.397 22.1319  -2 
  -6  -3   3 220.397 22.1319   1 
  -5  -2   4 8.22153 11.8464  -2 
  -5  -3   3 8.22153 11.8464   1 
  -4  -1   4 158.330 12.4981  -2 
  -4  -3   3 158.330 12.4981   1 
  -3   0   5 858.142 65.8058  -2 
  -3  -3   3 858.142 65.8058   1 
  -2   1   5 537.355 25.8396  -2 
  -2  -3   3 537.355 25.8396   1 
  -1   2   6 505.089 50.8231  -2 
  -1  -3   3 505.089 50.8231   1 
   0   3   6 208.322 13.0416  -2 
   0  -3   3 208.322 13.0416   1 
  -2   3   3 382.305 34.5855  -3 
   1   4   6 382.305 34.5855  -2 
   1  -3   3 382.305 34.5855   1 
   3   6   7 1.47246 15.8947  -2 
   3  -3   3 1.47246 15.8947   1 
   4   7   8 38.9784 13.5671  -2 
   4  -3   3 38.9784 13.5671   1 
  -6   2   5 181.480 35.2455  -3 
   5   8   8 181.480 35.2455  -2 
   5  -3   3 181.480 35.2455   1 
   5   8   8 229.432 31.2645  -2 
   5  -3   3 229.432 31.2645   1 
  -8  -5   2 -84.371 53.4195  -3 
  -8  -6   1 -84.371 53.4195  -2 
  -8  -2   3 -84.371 53.4195   1 
  -7  -5   2 24.0852 18.5875  -2 
  -7  -2   3 24.0852 18.5875   1 
  -6  -4   2 821.530 53.5053  -2 
  -6  -2   3 821.530 53.5053   1 
   4   4   1 784.338 57.8723  -3 
  -4  -2   3 784.338 57.8723  -2 
  -4  -2   3 784.338 57.8723   1 
  -3  -1   4 1073.64 108.263  -2 
  -3  -2   3 1073.64 108.263   1 
  -2   0   4 1946.71 114.618  -2 
  -2  -2   3 1946.71 114.618   1 
  -1  -2   3 321.369 17.9969   1 
   0   2   5 736.568 39.2316  -2 
   0  -2   3 736.568 39.2316   1 
   1  -2   3 13.8633 4.74519   1 
   2   4   6 929.355 50.4367  -2 
   2  -2   3 929.355 50.4367   1 
   3   5   6 16.9045 13.7034  -2 
   3  -2   3 16.9045 13.7034   1 
   4   6   7 100.557 17.1939  -2 
   4  -2   3 100.557 17.1939   1 
  -6   1   5 185.471 28.8288  -3 
   5   7   7 185.471 28.8288  -2 
   5  -2   3 185.471 28.8288   1 
  -7   1   6 278.378 35.5814  -3 
   6  -2   3 278.378 35.5814   1 
   8   7   0 9.65733 55.4291  -2 
  -8  -1   3 9.65733 55.4291   1 
  -7  -6   1 25.4389 19.8109  -2 
  -7  -1   3 25.4389 19.8109   1 
  -6  -5   1 35.8437 18.2121  -2 
  -6  -1   3 35.8437 18.2121   1 
  -5  -4   2 48.6698 15.5565  -2 
  -5  -1   3 48.6698 15.5565   1 
  -4  -3   2 457.943 30.1913  -2 
  -4  -1   3 457.943 30.1913   1 
  -3  -1   3 15.3224 3.96821   1 
  -2  -1   3 12.5302 5.03871  -2 
  -2  -1   3 12.5302 5.03871   1 
  -1  -1   3 6.17440 2.14141   1 
   0   2   3 465.090 37.1334  -3 
   0   1   4 465.090 37.1334  -2 
   0  -1   3 465.090 37.1334   1 
   1  -1   3 525.694 28.6302   1 
   2   3   5 14.4492 6.33689  -2 
   2  -1   3 14.4492 6.33689   1 
   3   4   5 374.463 23.5088  -2 
   3  -1   3 374.463 23.5088   1 
   4   5   6 17.3532 11.4123  -2 
   4  -1   3 17.3532 11.4123   1 
   5   6   6 133.496 18.6621  -2 
   5  -1   3 133.496 18.6621   1 
   6   7   7 80.1028 27.9628  -2 
   6  -1   3 80.1028 27.9628   1 
  -8  -3   1 18.3502 65.0823  -3 
  -7   0   3 18.3502 65.0823   1 
   7   7   0 34.3383 22.8320  -2 
  -7   0   3 34.3383 22.8320   1 
   6   6   0 533.078 73.1802  -2 
  -6   0   3 533.078 73.1802   1 
   7   3   0 371.929 38.4069  -3 
   6   6   0 371.929 38.4069  -2 
  -6   0   3 371.929 38.4069   1 
  -5  -5   1 52.7597 16.8028  -2 
  -5   0   3 52.7597 16.8028   1 
  -4  -4   1 52.0768 11.6086  -2 
  -4   0   3 52.0768 11.6086   1 
  -3   0   3 100.266 8.47521   1 
  -2  -2   2 3662.01 215.105  -2 
  -2   0   3 3662.01 215.105   1 
  -1   0   3 91.7659 8.58920   1 
   0   0   3 957.457 72.6972  -2 
   0   0   3 957.457 72.6972   1 
   1   0   3 399.782 24.1917   1 
   2   2   4 715.237 32.9279  -2 
   2   0   3 715.237 32.9279   1 
   3   3   4 162.197 19.8855  -2 
   3   0   3 162.197 19.8855   1 
  -4   0   5 165.299 12.7351  -3 
   4   4   5 165.299 12.7351  -2 
   4   0   3 165.299 12.7351   1 
   5   5   5 74.6166 14.4797  -2 
   5   0   3 74.6166 14.4797   1 
   6   6   6 274.276 34.1532  -2 
   6   0   3 274.276 34.1532   1 
  -7   1   3 5.29716 32.3062   1 
   7   2   0 182.336 70.4089  -3 
   6   7   1 182.336 70.4089  -2 
  -6   1   3 182.336 70.4089   1 
   6   2   0 4.08222 48.2102  -3 
  -5   1   3 4.08222 48.2102   1 
   5   6   0 14.0427 17.2625  -2 
  -5   1   3 14.0427 17.2625   1 
   4   5   0 539.691 36.4502  -2 
  -4   1   3 539.691 36.4502   1 
  -3   1   3 34.2538 19.7541   1 
  -2  -3   1 535.399 56.4506  -2 
  -2   1   3 535.399 56.4506   1 
  -1   1   3 30.7899 3.46378   1 
   0  -1   2 5211.59 239.737  -2 
   0   1   3 5211.59 239.737   1 
   1   1   3 9.06702 3.36307   1 
   2   1   3 386.712 31.4218  -2 
   2   1   3 386.712 31.4218   1 
   3   2   3 235.051 22.3360  -2 
   3   1   3 235.051 22.3360   1 
   4   3   4 798.135 42.0342  -2 
   4   1   3 798.135 42.0342   1 
   5   4   4 70.9230 11.4494  -2 
   5   1   3 70.9230 11.4494   1 
   6   5   5 42.1527 18.0983  -2 
   6   1   3 42.1527 18.0983   1 
   7   6   5 84.7232 21.6662  -2 
   7   1   3 84.7232 21.6662   1 
  -7   2   3 17.4121 33.7407   1 
   6   8   2 42.6830 21.2242  -2 
  -6   2   3 42.6830 21.2242   1 
   5   7   1 4.17136 18.3033  -2 
  -5   2   3 4.17136 18.3033   1 
   4   6   1 29.5262 9.37071  -2 
  -4   2   3 29.5262 9.37071   1 
  -3   2   3 165.178 12.6769   1 
   2   4   0 483.744 26.6879  -2 
  -2   2   3 483.744 26.6879   1 
  -1   2   3 381.140 18.1795   1 
   0  -2   1 263.310 16.9796  -2 
   0   2   3 263.310 16.9796   1 
   1   2   3 43.3341 2.92386   1 
   2   0   2 1287.79 76.0974  -2 
   2   2   3 1287.79 76.0974   1 
   3   2   3 297.693 30.2253   1 
   4   2   3 1103.51 66.5182  -2 
   4   2   3 1103.51 66.5182   1 
   5   3   3 123.367 19.9940  -2 
   5   2   3 123.367 19.9940   1 
   6   4   4 -6.0133 14.2164  -2 
   6   2   3 -6.0133 14.2164   1 
   7   5   4 90.1176 19.3464  -2 
   7   2   3 90.1176 19.3464   1 
   6   9   3 143.830 57.4587  -2 
  -6   3   3 143.830 57.4587   1 
   5   8   2 27.1693 14.0302  -2 
  -5   3   3 27.1693 14.0302   1 
   4   7   2 710.125 36.5390  -2 
  -4   3   3 710.125 36.5390   1 
   3   6   1 67.2818 11.3503  -2 
  -3   3   3 67.2818 11.3503   1 
   2   5   1 837.622 40.0932  -2 
  -2   3   3 837.622 40.0932   1 
  -1   3   3 163.815 9.24504   1 
   0   3   0 3661.75 166.957  -2 
   0   3   3 3661.75 166.957   1 
   1   3   3 11.3116 11.3013   1 
   2  -1   1 649.600 49.2459  -2 
   2   3   3 649.600 49.2459   1 
   4   1   2 1492.29 88.8593  -2 
   4   3   3 1492.29 88.8593   1 
   5   2   2 64.8590 16.4849  -2 
   5   3   3 64.8590 16.4849   1 
   6   3   3 206.241 17.6317  -2 
   6   3   3 206.241 17.6317   1 
  -6  -3   7 77.3326 40.7941  -3 
   7   3   3 77.3326 40.7941   1 
   8   5   4 120.979 18.4991  -2 
   8   3   3 120.979 18.4991   1 
   5   9   3 64.7950 22.1820  -2 
  -5   4   3 64.7950 22.1820   1 
   6  -1   1 258.770 63.7793  -3 
   4   8   3 258.770 63.7793  -2 
  -4   4   3 258.770 63.7793   1 
   4   8   3 214.785 26.3925  -2 
  -4   4   3 214.785 26.3925   1 
   3   7   2 23.3102 17.1897  -2 
  -3   4   3 23.3102 17.1897   1 
   5  -1   1 -25.685 57.6744  -3 
   3   7   3 -25.685 57.6744  -2 
  -3   4   3 -25.685 57.6744   1 
   2   6   2 88.0974 10.7884  -2 
  -2   4   3 88.0974 10.7884   1 
   4  -1   2 74.2195 42.7548  -3 
   2   6   2 74.2195 42.7548  -2 
  -2   4   3 74.2195 42.7548   1 
  -1   4   3 -4.8951 3.94964   1 
   0   4   1 685.909 32.3948  -2 
   0   4   3 685.909 32.3948   1 
   1   4   3 81.5346 7.42316   1 
  -2   2   0 -0.9926 13.3969  -2 
   2   4   3 -0.9926 13.3969   1 
   3   4   3 -2.8450 3.64158   1 
   4   0   1 662.147 40.5402  -2 
   4   4   3 662.147 40.5402   1 
   5   1   1 0.15603 13.7609  -2 
   5   4   3 0.15603 13.7609   1 
   6   2   2 170.346 17.6329  -2 
   6   4   3 170.346 17.6329   1 
  -7  -4   7 53.9641 26.4512  -3 
   8   4   3 53.9641 26.4512  -2 
   8   4   3 53.9641 26.4512   1 
   4   9   4 166.841 54.8139  -2 
  -4   5   3 166.841 54.8139   1 
   3   8   3 42.2091 18.8065  -2 
  -3   5   3 42.2091 18.8065   1 
   2   7   3 645.418 33.1179  -2 
  -2   5   3 645.418 33.1179   1 
  -1   5   3 3.17911 5.18333   1 
   0   5   2 527.095 25.7077  -2 
   0   5   3 527.095 25.7077   1 
   1   5   3 4.16235 13.9443   1 
   0  -3   4 211.184 29.6518  -3 
  -2   3   1 211.184 29.6518  -2 
   2   5   3 211.184 29.6518   1 
   3   5   3 300.700 33.6302   1 
  -4   1   0 519.141 55.4611  -2 
   4   5   3 519.141 55.4611   1 
   5   5   3 -2.9889 11.9058   1 
   6   1   1 179.585 30.9529  -2 
   6   5   3 179.585 30.9529   1 
   7   2   1 116.174 31.3467  -2 
   7   5   3 116.174 31.3467   1 
   8   3   2 51.3741 22.2233  -2 
   8   5   3 51.3741 22.2233   1 
   3   9   4 117.381 23.2122  -2 
  -3   6   3 117.381 23.2122   1 
   2   8   4 43.1085 17.2244  -2 
  -2   6   3 43.1085 17.2244   1 
  -1   6   3 22.5333 21.9118   1 
   0   6   3 1709.29 100.787  -2 
   0   6   3 1709.29 100.787   1 
  -1   5   3 26.4331 27.2289  -2 
   1   6   3 26.4331 27.2289   1 
  -2   4   2 44.7593 18.7042  -2 
   2   6   3 44.7593 18.7042   1 
   3   6   3 40.9744 14.7080   1 
  -4   2   1 1106.81 110.938  -2 
   4   6   3 1106.81 110.938   1 
   5   6   3 27.5706 15.3510   1 
  -4  -5   6 39.8627 28.4014  -3 
   6   0   0 39.8627 28.4014  -2 
   6   6   3 39.8627 28.4014   1 
   7   6   3 25.3714 17.2238   1 
   8   2   1 211.940 38.9304  -2 
   8   6   3 211.940 38.9304   1 
   2   9   5 92.6547 20.3719  -2 
  -2   7   3 92.6547 20.3719   1 
   4  -4   2 22.1497 26.3733  -3 
  -1   7   3 22.1497 26.3733   1 
   3  -4   3 256.150 22.8145  -3 
   0   7   4 256.150 22.8145  -2 
   0   7   3 256.150 22.8145   1 
  -2   5   3 429.613 27.5105  -2 
   2   7   3 429.613 27.5105   1 
   3   7   3 7.53382 14.6763   1 
  -4   3   2 71.4518 30.6198  -2 
   4   7   3 71.4518 30.6198   1 
   5   7   3 11.9668 18.3242   1 
   7   7   3 5.77857 19.7754   1 
   8   1   0 18.3933 34.4512  -2 
   8   7   3 18.3933 34.4512   1 
   4  -5   2 123.091 46.5143  -3 
  -1   8   3 123.091 46.5143   1 
   0   8   5 240.874 26.7772  -2 
   0   8   3 240.874 26.7772   1 
   3  -5   3 230.683 45.4317  -3 
   0   8   5 230.683 45.4317  -2 
   0   8   3 230.683 45.4317   1 
  -2   6   4 12.1699 18.2443  -2 
   2   8   3 12.1699 18.2443   1 
   3   8   3 20.7004 14.5830   1 
  -1  -6   5 214.652 38.4624  -3 
  -4   4   3 214.652 38.4624  -2 
   4   8   3 214.652 38.4624   1 
   5   8   3 -5.5363 20.6561   1 
  -6   2   2 34.1105 34.4150  -2 
   6   8   3 34.1105 34.4150   1 
   7   8   3 24.8975 23.7912   1 
  -1   8   6 167.753 24.4713  -2 
   1   9   3 167.753 24.4713   1 
  -2   7   5 99.3794 24.9669  -2 
   2   9   3 99.3794 24.9669   1 
   3   9   3 22.9866 16.1986   1 
  -1  -7   5 264.045 44.2962  -3 
  -4   5   4 264.045 44.2962  -2 
   4   9   3 264.045 44.2962   1 
   5   9   3 15.0141 20.3145   1 
  -6   3   3 217.476 47.0797  -2 
   6   9   3 217.476 47.0797   1 
  -6   2   9 254.795 51.5119  -2 
  -6  -8   4 254.795 51.5119   1 
  -2   6  11 25.3591 14.8551  -2 
  -2  -8   4 25.3591 14.8551   1 
  -7   0   8 84.7873 35.2460  -2 
  -7  -7   4 84.7873 35.2460   1 
  -6   1   8 26.2842 35.5525  -2 
  -6  -7   4 26.2842 35.5525   1 
  -4   3   9 13.4681 31.4620  -2 
  -4  -7   4 13.4681 31.4620   1 
  -2   5  10 18.5585 16.5009  -2 
  -2  -7   4 18.5585 16.5009   1 
  -1  -7   4 90.8827 17.0663   1 
  -2   7   4 51.0847 21.3130  -3 
   0   7  11 51.0847 21.3130  -2 
   0  -7   4 51.0847 21.3130   1 
  -8  -2   6 63.4174 30.1326  -2 
  -8  -6   4 63.4174 30.1326   1 
  -7  -1   7 6.93996 38.2291  -2 
  -7  -6   4 6.93996 38.2291   1 
   5   8   1 215.106 44.4325  -3 
  -6   0   7 215.106 44.4325  -2 
  -6  -6   4 215.106 44.4325   1 
  -5   1   8 625.823 72.5491  -2 
  -5  -6   4 625.823 72.5491   1 
  -4   2   8 768.121 81.7612  -2 
  -4  -6   4 768.121 81.7612   1 
  -3  -6   4 186.383 19.3170   1 
  -2   4   9 210.088 22.4867  -2 
  -2  -6   4 210.088 22.4867   1 
  -1  -6   4 66.3219 14.9721   1 
   0   6  10 93.1747 18.4816  -2 
   0  -6   4 93.1747 18.4816   1 
   1  -6   4 98.4892 17.5874   1 
  -8  -3   5 15.1596 28.2998  -2 
  -8  -5   4 15.1596 28.2998   1 
  -7  -2   6 64.7604 28.9995  -2 
  -7  -5   4 64.7604 28.9995   1 
   5   7   0 290.672 36.8141  -3 
  -6  -1   6 290.672 36.8141  -2 
  -6  -5   4 290.672 36.8141   1 
  -4   1   7 89.8731 12.6835  -2 
  -4  -5   4 89.8731 12.6835   1 
  -3   2   8 156.110 23.2720  -2 
  -3  -5   4 156.110 23.2720   1 
  -2   3   8 128.818 15.9630  -2 
  -2  -5   4 128.818 15.9630   1 
   1   6   3 123.319 18.5028  -3 
  -2   3   8 123.319 18.5028  -2 
  -2  -5   4 123.319 18.5028   1 
  -1  -5   4 74.9493 8.26581   1 
   0   5   9 19.5322 11.3071  -2 
   0  -5   4 19.5322 11.3071   1 
   1  -5   4 5.24638 7.14360   1 
   2   7  10 157.243 16.8723  -2 
   2  -5   4 157.243 16.8723   1 
   3   8  10 113.632 18.4634  -2 
   3  -5   4 113.632 18.4634   1 
  -8  -4   4 61.3037 26.4605  -2 
  -8  -4   4 61.3037 26.4605   1 
  -7  -3   5 74.7996 15.3471  -2 
  -7  -4   4 74.7996 15.3471   1 
  -6  -2   5 34.4955 13.2123  -2 
  -6  -4   4 34.4955 13.2123   1 
  -5  -1   6 -4.8625 12.8573  -2 
  -5  -4   4 -4.8625 12.8573   1 
  -4   0   6 104.316 13.3958  -2 
  -4  -4   4 104.316 13.3958   1 
  -3   1   7 285.751 21.2195  -2 
  -3  -4   4 285.751 21.2195   1 
  -2   2   7 -3.7194 8.35318  -2 
  -2  -4   4 -3.7194 8.35318   1 
   0   5   3 198.897 21.1277  -3 
  -1  -4   4 198.897 21.1277   1 
   0   4   8 63.8014 9.25698  -2 
   0  -4   4 63.8014 9.25698   1 
   1   5   8 530.698 32.5676  -2 
   1  -4   4 530.698 32.5676   1 
   2   6   9 31.2001 12.8656  -2 
   2  -4   4 31.2001 12.8656   1 
   3   7   9 71.2919 23.8976  -2 
   3  -4   4 71.2919 23.8976   1 
   4   8  10 100.176 25.6956  -2 
   4  -4   4 100.176 25.6956   1 
  -7  -4   4 79.5802 19.2366  -2 
  -7  -3   4 79.5802 19.2366   1 
  -6  -3   4 630.084 36.2143  -2 
  -6  -3   4 630.084 36.2143   1 
  -5  -2   5 57.0239 13.6654  -2 
  -5  -3   4 57.0239 13.6654   1 
  -4  -1   5 163.033 12.9756  -2 
  -4  -3   4 163.033 12.9756   1 
  -3  -3   4 217.089 11.6820   1 
  -2   1   6 2127.10 98.7372  -2 
  -2  -3   4 2127.10 98.7372   1 
  -1  -3   4 -4.4179 5.92050   1 
   0   3   7 4.54172 6.26997  -2 
   0  -3   4 4.54172 6.26997   1 
   1   4   7 324.713 29.3562  -2 
   1  -3   4 324.713 29.3562   1 
   2   5   8 483.219 29.3288  -2 
   2  -3   4 483.219 29.3288   1 
  -4   3   5 72.6727 18.4223  -3 
   3   6   8 72.6727 18.4223  -2 
   3  -3   4 72.6727 18.4223   1 
  -5   3   6 27.7517 31.9572  -3 
   4   7   9 27.7517 31.9572  -2 
   4  -3   4 27.7517 31.9572   1 
   5   8   9 186.742 29.7668  -2 
   5  -3   4 186.742 29.7668   1 
  -8  -6   2 -26.668 54.0108  -2 
  -8  -2   4 -26.668 54.0108   1 
   7   5   0 -60.715 59.2307  -3 
  -7  -2   4 -60.715 59.2307   1 
  -7  -5   3 35.8611 20.8565  -2 
  -7  -2   4 35.8611 20.8565   1 
  -6  -4   3 131.081 20.2683  -2 
  -6  -2   4 131.081 20.2683   1 
  -5  -3   4 0.85019 12.5044  -2 
  -5  -2   4 0.85019 12.5044   1 
  -4  -2   4 75.0325 9.68559  -2 
  -4  -2   4 75.0325 9.68559   1 
  -2   0   5 270.432 12.7987  -2 
  -2  -2   4 270.432 12.7987   1 
  -1  -2   4 0.26177 2.64233   1 
   0   2   6 106.168 11.8397  -2 
   0  -2   4 106.168 11.8397   1 
   1  -2   4 13.3074 5.45770   1 
   2   4   7 48.0080 10.1490  -2 
   2  -2   4 48.0080 10.1490   1 
   3   5   7 129.255 16.7879  -2 
   3  -2   4 129.255 16.7879   1 
   4   6   8 40.5066 12.8917  -2 
   4  -2   4 40.5066 12.8917   1 
   5   7   8 230.164 18.7764  -2 
   5  -2   4 230.164 18.7764   1 
   6  -2   4 45.5730 16.4488   1 
  -8  -7   1 -33.403 57.9875  -2 
  -8  -1   4 -33.403 57.9875   1 
  -7  -6   2 -3.2516 21.5481  -2 
  -7  -1   4 -3.2516 21.5481   1 
  -6  -5   2 201.267 23.2085  -2 
  -6  -1   4 201.267 23.2085   1 
  -5  -4   3 49.1078 16.4235  -2 
  -5  -1   4 49.1078 16.4235   1 
  -4  -3   3 155.891 15.5852  -2 
  -4  -1   4 155.891 15.5852   1 
  -3  -2   4 1211.93 122.455  -2 
  -3  -1   4 1211.93 122.455   1 
  -2  -1   4 567.324 29.5657  -2 
  -2  -1   4 567.324 29.5657   1 
  -1  -1   4 91.9096 6.89953   1 
   0   1   5 320.200 26.7501  -2 
   0  -1   4 320.200 26.7501   1 
   3   4   6 27.5544 10.6032  -2 
   3  -1   4 27.5544 10.6032   1 
   4   5   7 48.3648 12.0160  -2 
   4  -1   4 48.3648 12.0160   1 
   5   6   7 161.135 20.0497  -2 
   5  -1   4 161.135 20.0497   1 
  -6   1   7 103.807 23.6891  -3 
   6  -1   4 103.807 23.6891   1 
  -7   0   4 -23.098 37.1198   1 
   7   3   1 576.558 84.0339  -3 
  -6  -6   1 576.558 84.0339  -2 
  -6   0   4 576.558 84.0339   1 
  -6  -6   1 463.565 42.6651  -2 
  -6   0   4 463.565 42.6651   1 
   6   3   1 62.4725 58.1432  -3 
  -5   0   4 62.4725 58.1432   1 
  -5  -5   2 1.26245 16.2538  -2 
  -5   0   4 1.26245 16.2538   1 
  -4  -4   2 562.379 37.1502  -2 
  -4   0   4 562.379 37.1502   1 
  -3   0   4 104.214 10.9740   1 
  -2  -2   3 2133.03 125.942  -2 
  -2   0   4 2133.03 125.942   1 
  -1   0   4 105.765 7.00499   1 
   0   0   4 597.354 46.9690  -2 
   0   0   4 597.354 46.9690   1 
   1   0   4 23.2058 4.09964   1 
   2   2   5 1455.40 65.6322  -2 
   2   0   4 1455.40 65.6322   1 
   3   3   5 89.2222 10.2698  -2 
   3   0   4 89.2222 10.2698   1 
   4   4   6 166.618 13.6787  -2 
   4   0   4 166.618 13.6787   1 
  -5   0   6 98.0058 17.6308  -3 
   5   5   6 98.0058 17.6308  -2 
   5   0   4 98.0058 17.6308   1 
  -6   0   7 169.338 30.3198  -3 
   6   6   7 169.338 30.3198  -2 
   6   0   4 169.338 30.3198   1 
  -7   1   4 -26.022 33.6128   1 
   6   7   0 35.1644 20.6206  -2 
  -6   1   4 35.1644 20.6206   1 
   6   2   1 95.9431 58.5344  -3 
  -5   1   4 95.9431 58.5344   1 
  -4  -5   1 552.256 69.7436  -2 
  -4   1   4 552.256 69.7436   1 
  -3   1   4 20.7133 5.71716   1 
  -2  -3   2 42.1836 8.35682  -2 
  -2   1   4 42.1836 8.35682   1 
   2   1   3 57.6116 22.2217  -3 
  -1   1   4 57.6116 22.2217   1 
   0  -1   3 555.098 30.1468  -2 
   0   1   4 555.098 30.1468   1 
   1   1   4 435.634 45.9214  -3 
   0  -1   3 435.634 45.9214  -2 
   0   1   4 435.634 45.9214   1 
   1   1   4 257.248 22.0128   1 
   2   1   4 72.7708 12.9634  -2 
   2   1   4 72.7708 12.9634   1 
   3   2   4 166.507 19.9835  -2 
   3   1   4 166.507 19.9835   1 
   4   3   5 260.691 26.9672  -2 
   4   1   4 260.691 26.9672   1 
   5   4   5 111.241 14.0644  -2 
   5   1   4 111.241 14.0644   1 
   6   5   6 57.8471 23.3558  -2 
   6   1   4 57.8471 23.3558   1 
   7   6   6 71.2031 22.1651  -2 
   7   1   4 71.2031 22.1651   1 
   6   8   1 182.803 26.1351  -2 
  -6   2   4 182.803 26.1351   1 
   5   7   0 15.3852 18.7260  -2 
  -5   2   4 15.3852 18.7260   1 
   4   6   0 35.3907 15.5778  -2 
  -4   2   4 35.3907 15.5778   1 
  -3   2   4 88.4682 8.37404   1 
  -2  -4   1 2848.60 168.400  -2 
  -2   2   4 2848.60 168.400   1 
  -1   2   4 41.7032 4.66863   1 
   0  -2   2 355.482 27.4617  -2 
   0   2   4 355.482 27.4617   1 
   1   2   4 295.183 24.2307   1 
   2   0   3 620.066 37.4125  -2 
   2   2   4 620.066 37.4125   1 
   3   2   4 162.178 17.9994   1 
  -3  -1   6 6.71485 9.98995  -3 
   4   2   4 6.71485 9.98995  -2 
   4   2   4 6.71485 9.98995   1 
   5   3   4 82.3633 19.4341  -2 
   5   2   4 82.3633 19.4341   1 
   6   4   5 189.125 18.2231  -2 
   6   2   4 189.125 18.2231   1 
   7   5   5 80.6420 21.4445  -2 
   7   2   4 80.6420 21.4445   1 
   8   1   1 43.5755 74.2051  -3 
   6   9   2 43.5755 74.2051  -2 
  -6   3   4 43.5755 74.2051   1 
  -5   3   4 4.66923 9.68585   1 
   4   7   1 595.835 42.6270  -2 
  -4   3   4 595.835 42.6270   1 
  -3   3   4 -6.4987 3.97126   1 
   2   5   0 477.733 24.1173  -2 
  -2   3   4 477.733 24.1173   1 
  -1   3   4 246.171 12.7141   1 
   0  -3   1 1085.10 64.2500  -2 
   0   3   4 1085.10 64.2500   1 
   1   3   4 58.2238 4.31193   1 
   2  -1   2 195.917 22.3830  -2 
   2   3   4 195.917 22.3830   1 
   3   0   2 95.2276 12.8562  -2 
   3   3   4 95.2276 12.8562   1 
   4   1   3 838.617 82.1509  -2 
   4   3   4 838.617 82.1509   1 
   5   2   3 127.328 19.8452  -2 
   5   3   4 127.328 19.8452   1 
   6   3   4 199.542 25.7733  -2 
   6   3   4 199.542 25.7733   1 
   7   4   4 164.547 24.0755  -2 
   7   3   4 164.547 24.0755   1 
   5   9   2 1.81939 22.5526  -2 
  -5   4   4 1.81939 22.5526   1 
   4   8   2 63.1336 13.2395  -2 
  -4   4   4 63.1336 13.2395   1 
   5  -1   2 12.3367 51.5506  -3 
  -3   4   4 12.3367 51.5506   1 
   4  -1   3 24.0609 10.6913  -3 
   2   6   1 24.0609 10.6913  -2 
  -2   4   4 24.0609 10.6913   1 
  -1   4   4 170.538 13.2483   1 
   0   4   0 85.2338 6.36149  -2 
   0   4   4 85.2338 6.36149   1 
   1   4   4 146.548 10.6820   1 
   2  -2   1 335.242 25.8508  -2 
   2   4   4 335.242 25.8508   1 
   3   4   4 68.8840 8.29779   1 
   4   0   2 14.6496 7.86191  -2 
   4   4   4 14.6496 7.86191   1 
   5   1   2 11.0006 15.5937  -2 
   5   4   4 11.0006 15.5937   1 
   6   2   3 26.9328 13.7889  -2 
   6   4   4 26.9328 13.7889   1 
   7   3   3 188.202 24.6346  -2 
   7   4   4 188.202 24.6346   1 
   8   4   4 36.2697 24.3542  -2 
   8   4   4 36.2697 24.3542   1 
   4   9   3 304.743 64.0931  -2 
  -4   5   4 304.743 64.0931   1 
   3   8   2 66.0346 19.6418  -2 
  -3   5   4 66.0346 19.6418   1 
   2   7   2 377.539 21.5522  -2 
  -2   5   4 377.539 21.5522   1 
  -1   5   4 48.6858 7.17659   1 
   0   5   1 839.776 39.6567  -2 
   0   5   4 839.776 39.6567   1 
   1   5   4 32.4119 6.98783   1 
   3   5   4 77.6230 15.5422   1 
   4  -1   1 1239.85 121.927  -2 
   4   5   4 1239.85 121.927   1 
   5   5   4 14.6583 13.1949   1 
   8   3   3 133.959 25.2369  -2 
   8   5   4 133.959 25.2369   1 
   6  -2   2 155.342 61.9750  -3 
   3   9   4 155.342 61.9750  -2 
  -3   6   4 155.342 61.9750   1 
   6  -2   3 109.779 25.1606  -3 
   3   9   3 109.779 25.1606  -2 
  -3   6   4 109.779 25.1606   1 
   2   8   3 75.9562 19.3462  -2 
  -2   6   4 75.9562 19.3462   1 
  -1   6   4 49.7692 23.9646   1 
   0   6   2 112.953 15.1163  -2 
   0   6   4 112.953 15.1163   1 
  -2   4   1 -10.567 17.7759  -2 
   2   6   4 -10.567 17.7759   1 
   3   6   4 20.1718 14.3472   1 
  -4   2   0 741.934 78.3066  -2 
   4   6   4 741.934 78.3066   1 
   5   6   4 -7.0128 16.7922   1 
   6   0   1 25.4627 26.2489  -2 
   6   6   4 25.4627 26.2489   1 
   7   6   4 15.7856 17.0656   1 
  -6  -5   8 71.8098 37.3938  -3 
   8   2   2 71.8098 37.3938  -2 
   8   6   4 71.8098 37.3938   1 
   2   9   4 135.838 23.6802  -2 
  -2   7   4 135.838 23.6802   1 
   1   8   3 73.8304 20.0126  -2 
  -1   7   4 73.8304 20.0126   1 
   0   7   3 261.930 21.7945  -2 
   0   7   4 261.930 21.7945   1 
   1  -4   5 34.3123 14.3804  -3 
  -2   5   2 34.3123 14.3804  -2 
   2   7   4 34.3123 14.3804   1 
   3   7   4 78.2889 19.1804   1 
  -4   3   1 142.363 33.1029  -2 
   4   7   4 142.363 33.1029   1 
   5   7   4 3.28248 18.8869   1 
  -6   1   0 90.6637 32.6311  -2 
   6   7   4 90.6637 32.6311   1 
   7   7   4 102.401 25.4411   1 
  -6  -6   8 126.842 43.0881  -3 
   8   1   1 126.842 43.0881  -2 
   8   7   4 126.842 43.0881   1 
  -1   8   4 18.7534 28.2943   1 
   0   8   4 546.132 45.3844  -2 
   0   8   4 546.132 45.3844   1 
   1   8   4 40.3415 17.8902   1 
  -2   6   3 0.47748 19.7566  -2 
   2   8   4 0.47748 19.7566   1 
   3   8   4 47.2266 16.2073   1 
  -4   4   2 435.011 52.7170  -2 
   4   8   4 435.011 52.7170   1 
   5   8   4 12.4959 20.4966   1 
  -3  -6   7 26.3137 41.5166  -3 
  -6   2   1 26.3137 41.5166  -2 
   6   8   4 26.3137 41.5166   1 
   7   8   4 13.6154 22.5186   1 
   1   9   4 26.5224 18.1854   1 
  -2   7   4 63.4040 23.1052  -2 
   2   9   4 63.4040 23.1052   1 
   3   9   4 -2.5722 15.0831   1 
  -4   5   3 43.6367 29.5295  -2 
   4   9   4 43.6367 29.5295   1 
   5   9   4 -3.6032 20.8226   1 
  -3  -7   7 155.150 50.2663  -3 
  -6   3   2 155.150 50.2663  -2 
   6   9   4 155.150 50.2663   1 
  -6   1   9 -2.3583 35.1627  -2 
  -6  -7   5 -2.3583 35.1627   1 
  -3  -7   5 36.1261 12.8674   1 
  -2   5  11 22.2506 17.2381  -2 
  -2  -7   5 22.2506 17.2381   1 
  -1  -7   5 158.887 20.7709   1 
  -7  -1   8 48.4801 32.0009  -2 
  -7  -6   5 48.4801 32.0009   1 
  -6   0   8 121.376 28.4472  -2 
  -6  -6   5 121.376 28.4472   1 
   4   8   2 160.307 44.7627  -3 
  -5   1   9 160.307 44.7627  -2 
  -5  -6   5 160.307 44.7627   1 
  -4   2   9 48.5574 18.0900  -2 
  -4  -6   5 48.5574 18.0900   1 
  -3  -6   5 61.5574 14.0040   1 
  -2   4  10 81.2916 15.4302  -2 
  -2  -6   5 81.2916 15.4302   1 
  -1  -6   5 2.52973 11.6369   1 
   0   6  11 84.7227 18.7052  -2 
   0  -6   5 84.7227 18.7052   1 
   1  -6   5 26.0059 13.4299   1 
   7   8   0 -22.518 39.5610  -3 
  -8  -3   6 -22.518 39.5610  -2 
  -8  -5   5 -22.518 39.5610   1 
  -7  -2   7 29.7003 29.6188  -2 
  -7  -5   5 29.7003 29.6188   1 
  -6  -1   7 70.0194 15.4827  -2 
  -6  -5   5 70.0194 15.4827   1 
  -5   0   8 408.484 41.1089  -2 
  -5  -5   5 408.484 41.1089   1 
  -4   1   8 77.2611 25.3054  -2 
  -4  -5   5 77.2611 25.3054   1 
   3   7   3 35.7738 18.8807  -3 
  -4   1   8 35.7738 18.8807  -2 
  -4  -5   5 35.7738 18.8807   1 
  -3   2   9 209.028 27.6827  -2 
  -3  -5   5 209.028 27.6827   1 
  -2   3   9 33.4265 9.74145  -2 
  -2  -5   5 33.4265 9.74145   1 
  -1  -5   5 95.1415 10.1585   1 
  -1   6   5 38.4728 13.3676  -3 
   0   5  10 38.4728 13.3676  -2 
   0  -5   5 38.4728 13.3676   1 
   1   6  10 174.329 17.8231  -2 
   1  -5   5 174.329 17.8231   1 
   2   7  11 42.1523 13.2295  -2 
   2  -5   5 42.1523 13.2295   1 
   3   8  11 232.777 30.5135  -2 
   3  -5   5 232.777 30.5135   1 
  -8  -4   5 22.6667 27.2138  -2 
  -8  -4   5 22.6667 27.2138   1 
  -7  -3   6 22.9773 18.1448  -2 
  -7  -4   5 22.9773 18.1448   1 
  -6  -2   6 140.379 16.0431  -2 
  -6  -4   5 140.379 16.0431   1 
  -5  -1   7 194.866 18.2002  -2 
  -5  -4   5 194.866 18.2002   1 
  -4   0   7 391.317 20.3662  -2 
  -4  -4   5 391.317 20.3662   1 
  -3   1   8 808.216 50.2888  -2 
  -3  -4   5 808.216 50.2888   1 
  -2   2   8 665.226 53.2944  -2 
  -2  -4   5 665.226 53.2944   1 
  -1  -4   5 105.067 10.2713   1 
   0   4   9 211.294 20.3279  -2 
   0  -4   5 211.294 20.3279   1 
  -1   5   5 265.670 28.6826  -3 
   0   4   9 265.670 28.6826  -2 
   0  -4   5 265.670 28.6826   1 
   1   5   9 258.799 30.4567  -2 
   1  -4   5 258.799 30.4567   1 
   2   6  10 167.894 15.9964  -2 
   2  -4   5 167.894 15.9964   1 
   3   7  10 50.9461 22.2811  -2 
   3  -4   5 50.9461 22.2811   1 
  -8  -5   4 -2.7541 52.2651  -2 
  -8  -3   5 -2.7541 52.2651   1 
  -5  -2   6 97.6298 19.0094  -2 
  -5  -3   5 97.6298 19.0094   1 
  -4  -1   6 37.0787 10.1652  -2 
  -4  -3   5 37.0787 10.1652   1 
  -3   0   7 501.714 33.3842  -2 
  -3  -3   5 501.714 33.3842   1 
  -2   1   7 950.245 51.6799  -2 
  -2  -3   5 950.245 51.6799   1 
  -1  -3   5 119.001 14.7561   1 
   0   3   8 8.00200 7.38448  -2 
   0  -3   5 8.00200 7.38448   1 
   1  -3   5 27.3346 7.02607   1 
   2   5   9 82.2530 13.4990  -2 
   2  -3   5 82.2530 13.4990   1 
   3   6   9 61.8538 16.0292  -2 
   3  -3   5 61.8538 16.0292   1 
   4   7  10 71.1407 16.3992  -2 
   4  -3   5 71.1407 16.3992   1 
  -8  -6   3 50.7210 57.9377  -2 
  -8  -2   5 50.7210 57.9377   1 
  -7  -5   4 -7.8095 18.8033  -2 
  -7  -2   5 -7.8095 18.8033   1 
  -6  -4   4 29.3054 17.6240  -2 
  -6  -2   5 29.3054 17.6240   1 
  -5  -3   5 119.906 57.8082  -2 
  -5  -2   5 119.906 57.8082   1 
  -4  -2   5 102.840 11.7834  -2 
  -4  -2   5 102.840 11.7834   1 
  -3  -1   6 492.486 27.6669  -2 
  -3  -2   5 492.486 27.6669   1 
  -2   0   6 133.802 13.7294  -2 
  -2  -2   5 133.802 13.7294   1 
   2   4   4 175.172 20.8162  -3 
  -2   0   6 175.172 20.8162  -2 
  -2  -2   5 175.172 20.8162   1 
  -1  -2   5 178.699 11.7572   1 
   0   2   7 39.6018 10.6971  -2 
   0  -2   5 39.6018 10.6971   1 
   1  -2   5 714.419 38.8053   1 
   2   4   8 33.7118 10.2927  -2 
   2  -2   5 33.7118 10.2927   1 
   3   5   8 85.7912 16.9097  -2 
   3  -2   5 85.7912 16.9097   1 
   4   6   9 46.9673 12.5937  -2 
   4  -2   5 46.9673 12.5937   1 
   5   7   9 200.577 20.7314  -2 
   5  -2   5 200.577 20.7314   1 
   6  -2   5 42.3228 18.2289   1 
  -8  -7   2 -41.146 62.0196  -2 
  -8  -1   5 -41.146 62.0196   1 
  -7  -6   3 119.483 25.6074  -2 
  -7  -1   5 119.483 25.6074   1 
  -6  -5   3 619.973 43.0866  -2 
  -6  -1   5 619.973 43.0866   1 
  -5  -4   4 23.2674 16.3448  -2 
  -5  -1   5 23.2674 16.3448   1 
  -4  -3   4 191.011 18.0210  -2 
  -4  -1   5 191.011 18.0210   1 
  -3  -1   5 386.183 30.2399   1 
  -2  -1   5 3262.49 163.244  -2 
  -2  -1   5 3262.49 163.244   1 
  -1  -1   5 38.9809 4.65117   1 
   0   1   6 68.0983 12.3020  -2 
   0  -1   5 68.0983 12.3020   1 
   1  -1   5 476.074 29.1711   1 
   2   3   7 1154.32 52.8005  -2 
   2  -1   5 1154.32 52.8005   1 
  -3   2   6 146.390 18.8891  -3 
   3   4   7 146.390 18.8891  -2 
   3  -1   5 146.390 18.8891   1 
   4   5   8 16.2933 14.7536  -2 
   4  -1   5 16.2933 14.7536   1 
   5   6   8 159.521 16.1286  -2 
   5  -1   5 159.521 16.1286   1 
   6  -1   5 48.1113 17.1773   1 
   8   4   1 -73.242 65.1128  -3 
  -7   0   5 -73.242 65.1128   1 
  -6  -6   2 233.210 24.9501  -2 
  -6   0   5 233.210 24.9501   1 
  -5  -5   3 24.2797 18.1746  -2 
  -5   0   5 24.2797 18.1746   1 
  -4  -4   3 153.214 18.9973  -2 
  -4   0   5 153.214 18.9973   1 
   5   3   3 199.671 49.8729  -3 
  -4  -4   3 199.671 49.8729  -2 
  -4   0   5 199.671 49.8729   1 
  -3   0   5 69.5318 9.65318   1 
  -2  -2   4 256.807 17.9190  -2 
  -2   0   5 256.807 17.9190   1 
  -1   0   5 16.6602 2.75920   1 
   0   0   5 246.584 16.4142  -2 
   0   0   5 246.584 16.4142   1 
   1   0   5 58.9055 6.88418   1 
   2   2   6 71.6316 11.5635  -2 
   2   0   5 71.6316 11.5635   1 
   3   3   6 91.5593 12.7990  -2 
   3   0   5 91.5593 12.7990   1 
   4   4   7 28.3483 13.6736  -2 
   4   0   5 28.3483 13.6736   1 
   5   5   7 317.445 20.7451  -2 
   5   0   5 317.445 20.7451   1 
   6   6   8 20.1369 26.9293  -2 
   6   0   5 20.1369 26.9293   1 
  -7   1   5 3.13965 37.4685   1 
  -6  -7   1 213.629 26.5243  -2 
  -6   1   5 213.629 26.5243   1 
  -5  -6   2 -8.0319 19.5735  -2 
  -5   1   5 -8.0319 19.5735   1 
  -4  -5   2 152.451 18.8760  -2 
  -4   1   5 152.451 18.8760   1 
   4   2   3 425.986 35.6833  -3 
  -3   1   5 425.986 35.6833   1 
  -2  -3   3 689.221 42.9338  -2 
  -2   1   5 689.221 42.9338   1 
  -1   1   5 74.5771 6.31001   1 
   0  -1   4 352.160 15.2095  -2 
   0   1   5 352.160 15.2095   1 
   1   1   5 395.664 32.2940   1 
   2   1   5 1071.92 82.4351  -2 
   2   1   5 1071.92 82.4351   1 
   3   1   5 10.2117 5.49429   1 
   4   3   6 -0.3227 17.1298  -2 
   4   1   5 -0.3227 17.1298   1 
   5   4   6 202.729 17.9728  -2 
   5   1   5 202.729 17.9728   1 
   6   5   7 97.3869 25.5082  -2 
   6   1   5 97.3869 25.5082   1 
   6   8   0 274.871 30.5588  -2 
  -6   2   5 274.871 30.5588   1 
  -5  -7   1 10.5217 20.4091  -2 
  -5   2   5 10.5217 20.4091   1 
  -4  -6   1 175.134 20.3706  -2 
  -4   2   5 175.134 20.3706   1 
  -3   2   5 133.530 12.2713   1 
  -2  -4   2 1243.80 75.2994  -2 
  -2   2   5 1243.80 75.2994   1 
  -1   2   5 239.561 19.5150   1 
   0  -2   3 1090.80 50.9895  -2 
   0   2   5 1090.80 50.9895   1 
   0   0   5 7.02325 14.0028  -3 
   1   2   5 7.02325 14.0028   1 
   2   0   4 1489.32 112.965  -2 
   2   2   5 1489.32 112.965   1 
   3   1   4 46.4935 14.6098  -2 
   3   2   5 46.4935 14.6098   1 
   4   2   5 71.6203 11.3284  -2 
   4   2   5 71.6203 11.3284   1 
   5   3   5 143.235 28.0743  -2 
   5   2   5 143.235 28.0743   1 
   7   5   6 81.5827 21.9789  -2 
   7   2   5 81.5827 21.9789   1 
   8   1   2 -11.862 77.8954  -3 
   6   9   1 -11.862 77.8954  -2 
  -6   3   5 -11.862 77.8954   1 
   7   1   2 11.1715 41.0727  -3 
  -5   3   5 11.1715 41.0727   1 
   6   1   3 220.321 29.3878  -3 
   4   7   0 220.321 29.3878  -2 
  -4   3   5 220.321 29.3878   1 
   4   7   0 265.299 59.5611  -2 
  -4   3   5 265.299 59.5611   1 
  -3   3   5 32.5585 7.78970   1 
  -2  -5   1 41.9008 11.9860  -2 
  -2   3   5 41.9008 11.9860   1 
  -1   3   5 14.4564 4.55861   1 
   0  -3   2 273.183 18.5958  -2 
   0   3   5 273.183 18.5958   1 
   1  -2   2 906.700 90.6448  -2 
   1   3   5 906.700 90.6448   1 
   2  -1   3 12.8686 8.38972  -2 
   2   3   5 12.8686 8.38972   1 
   3   0   3 203.590 20.2894  -2 
   3   3   5 203.590 20.2894   1 
   4   1   4 234.543 17.4772  -2 
   4   3   5 234.543 17.4772   1 
   5   3   5 199.729 25.4171   1 
  -5  -2   8 233.289 20.8928  -3 
   6   3   5 233.289 20.8928  -2 
   6   3   5 233.289 20.8928   1 
   7   4   5 49.9718 18.4057  -2 
   7   3   5 49.9718 18.4057   1 
  -5   4   5 2.79028 9.72264   1 
   4   8   1 38.3633 51.5086  -2 
  -4   4   5 38.3633 51.5086   1 
  -3   4   5 19.8917 8.49428   1 
   2   6   0 1027.41 65.0372  -2 
  -2   4   5 1027.41 65.0372   1 
   2  -1   5 207.611 14.4885  -3 
   0  -4   1 207.611 14.4885  -2 
   0   4   5 207.611 14.4885   1 
   1   4   5 344.537 19.3650   1 
   2  -2   2 1887.58 181.154  -2 
   2   4   5 1887.58 181.154   1 
  -2  -2   7 131.254 23.3970  -3 
   4   0   3 131.254 23.3970  -2 
   4   4   5 131.254 23.3970   1 
   5   1   3 34.9529 16.8428  -2 
   5   4   5 34.9529 16.8428   1 
   6   2   4 215.126 19.5161  -2 
   6   4   5 215.126 19.5161   1 
   7   3   4 57.4523 19.6912  -2 
   7   4   5 57.4523 19.6912   1 
   8   4   5 83.4200 22.7830  -2 
   8   4   5 83.4200 22.7830   1 
   4   9   2 322.030 65.6996  -2 
  -4   5   5 322.030 65.6996   1 
  -3   5   5 5.10841 7.70476   1 
   2   7   1 67.9570 11.6323  -2 
  -2   5   5 67.9570 11.6323   1 
  -1   5   5 -2.2915 5.27728   1 
   0   5   0 1210.64 71.1330  -2 
   0   5   5 1210.64 71.1330   1 
   1   5   5 32.5062 17.6056   1 
   2  -3   1 51.5497 19.7360  -2 
   2   5   5 51.5497 19.7360   1 
   3   5   5 4.73930 12.7377   1 
  -2  -3   7 445.802 51.3820  -3 
   4  -1   2 445.802 51.3820  -2 
   4   5   5 445.802 51.3820   1 
   5   5   5 0.36352 12.2422   1 
   6   1   3 33.2714 25.6287  -2 
   6   5   5 33.2714 25.6287   1 
  -6  -4   9 189.566 30.3866  -3 
   8   3   4 189.566 30.3866  -2 
   8   5   5 189.566 30.3866   1 
   6  -2   3 142.758 58.2356  -3 
  -3   6   5 142.758 58.2356   1 
   3   9   2 71.2533 20.7449  -2 
  -3   6   5 71.2533 20.7449   1 
   5  -2   4 111.388 54.5381  -3 
   2   8   2 111.388 54.5381  -2 
  -2   6   5 111.388 54.5381   1 
   4  -2   4 63.0423 43.7484  -3 
   1   7   2 63.0423 43.7484  -2 
  -1   6   5 63.0423 43.7484   1 
   0   6   1 91.1568 14.3983  -2 
   0   6   5 91.1568 14.3983   1 
  -1   5   1 -15.336 33.0103  -2 
   1   6   5 -15.336 33.0103   1 
  -2   4   0 250.740 32.8572  -2 
   2   6   5 250.740 32.8572   1 
   3   6   5 60.5866 17.1347   1 
   4  -2   1 8.28976 27.7699  -2 
   4   6   5 8.28976 27.7699   1 
   5   6   5 47.4503 18.9171   1 
   6   0   2 93.2926 29.1803  -2 
   6   6   5 93.2926 29.1803   1 
   7   6   5 54.7034 19.7134   1 
  -6  -5   9 2.39382 40.4556  -3 
   8   2   3 2.39382 40.4556  -2 
   8   6   5 2.39382 40.4556   1 
   5  -3   4 271.479 33.5816  -3 
   2   9   3 271.479 33.5816  -2 
  -2   7   5 271.479 33.5816   1 
  -1   7   5 32.3916 24.6822   1 
   0   7   2 486.980 33.3538  -2 
   0   7   5 486.980 33.3538   1 
   2  -4   5 139.394 44.5248  -3 
  -1   6   2 139.394 44.5248  -2 
   1   7   5 139.394 44.5248   1 
   1  -4   6 374.316 45.6302  -3 
  -2   5   1 374.316 45.6302  -2 
   2   7   5 374.316 45.6302   1 
  -2   5   1 300.581 25.0301  -2 
   2   7   5 300.581 25.0301   1 
   3   7   5 27.3495 16.1025   1 
  -4   3   0 666.637 71.9751  -2 
   4   7   5 666.637 71.9751   1 
   5   7   5 5.57241 18.4731   1 
   7   7   5 26.2970 20.3599   1 
   8   1   2 124.056 39.3807  -2 
   8   7   5 124.056 39.3807   1 
  -1   8   5 -5.0169 28.0792   1 
   0   8   3 186.413 20.2685  -2 
   0   8   5 186.413 20.2685   1 
   2  -5   5 53.9260 29.0042  -3 
   1   8   5 53.9260 29.0042   1 
   1  -5   6 14.2725 22.7576  -3 
  -2   6   2 14.2725 22.7576  -2 
   2   8   5 14.2725 22.7576   1 
   3   8   5 60.4628 17.5499   1 
  -4   4   1 341.624 44.7068  -2 
   4   8   5 341.624 44.7068   1 
   5   8   5 14.0294 21.0624   1 
   7   8   5 31.1723 23.6651   1 
   2  -5   6 41.7628 25.0512  -3 
  -2   7   3 41.7628 25.0512  -2 
   2   9   5 41.7628 25.0512   1 
   3   9   5 26.8407 17.5340   1 
  -4   5   2 75.9004 29.4070  -2 
   4   9   5 75.9004 29.4070   1 
   5   9   5 -13.293 20.6016   1 
  -6   3   1 30.2164 41.4967  -2 
   6   9   5 30.2164 41.4967   1 
  -6   1  10 78.6385 50.6367  -2 
  -6  -7   6 78.6385 50.6367   1 
  -3  -7   6 13.3644 12.2173   1 
  -2   5  12 14.8086 16.5355  -2 
  -2  -7   6 14.8086 16.5355   1 
  -1   8   5 33.0940 24.7836  -3 
  -1  -7   6 33.0940 24.7836   1 
   6   9   2 36.5923 34.7391  -3 
  -7  -1   9 36.5923 34.7391  -2 
  -7  -6   6 36.5923 34.7391   1 
  -6   0   9 -1.0568 25.2703  -2 
  -6  -6   6 -1.0568 25.2703   1 
  -4   2  10 4.33092 25.9121  -2 
  -4  -6   6 4.33092 25.9121   1 
   2   8   4 3.04635 13.6304  -3 
  -3  -6   6 3.04635 13.6304   1 
  -2   4  11 0.92018 14.0047  -2 
  -2  -6   6 0.92018 14.0047   1 
  -1  -6   6 84.8049 15.4641   1 
   0   6  12 -0.3917 16.6874  -2 
   0  -6   6 -0.3917 16.6874   1 
   1  -6   6 12.0976 12.8393   1 
  -7  -2   8 73.7347 32.3571  -2 
  -7  -5   6 73.7347 32.3571   1 
  -6  -1   8 21.9076 12.3427  -2 
  -6  -5   6 21.9076 12.3427   1 
  -5   0   9 135.555 14.3547  -2 
  -5  -5   6 135.555 14.3547   1 
  -4   1   9 257.153 18.5615  -2 
  -4  -5   6 257.153 18.5615   1 
   2   7   4 -7.2799 26.6018  -3 
  -3   2  10 -7.2799 26.6018  -2 
  -3  -5   6 -7.2799 26.6018   1 
  -2   3  10 19.6783 10.2358  -2 
  -2  -5   6 19.6783 10.2358   1 
  -1  -5   6 162.477 13.1657   1 
   0   5  11 57.0327 10.3590  -2 
   0  -5   6 57.0327 10.3590   1 
  -2   6   6 179.243 24.6760  -3 
   1  -5   6 179.243 24.6760   1 
  -2   6   6 97.1361 27.4932  -3 
   1   6  11 97.1361 27.4932  -2 
   1  -5   6 97.1361 27.4932   1 
   2   7  12 39.4833 12.9968  -2 
   2  -5   6 39.4833 12.9968   1 
  -8  -4   6 52.5669 23.7727  -2 
  -8  -4   6 52.5669 23.7727   1 
  -7  -3   7 0.29488 17.3302  -2 
  -7  -4   6 0.29488 17.3302   1 
  -6  -2   7 133.442 16.0934  -2 
  -6  -4   6 133.442 16.0934   1 
  -5  -1   8 167.527 15.7246  -2 
  -5  -4   6 167.527 15.7246   1 
  -4   0   8 74.1552 11.1769  -2 
  -4  -4   6 74.1552 11.1769   1 
  -3   1   9 30.4578 17.2782  -2 
  -3  -4   6 30.4578 17.2782   1 
  -2   2   9 37.7233 18.1208  -2 
  -2  -4   6 37.7233 18.1208   1 
  -1  -4   6 -0.9432 6.85423   1 
   0   4  10 124.485 11.8302  -2 
   0  -4   6 124.485 11.8302   1 
   3   7  11 98.3606 17.1070  -2 
   3  -4   6 98.3606 17.1070   1 
   8   7   1 -105.88 63.8193  -3 
  -8  -5   5 -105.88 63.8193  -2 
  -8  -3   6 -105.88 63.8193   1 
  -7  -4   6 -16.172 20.7768  -2 
  -7  -3   6 -16.172 20.7768   1 
  -6  -3   6 46.5509 15.2631  -2 
  -6  -3   6 46.5509 15.2631   1 
   5   6   3 164.442 23.5531  -3 
  -5  -2   7 164.442 23.5531  -2 
  -5  -3   6 164.442 23.5531   1 
  -3   0   8 246.330 25.1786  -2 
  -3  -3   6 246.330 25.1786   1 
  -2   1   8 18.9841 16.1184  -2 
  -2  -3   6 18.9841 16.1184   1 
  -1  -3   6 132.124 17.5517   1 
   0   3   9 28.5088 8.74445  -2 
   0  -3   6 28.5088 8.74445   1 
   1  -3   6 83.5265 9.70188   1 
   2   5  10 10.8493 11.6491  -2 
   2  -3   6 10.8493 11.6491   1 
   3   6  10 112.038 14.5786  -2 
   3  -3   6 112.038 14.5786   1 
   4   7  11 49.4387 15.8280  -2 
   4  -3   6 49.4387 15.8280   1 
  -8  -6   4 41.2862 60.9451  -2 
  -8  -2   6 41.2862 60.9451   1 
  -7  -5   5 10.6997 21.4063  -2 
  -7  -2   6 10.6997 21.4063   1 
  -6  -4   5 166.736 22.0318  -2 
  -6  -2   6 166.736 22.0318   1 
  -5  -3   6 300.735 25.2967  -2 
  -5  -2   6 300.735 25.2967   1 
  -4  -2   6 544.820 31.0749  -2 
  -4  -2   6 544.820 31.0749   1 
  -3  -1   7 416.006 47.7596  -2 
  -3  -2   6 416.006 47.7596   1 
  -2   0   7 458.693 26.6388  -2 
  -2  -2   6 458.693 26.6388   1 
   1   4   5 189.805 24.9132  -3 
  -1   1   7 189.805 24.9132  -2 
  -1  -2   6 189.805 24.9132   1 
   0   4   6 157.382 21.4678  -3 
   0   2   8 157.382 21.4678  -2 
   0  -2   6 157.382 21.4678   1 
   1  -2   6 271.389 17.3250   1 
   2   4   9 175.802 15.0075  -2 
   2  -2   6 175.802 15.0075   1 
   3   5   9 66.7160 14.6250  -2 
   3  -2   6 66.7160 14.6250   1 
   4   6  10 94.0104 27.2053  -2 
   4  -2   6 94.0104 27.2053   1 
   5   7  10 196.097 30.8612  -2 
   5  -2   6 196.097 30.8612   1 
   8   5   2 -16.827 64.3791  -3 
  -7  -1   6 -16.827 64.3791   1 
  -6  -5   4 241.233 24.6808  -2 
  -6  -1   6 241.233 24.6808   1 
  -5  -4   5 68.6087 19.8031  -2 
  -5  -1   6 68.6087 19.8031   1 
  -4  -3   5 27.6901 14.5441  -2 
  -4  -1   6 27.6901 14.5441   1 
  -3  -2   6 181.342 19.7969  -2 
  -3  -1   6 181.342 19.7969   1 
  -2  -1   6 734.968 35.4127  -2 
  -2  -1   6 734.968 35.4127   1 
  -1  -1   6 119.809 9.51260   1 
   0   1   7 -3.5913 13.1355  -2 
   0  -1   6 -3.5913 13.1355   1 
   1  -1   6 7.49054 4.73685   1 
   2   3   8 251.022 14.6872  -2 
   2  -1   6 251.022 14.6872   1 
   3   4   8 -2.0364 17.5490  -2 
   3  -1   6 -2.0364 17.5490   1 
  -4   2   8 63.9568 16.2486  -3 
   4   5   9 63.9568 16.2486  -2 
   4  -1   6 63.9568 16.2486   1 
   5   6   9 104.199 17.0449  -2 
   5  -1   6 104.199 17.0449   1 
  -5   2   8 25.9412 37.5229  -3 
   5   6   9 25.9412 37.5229  -2 
   5  -1   6 25.9412 37.5229   1 
  -7   0   6 55.6174 45.0102   1 
   7   4   2 40.1421 69.5938  -3 
  -6  -6   3 40.1421 69.5938  -2 
  -6   0   6 40.1421 69.5938   1 
  -5   0   6 6.91738 8.09981   1 
  -4  -4   4 95.3674 15.8775  -2 
  -4   0   6 95.3674 15.8775   1 
  -3   0   6 92.8505 11.6154   1 
  -2  -2   5 164.044 14.2725  -2 
  -2   0   6 164.044 14.2725   1 
  -1   0   6 170.189 10.9546   1 
   0   0   6 11.5157 8.35383  -2 
   0   0   6 11.5157 8.35383   1 
   1   0   6 740.421 43.7687   1 
   2   2   7 56.2667 11.8802  -2 
   2   0   6 56.2667 11.8802   1 
   3   3   7 114.571 17.0274  -2 
   3   0   6 114.571 17.0274   1 
   4   4   8 -4.5892 12.5885  -2 
   4   0   6 -4.5892 12.5885   1 
   5   5   8 149.720 15.8040  -2 
   5   0   6 149.720 15.8040   1 
  -7   1   6 -17.494 39.0048   1 
  -6  -7   2 542.240 41.1795  -2 
  -6   1   6 542.240 41.1795   1 
  -5   1   6 8.21448 8.37120   1 
  -4  -5   3 5.00884 14.0820  -2 
  -4   1   6 5.00884 14.0820   1 
  -3   1   6 94.7028 12.1532   1 
  -1   1   6 -0.0361 2.47289   1 
   0  -1   5 101.557 8.36887  -2 
   0   1   6 101.557 8.36887   1 
   1   1   6 544.242 33.2177   1 
   2   1   6 1258.09 97.0830  -2 
   2   1   6 1258.09 97.0830   1 
  -2   1   7 46.6155 21.6584  -3 
   3   1   6 46.6155 21.6584   1 
   4   3   7 11.3938 11.9635  -2 
   4   1   6 11.3938 11.9635   1 
   5   4   7 113.059 24.6601  -2 
   5   1   6 113.059 24.6601   1 
   6   5   8 168.498 28.2464  -2 
   6   1   6 168.498 28.2464   1 
  -6  -8   1 45.0129 59.3002  -2 
  -6   2   6 45.0129 59.3002   1 
  -5   2   6 5.21302 8.33876   1 
  -4  -6   2 41.6215 17.2896  -2 
  -4   2   6 41.6215 17.2896   1 
  -3   2   6 99.4047 10.3955   1 
  -2  -4   3 377.581 26.7941  -2 
  -2   2   6 377.581 26.7941   1 
  -1   2   6 31.2746 5.05050   1 
   0  -2   4 113.669 7.10533  -2 
   0   2   6 113.669 7.10533   1 
   1   2   6 37.3861 7.66315   1 
   2   0   5 76.8370 18.3533  -2 
   2   2   6 76.8370 18.3533   1 
   3   2   6 39.5188 9.15843   1 
   4   2   6 6.15081 17.5895  -2 
   4   2   6 6.15081 17.5895   1 
   5   3   6 250.295 29.2898  -2 
   5   2   6 250.295 29.2898   1 
   6   4   7 83.7381 22.2799  -2 
   6   2   6 83.7381 22.2799   1 
  -6  -1   9 123.513 28.0364  -3 
   7   5   7 123.513 28.0364  -2 
   7   2   6 123.513 28.0364   1 
   6   9   0 125.586 66.9298  -2 
  -6   3   6 125.586 66.9298   1 
  -5   3   6 -10.688 8.78961   1 
   6   1   4 74.3637 63.9391  -3 
  -4  -7   1 74.3637 63.9391  -2 
  -4   3   6 74.3637 63.9391   1 
  -4  -7   1 32.8744 19.1725  -2 
  -4   3   6 32.8744 19.1725   1 
   5   1   4 387.203 31.9098  -3 
  -3   3   6 387.203 31.9098   1 
  -2  -5   2 748.537 49.1461  -2 
  -2   3   6 748.537 49.1461   1 
  -1   3   6 32.6124 5.85673   1 
   0  -3   3 241.012 32.8693  -2 
   0   3   6 241.012 32.8693   1 
   1   3   6 153.243 16.3959   1 
   2  -1   4 524.263 33.1653  -2 
   2   3   6 524.263 33.1653   1 
   3   3   6 4.50896 5.05549   1 
   4   1   5 3.41656 10.3440  -2 
   4   3   6 3.41656 10.3440   1 
   5   2   5 91.4990 19.4330  -2 
   5   3   6 91.4990 19.4330   1 
   6   3   6 93.6389 19.9902  -2 
   6   3   6 93.6389 19.9902   1 
  -5   4   6 -3.3163 9.22295   1 
   4   8   0 60.8031 19.2723  -2 
  -4   4   6 60.8031 19.2723   1 
  -3   4   6 94.4587 11.0543   1 
  -2  -6   1 904.460 57.2353  -2 
  -2   4   6 904.460 57.2353   1 
  -1   4   6 58.8930 7.59004   1 
   0  -4   2 176.567 14.7605  -2 
   0   4   6 176.567 14.7605   1 
   1  -1   6 668.310 73.0569  -3 
   1  -3   2 668.310 73.0569  -2 
   1   4   6 668.310 73.0569   1 
   0  -1   7 901.563 90.9179  -3 
   2  -2   3 901.563 90.9179  -2 
   2   4   6 901.563 90.9179   1 
   3   4   6 11.1424 5.52333   1 
   4   0   4 89.3956 13.8131  -2 
   4   4   6 89.3956 13.8131   1 
   5   4   6 12.5430 12.6513   1 
   6   2   5 178.291 30.6706  -2 
   6   4   6 178.291 30.6706   1 
   7   3   5 61.6592 19.6424  -2 
   7   4   6 61.6592 19.6424   1 
  -3   5   6 36.6800 32.7796   1 
   2   7   0 48.3583 43.9424  -2 
  -2   5   6 48.3583 43.9424   1 
  -1   5   6 9.26366 6.47146   1 
   0  -5   1 33.5075 28.9789  -2 
   0   5   6 33.5075 28.9789   1 
   1  -4   1 424.707 54.4722  -2 
   1   5   6 424.707 54.4722   1 
   2  -3   2 8.93961 22.6552  -2 
   2   5   6 8.93961 22.6552   1 
   3   5   6 28.6321 15.0298   1 
   4  -1   3 14.0768 22.8976  -2 
   4   5   6 14.0768 22.8976   1 
   5   5   6 96.5957 19.8796   1 
  -4  -3   9 12.2838 27.0506  -3 
   6   1   4 12.2838 27.0506  -2 
   6   5   6 12.2838 27.0506   1 
   7   5   6 14.6634 16.8794   1 
  -3   6   6 43.8758 33.8662   1 
   2   8   1 361.468 59.3214  -2 
  -2   6   6 361.468 59.3214   1 
   3  -2   6 -24.078 40.6209  -3 
   0   6   0 -24.078 40.6209  -2 
   0   6   6 -24.078 40.6209   1 
   1   6   6 129.241 26.8002   1 
   2  -4   1 428.229 49.3416  -2 
   2   6   6 428.229 49.3416   1 
   3   6   6 114.773 23.5067   1 
   5   6   6 71.0849 20.5458   1 
  -4  -4   9 303.431 45.5918  -3 
   6   0   3 303.431 45.5918  -2 
   6   6   6 303.431 45.5918   1 
   7   6   6 40.4176 18.2396   1 
   8   2   4 53.2783 33.3851  -2 
   8   6   6 53.2783 33.3851   1 
   4  -3   5 65.0187 46.2701  -3 
  -1   7   6 65.0187 46.2701   1 
   1   7   6 17.3854 20.4713   1 
  -2   5   0 23.7418 21.7511  -2 
   2   7   6 23.7418 21.7511   1 
   3   7   6 31.3263 17.2349   1 
  -1  -4   8 186.103 34.9126  -3 
   4  -3   1 186.103 34.9126  -2 
   4   7   6 186.103 34.9126   1 
   5   7   6 14.0612 19.3487   1 
   6  -1   2 64.3178 32.7307  -2 
   6   7   6 64.3178 32.7307   1 
   7   7   6 9.40209 20.5100   1 
   0   8   2 78.8826 38.0547  -2 
   0   8   6 78.8826 38.0547   1 
   1   8   6 6.02098 20.0206   1 
  -2   6   1 72.5185 22.9853  -2 
   2   8   6 72.5185 22.9853   1 
   3   8   6 31.4770 16.3648   1 
  -1  -5   8 40.0471 31.1797  -3 
  -4   4   0 40.0471 31.1797  -2 
   4   8   6 40.0471 31.1797   1 
   5   8   6 6.31318 21.1093   1 
   6  -2   1 65.7677 40.7744  -2 
   6   8   6 65.7677 40.7744   1 
   7   8   6 46.9946 24.8829   1 
   1   9   6 15.9134 20.2683   1 
   2  -5   7 153.270 36.1320  -3 
  -2   7   2 153.270 36.1320  -2 
   2   9   6 153.270 36.1320   1 
   3   9   6 16.6956 16.7592   1 
  -4   5   1 241.190 39.1012  -2 
   4   9   6 241.190 39.1012   1 
   5   9   6 19.5439 22.8674   1 
  -6   3   0 59.1180 45.0205  -2 
   6   9   6 59.1180 45.0205   1 
  -3  -7   7 7.52442 12.9761   1 
  -2   5  13 26.8466 16.4336  -2 
  -2  -7   7 26.8466 16.4336   1 
   5   9   3 6.70216 30.0489  -3 
  -6   0  10 6.70216 30.0489  -2 
  -6  -6   7 6.70216 30.0489   1 
  -4   2  11 23.2566 20.3946  -2 
  -4  -6   7 23.2566 20.3946   1 
  -3  -6   7 22.9621 13.0477   1 
   1   8   6 22.7356 21.0467  -3 
  -2   4  12 22.7356 21.0467  -2 
  -2  -6   7 22.7356 21.0467   1 
  -1  -6   7 120.368 16.9446   1 
   0   6  13 -14.366 16.6099  -2 
   0  -6   7 -14.366 16.6099   1 
  -7  -2   9 -7.6966 33.7932  -2 
  -7  -5   7 -7.6966 33.7932   1 
  -6  -1   9 16.2886 12.9748  -2 
  -6  -5   7 16.2886 12.9748   1 
  -5   0  10 160.391 18.3929  -2 
  -5  -5   7 160.391 18.3929   1 
  -4   1  10 188.058 15.0997  -2 
  -4  -5   7 188.058 15.0997   1 
  -3   2  11 55.7368 27.0116  -2 
  -3  -5   7 55.7368 27.0116   1 
  -2   3  11 -0.3736 10.5880  -2 
  -2  -5   7 -0.3736 10.5880   1 
   0   7   6 60.7026 13.8210  -3 
  -1  -5   7 60.7026 13.8210   1 
   0   5  12 77.4753 10.7351  -2 
   0  -5   7 77.4753 10.7351   1 
   1   6  12 71.5659 22.1241  -2 
   1  -5   7 71.5659 22.1241   1 
   2   7  13 73.4642 18.7605  -2 
   2  -5   7 73.4642 18.7605   1 
   7   8   3 -18.209 24.3689  -3 
  -7  -3   8 -18.209 24.3689  -2 
  -7  -4   7 -18.209 24.3689   1 
  -6  -2   8 -14.968 14.4630  -2 
  -6  -4   7 -14.968 14.4630   1 
  -5  -1   9 107.539 15.2060  -2 
  -5  -4   7 107.539 15.2060   1 
  -4   0   9 75.6249 12.0284  -2 
  -4  -4   7 75.6249 12.0284   1 
  -3  -4   7 137.933 12.9896   1 
  -2   2  10 -1.9340 20.8363  -2 
  -2  -4   7 -1.9340 20.8363   1 
  -1  -4   7 363.273 22.7989   1 
   0   4  11 30.3780 9.49517  -2 
   0  -4   7 30.3780 9.49517   1 
   1   5  11 71.3274 21.8075  -2 
   1  -4   7 71.3274 21.8075   1 
   2   6  12 42.3757 12.4809  -2 
   2  -4   7 42.3757 12.4809   1 
  -4   5   8 61.9309 24.9502  -3 
   3   7  12 61.9309 24.9502  -2 
   3  -4   7 61.9309 24.9502   1 
  -8  -3   7 56.8549 41.1713   1 
  -7  -4   7 -40.426 64.5664  -2 
  -7  -3   7 -40.426 64.5664   1 
   7   7   3 -30.546 28.5581  -3 
  -7  -4   7 -30.546 28.5581  -2 
  -7  -3   7 -30.546 28.5581   1 
  -6  -3   7 23.2861 18.0004  -2 
  -6  -3   7 23.2861 18.0004   1 
  -5  -2   8 296.588 25.7915  -2 
  -5  -3   7 296.588 25.7915   1 
   3   6   5 223.892 21.0822  -3 
  -3   0   9 223.892 21.0822  -2 
  -3  -3   7 223.892 21.0822   1 
  -2   1   9 7.48273 18.6524  -2 
  -2  -3   7 7.48273 18.6524   1 
  -1  -3   7 555.330 46.3659   1 
   0   3  10 355.402 22.0540  -2 
   0  -3   7 355.402 22.0540   1 
   1  -3   7 78.0391 10.2443   1 
   2   5  11 21.4797 11.1123  -2 
   2  -3   7 21.4797 11.1123   1 
   3   6  11 109.540 17.0869  -2 
   3  -3   7 109.540 17.0869   1 
   4   7  12 27.6997 20.7261  -2 
   4  -3   7 27.6997 20.7261   1 
  -7  -5   6 -11.045 69.8481  -2 
  -7  -2   7 -11.045 69.8481   1 
  -6  -4   6 148.606 22.8906  -2 
  -6  -2   7 148.606 22.8906   1 
  -5  -3   7 211.103 22.9117  -2 
  -5  -2   7 211.103 22.9117   1 
  -4  -2   7 116.073 16.3778  -2 
  -4  -2   7 116.073 16.3778   1 
  -3  -1   8 105.547 15.7364  -2 
  -3  -2   7 105.547 15.7364   1 
  -2   0   8 70.0152 10.7943  -2 
  -2  -2   7 70.0152 10.7943   1 
  -1  -2   7 33.8723 10.5940   1 
   0   2   9 428.701 37.6520  -2 
   0  -2   7 428.701 37.6520   1 
  -1   4   7 151.312 15.6095  -3 
   1  -2   7 151.312 15.6095   1 
   2   4  10 98.9245 11.6183  -2 
   2  -2   7 98.9245 11.6183   1 
   3   5  10 131.896 15.0190  -2 
   3  -2   7 131.896 15.0190   1 
   4   6  11 57.3313 16.1233  -2 
   4  -2   7 57.3313 16.1233   1 
  -7  -1   7 -16.709 38.1871   1 
  -4  -3   6 164.532 18.8686  -2 
  -4  -1   7 164.532 18.8686   1 
  -3  -1   7 52.9853 7.43906   1 
  -2  -1   7 41.1505 7.82422  -2 
  -2  -1   7 41.1505 7.82422   1 
  -1  -1   7 335.962 19.8705   1 
   0   1   8 18.9686 15.4547  -2 
   0  -1   7 18.9686 15.4547   1 
   1  -1   7 64.7466 9.00386   1 
   2   3   9 -13.234 9.72810  -2 
   2  -1   7 -13.234 9.72810   1 
   3   4   9 126.378 19.7901  -2 
   3  -1   7 126.378 19.7901   1 
   4   5  10 12.2354 13.0068  -2 
   4  -1   7 12.2354 13.0068   1 
  -5   2   9 176.566 21.0308  -3 
   5   6  10 176.566 21.0308  -2 
   5  -1   7 176.566 21.0308   1 
  -7   0   7 -15.472 42.8794   1 
  -6  -6   4 134.828 22.3964  -2 
  -6   0   7 134.828 22.3964   1 
   6   4   4 70.9847 19.4143  -3 
  -5   0   7 70.9847 19.4143   1 
  -4  -4   5 413.379 60.0056  -2 
  -4   0   7 413.379 60.0056   1 
  -3   0   7 307.250 26.1137   1 
  -2  -2   6 432.269 22.2915  -2 
  -2   0   7 432.269 22.2915   1 
  -1   0   7 89.1852 7.72971   1 
   0   0   7 710.426 42.6665  -2 
   0   0   7 710.426 42.6665   1 
   1   0   7 169.191 13.7228   1 
   2   2   8 136.755 16.4165  -2 
   2   0   7 136.755 16.4165   1 
   3   3   8 51.3096 27.4903  -2 
   3   0   7 51.3096 27.4903   1 
   4   4   9 128.113 14.7754  -2 
   4   0   7 128.113 14.7754   1 
   5   5   9 243.399 21.8408  -2 
   5   0   7 243.399 21.8408   1 
  -7   1   7 -10.585 41.7291   1 
  -6  -7   3 10.8700 21.1277  -2 
  -6   1   7 10.8700 21.1277   1 
  -5   1   7 21.2579 8.75674   1 
  -4  -5   4 119.698 19.0266  -2 
  -4   1   7 119.698 19.0266   1 
  -3   1   7 42.6519 7.78773   1 
  -2  -3   5 962.670 59.0313  -2 
  -2   1   7 962.670 59.0313   1 
  -1   1   7 96.8309 7.66299   1 
   0  -1   6 -5.6100 8.87881  -2 
   0   1   7 -5.6100 8.87881   1 
   1   1   7 52.9728 7.72365   1 
   2   1   7 458.470 31.1054  -2 
   2   1   7 458.470 31.1054   1 
   3   1   7 36.4094 11.6063   1 
  -3   1   9 13.2006 15.4608  -3 
   4   3   8 13.2006 15.4608  -2 
   4   1   7 13.2006 15.4608   1 
   5   4   8 126.697 24.9051  -2 
   5   1   7 126.697 24.9051   1 
   6   5   9 97.9260 25.9811  -2 
   6   1   7 97.9260 25.9811   1 
   8   3   3 -36.065 72.4567  -3 
  -6  -8   2 -36.065 72.4567  -2 
  -6   2   7 -36.065 72.4567   1 
  -5   2   7 20.0450 9.47393   1 
  -4  -6   3 80.7726 19.3215  -2 
  -4   2   7 80.7726 19.3215   1 
  -3   2   7 232.714 17.8156   1 
  -2  -4   4 -3.8751 12.3652  -2 
  -2   2   7 -3.8751 12.3652   1 
  -1   2   7 68.0326 6.19787   1 
   0  -2   5 68.3080 8.12414  -2 
   0   2   7 68.3080 8.12414   1 
   1   2   7 506.515 41.7944   1 
   2   0   6 37.4459 17.2528  -2 
   2   2   7 37.4459 17.2528   1 
   3   2   7 9.52189 9.09719   1 
   5   3   7 145.404 24.7370  -2 
   5   2   7 145.404 24.7370   1 
   6   4   8 62.1383 22.3887  -2 
   6   2   7 62.1383 22.3887   1 
  -6   3   7 90.3187 46.2026   1 
  -5   3   7 -17.684 8.17116   1 
  -4  -7   2 -27.608 16.4841  -2 
  -4   3   7 -27.608 16.4841   1 
  -3   3   7 58.6211 11.0580   1 
   4   1   6 1345.10 139.541  -3 
  -2  -5   3 1345.10 139.541  -2 
  -2   3   7 1345.10 139.541   1 
   3   1   6 33.3924 33.5405  -3 
  -1   3   7 33.3924 33.5405   1 
   0  -3   4 -4.1473 23.9243  -2 
   0   3   7 -4.1473 23.9243   1 
   1   3   7 437.353 36.4928   1 
   2  -1   5 1247.31 75.3752  -2 
   2   3   7 1247.31 75.3752   1 
   3   3   7 49.4480 10.6818   1 
   4   1   6 13.8218 17.1652  -2 
   4   3   7 13.8218 17.1652   1 
   5   2   6 163.017 24.3667  -2 
   5   3   7 163.017 24.3667   1 
   6   3   7 133.336 21.9611  -2 
   6   3   7 133.336 21.9611   1 
   7   4   7 56.6236 21.3084  -2 
   7   3   7 56.6236 21.3084   1 
  -5   4   7 4.20412 9.72216   1 
  -4  -8   1 27.7502 19.3693  -2 
  -4   4   7 27.7502 19.3693   1 
  -3   4   7 28.0522 8.20455   1 
  -2  -6   2 279.319 24.4914  -2 
  -2   4   7 279.319 24.4914   1 
  -1   4   7 4.62247 5.68225   1 
   0  -4   3 65.5732 29.2832  -2 
   0   4   7 65.5732 29.2832   1 
   1   4   7 53.4041 5.01414   1 
   2  -2   4 48.7919 23.1691  -2 
   2   4   7 48.7919 23.1691   1 
   3   4   7 29.3081 6.65849   1 
   4   0   5 19.1495 11.4066  -2 
   4   4   7 19.1495 11.4066   1 
   5   1   5 226.418 26.0740  -2 
   5   4   7 226.418 26.0740   1 
   6   2   6 85.9996 17.5676  -2 
   6   4   7 85.9996 17.5676   1 
   7   0   5 164.859 82.1841  -3 
   4   9   0 164.859 82.1841  -2 
  -4   5   7 164.859 82.1841   1 
   6   0   5 251.077 62.3172  -3 
  -3   5   7 251.077 62.3172   1 
  -2  -7   1 177.199 48.7137  -2 
  -2   5   7 177.199 48.7137   1 
  -1   5   7 35.5612 26.5627   1 
   0  -5   2 3.18214 31.7371  -2 
   0   5   7 3.18214 31.7371   1 
   1   5   7 216.831 33.8379   1 
   2  -3   3 561.503 62.1497  -2 
   2   5   7 561.503 62.1497   1 
   3   5   7 10.7718 15.6270   1 
   4  -1   4 30.6869 25.9808  -2 
   4   5   7 30.6869 25.9808   1 
   5   0   4 308.371 43.1212  -2 
   5   5   7 308.371 43.1212   1 
   6   1   5 133.965 30.3130  -2 
   6   5   7 133.965 30.3130   1 
   6  -1   5 147.792 59.5815  -3 
  -3   6   7 147.792 59.5815   1 
   2   8   0 628.990 79.4827  -2 
  -2   6   7 628.990 79.4827   1 
  -1   6   7 50.5277 26.9840   1 
   0  -6   1 124.027 36.6288  -2 
   0   6   7 124.027 36.6288   1 
   2  -2   7 23.7589 45.1705  -3 
   1  -5   1 23.7589 45.1705  -2 
   1   6   7 23.7589 45.1705   1 
   1  -2   8 976.433 102.386  -3 
   2  -4   2 976.433 102.386  -2 
   2   6   7 976.433 102.386   1 
   3   6   7 18.3268 17.7926   1 
   4  -2   3 88.7859 30.0867  -2 
   4   6   7 88.7859 30.0867   1 
   5   6   7 -6.0857 16.8278   1 
   6   0   4 201.827 35.7795  -2 
   6   6   7 201.827 35.7795   1 
   7   6   7 -0.9874 17.7623   1 
   2   9   1 167.407 55.0361  -2 
  -2   7   7 167.407 55.0361   1 
  -1   7   7 -0.0475 27.5555   1 
   1   7   7 92.9181 25.1234   1 
   3   7   7 31.4404 18.1822   1 
   4  -3   2 35.5376 28.4972  -2 
   4   7   7 35.5376 28.4972   1 
  -3  -4  10 -0.9129 38.4645  -3 
   6  -1   3 -0.9129 38.4645  -2 
   6   7   7 -0.9129 38.4645   1 
   7   7   7 1.18612 20.3106   1 
  -1   8   7 57.5204 32.4714   1 
   1   8   7 63.3886 24.5275   1 
  -2   6   0 242.646 35.0811  -2 
   2   8   7 242.646 35.0811   1 
   3   8   7 10.2649 17.0687   1 
   4  -4   1 -1.5470 28.5532  -2 
   4   8   7 -1.5470 28.5532   1 
  -3  -5  10 170.755 51.6075  -3 
   6  -2   2 170.755 51.6075  -2 
   6   8   7 170.755 51.6075   1 
   7   8   7 8.22140 23.6717   1 
   1   9   7 31.6190 22.8510   1 
  -2   7   1 47.0745 25.6130  -2 
   2   9   7 47.0745 25.6130   1 
   3   9   7 15.4155 17.4477   1 
   0  -5   9 47.0965 33.9311  -3 
  -4   5   0 47.0965 33.9311  -2 
   4   9   7 47.0965 33.9311   1 
   5   9   7 11.0308 22.7854   1 
   3   9   5 13.5089 26.2900  -3 
  -4   2  12 13.5089 26.2900  -2 
  -4  -6   8 13.5089 26.2900   1 
  -3  -6   8 -8.1672 12.9305   1 
  -2   4  13 14.3598 14.6342  -2 
  -2  -6   8 14.3598 14.6342   1 
   0   8   7 75.7618 25.2615  -3 
  -1   5  13 75.7618 25.2615  -2 
  -1  -6   8 75.7618 25.2615   1 
  -7  -5   8 2.11731 7.39068   1 
  -6  -1  10 -11.999 13.5434  -2 
  -6  -5   8 -11.999 13.5434   1 
  -5   0  11 59.9048 18.5293  -2 
  -5  -5   8 59.9048 18.5293   1 
  -4   1  11 -35.731 26.7477  -2 
  -4  -5   8 -35.731 26.7477   1 
  -3   2  12 -14.890 28.5429  -2 
  -3  -5   8 -14.890 28.5429   1 
  -2   3  12 8.98020 11.7023  -2 
  -2  -5   8 8.98020 11.7023   1 
   0   7   7 22.4258 24.3435  -3 
  -1  -5   8 22.4258 24.3435   1 
   0   5  13 41.1319 14.6212  -2 
   0  -5   8 41.1319 14.6212   1 
  -1   7   7 1.86129 21.2504  -3 
   0   5  13 1.86129 21.2504  -2 
   0  -5   8 1.86129 21.2504   1 
   1  -5   8 24.0317 8.48789   1 
   7   8   4 -62.741 77.9545  -3 
  -7  -3   9 -62.741 77.9545  -2 
  -7  -4   8 -62.741 77.9545   1 
  -6  -2   9 57.8488 21.3405  -2 
  -6  -4   8 57.8488 21.3405   1 
  -5  -1  10 287.343 31.2946  -2 
  -5  -4   8 287.343 31.2946   1 
  -4   0  10 41.2041 11.2133  -2 
  -4  -4   8 41.2041 11.2133   1 
  -3  -4   8 11.7019 13.2347   1 
  -2   2  11 5.21435 21.9903  -2 
  -2  -4   8 5.21435 21.9903   1 
  -1  -4   8 129.454 13.6195   1 
   0   4  12 1.70725 9.55124  -2 
   0  -4   8 1.70725 9.55124   1 
   1  -4   8 7.17235 7.20503   1 
   2   6  13 34.7552 12.9552  -2 
   2  -4   8 34.7552 12.9552   1 
  -7  -4   8 -28.797 66.4671  -2 
  -7  -3   8 -28.797 66.4671   1 
  -6  -3   8 -2.5889 18.8672  -2 
  -6  -3   8 -2.5889 18.8672   1 
  -5  -2   9 144.597 14.8490  -2 
  -5  -3   8 144.597 14.8490   1 
  -4  -1   9 384.209 20.4048  -2 
  -4  -3   8 384.209 20.4048   1 
  -3  -3   8 83.3368 9.90933   1 
  -2   1  10 107.791 24.3817  -2 
  -2  -3   8 107.791 24.3817   1 
  -1  -3   8 4.41161 12.0443   1 
   0   3  11 55.9930 12.1072  -2 
   0  -3   8 55.9930 12.1072   1 
   1  -3   8 6.86523 5.81639   1 
  -2   5   9 20.0224 18.0946  -3 
   2   5  12 20.0224 18.0946  -2 
   2  -3   8 20.0224 18.0946   1 
   2   5  12 55.7291 20.2863  -2 
   2  -3   8 55.7291 20.2863   1 
   3   6  12 93.4986 17.3502  -2 
   3  -3   8 93.4986 17.3502   1 
   4  -3   8 37.0681 14.7043   1 
  -7  -5   7 -53.806 71.0136  -2 
  -7  -2   8 -53.806 71.0136   1 
  -6  -4   7 -28.534 19.9512  -2 
  -6  -2   8 -28.534 19.9512   1 
  -5  -3   8 133.643 20.0742  -2 
  -5  -2   8 133.643 20.0742   1 
  -4  -2   8 71.9209 12.5680  -2 
  -4  -2   8 71.9209 12.5680   1 
  -3  -2   8 24.0636 6.11784   1 
  -2   0   9 19.0240 12.0883  -2 
  -2  -2   8 19.0240 12.0883   1 
   1   5   7 185.425 29.5496  -3 
  -1  -2   8 185.425 29.5496   1 
   0   2  10 1.66581 18.1805  -2 
   0  -2   8 1.66581 18.1805   1 
   1  -2   8 2.80072 5.76267   1 
   2   4  11 119.163 12.4991  -2 
   2  -2   8 119.163 12.4991   1 
  -3   4   9 263.480 39.8231  -3 
   3   5  11 263.480 39.8231  -2 
   3  -2   8 263.480 39.8231   1 
   3   5  11 193.729 28.5626  -2 
   3  -2   8 193.729 28.5626   1 
  -3   4   9 111.443 19.6009  -3 
   3  -2   8 111.443 19.6009   1 
   4   6  12 32.2618 21.4558  -2 
   4  -2   8 32.2618 21.4558   1 
  -6  -5   6 9.98325 21.5607  -2 
  -6  -1   8 9.98325 21.5607   1 
  -5  -4   7 165.462 25.1967  -2 
  -5  -1   8 165.462 25.1967   1 
  -3  -1   8 50.7386 6.31996   1 
  -2  -1   8 17.0220 10.1321  -2 
  -2  -1   8 17.0220 10.1321   1 
  -1  -1   8 260.214 16.6612   1 
   0   1   9 326.013 32.9599  -2 
   0  -1   8 326.013 32.9599   1 
   1  -1   8 226.099 17.4473   1 
   2   3  10 79.1227 12.3249  -2 
   2  -1   8 79.1227 12.3249   1 
   3   4  10 113.325 20.9070  -2 
   3  -1   8 113.325 20.9070   1 
  -3   3   9 78.5871 17.1498  -3 
   3  -1   8 78.5871 17.1498   1 
   4   5  11 28.1317 13.5293  -2 
   4  -1   8 28.1317 13.5293   1 
   5   6  11 73.8035 25.2782  -2 
   5  -1   8 73.8035 25.2782   1 
  -7   0   8 11.3184 40.8593   1 
  -6  -6   5 61.2237 24.0478  -2 
  -6   0   8 61.2237 24.0478   1 
  -5   0   8 17.1691 9.54391   1 
  -4  -4   6 76.2313 18.1437  -2 
  -4   0   8 76.2313 18.1437   1 
   4   4   6 71.2650 12.9940  -3 
  -3   0   8 71.2650 12.9940   1 
  -2  -2   7 59.7804 9.20793  -2 
  -2   0   8 59.7804 9.20793   1 
  -1   0   8 10.2093 3.68755   1 
   0   0   8 572.752 35.8655  -2 
   0   0   8 572.752 35.8655   1 
   0   3   8 118.311 23.0986  -3 
   1   0   8 118.311 23.0986   1 
   2   2   9 71.1838 16.9649  -2 
   2   0   8 71.1838 16.9649   1 
   3   3   9 246.172 38.2786  -2 
   3   0   8 246.172 38.2786   1 
   4   4  10 95.9133 13.5349  -2 
   4   0   8 95.9133 13.5349   1 
   5   5  10 88.3236 25.0804  -2 
   5   0   8 88.3236 25.0804   1 
  -6   1   8 -0.3715 10.4391   1 
  -5   1   8 172.557 18.4842   1 
  -4  -5   5 88.0111 21.2414  -2 
  -4   1   8 88.0111 21.2414   1 
  -3   1   8 108.079 12.4132   1 
  -2  -3   6 25.3319 11.7280  -2 
  -2   1   8 25.3319 11.7280   1 
  -1   1   8 106.898 7.82746   1 
   0  -1   7 44.9766 18.0119  -2 
   0   1   8 44.9766 18.0119   1 
   0   2   8 71.6999 14.7909  -3 
   1   1   8 71.6999 14.7909   1 
   2   1   8 85.0822 17.4468  -2 
   2   1   8 85.0822 17.4468   1 
   3   1   8 183.298 23.7925   1 
   4   3   9 9.71894 14.6148  -2 
   4   1   8 9.71894 14.6148   1 
  -4   1  10 308.778 36.8256  -3 
   5   4   9 308.778 36.8256  -2 
   5   1   8 308.778 36.8256   1 
   8   3   5 58.6064 86.8087  -3 
  -6  -8   3 58.6064 86.8087  -2 
  -6   2   8 58.6064 86.8087   1 
   7   3   5 35.5189 26.3810  -3 
  -5  -7   4 35.5189 26.3810  -2 
  -5   2   8 35.5189 26.3810   1 
   7   3   5 -28.663 46.4847  -3 
  -5   2   8 -28.663 46.4847   1 
  -4  -6   4 713.367 59.3297  -2 
  -4   2   8 713.367 59.3297   1 
   6   3   5 558.095 79.4012  -3 
  -4  -6   4 558.095 79.4012  -2 
  -4   2   8 558.095 79.4012   1 
  -3   2   8 199.205 16.9682   1 
  -2  -4   5 869.629 55.1547  -2 
  -2   2   8 869.629 55.1547   1 
  -1   2   8 26.7954 4.36449   1 
   0  -2   6 203.591 13.3649  -2 
   0   2   8 203.591 13.3649   1 
   1   2   8 221.907 23.0369   1 
   2   0   7 136.828 23.9830  -2 
   2   2   8 136.828 23.9830   1 
   3   2   8 54.0012 14.5437   1 
   4   2   8 107.022 24.5431  -2 
   4   2   8 107.022 24.5431   1 
  -4   0  10 182.725 29.5148  -3 
   5   3   8 182.725 29.5148  -2 
   5   2   8 182.725 29.5148   1 
  -5   0  11 154.019 30.0247  -3 
   6   4   9 154.019 30.0247  -2 
   6   2   8 154.019 30.0247   1 
  -5   3   8 12.8123 9.66792   1 
  -4  -7   3 -6.1401 19.2376  -2 
  -4   3   8 -6.1401 19.2376   1 
  -3   3   8 12.9599 8.13262   1 
  -2  -5   4 214.564 20.7010  -2 
  -2   3   8 214.564 20.7010   1 
   3   1   7 54.0837 9.18792  -3 
  -1   3   8 54.0837 9.18792   1 
   2   1   8 27.2576 36.4649  -3 
   0  -3   5 27.2576 36.4649  -2 
   0   3   8 27.2576 36.4649   1 
   0  -3   5 4.37366 8.92387  -2 
   0   3   8 4.37366 8.92387   1 
   1   3   8 9.28220 8.33475   1 
   2  -1   6 277.890 23.0796  -2 
   2   3   8 277.890 23.0796   1 
  -1   0   9 40.9146 18.0718  -3 
   3   0   6 40.9146 18.0718  -2 
   3   3   8 40.9146 18.0718   1 
   4   1   7 11.8358 20.0213  -2 
   4   3   8 11.8358 20.0213   1 
   5   2   7 168.216 25.1535  -2 
   5   3   8 168.216 25.1535   1 
   6   3   8 107.586 22.6017  -2 
   6   3   8 107.586 22.6017   1 
   7   4   8 59.0427 22.3665  -2 
   7   3   8 59.0427 22.3665   1 
  -5   4   8 -2.2786 10.2086   1 
  -4  -8   2 74.8446 21.0413  -2 
  -4   4   8 74.8446 21.0413   1 
  -3   4   8 145.589 14.7890   1 
  -2  -6   3 17.1146 17.0726  -2 
  -2   4   8 17.1146 17.0726   1 
  -1   4   8 83.2373 9.03326   1 
   0  -4   4 147.535 36.0472  -2 
   0   4   8 147.535 36.0472   1 
   2   0   8 58.0813 16.9932  -3 
   0   4   8 58.0813 16.9932   1 
   1   4   8 345.456 20.5567   1 
   2  -2   5 23.7337 15.8062  -2 
   2   4   8 23.7337 15.8062   1 
  -1  -1   9 24.4781 18.3909  -3 
   3   4   8 24.4781 18.3909   1 
  -2  -1  10 -3.0231 16.4574  -3 
   4   0   6 -3.0231 16.4574  -2 
   4   4   8 -3.0231 16.4574   1 
   5   1   6 115.702 21.2108  -2 
   5   4   8 115.702 21.2108   1 
   6   2   7 75.5631 17.7265  -2 
   6   4   8 75.5631 17.7265   1 
   7   3   7 28.0773 20.7528  -2 
   7   4   8 28.0773 20.7528   1 
  -4  -9   1 95.9736 63.6208  -2 
  -4   5   8 95.9736 63.6208   1 
   0  -5   3 -43.537 34.9994  -2 
   0   5   8 -43.537 34.9994   1 
   1   5   8 244.102 38.1855   1 
   2  -3   4 650.672 71.4514  -2 
   2   5   8 650.672 71.4514   1 
   3   5   8 84.0754 20.5690   1 
   4  -1   5 19.0129 26.9279  -2 
   4   5   8 19.0129 26.9279   1 
   5   0   5 171.645 34.1606  -2 
   5   5   8 171.645 34.1606   1 
   6  -1   6 188.982 63.8251  -3 
  -3   6   8 188.982 63.8251   1 
  -1   6   8 33.7486 27.0166   1 
   0  -6   2 153.846 38.6652  -2 
   0   6   8 153.846 38.6652   1 
   1   6   8 12.5829 25.2045   1 
   2  -4   3 49.9249 31.6097  -2 
   2   6   8 49.9249 31.6097   1 
   3   6   8 22.3686 19.0980   1 
   4  -2   4 42.7159 29.5354  -2 
   4   6   8 42.7159 29.5354   1 
   5   6   8 140.046 27.3368   1 
   7   6   8 7.88052 19.5109   1 
   2   9   0 307.547 63.0159  -2 
  -2   7   8 307.547 63.0159   1 
  -1   7   8 27.2821 29.0921   1 
   0  -7   1 24.2641 37.8064  -2 
   0   7   8 24.2641 37.8064   1 
   1   7   8 68.5831 25.6379   1 
   3   7   8 9.01738 17.3880   1 
   4  -3   3 -8.2839 30.0531  -2 
   4   7   8 -8.2839 30.0531   1 
   5   7   8 202.686 35.2078   1 
   7   7   8 -4.6042 20.5883   1 
   0   8   0 76.2690 41.9375  -2 
   0   8   8 76.2690 41.9375   1 
   3  -3   8 146.045 52.4224  -3 
  -1   7   0 146.045 52.4224  -2 
   1   8   8 146.045 52.4224   1 
   3   8   8 6.60443 18.2890   1 
   4  -4   2 99.2930 33.6054  -2 
   4   8   8 99.2930 33.6054   1 
   5   8   8 4.63989 23.1703   1 
   6  -2   3 127.411 47.9588  -2 
   6   8   8 127.411 47.9588   1 
   2  -4   9 104.895 37.9605  -3 
  -2   7   0 104.895 37.9605  -2 
   2   9   8 104.895 37.9605   1 
   3   9   8 27.5126 19.7516   1 
   4  -5   1 -0.1029 30.6888  -2 
   4   9   8 -0.1029 30.6888   1 
  -1  -5  10 127.756 55.6843  -3 
   5  -4   1 127.756 55.6843  -2 
   5   9   8 127.756 55.6843   1 
   2   9   7 -5.0920 22.8408  -3 
  -3  -6   9 -5.0920 22.8408   1 
  -2   4  14 -3.7162 15.4472  -2 
  -2  -6   9 -3.7162 15.4472   1 
  -6  -1  11 -24.861 18.2623  -2 
  -6  -5   9 -24.861 18.2623   1 
  -5   0  12 36.5759 21.2704  -2 
  -5  -5   9 36.5759 21.2704   1 
  -4   1  12 11.7747 30.3053  -2 
  -4  -5   9 11.7747 30.3053   1 
  -3   2  13 7.87847 31.7720  -2 
  -3  -5   9 7.87847 31.7720   1 
  -2   3  13 -11.573 13.0468  -2 
  -2  -5   9 -11.573 13.0468   1 
  -1  -5   9 89.6972 12.1018   1 
   0   5  14 25.4460 11.2780  -2 
   0  -5   9 25.4460 11.2780   1 
  -7  -4   9 -42.903 33.1732   1 
  -6  -2  10 -8.1711 15.3446  -2 
  -6  -4   9 -8.1711 15.3446   1 
   5   8   6 283.770 25.6370  -3 
  -5  -1  11 283.770 25.6370  -2 
  -5  -4   9 283.770 25.6370   1 
  -4   0  11 119.289 18.7327  -2 
  -4  -4   9 119.289 18.7327   1 
  -3   1  12 -5.4049 27.9868  -2 
  -3  -4   9 -5.4049 27.9868   1 
  -2   2  12 29.2279 24.2544  -2 
  -2  -4   9 29.2279 24.2544   1 
  -1  -4   9 137.258 20.7323   1 
   0   4  13 33.2439 11.1292  -2 
   0  -4   9 33.2439 11.1292   1 
   1  -4   9 1.43750 7.79779   1 
  -6  -3   9 4.80943 19.5574  -2 
  -6  -3   9 4.80943 19.5574   1 
  -5  -2  10 91.9015 49.5132  -2 
  -5  -3   9 91.9015 49.5132   1 
  -4  -1  10 -4.6322 11.5729  -2 
  -4  -3   9 -4.6322 11.5729   1 
  -3  -3   9 -2.1776 7.26264   1 
  -2   1  11 76.1117 26.0784  -2 
  -2  -3   9 76.1117 26.0784   1 
   1   6   8 -7.1405 26.7672  -3 
  -1  -3   9 -7.1405 26.7672   1 
   0   3  12 15.1433 18.4857  -2 
   0  -3   9 15.1433 18.4857   1 
   1  -3   9 84.6024 8.38841   1 
   2   5  13 19.0371 12.7933  -2 
   2  -3   9 19.0371 12.7933   1 
  -3   5  10 98.1963 25.9306  -3 
   3   6  13 98.1963 25.9306  -2 
   3  -3   9 98.1963 25.9306   1 
   8   7   5 -102.91 80.3263  -3 
  -7  -5   8 -102.91 80.3263  -2 
  -7  -2   9 -102.91 80.3263   1 
  -6  -4   8 -0.9656 21.6069  -2 
  -6  -2   9 -0.9656 21.6069   1 
  -5  -3   9 104.002 52.6887  -2 
  -5  -2   9 104.002 52.6887   1 
  -4  -2   9 174.871 15.4699  -2 
  -4  -2   9 174.871 15.4699   1 
  -3  -2   9 16.8518 6.64499   1 
  -2   0  10 23.9474 22.9914  -2 
  -2  -2   9 23.9474 22.9914   1 
  -1  -2   9 365.288 35.2195   1 
   0   2  11 5.61335 21.4076  -2 
   0  -2   9 5.61335 21.4076   1 
  -1   5   9 -11.118 21.9750  -3 
   1  -2   9 -11.118 21.9750   1 
   2   4  12 20.8176 10.9370  -2 
   2  -2   9 20.8176 10.9370   1 
   3   5  12 137.557 26.7922  -2 
   3  -2   9 137.557 26.7922   1 
   4   6  13 21.8946 21.8152  -2 
   4  -2   9 21.8946 21.8152   1 
  -7  -1   9 32.0712 45.0652   1 
   7   6   5 48.9861 67.4770  -3 
  -6  -5   7 48.9861 67.4770  -2 
  -6  -1   9 48.9861 67.4770   1 
  -5  -4   8 271.927 31.2034  -2 
  -5  -1   9 271.927 31.2034   1 
  -4  -3   8 395.179 30.9703  -2 
  -4  -1   9 395.179 30.9703   1 
  -3  -1   9 39.9823 6.67155   1 
   3   5   7 27.6473 23.8207  -3 
  -2  -1   9 27.6473 23.8207  -2 
  -2  -1   9 27.6473 23.8207   1 
  -2  -1   9 49.3430 20.0840  -2 
  -2  -1   9 49.3430 20.0840   1 
  -1  -1   9 33.7235 4.67015   1 
   0   1  10 97.6229 24.9856  -2 
   0  -1   9 97.6229 24.9856   1 
   1  -1   9 12.1330 6.64227   1 
   2   3  11 24.5390 12.5541  -2 
   2  -1   9 24.5390 12.5541   1 
   3   4  11 149.462 21.9274  -2 
   3  -1   9 149.462 21.9274   1 
   4   5  12 128.155 17.3606  -2 
   4  -1   9 128.155 17.3606   1 
   5   6  12 47.2178 27.4596  -2 
   5  -1   9 47.2178 27.4596   1 
  -7   0   9 -12.214 43.0867   1 
  -6  -6   6 20.6911 59.5035  -2 
  -6   0   9 20.6911 59.5035   1 
  -5   0   9 21.0601 9.99597   1 
  -4  -4   7 108.342 19.9678  -2 
  -4   0   9 108.342 19.9678   1 
  -3   0   9 2.65517 4.67020   1 
  -2  -2   8 43.2998 14.1001  -2 
  -2   0   9 43.2998 14.1001   1 
  -1   0   9 185.696 13.7022   1 
   0   0   9 5.02113 14.0692  -2 
   0   0   9 5.02113 14.0692   1 
   1   0   9 6.91862 7.27790   1 
   2   2  10 15.8200 27.0746  -2 
   2   0   9 15.8200 27.0746   1 
   3   3  10 208.041 37.7445  -2 
   3   0   9 208.041 37.7445   1 
   4   4  11 63.3211 13.6775  -2 
   4   0   9 63.3211 13.6775   1 
  -6  -7   5 -6.5006 64.6066  -2 
  -6   1   9 -6.5006 64.6066   1 
  -5   1   9 87.5826 13.1318   1 
  -4  -5   6 228.106 28.0580  -2 
  -4   1   9 228.106 28.0580   1 
  -3   1   9 19.4883 8.47770   1 
  -2  -3   7 19.6821 12.7190  -2 
  -2   1   9 19.6821 12.7190   1 
  -1   1   9 333.053 20.3391   1 
   0  -1   8 324.802 33.7439  -2 
   0   1   9 324.802 33.7439   1 
   1   1   9 96.1153 11.1820   1 
   2   1   9 11.3045 18.9722  -2 
   2   1   9 11.3045 18.9722   1 
   3   1   9 75.8321 17.6609   1 
   4   3  10 31.1138 14.6874  -2 
   4   1   9 31.1138 14.6874   1 
   5   4  10 85.2941 26.9857  -2 
   5   1   9 85.2941 26.9857   1 
  -6  -8   4 151.255 71.4524  -2 
  -6   2   9 151.255 71.4524   1 
  -5   2   9 -11.599 10.7800   1 
   6   3   7 -15.244 59.7464  -3 
  -4  -6   5 -15.244 59.7464  -2 
  -4   2   9 -15.244 59.7464   1 
   5   3   7 -10.963 22.6111  -3 
  -3  -5   6 -10.963 22.6111  -2 
  -3   2   9 -10.963 22.6111   1 
   5   3   7 19.4555 36.3185  -3 
  -3   2   9 19.4555 36.3185   1 
  -2  -4   6 3.74504 14.2195  -2 
  -2   2   9 3.74504 14.2195   1 
  -1   2   9 -1.2142 4.68781   1 
   0  -2   7 615.980 31.1867  -2 
   0   2   9 615.980 31.1867   1 
   1   2   9 133.010 18.4472   1 
   2   0   8 60.5787 26.9263  -2 
   2   2   9 60.5787 26.9263   1 
   3   2   9 46.6032 15.2613   1 
   4   2   9 184.690 31.3937  -2 
   4   2   9 184.690 31.3937   1 
   5   3   9 152.308 27.1090  -2 
   5   2   9 152.308 27.1090   1 
   6   4  10 107.791 27.9675  -2 
   6   2   9 107.791 27.9675   1 
  -5   3   9 7.24139 11.7509   1 
  -4  -7   4 -29.567 54.7361  -2 
  -4   3   9 -29.567 54.7361   1 
  -3   3   9 19.2481 8.95112   1 
  -2  -5   5 74.9659 17.4219  -2 
  -2   3   9 74.9659 17.4219   1 
  -1   3   9 214.362 12.5618   1 
   0  -3   6 67.2578 12.9211  -2 
   0   3   9 67.2578 12.9211   1 
   1   3   9 104.233 16.6469   1 
   0   1  10 -16.949 25.3074  -3 
   2  -1   7 -16.949 25.3074  -2 
   2   3   9 -16.949 25.3074   1 
   2  -1   7 -4.0749 25.8034  -2 
   2   3   9 -4.0749 25.8034   1 
   3   3   9 121.028 18.8667   1 
   4   1   8 19.6990 24.4628  -2 
   4   3   9 19.6990 24.4628   1 
  -5   4   9 28.2010 43.4972   1 
  -4  -8   3 196.724 30.3651  -2 
  -4   4   9 196.724 30.3651   1 
   7   2   6 185.350 69.6606  -3 
  -4  -8   3 185.350 69.6606  -2 
  -4   4   9 185.350 69.6606   1 
  -3   4   9 102.213 13.8269   1 
  -2  -6   4 362.040 30.5941  -2 
  -2   4   9 362.040 30.5941   1 
  -1  -5   4 84.1693 50.8922  -2 
  -1   4   9 84.1693 50.8922   1 
   0  -4   5 360.218 21.1358  -2 
   0   4   9 360.218 21.1358   1 
   1   0   9 88.5512 25.9288  -3 
   1   4   9 88.5512 25.9288   1 
   2  -2   6 206.646 23.1194  -2 
   2   4   9 206.646 23.1194   1 
   3   4   9 29.7584 9.14363   1 
   4   0   7 96.9966 22.4826  -2 
   4   4   9 96.9966 22.4826   1 
  -3  -1  11 103.695 23.0121  -3 
   5   1   7 103.695 23.0121  -2 
   5   4   9 103.695 23.0121   1 
  -4  -1  12 109.747 24.8024  -3 
   6   2   8 109.747 24.8024  -2 
   6   4   9 109.747 24.8024   1 
   7   3   8 108.807 22.3651  -2 
   7   4   9 108.807 22.3651   1 
  -4  -9   2 98.1076 66.1072  -2 
  -4   5   9 98.1076 66.1072   1 
  -3   5   9 34.0418 36.5181   1 
  -2  -7   3 129.843 49.0744  -2 
  -2   5   9 129.843 49.0744   1 
   4   0   8 39.9917 42.4464  -3 
  -1   5   9 39.9917 42.4464   1 
   3   0   9 53.1048 54.1086  -3 
   0  -5   4 53.1048 54.1086  -2 
   0   5   9 53.1048 54.1086   1 
   1   5   9 -12.540 26.3998   1 
   2  -3   5 102.537 35.8032  -2 
   2   5   9 102.537 35.8032   1 
   0  -1  10 15.8911 29.4807  -3 
   3   5   9 15.8911 29.4807   1 
   5   5   9 2.08014 14.8374   1 
  -3   6   9 22.4758 36.7594   1 
   4  -1   8 99.7391 48.7780  -3 
  -1   6   9 99.7391 48.7780   1 
   3  -1   9 137.774 50.1309  -3 
   0  -6   3 137.774 50.1309  -2 
   0   6   9 137.774 50.1309   1 
   1   6   9 314.686 44.2639   1 
   2  -4   4 37.1722 32.8786  -2 
   2   6   9 37.1722 32.8786   1 
  -1  -2  11 33.1883 36.6811  -3 
   4  -2   5 33.1883 36.6811  -2 
   4   6   9 33.1883 36.6811   1 
   5   6   9 48.1090 20.2927   1 
  -2   7   9 105.159 37.3487   1 
   0  -7   2 84.2891 39.8867  -2 
   0   7   9 84.2891 39.8867   1 
   1   7   9 120.368 31.3192   1 
   2  -5   3 248.683 41.5169  -2 
   2   7   9 248.683 41.5169   1 
   3   7   9 29.1024 21.8223   1 
  -1  -3  11 16.1764 37.3234  -3 
   4  -3   4 16.1764 37.3234  -2 
   4   7   9 16.1764 37.3234   1 
   5   7   9 22.5386 22.4865   1 
   6  -1   5 120.865 40.1502  -2 
   6   7   9 120.865 40.1502   1 
   7   7   9 5.59467 22.5231   1 
   0  -8   1 54.0498 43.2401  -2 
   0   8   9 54.0498 43.2401   1 
   1   8   9 16.0889 26.8195   1 
   2  -6   2 54.1887 32.2204  -2 
   2   8   9 54.1887 32.2204   1 
   3   8   9 1.68560 19.4836   1 
   4  -4   3 55.0845 35.1109  -2 
   4   8   9 55.0845 35.1109   1 
   5   8   9 38.2599 27.7164   1 
   6  -2   4 30.3059 47.7420  -2 
   6   8   9 30.3059 47.7420   1 
   3   9   9 2.70730 19.9926   1 
   4  -5   2 30.3443 33.7708  -2 
   4   9   9 30.3443 33.7708   1 
  -5  -5  10 5.38319 11.1741   1 
  -4   1  13 8.24959 33.2616  -2 
  -4  -5  10 8.24959 33.2616   1 
  -3   2  14 81.0771 36.8431  -2 
  -3  -5  10 81.0771 36.8431   1 
  -2   3  14 -18.051 14.9575  -2 
  -2  -5  10 -18.051 14.9575   1 
   0   8   9 38.6026 26.5233  -3 
  -1  -5  10 38.6026 26.5233   1 
  -6  -2  11 31.1083 36.4305  -2 
  -6  -4  10 31.1083 36.4305   1 
  -5  -1  12 -0.6167 28.1535  -2 
  -5  -4  10 -0.6167 28.1535   1 
   4   8   7 -26.767 21.6790  -3 
  -4   0  12 -26.767 21.6790  -2 
  -4  -4  10 -26.767 21.6790   1 
   3   8   8 54.7247 39.0759  -3 
  -3   1  13 54.7247 39.0759  -2 
  -3  -4  10 54.7247 39.0759   1 
  -2   2  13 38.3072 27.1089  -2 
  -2  -4  10 38.3072 27.1089   1 
  -1  -4  10 -0.7616 9.66294   1 
   0   4  14 20.0167 13.6745  -2 
   0  -4  10 20.0167 13.6745   1 
   1  -4  10 13.5012 8.79074   1 
  -6  -3  10 -41.634 43.9586  -2 
  -6  -3  10 -41.634 43.9586   1 
  -5  -2  11 86.2646 17.3883  -2 
  -5  -3  10 86.2646 17.3883   1 
  -4  -1  11 -5.3785 14.7630  -2 
  -4  -3  10 -5.3785 14.7630   1 
   3   7   8 66.3278 25.2896  -3 
  -3  -3  10 66.3278 25.2896   1 
  -2   1  12 42.0012 27.1044  -2 
  -2  -3  10 42.0012 27.1044   1 
  -1  -3  10 128.716 19.5070   1 
   0   3  13 -7.6216 19.8206  -2 
   0  -3  10 -7.6216 19.8206   1 
  -1   6  10 24.6945 11.9894  -3 
   1  -3  10 24.6945 11.9894   1 
   2   5  14 44.0871 17.8610  -2 
   2  -3  10 44.0871 17.8610   1 
  -5  -2  10 72.7004 9.23688   1 
  -4  -2  10 -4.9448 12.1786  -2 
  -4  -2  10 -4.9448 12.1786   1 
  -3  -2  10 5.55356 6.57906   1 
  -2   0  11 73.0806 26.0129  -2 
  -2  -2  10 73.0806 26.0129   1 
  -1  -2  10 194.891 25.4295   1 
   0   2  12 169.861 27.4416  -2 
   0  -2  10 169.861 27.4416   1 
  -1   5  10 30.4225 24.9376  -3 
   1  -2  10 30.4225 24.9376   1 
   2   4  13 31.9133 11.9757  -2 
   2  -2  10 31.9133 11.9757   1 
   3  -2  10 -1.7499 11.2309   1 
  -6  -5   8 -43.104 56.5209  -2 
  -6  -1  10 -43.104 56.5209   1 
   6   6   7 9.70579 16.4686  -3 
  -5  -1  10 9.70579 16.4686   1 
  -4  -3   9 11.7523 12.5339  -2 
  -4  -1  10 11.7523 12.5339   1 
  -3  -1  10 110.077 9.71384   1 
  -2  -1  10 117.217 15.5744  -2 
  -2  -1  10 117.217 15.5744   1 
  -1  -1  10 36.7758 13.9964   1 
   0   1  11 78.1709 28.1000  -2 
   0  -1  10 78.1709 28.1000   1 
   1  -1  10 14.4010 7.64690   1 
   2   3  12 35.3190 12.8457  -2 
   2  -1  10 35.3190 12.8457   1 
   3   4  12 249.487 26.4408  -2 
   3  -1  10 249.487 26.4408   1 
   4   5  13 0.14063 19.0892  -2 
   4  -1  10 0.14063 19.0892   1 
  -6  -6   7 6.45087 59.5551  -2 
  -6   0  10 6.45087 59.5551   1 
  -5   0  10 116.812 14.5076   1 
  -4  -4   8 61.4742 18.3032  -2 
  -4   0  10 61.4742 18.3032   1 
  -3   0  10 -4.7222 5.15825   1 
  -2  -2   9 28.7865 12.6107  -2 
  -2   0  10 28.7865 12.6107   1 
   2   4   9 267.358 29.9003  -3 
  -1   0  10 267.358 29.9003   1 
   0   0  10 27.0130 16.8053  -2 
   0   0  10 27.0130 16.8053   1 
   1   0  10 0.46213 7.92264   1 
   2   2  11 -1.5436 20.0426  -2 
   2   0  10 -1.5436 20.0426   1 
  -2   3  11 262.605 36.2596  -3 
   3   0  10 262.605 36.2596   1 
  -2   3  11 237.189 27.2857  -3 
   3   3  11 237.189 27.2857  -2 
   3   0  10 237.189 27.2857   1 
   8   5   6 -12.567 72.4961  -3 
  -6  -7   6 -12.567 72.4961  -2 
  -6   1  10 -12.567 72.4961   1 
  -5   1  10 25.7485 11.7909   1 
  -4  -5   7 164.141 23.0212  -2 
  -4   1  10 164.141 23.0212   1 
  -3   1  10 129.564 9.84576   1 
  -2  -3   8 110.703 13.7269  -2 
  -2   1  10 110.703 13.7269   1 
  -1   1  10 76.5491 8.67917   1 
   0  -1   9 83.1684 25.5028  -2 
   0   1  10 83.1684 25.5028   1 
   1   1  10 47.4762 9.81096   1 
   2   1  10 27.8299 20.8831  -2 
   2   1  10 27.8299 20.8831   1 
  -2   2  11 49.8865 31.5696  -3 
   3   1  10 49.8865 31.5696   1 
   4   3  11 80.9195 16.3591  -2 
   4   1  10 80.9195 16.3591   1 
   5   4  11 79.8832 28.7037  -2 
   5   1  10 79.8832 28.7037   1 
  -5   2  10 31.0142 11.4989   1 
  -4  -6   6 -23.106 49.8825  -2 
  -4   2  10 -23.106 49.8825   1 
   5   3   8 23.6563 19.3591  -3 
  -3   2  10 23.6563 19.3591   1 
  -2   2  10 13.4845 8.29862   1 
   3   3   9 336.660 54.5871  -3 
  -1   2  10 336.660 54.5871   1 
   0  -2   8 28.2388 23.2711  -2 
   0   2  10 28.2388 23.2711   1 
   1   2  10 2.37601 12.5650   1 
   2   0   9 16.2023 29.5684  -2 
   2   2  10 16.2023 29.5684   1 
   3   2  10 121.440 21.6238   1 
   4   2  10 37.8706 28.5980  -2 
   4   2  10 37.8706 28.5980   1 
   5   3  10 97.0306 29.0799  -2 
   5   2  10 97.0306 29.0799   1 
  -5   3  10 35.4928 42.2371   1 
  -4  -7   5 48.5806 58.0752  -2 
  -4   3  10 48.5806 58.0752   1 
  -3   3  10 53.2219 10.8519   1 
  -2  -5   6 41.5561 16.4818  -2 
  -2   3  10 41.5561 16.4818   1 
   4   2   9 29.5132 16.5222  -3 
  -2   3  10 29.5132 16.5222   1 
  -1   3  10 274.101 18.0598   1 
   0  -3   7 628.424 32.8392  -2 
   0   3  10 628.424 32.8392   1 
   1   3  10 232.777 21.0082   1 
   2  -1   8 93.2877 31.4662  -2 
   2   3  10 93.2877 31.4662   1 
   3   3  10 71.3659 17.1401   1 
   4   1   9 13.4842 24.6155  -2 
   4   3  10 13.4842 24.6155   1 
   5   2   9 103.538 28.1152  -2 
   5   3  10 103.538 28.1152   1 
   6   3  10 111.361 27.3650  -2 
   6   3  10 111.361 27.3650   1 
  -4   4  10 8.11168 11.0187   1 
   6   2   8 67.1466 75.9806  -3 
  -3  -7   5 67.1466 75.9806  -2 
  -3   4  10 67.1466 75.9806   1 
  -2  -6   5 201.140 49.0120  -2 
  -2   4  10 201.140 49.0120   1 
  -1  -5   5 133.985 53.6872  -2 
  -1   4  10 133.985 53.6872   1 
   0  -4   6 235.082 21.9548  -2 
   0   4  10 235.082 21.9548   1 
   1   4  10 18.4267 11.2997   1 
   2  -2   7 171.137 36.7374  -2 
   2   4  10 171.137 36.7374   1 
   3   4  10 4.14289 12.9631   1 
   4   0   8 83.2360 22.3038  -2 
   4   4  10 83.2360 22.3038   1 
   5   1   8 127.138 25.5477  -2 
   5   4  10 127.138 25.5477   1 
   6   2   9 101.238 23.0255  -2 
   6   4  10 101.238 23.0255   1 
   6   1   8 56.0580 60.4899  -3 
  -3   5  10 56.0580 60.4899   1 
  -2  -7   4 39.6861 48.6075  -2 
  -2   5  10 39.6861 48.6075   1 
  -1  -6   4 145.785 52.3483  -2 
  -1   5  10 145.785 52.3483   1 
   0  -5   5 41.0389 40.0909  -2 
   0   5  10 41.0389 40.0909   1 
   1  -4   5 248.712 55.8205  -2 
   1   5  10 248.712 55.8205   1 
   2  -3   6 12.1151 35.4427  -2 
   2   5  10 12.1151 35.4427   1 
   3   5  10 193.028 30.0685   1 
  -2  -8   3 213.387 57.5709  -2 
  -2   6  10 213.387 57.5709   1 
  -1   6  10 66.9590 31.3244   1 
   2  -1  10 185.803 49.6988  -3 
   1   6  10 185.803 49.6988   1 
   3   6  10 15.1374 19.6221   1 
   4  -2   6 118.127 34.2548  -2 
   4   6  10 118.127 34.2548   1 
  -1   7  10 51.1465 32.5194   1 
   0  -7   3 85.9479 41.8215  -2 
   0   7  10 85.9479 41.8215   1 
   1   7  10 19.8541 27.4794   1 
   2  -5   4 182.392 40.7902  -2 
   2   7  10 182.392 40.7902   1 
   3   7  10 14.4461 22.4336   1 
   4  -3   5 45.0034 35.2878  -2 
   4   7  10 45.0034 35.2878   1 
   1   8  10 83.6388 31.2035   1 
   2  -6   3 68.9342 35.6323  -2 
   2   8  10 68.9342 35.6323   1 
   1  -3  11 56.1893 39.9582  -3 
   3   8  10 56.1893 39.9582   1 
   0  -3  12 20.2698 49.1625  -3 
   4  -4   4 20.2698 49.1625  -2 
   4   8  10 20.2698 49.1625   1 
   5   8  10 73.2735 30.4170   1 
  -3  -5  11 -19.904 18.5665   1 
  -4   0  13 25.4137 31.4131  -2 
  -4  -4  11 25.4137 31.4131   1 
  -3  -4  11 56.3218 19.1152   1 
  -2  -4  11 8.49333 16.3084   1 
  -1  -4  11 18.9737 10.9534   1 
  -6  -3  11 -8.1969 43.3508  -2 
  -6  -3  11 -8.1969 43.3508   1 
  -5  -3  11 33.5222 14.5704   1 
  -4  -1  12 104.204 18.6005  -2 
  -4  -3  11 104.204 18.6005   1 
  -3  -3  11 112.591 12.1865   1 
  -2   1  13 -43.396 29.3384  -2 
  -2  -3  11 -43.396 29.3384   1 
   1   7  10 62.1629 28.9355  -3 
  -1  -3  11 62.1629 28.9355   1 
   0   3  14 33.9903 25.6019  -2 
   0  -3  11 33.9903 25.6019   1 
   1  -3  11 19.8689 10.2122   1 
  -6  -4  10 36.8558 49.6409  -2 
  -6  -2  11 36.8558 49.6409   1 
  -5  -2  11 -1.3910 6.44472   1 
  -3  -2  11 9.33362 7.71147   1 
  -2   0  12 1.99949 25.8256  -2 
  -2  -2  11 1.99949 25.8256   1 
  -1  -2  11 -2.5939 6.28235   1 
   0   2  13 -22.259 22.9302  -2 
   0  -2  11 -22.259 22.9302   1 
   1  -2  11 3.59395 7.56655   1 
   2   4  14 45.9629 19.9086  -2 
   2  -2  11 45.9629 19.9086   1 
  -6  -5   9 3.50468 56.2325  -2 
  -6  -1  11 3.50468 56.2325   1 
  -5  -1  11 82.5892 8.61910   1 
  -4  -3  10 -18.684 17.5927  -2 
  -4  -1  11 -18.684 17.5927   1 
   4   6   9 24.9537 11.7753  -3 
  -3  -1  11 24.9537 11.7753   1 
  -2  -1  11 10.3024 13.8942  -2 
  -2  -1  11 10.3024 13.8942   1 
  -1  -1  11 59.3246 16.0600   1 
   0   1  12 51.4927 16.6678  -2 
   0  -1  11 51.4927 16.6678   1 
   1  -1  11 43.3616 8.53251   1 
   2   3  13 94.6071 18.3244  -2 
   2  -1  11 94.6071 18.3244   1 
   3  -1  11 16.4252 13.4200   1 
   4   5  14 21.6110 20.0427  -2 
   4  -1  11 21.6110 20.0427   1 
  -5   0  11 73.8462 12.6709   1 
  -4  -4   9 113.939 19.5223  -2 
  -4   0  11 113.939 19.5223   1 
  -3   0  11 5.17794 5.43850   1 
  -2  -2  10 125.294 15.8372  -2 
  -2   0  11 125.294 15.8372   1 
  -1   0  11 82.3286 8.62518   1 
   0   0  11 71.2735 29.0960  -2 
   0   0  11 71.2735 29.0960   1 
   0   4  11 5.81519 15.9772  -3 
   1   0  11 5.81519 15.9772   1 
   2   2  12 -8.1608 19.9446  -2 
   2   0  11 -8.1608 19.9446   1 
   3   3  12 45.5749 33.5543  -2 
   3   0  11 45.5749 33.5543   1 
   4   4  13 -10.272 20.3474  -2 
   4   0  11 -10.272 20.3474   1 
   6   5   8 -29.297 52.5979  -3 
  -4  -5   8 -29.297 52.5979  -2 
  -4   1  11 -29.297 52.5979   1 
  -3   1  11 15.0630 5.93816   1 
  -2  -3   9 123.873 14.9886  -2 
  -2   1  11 123.873 14.9886   1 
  -1   1  11 58.6643 7.80317   1 
   0  -1  10 49.1803 25.9080  -2 
   0   1  11 49.1803 25.9080   1 
   1   1  11 25.5386 14.8984   1 
   2   1  11 11.0718 30.0867  -2 
   2   1  11 11.0718 30.0867   1 
   3   1  11 13.7273 15.5702   1 
   4   3  12 44.7233 17.2986  -2 
   4   1  11 44.7233 17.2986   1 
  -5   2  11 81.7115 39.5002   1 
  -4  -6   7 49.8691 51.8724  -2 
  -4   2  11 49.8691 51.8724   1 
  -3  -5   7 74.5290 52.7481  -2 
  -3   2  11 74.5290 52.7481   1 
  -2  -4   8 -23.441 38.9411  -2 
  -2   2  11 -23.441 38.9411   1 
   3   3  10 175.929 15.4965  -3 
  -1   2  11 175.929 15.4965   1 
   0  -2   9 -9.4581 25.5095  -2 
   0   2  11 -9.4581 25.5095   1 
   1   2  11 3.77684 14.6401   1 
   2   0  10 -7.7085 32.0593  -2 
   2   2  11 -7.7085 32.0593   1 
   3   2  11 146.885 22.7045   1 
   4   2  11 55.5499 31.2667  -2 
   4   2  11 55.5499 31.2667   1 
   5   3  11 106.271 32.9871  -2 
   5   2  11 106.271 32.9871   1 
  -5   3  11 34.7787 45.4709   1 
  -4  -7   6 243.681 65.1045  -2 
  -4   3  11 243.681 65.1045   1 
  -3   3  11 33.9820 9.87238   1 
  -2  -5   7 76.7233 43.1093  -2 
  -2   3  11 76.7233 43.1093   1 
   3   2  10 -31.116 21.2273  -3 
  -1   3  11 -31.116 21.2273   1 
   0   3  11 16.1038 6.06278   1 
   1   3  11 40.5518 14.9956   1 
   2  -1   9 49.6385 34.2005  -2 
   2   3  11 49.6385 34.2005   1 
  -1   1  12 55.0925 27.7484  -3 
   3   3  11 55.0925 27.7484   1 
   4   1  10 79.2132 28.9191  -2 
   4   3  11 79.2132 28.9191   1 
   5   2  10 101.282 32.1479  -2 
   5   3  11 101.282 32.1479   1 
  -4  -8   5 31.6669 63.3880  -2 
  -4   4  11 31.6669 63.3880   1 
   6   2   9 66.8356 61.5470  -3 
  -3   4  11 66.8356 61.5470   1 
   5   2   9 57.6760 52.7750  -3 
  -2  -6   6 57.6760 52.7750  -2 
  -2   4  11 57.6760 52.7750   1 
  -1   4  11 61.9737 8.44684   1 
   0  -4   7 52.3275 13.3107  -2 
   0   4  11 52.3275 13.3107   1 
   1  -3   7 99.5724 50.4535  -2 
   1   4  11 99.5724 50.4535   1 
   2  -2   8 172.942 36.5917  -2 
   2   4  11 172.942 36.5917   1 
   3   4  11 70.7297 17.2694   1 
   4   0   9 101.514 25.7795  -2 
   4   4  11 101.514 25.7795   1 
   5   4  11 2.09964 13.3093   1 
   6   2  10 180.247 28.6359  -2 
   6   4  11 180.247 28.6359   1 
   5   1  10 86.7134 63.1000  -3 
  -2  -7   5 86.7134 63.1000  -2 
  -2   5  11 86.7134 63.1000   1 
   0  -5   6 153.895 44.2489  -2 
   0   5  11 153.895 44.2489   1 
   1  -4   6 282.189 57.3852  -2 
   1   5  11 282.189 57.3852   1 
   2  -3   7 27.4089 34.8127  -2 
   2   5  11 27.4089 34.8127   1 
   0   0  12 144.724 35.6885  -3 
   3   5  11 144.724 35.6885   1 
  -1  -7   4 164.059 58.9930  -2 
  -1   6  11 164.059 58.9930   1 
   0  -6   5 91.8249 44.2686  -2 
   0   6  11 91.8249 44.2686   1 
   1  -5   5 140.275 51.0670  -2 
   1   6  11 140.275 51.0670   1 
   3   6  11 30.3618 21.3144   1 
   4  -2   7 80.0998 35.0572  -2 
   4   6  11 80.0998 35.0572   1 
  -1   7  11 44.3257 33.9679   1 
   0  -7   4 84.4514 45.3810  -2 
   0   7  11 84.4514 45.3810   1 
   2  -5   5 80.7507 38.8543  -2 
   2   7  11 80.7507 38.8543   1 
   3   7  11 99.2579 27.6733   1 
   4  -3   6 29.9866 36.9999  -2 
   4   7  11 29.9866 36.9999   1 
   5   7  11 37.9210 24.7158   1 
   2  -6   4 135.269 40.3059  -2 
   2   8  11 135.269 40.3059   1 
   3   8  11 13.6374 25.4494   1 
  -3  -3  12 -10.037 7.63324   1 
  -2   1  14 18.1812 32.5934  -2 
  -2  -3  12 18.1812 32.5934   1 
  -1  -3  12 -12.923 13.9465   1 
  -4  -2  12 56.3331 26.9079  -2 
  -4  -2  12 56.3331 26.9079   1 
  -3  -2  12 72.1106 9.39695   1 
  -2   0  13 43.4502 28.8416  -2 
  -2  -2  12 43.4502 28.8416   1 
  -1  -2  12 30.8147 15.5820   1 
   0   2  14 15.2920 26.2622  -2 
   0  -2  12 15.2920 26.2622   1 
   1   3  14 91.2257 28.1626  -2 
   1  -2  12 91.2257 28.1626   1 
  -5  -1  12 31.3854 29.3567   1 
  -4  -3  11 64.5388 16.9382  -2 
  -4  -1  12 64.5388 16.9382   1 
   4   6  10 45.6574 24.5153  -3 
  -3  -1  12 45.6574 24.5153   1 
   3   6  10 -33.030 30.6976  -3 
  -2  -1  12 -33.030 30.6976  -2 
  -2  -1  12 -33.030 30.6976   1 
  -1  -1  12 155.818 22.3702   1 
   0   1  13 -8.8267 25.5613  -2 
   0  -1  12 -8.8267 25.5613   1 
   1  -1  12 39.6942 9.35370   1 
   2   3  14 38.8520 25.5367  -2 
   2  -1  12 38.8520 25.5367   1 
   3  -1  12 28.4163 15.1943   1 
  -5   0  12 -38.444 29.3275   1 
  -4  -4  10 -38.447 22.5959  -2 
  -4   0  12 -38.447 22.5959   1 
  -3   0  12 5.94903 6.39382   1 
  -2  -2  11 -31.165 14.4970  -2 
  -2   0  12 -31.165 14.4970   1 
  -1   0  12 39.0733 13.8982   1 
   0   0  12 13.1033 27.0707  -2 
   0   0  12 13.1033 27.0707   1 
   1   0  12 31.6203 9.59391   1 
   2   2  13 105.135 34.8823  -2 
   2   0  12 105.135 34.8823   1 
  -2   4  13 -5.8885 24.4824  -3 
   3   0  12 -5.8885 24.4824   1 
   4   4  14 -44.050 21.9565  -2 
   4   0  12 -44.050 21.9565   1 
  -5   1  12 46.7591 34.5316   1 
   6   5   9 -14.929 24.6186  -3 
  -4  -5   9 -14.929 24.6186  -2 
  -4   1  12 -14.929 24.6186   1 
   5   5  10 54.4525 22.4092  -3 
  -3  -4  10 54.4525 22.4092  -2 
  -3   1  12 54.4525 22.4092   1 
  -2  -3  10 2.89174 13.8008  -2 
  -2   1  12 2.89174 13.8008   1 
  -1   1  12 141.665 11.6430   1 
   1   1  12 83.1772 17.7050   1 
   2   1  12 21.3379 34.7501  -2 
   2   1  12 21.3379 34.7501   1 
   3   1  12 58.3233 19.2877   1 
  -5   2  12 41.7547 39.5612   1 
  -4  -6   8 -1.2063 52.3905  -2 
  -4   2  12 -1.2063 52.3905   1 
   5   4  10 -14.690 13.1707  -3 
  -3   2  12 -14.690 13.1707   1 
  -3  -5   8 79.1349 51.3450  -2 
  -3   2  12 79.1349 51.3450   1 
  -2  -4   9 24.3078 18.9119  -2 
  -2   2  12 24.3078 18.9119   1 
  -1   2  12 173.164 12.7206   1 
   0  -2  10 197.123 32.2960  -2 
   0   2  12 197.123 32.2960   1 
   1   3  12 -17.720 29.3217  -3 
   1   2  12 -17.720 29.3217   1 
   2   0  11 -1.1420 29.0185  -2 
   2   2  12 -1.1420 29.0185   1 
   3   2  12 25.9506 16.5567   1 
   4   2  12 87.9837 34.7937  -2 
   4   2  12 87.9837 34.7937   1 
   7   4   9 -6.3165 71.7066  -3 
  -4  -7   7 -6.3165 71.7066  -2 
  -4   3  12 -6.3165 71.7066   1 
  -3  -6   7 106.938 57.7629  -2 
  -3   3  12 106.938 57.7629   1 
  -2  -5   8 47.9643 42.8901  -2 
  -2   3  12 47.9643 42.8901   1 
  -1  -4   8 234.835 52.7152  -2 
  -1   3  12 234.835 52.7152   1 
   0  -3   9 1.51961 25.8967  -2 
   0   3  12 1.51961 25.8967   1 
   1   2  12 -12.553 28.9734  -3 
   1   3  12 -12.553 28.9734   1 
   2  -1  10 -19.214 30.2243  -2 
   2   3  12 -19.214 30.2243   1 
   3   3  12 52.9986 18.4317   1 
   4   1  11 38.6399 33.0273  -2 
   4   3  12 38.6399 33.0273   1 
  -3  -7   6 57.6379 60.8320  -2 
  -3   4  12 57.6379 60.8320   1 
  -2  -6   7 104.479 49.8573  -2 
  -2   4  12 104.479 49.8573   1 
   4   2  11 168.593 23.5612  -3 
  -1   4  12 168.593 23.5612   1 
   3   2  11 77.0960 45.3174  -3 
   0  -4   8 77.0960 45.3174  -2 
   0   4  12 77.0960 45.3174   1 
   1  -3   8 78.1493 47.3926  -2 
   1   4  12 78.1493 47.3926   1 
   2   4  12 32.7150 16.5253   1 
   3   4  12 101.902 21.6081   1 
   4   0  10 71.5082 30.1877  -2 
   4   4  12 71.5082 30.1877   1 
  -3   0  14 175.289 31.5219  -3 
   5   4  12 175.289 31.5219   1 
  -3   5  12 24.0545 38.0951   1 
  -2  -7   6 25.7218 52.1816  -2 
  -2   5  12 25.7218 52.1816   1 
   4   1  11 201.582 62.0953  -3 
  -1  -6   6 201.582 62.0953  -2 
  -1   5  12 201.582 62.0953   1 
   3   1  12 270.476 58.8389  -3 
   0  -5   7 270.476 58.8389  -2 
   0   5  12 270.476 58.8389   1 
   1  -4   7 105.444 51.0419  -2 
   1   5  12 105.444 51.0419   1 
   2  -3   8 93.0710 37.2397  -2 
   2   5  12 93.0710 37.2397   1 
  -2   6  12 39.9085 35.7305   1 
  -1  -7   5 365.786 69.0647  -2 
  -1   6  12 365.786 69.0647   1 
   0  -6   6 65.0734 45.9396  -2 
   0   6  12 65.0734 45.9396   1 
   1  -5   6 116.177 53.4611  -2 
   1   6  12 116.177 53.4611   1 
   2  -4   7 71.6150 38.9132  -2 
   2   6  12 71.6150 38.9132   1 
   0  -1  13 113.341 39.1791  -3 
   3   6  12 113.341 39.1791   1 
   0  -7   5 139.039 48.8324  -2 
   0   7  12 139.039 48.8324   1 
   2  -1  12 114.709 52.6292  -3 
   2  -5   6 114.709 52.6292  -2 
   2   7  12 114.709 52.6292   1 
   4  -3   7 47.2358 39.1339  -2 
   4   7  12 47.2358 39.1339   1 
  -3  -1  13 -4.4388 7.34461   1 
  -2  -1  13 19.7768 28.1344  -2 
  -2  -1  13 19.7768 28.1344   1 
   2   6  12 -18.013 23.5605  -3 
  -1  -1  13 -18.013 23.5605   1 
   0   1  14 2.08209 28.6886  -2 
   0  -1  13 2.08209 28.6886   1 
   2   3  15 38.5328 28.3056  -2 
   2  -1  13 38.5328 28.3056   1 
  -5   0  13 -29.215 28.3444   1 
  -3   0  13 120.358 12.8998   1 
  -2  -2  12 59.9785 15.6436  -2 
  -2   0  13 59.9785 15.6436   1 
  -1   0  13 8.48908 13.3139   1 
   1   0  13 24.5419 13.0788   1 
   2   2  14 -32.671 30.8982  -2 
   2   0  13 -32.671 30.8982   1 
   3   0  13 15.7525 18.9131   1 
  -4  -5  10 49.8318 45.8480  -2 
  -4   1  13 49.8318 45.8480   1 
   5   5  11 31.4899 16.4651  -3 
  -3   1  13 31.4899 16.4651   1 
   4   5  11 -8.4134 21.4991  -3 
  -2  -3  11 -8.4134 21.4991  -2 
  -2   1  13 -8.4134 21.4991   1 
  -1   1  13 73.0420 8.57363   1 
   1   1  13 -5.2932 12.8979   1 
   2   1  13 38.1409 36.7990  -2 
   2   1  13 38.1409 36.7990   1 
   3   1  13 35.1268 20.8622   1 
  -4  -6   9 -53.682 50.7415  -2 
  -4   2  13 -53.682 50.7415   1 
  -3   2  13 6.04161 6.46931   1 
  -2   2  13 14.0388 9.23752   1 
  -1   2  13 0.41039 5.70773   1 
   0  -2  11 16.0891 25.1737  -2 
   0   2  13 16.0891 25.1737   1 
   1   2  13 0.39474 13.4278   1 
   0   3  13 95.9320 40.9857  -3 
   2   0  12 95.9320 40.9857  -2 
   2   2  13 95.9320 40.9857   1 
   3   2  13 9.31650 16.8829   1 
  -4   3  13 -9.1482 36.1852   1 
  -3   3  13 20.0842 7.78759   1 
  -2  -5   9 -5.5375 20.5152  -2 
  -2   3  13 -5.5375 20.5152   1 
  -1  -4   9 272.101 54.4754  -2 
  -1   3  13 272.101 54.4754   1 
   0  -3  10 -31.219 25.1610  -2 
   0   3  13 -31.219 25.1610   1 
   1   3  13 -4.8219 14.2198   1 
   2  -1  11 54.1620 33.3852  -2 
   2   3  13 54.1620 33.3852   1 
   3   3  13 59.7449 20.1592   1 
   4   1  12 113.451 37.3289  -2 
   4   3  13 113.451 37.3289   1 
  -3   4  13 10.2182 10.3670   1 
  -2  -6   8 95.7828 50.7599  -2 
  -2   4  13 95.7828 50.7599   1 
  -1  -5   8 163.333 53.8806  -2 
  -1   4  13 163.333 53.8806   1 
   3   2  12 184.137 56.6210  -3 
   0  -4   9 184.137 56.6210  -2 
   0   4  13 184.137 56.6210   1 
   1   4  13 6.57248 13.7749   1 
   2   4  13 -3.9823 15.7115   1 
   3   4  13 22.1086 19.0946   1 
   4   0  11 89.1156 34.1852  -2 
   4   4  13 89.1156 34.1852   1 
   5   4  13 14.8222 15.0079   1 
  -2  -7   7 120.465 54.4450  -2 
  -2   5  13 120.465 54.4450   1 
  -1  -6   7 307.874 64.0645  -2 
  -1   5  13 307.874 64.0645   1 
   0  -5   8 157.700 47.1598  -2 
   0   5  13 157.700 47.1598   1 
   2   1  13 89.1161 46.7223  -3 
   1   5  13 89.1161 46.7223   1 
   4   1  12 99.2629 49.5474  -3 
   0  -6   7 99.2629 49.5474  -2 
   0   6  13 99.2629 49.5474   1 
   1  -5   7 181.575 58.5071  -2 
   1   6  13 181.575 58.5071   1 
   2  -4   8 62.5299 40.1359  -2 
   2   6  13 62.5299 40.1359   1 
   1  -6   6 80.1880 56.0806  -2 
   1   7  13 80.1880 56.0806   1 
   2  -5   7 32.6416 41.8177  -2 
   2   7  13 32.6416 41.8177   1 
  -1   0  14 -2.6874 14.0249   1 
  -4   1  14 11.6611 32.4970   1 
   0  -1  13 -10.904 29.4125  -2 
   0   1  14 -10.904 29.4125   1 
   1   1  14 5.54142 14.5485   1 
  -3   2  14 66.4287 34.0249   1 
  -2  -4  11 32.8077 26.0525  -2 
  -2   2  14 32.8077 26.0525   1 
   3   4  13 -7.4425 23.3969  -3 
  -1   2  14 -7.4425 23.3969   1 
   0  -2  12 -17.540 29.6887  -2 
   0   2  14 -17.540 29.6887   1 
   1   2  14 71.8614 19.4200   1 
   2   0  13 -10.535 33.7329  -2 
   2   2  14 -10.535 33.7329   1 
   5   4  12 75.9357 44.1998  -3 
  -2  -5  10 75.9357 44.1998  -2 
  -2   3  14 75.9357 44.1998   1 
  -1   3  14 48.3722 8.08449   1 
   0   3  14 -5.8254 12.7844   1 
   1   3  14 13.4172 16.9524   1 
   2   3  14 31.0214 16.4772   1 
  -1   2  15 9.60303 37.9365  -3 
   3   3  14 9.60303 37.9365   1 
  -2  -6   9 65.2601 49.9637  -2 
  -2   4  14 65.2601 49.9637   1 
  -1   4  14 2.77980 7.59890   1 
   0   4  14 -10.619 13.3573   1 
   1   4  14 14.5491 16.4716   1 
   3   4  14 -7.0553 18.1206   1 
   4   0  12 78.3513 38.3227  -2 
   4   4  14 78.3513 38.3227   1 
  -1  -6   8 250.571 61.5168  -2 
  -1   5  14 250.571 61.5168   1 
   0  -5   9 134.556 48.1447  -2 
   0   5  14 134.556 48.1447   1 
  -1   3  15 -7.1039 7.04478   1 
   0  -3  12 -43.092 30.2942  -2 
   0   3  15 -43.092 30.2942   1 
   1   3  15 7.78598 15.4559   1 
   2   3  15 14.0813 16.5446   1 
   0  -4  11 -43.867 29.6446  -2 
   0   4  15 -43.867 29.6446   1 
   1   4  15 40.3783 19.1560   1 
   2   4  15 -6.8674 15.7078   1 
   0   0   0    0.00    0.00   0 
;
_shelx_hkl_checksum              75532
loop_
_space_group_symop_operation_xyz
'x, y, z'
'-x, -y, -z'
loop_
_atom_site_label
_atom_site_type_symbol
_atom_site_fract_x
_atom_site_fract_y
_atom_site_fract_z
_atom_site_U_iso_or_equiv
_atom_site_adp_type
_atom_site_occupancy
_atom_site_site_symmetry_order
_atom_site_calc_flag
_atom_site_refinement_flags_posn
_atom_site_refinement_flags_adp
Fe1 Fe 0.3743(5) 0.6608(6) 0.6869(2) 0.0295(9) Uani 1 1 d . U
Br1 Br 0.6387(5) 0.6969(6) 0.6089(2) 0.0475(9) Uani 1 1 d . U
Br2 Br 0.1216(4) 0.7230(6) 0.5661(2) 0.0383(8) Uani 1 1 d . U
S1 S 0.2364(13) 0.4870(14) 1.0454(5) 0.054(2) Uani 1 1 d . U
N1 N 0.318(3) 0.592(4) 0.8295(15) 0.037(4) Uani 1 1 d . U
N2 N 0.358(4) 0.344(3) 0.9779(18) 0.042(5) Uani 1 1 d . U
N3 N 0.180(5) 0.715(3) 0.9738(19) 0.052(6) Uani 1 1 d . U
N4 N 0.514(3) 0.364(3) 0.7275(17) 0.029(4) Uani 1 1 d . U
N5 N 0.258(4) 0.917(3) 0.7241(18) 0.033(4) Uani 1 1 d . U
C1 C 0.391(5) 0.403(4) 0.882(2) 0.036(5) Uani 1 1 d . U
C2 C 0.232(5) 0.726(4) 0.883(2) 0.035(5) Uani 1 1 d . U
C3 C 0.485(5) 0.287(4) 0.821(2) 0.038(6) Uani 1 1 d . U
C4 C 0.606(4) 0.059(5) 0.857(2) 0.041(6) Uani 1 1 d . U
H4A H 0.6076 -0.0090 0.9255 0.049 Uiso 1 1 calc R U
C5 C 0.692(5) -0.024(4) 0.795(2) 0.038(6) Uani 1 1 d . U
H5A H 0.7552 -0.1569 0.8158 0.046 Uiso 1 1 calc R U
C6 C 0.704(5) 0.066(4) 0.696(2) 0.038(6) Uani 1 1 d . U
H6A H 0.7741 -0.0032 0.6502 0.046 Uiso 1 1 calc R U
C7 C 0.610(6) 0.262(4) 0.665(3) 0.048(7) Uani 1 1 d . U
H7A H 0.6158 0.3239 0.5964 0.057 Uiso 1 1 calc R U
C8 C 0.197(4) 0.914(4) 0.818(2) 0.028(5) Uani 1 1 d . U
C9 C 0.104(5) 1.054(5) 0.852(2) 0.042(6) Uani 1 1 d . U
H9A H 0.0576 1.0399 0.9178 0.050 Uiso 1 1 calc R U
C10 C 0.066(5) 1.247(5) 0.785(2) 0.043(6) Uani 1 1 d . U
H10A H 0.0026 1.3576 0.8069 0.051 Uiso 1 1 calc R U
C11 C 0.133(5) 1.247(4) 0.690(2) 0.041(6) Uani 1 1 d . U
H11A H 0.1253 1.3594 0.6457 0.049 Uiso 1 1 calc R U
C12 C 0.209(4) 1.089(4) 0.659(2) 0.031(5) Uani 1 1 d . U
H12A H 0.2288 1.0984 0.5884 0.037 Uiso 1 1 calc R U
loop_
_atom_site_aniso_label
_atom_site_aniso_U_11
_atom_site_aniso_U_22
_atom_site_aniso_U_33
_atom_site_aniso_U_23
_atom_site_aniso_U_13
_atom_site_aniso_U_12
Fe1 0.033(2) 0.0143(17) 0.0386(19) -0.0070(18) 0.0066(15) -0.0091(19)
Br1 0.040(2) 0.0311(18) 0.079(2) -0.022(2) 0.0235(15) -0.0190(19)
Br2 0.0301(18) 0.0235(15) 0.0524(17) -0.0051(16) -0.0024(12) -0.0070(16)
S1 0.077(6) 0.043(4) 0.038(4) -0.008(4) 0.015(4) -0.026(5)
N1 0.049(9) 0.023(5) 0.045(5) -0.010(4) 0.009(5) -0.021(6)
N2 0.051(12) 0.036(8) 0.040(7) -0.008(5) 0.010(7) -0.022(7)
N3 0.071(15) 0.035(7) 0.045(7) -0.009(5) 0.019(8) -0.020(8)
N4 0.030(9) 0.013(5) 0.042(6) -0.006(4) 0.002(6) -0.010(5)
N5 0.037(10) 0.021(6) 0.041(6) -0.013(5) 0.013(6) -0.012(6)
C1 0.049(12) 0.023(6) 0.042(6) -0.009(5) 0.009(6) -0.022(6)
C2 0.044(13) 0.027(6) 0.042(6) -0.012(5) 0.009(7) -0.021(6)
C3 0.051(13) 0.020(6) 0.045(7) -0.008(5) 0.009(7) -0.019(6)
C4 0.051(13) 0.020(7) 0.057(9) -0.008(6) 0.008(8) -0.023(7)
C5 0.034(13) 0.026(8) 0.059(10) -0.013(7) 0.000(9) -0.016(8)
C6 0.036(13) 0.023(8) 0.059(10) -0.014(6) 0.003(9) -0.015(8)
C7 0.060(16) 0.026(7) 0.054(9) -0.015(6) 0.015(9) -0.014(8)
C8 0.035(12) 0.025(6) 0.039(7) -0.018(5) 0.011(7) -0.022(6)
C9 0.060(14) 0.028(7) 0.051(9) -0.024(7) 0.023(9) -0.026(8)
C10 0.049(15) 0.029(8) 0.060(11) -0.019(7) 0.021(10) -0.023(8)
C11 0.040(15) 0.022(7) 0.058(11) -0.011(7) 0.016(10) -0.010(8)
C12 0.019(12) 0.020(6) 0.049(9) -0.008(6) 0.007(8) -0.006(7)
loop_
_atom_type_symbol
_atom_type_description
_atom_type_scat_dispersion_real
_atom_type_scat_dispersion_imag
_atom_type_scat_source
C C 0.0033 0.0016 'International Tables Vol C Tables 4.2.6.8 and 6.1.1.4'
H H 0.0000 0.0000 'International Tables Vol C Tables 4.2.6.8 and 6.1.1.4'
N N 0.0061 0.0033 'International Tables Vol C Tables 4.2.6.8 and 6.1.1.4'
S S 0.1246 0.1234 'International Tables Vol C Tables 4.2.6.8 and 6.1.1.4'
Br Br -0.2901 2.4595 'International Tables Vol C Tables 4.2.6.8 and 6.1.1.4'
Fe Fe 0.3463 0.8444 'International Tables Vol C Tables 4.2.6.8 and 6.1.1.4'
loop_
_geom_angle_atom_site_label_1
_geom_angle_atom_site_label_2
_geom_angle_atom_site_label_3
_geom_angle
N1 Fe1 N5 77.5(10)
N1 Fe1 N4 76.8(10)
N5 Fe1 N4 152.3(7)
N1 Fe1 Br2 112.8(6)
N5 Fe1 Br2 99.7(7)
N4 Fe1 Br2 99.6(7)
N1 Fe1 Br1 135.1(6)
N5 Fe1 Br1 94.7(7)
N4 Fe1 Br1 96.2(6)
Br2 Fe1 Br1 112.09(16)
N2 S1 N3 108.4(10)
C2 N1 C1 119.3(19)
C2 N1 Fe1 121.1(19)
C1 N1 Fe1 119.0(19)
C1 N2 S1 122(2)
C2 N3 S1 114(2)
C7 N4 C3 122(3)
C7 N4 Fe1 124(2)
C3 N4 Fe1 113.1(17)
C8 N5 C12 116(2)
C8 N5 Fe1 115.7(17)
C12 N5 Fe1 127.0(19)
N2 C1 C3 124(3)
N2 C1 N1 123(3)
C3 C1 N1 113(3)
N3 C2 N1 132(3)
N3 C2 C8 118(3)
N1 C2 C8 110(2)
N4 C3 C1 118(3)
N4 C3 C4 114(2)
C1 C3 C4 127(3)
C5 C4 C3 119(3)
C4 C5 C6 123(3)
C5 C6 C7 119(3)
N4 C7 C6 122(3)
C9 C8 N5 126(3)
C9 C8 C2 118(3)
N5 C8 C2 115(2)
C8 C9 C10 118(3)
C11 C10 C9 114(3)
C12 C11 C10 121(3)
C11 C12 N5 123(3)
loop_
_geom_bond_atom_site_label_1
_geom_bond_atom_site_label_2
_geom_bond_distance
Fe1 N1 1.966(19)
Fe1 N5 2.10(2)
Fe1 N4 2.12(2)
Fe1 Br2 2.320(4)
Fe1 Br1 2.363(4)
S1 N2 1.62(2)
S1 N3 1.75(3)
N1 C2 1.39(4)
N1 C1 1.40(4)
N2 C1 1.33(3)
N3 C2 1.28(3)
N4 C7 1.33(4)
N4 C3 1.33(4)
N5 C8 1.34(4)
N5 C12 1.36(3)
C1 C3 1.38(4)
C2 C8 1.49(4)
C3 C4 1.64(5)
C4 C5 1.21(4)
C5 C6 1.38(4)
C6 C7 1.40(4)
C8 C9 1.26(4)
C9 C10 1.53(4)
C10 C11 1.37(4)
C11 C12 1.35(3)
loop_
_geom_torsion_atom_site_label_1
_geom_torsion_atom_site_label_2
_geom_torsion_atom_site_label_3
_geom_torsion_atom_site_label_4
_geom_torsion
N3 S1 N2 C1 -4(3)
N2 S1 N3 C2 4(3)
S1 N2 C1 C3 -177(3)
S1 N2 C1 N1 -2(5)
C2 N1 C1 N2 9(4)
Fe1 N1 C1 N2 -179(2)
C2 N1 C1 C3 -175(3)
Fe1 N1 C1 C3 -4(3)
S1 N3 C2 N1 3(5)
S1 N3 C2 C8 -177(2)
C1 N1 C2 N3 -10(4)
Fe1 N1 C2 N3 179(3)
C1 N1 C2 C8 170(3)
Fe1 N1 C2 C8 -1(3)
C7 N4 C3 C1 178(3)
Fe1 N4 C3 C1 -6(4)
C7 N4 C3 C4 8(4)
Fe1 N4 C3 C4 -175.6(17)
N2 C1 C3 N4 -178(3)
N1 C1 C3 N4 7(4)
N2 C1 C3 C4 -10(5)
N1 C1 C3 C4 174(3)
N4 C3 C4 C5 -7(4)
C1 C3 C4 C5 -175(3)
C3 C4 C5 C6 4(5)
C4 C5 C6 C7 -1(6)
C3 N4 C7 C6 -6(6)
Fe1 N4 C7 C6 178(3)
C5 C6 C7 N4 1(6)
C12 N5 C8 C9 -2(5)
Fe1 N5 C8 C9 -172(3)
C12 N5 C8 C2 173(3)
Fe1 N5 C8 C2 3(3)
N3 C2 C8 C9 -6(5)
N1 C2 C8 C9 174(3)
N3 C2 C8 N5 179(3)
N1 C2 C8 N5 -1(4)
N5 C8 C9 C10 -5(5)
C2 C8 C9 C10 -179(3)
C8 C9 C10 C11 3(4)
C9 C10 C11 C12 5(5)
C10 C11 C12 N5 -13(6)
C8 N5 C12 C11 11(5)
Fe1 N5 C12 C11 179(3)
