#------------------------------------------------------------------------------
#$Date: 2019-11-23 05:41:07 +0200 (Sat, 23 Nov 2019) $
#$Revision: 232249 $
#$URL: file:///home/coder/svn-repositories/cod/cif/4/34/72/4347294.cif $
#------------------------------------------------------------------------------
#
# This file is available in the Crystallography Open Database (COD),
# http://www.crystallography.net/
#
# All data on this site have been placed in the public domain by the
# contributors.
#
data_4347294
loop_
_publ_author_name
'Otake, Ken-ichi'
'Otsubo, Kazuya'
'Sugimoto, Kunihisa'
'Fujiwara, Akihiko'
'Kitagawa, Hiroshi'
_publ_section_title
;
 Neutral-Type One-Dimensional Mixed-Valence Halogen-Bridged Platinum Chain
 Complexes with Large Charge-Transfer Band Gaps.
;
_journal_issue                   5
_journal_name_full               'Inorganic chemistry'
_journal_page_first              2620
_journal_page_last               2626
_journal_paper_doi               10.1021/acs.inorgchem.5b02980
_journal_volume                  55
_journal_year                    2016
_chemical_absolute_configuration ad
_chemical_formula_moiety         'C8 H14 Cl N4 Pt'
_chemical_formula_sum            'C8 H14 Cl N4 Pt'
_chemical_formula_weight         396.77
_space_group_crystal_system      orthorhombic
_space_group_IT_number           18
_space_group_name_Hall           'P 2 2ab'
_space_group_name_H-M_alt        'P 21 21 2'
_atom_sites_solution_hydrogens   geom
_atom_sites_solution_primary     direct
_atom_sites_solution_secondary   difmap
_cell_angle_alpha                90.0000
_cell_angle_beta                 90.0000
_cell_angle_gamma                90.0000
_cell_formula_units_Z            2
_cell_length_a                   5.4246(3)
_cell_length_b                   10.0714(5)
_cell_length_c                   10.7447(6)
_cell_measurement_reflns_used    3994
_cell_measurement_temperature    100(2)
_cell_measurement_theta_max      28.81
_cell_measurement_theta_min      2.77
_cell_volume                     587.02(5)
_computing_cell_refinement       'APEX2 (Bruker, 2006)'
_computing_data_collection       'APEX2 (Bruker, 2006)'
_computing_data_reduction        'CrystalStructure 4.2 (Rigaku, 2015)'
_computing_molecular_graphics    'CrystalStructure 4.2'
_computing_publication_material  'CrystalStructure 4.2 (Rigaku, 2015)'
_computing_structure_refinement  'SHELXL Version 2014/3 (Sheldrick, 2008)'
_computing_structure_solution    'SIR2004 (Burla, et al., 2005)'
_diffrn_ambient_temperature      100
_diffrn_measured_fraction_theta_full 0.998
_diffrn_measured_fraction_theta_max 0.998
_diffrn_measurement_device_type  'Bruker APEX-II CCD'
_diffrn_measurement_method       'phi and omega scans'
_diffrn_radiation_monochromator  graphite
_diffrn_radiation_source         'sealed tube'
_diffrn_radiation_type           'Mo K\a'
_diffrn_radiation_wavelength     0.71073
_diffrn_reflns_av_R_equivalents  0.0238
_diffrn_reflns_Laue_measured_fraction_full 0.998
_diffrn_reflns_Laue_measured_fraction_max 0.998
_diffrn_reflns_limit_h_max       7
_diffrn_reflns_limit_h_min       -7
_diffrn_reflns_limit_k_max       13
_diffrn_reflns_limit_k_min       -13
_diffrn_reflns_limit_l_max       14
_diffrn_reflns_limit_l_min       -14
_diffrn_reflns_number            6039
_diffrn_reflns_point_group_measured_fraction_full 0.999
_diffrn_reflns_point_group_measured_fraction_max 0.997
_diffrn_reflns_theta_full        25.240
_diffrn_reflns_theta_max         28.806
_diffrn_reflns_theta_min         2.772
_diffrn_standards_number         0
_exptl_absorpt_coefficient_mu    12.101
_exptl_absorpt_correction_T_max  0.793
_exptl_absorpt_correction_T_min  0.184
_exptl_absorpt_correction_type   multi-scan
_exptl_absorpt_process_details   '(SADABS; Sheldrick, 1996)'
_exptl_crystal_colour            yellow
_exptl_crystal_density_diffrn    2.245
_exptl_crystal_density_method    'not measured'
_exptl_crystal_description       needle
_exptl_crystal_F_000             370.00
_exptl_crystal_size_max          0.150
_exptl_crystal_size_mid          0.020
_exptl_crystal_size_min          0.020
_refine_diff_density_max         1.17
_refine_diff_density_min         -0.51
_refine_ls_abs_structure_details
;
 Flack x determined using 545 quotients [(I+)-(I-)]/[(I+)+(I-)]
 (Parsons, Flack and Wagner, Acta Cryst. B69 (2013) 249-259).
;
_refine_ls_abs_structure_Flack   0.049(13)
_refine_ls_extinction_method     none
_refine_ls_goodness_of_fit_ref   1.115
_refine_ls_hydrogen_treatment    constr
_refine_ls_number_parameters     69
_refine_ls_number_reflns         1538
_refine_ls_number_restraints     0
_refine_ls_R_factor_all          0.0180
_refine_ls_R_factor_gt           0.0156
_refine_ls_shift/su_max          0.001
_refine_ls_structure_factor_coef Fsqd
_refine_ls_weighting_details
'w = 1/[\s^2^(Fo^2^)+(0.0199P)^2^] where P=(Fo^2^+2Fc^2^)/3'
_refine_ls_weighting_scheme      calc
_refine_ls_wR_factor_gt          0.0396
_refine_ls_wR_factor_ref         0.0402
_reflns_Friedel_coverage         0.665
_reflns_Friedel_fraction_full    1.000
_reflns_Friedel_fraction_max     0.995
_reflns_number_gt                1416
_reflns_number_total             1538
_reflns_threshold_expression     F^2^>2.0\s(F^2^)
_cod_data_source_file            ic5b02980_si_005.cif
_cod_data_source_block           complex5
_cod_database_code               4347294
_shelxl_version_number           2014-3
_shelx_res_file
;
TITL OrthoP
CELL  0.71069 5.42460 10.07140 10.74470 90.00000 90.00000 90.00000
ZERR  2 0.00030 0.00050 0.00060 0.00000 0.00000 0.00000
LATT -1
SYMM    -X,    -Y,    +Z
SYMM .50+X, .50-Y,    -Z
SYMM .50-X, .50+Y,    -Z
SFAC C N CL PT H
UNIT 16 8 2 2 28
L.S. 30
FMAP 2
PLAN 25
WPDB -2
HTAB
BOND $H
CONF
LIST 4
TEMP -173.0
ACTA
SIZE 0.150 0.020 0.020
WGHT    0.019900
FVAR       0.13976
PT1   4    0.500000    1.000000    0.993976    10.50000    0.01602    0.01919 =
         0.02316    0.00000    0.00000    0.00018
CL2   3    0.071875    1.007363    1.001165    10.50000    0.01667    0.04042 =
         0.03008   -0.00127    0.00085    0.00422
N1    2    0.517193    1.220985    1.194684    11.00000    0.03620    0.02344 =
         0.03303    0.00090   -0.00121    0.00007
N2    2    0.483245    0.865267    0.847754    11.00000    0.02648    0.02490 =
         0.02857   -0.00293    0.00524   -0.00532
AFIX  23
H2A   5    0.630109    0.822312    0.840398    11.00000   -1.20000
H2B   5    0.364328    0.803710    0.863220    11.00000   -1.20000
AFIX   0
C1    1    0.512683    1.138594    1.122901    11.00000    0.01884    0.02380 =
         0.03109    0.00603   -0.00052    0.00589
C2    1    0.426486    0.936565    0.730331    11.00000    0.02603    0.03424 =
         0.02585   -0.00239   -0.00178    0.00026
AFIX  13
H2    5    0.247549    0.960423    0.731153    11.00000   -1.20000
AFIX   0
C3    1    0.475674    0.853540    0.615045    11.00000    0.04084    0.04224 =
         0.02988   -0.00739    0.00171   -0.00027
AFIX  23
H3A   5    0.369468    0.773607    0.615966    11.00000   -1.20000
H3B   5    0.649830    0.824160    0.614469    11.00000   -1.20000
AFIX   0
C4    1    0.422105    0.935788    0.498168    11.00000    0.04826    0.06041 =
         0.02588   -0.00886   -0.00151    0.00557
AFIX  23
H4A   5    0.244782    0.958863    0.495497    11.00000   -1.20000
H4B   5    0.461128    0.882728    0.423149    11.00000   -1.20000
AFIX   0
HKLF 4

REM  OrthoP
REM R1 =  0.0156 for    1416 Fo > 4sig(Fo)  and  0.0180 for all    1538 data
REM     69 parameters refined using      0 restraints

END

WGHT      0.0207      0.0000

REM Instructions for potential hydrogen bonds
EQIV $1 -x+3/2, y-1/2, -z+2
HTAB N2 N1_$1
EQIV $2 -x+1/2, y-1/2, -z+2
HTAB N2 N1_$2

REM Highest difference peak  1.167,  deepest hole -0.512,  1-sigma level  0.124
Q1    1   0.5884  0.9992  0.9332  11.00000  0.05    1.17
Q2    1   0.5901  1.0575  0.9784  11.00000  0.05    1.15
Q3    1   0.5987  0.9598  0.9610  11.00000  0.05    1.12
Q4    1   0.5520  0.9995  1.0653  11.00000  0.05    1.01
Q5    1   0.0000  1.0000  1.2600  10.50000  0.05    0.54
Q6    1   0.5030  0.9007  0.9088  11.00000  0.05    0.47
Q7    1   0.5000  1.0000  0.7208  10.50000  0.05    0.43
Q8    1   0.4714  1.1549  1.1747  11.00000  0.05    0.43
Q9    1   0.4526  1.1138  1.1116  11.00000  0.05    0.39
Q10   1   0.5000  1.0000  0.5037  10.50000  0.05    0.39
Q11   1   0.5621  1.1202  1.1134  11.00000  0.05    0.36
Q12   1   0.7001  0.9986  0.9987  11.00000  0.05    0.35
Q13   1   0.4998  0.9240  0.4790  11.00000  0.05    0.34
Q14   1   0.5067  0.9096  0.6646  11.00000  0.05    0.32
Q15   1   0.4956  1.2191  1.1252  11.00000  0.05    0.32
Q16   1   0.0000  1.0000  0.8369  10.50000  0.05    0.31
Q17   1   0.4241  0.9063  0.5614  11.00000  0.05    0.30
Q18   1   0.0000  1.0000  1.1698  10.50000  0.05    0.28
Q19   1   0.5669  0.9040  0.5621  11.00000  0.05    0.27
Q20   1   0.5005  0.8966  0.7685  11.00000  0.05    0.26
Q21   1   0.0000  1.0000  0.6186  10.50000  0.05    0.25
Q22   1   0.4908  0.7867  0.6360  11.00000  0.05    0.24
Q23   1   0.4990  0.9402  0.8183  11.00000  0.05    0.24
Q24   1   0.4907  1.2100  1.2348  11.00000  0.05    0.22
Q25   1   0.4401  1.2418  1.2216  11.00000  0.05    0.20
;
_shelx_res_checksum              38344
_shelx_hkl_file
;
   0   0  -2  461.35   13.39
   0   0  -2  459.85   13.80
   0   0   2  471.42   13.84
   0   0   3  221.24    6.47
   0   0   3  215.86    5.59
   0   0  -3  215.81    6.48
   0   0  -3  223.75    6.26
   0   0  -4  337.14    9.90
   0   0   4  345.55    9.90
   0   0   4  330.01    8.55
   0   0  -4  332.12    9.56
   0   0   5  331.81    8.65
   0   0  -5  341.55   10.43
   0   0  -5  336.64   10.03
   0   0   5  347.15   10.02
   0   0  -6  335.38   10.17
   0   0   6  328.27    9.77
   0   0   6  319.33    8.44
   0   0  -6  334.83    9.79
   0   0   7  220.81    5.83
   0   0  -7  229.68    7.00
   0   0  -7  225.36    6.78
   0   0   7  219.39    6.75
   0   0   8  222.27    6.82
   0   0   8  219.89    5.88
   0   0  -8  240.99    7.08
   0   0  -8  214.76    6.83
   0   0   9   73.13    2.13
   0   0  -9   71.49    2.51
   0   0   9   71.23    2.48
   0   0  -9   77.23    2.54
   0   0 -10  103.69    3.39
   0   0 -10  100.99    3.36
   0   0  10  101.78    2.86
   0   0  10   96.83    3.32
   0   0  11   61.11    2.28
   0   0  11   64.82    1.95
   0   0 -11   61.72    2.30
   0   0 -12   44.70    1.83
   0   0  12   44.40    1.82
   0   0  13   25.97    1.32
   0   0 -13   27.22    1.36
   0   0  14   27.33    1.42
   0   1  -1   32.85    0.99
   0   1   1   31.52    0.99
   0   1   2    0.67    0.13
   0  -1   2    0.53    0.14
   0   1  -2    0.59    0.13
   0   1  -2    0.71    0.15
   0  -1   3    0.21    0.13
   0  -1   3    0.29    0.18
   0   1  -3    0.16    0.14
   0   1  -3    0.37    0.17
   0   1   3    0.32    0.15
   0  -1   3    0.21    0.15
   0  -1  -3    0.04    0.17
   0  -1   4    7.42    0.39
   0   1   4    6.31    0.49
   0  -1   4    8.33    0.46
   0   1  -4    7.57    0.44
   0   1   4    6.50    0.35
   0  -1   4    7.07    0.35
   0  -1  -4    7.52    0.44
   0   1   4    8.09    0.41
   0  -1  -5    8.18    0.53
   0   1   5    8.23    0.46
   0  -1   5    7.37    0.41
   0   1   5    7.29    0.40
   0  -1   5    8.89    0.52
   0   1   5    7.29    0.55
   0   1  -5    8.27    0.51
   0  -1  -6   10.66    0.58
   0   1  -6    9.71    0.55
   0  -1   6    8.22    0.46
   0  -1   6   10.11    0.61
   0   1   6    8.43    0.45
   0  -1  -6    8.86    0.54
   0   1   6   10.66    0.54
   0   1  -6    8.55    0.48
   0  -1   7    5.31    0.41
   0   1   7    7.27    0.52
   0  -1   7    6.87    0.54
   0  -1  -7    7.31    0.53
   0   1   7    5.92    0.41
   0  -1  -7    6.06    0.50
   0   1  -7    5.31    0.42
   0   1  -7    6.45    0.52
   0   1  -8   27.69    1.12
   0  -1   8   27.77    1.14
   0  -1   8   24.73    0.93
   0   1  -8   26.09    1.05
   0   1   8   24.43    0.91
   0  -1  -8   26.19    1.11
   0  -1  -8   27.13    1.13
   0   1   8   27.95    1.11
   0  -1   9   14.44    0.69
   0   1  -9   15.84    0.84
   0   1  -9   14.88    0.76
   0  -1  -9   13.99    0.79
   0  -1   9   16.87    0.88
   0  -1  -9   14.42    0.85
   0   1   9   15.55    0.85
   0   1 -10    4.02    0.51
   0  -1 -10    5.02    0.59
   0  -1  10    4.98    0.61
   0  -1  10    3.95    0.41
   0  -1 -10    3.51    0.44
   0   1  10    4.65    0.55
   0   1 -11    6.19    0.65
   0  -1  11    6.54    0.69
   0   1  11    7.38    0.70
   0  -1  11    5.11    0.53
   0  -1 -11    5.95    0.64
   0  -1  12    7.81    0.63
   0  -1  12    8.65    0.79
   0   1  12    8.05    0.78
   0   1 -12    8.04    0.78
   0   1  13    8.14    0.79
   0   1 -13    6.92    0.76
   0   1 -14    7.83    0.83
   0   1  14    7.80    0.82
   0   2   0  554.68   13.66
   0   2  -1  437.24   12.47
   0  -2   1  415.84   12.51
   0   2   1  448.46   10.66
   0   2  -1  432.89   10.65
   0   2  -2  631.99   18.83
   0   2  -2  680.50   19.43
   0   2   2  671.65   19.57
   0  -2   2  674.20   16.91
   0   2   2  654.39   19.48
   0   2  -2  676.93   19.54
   0  -2   2  643.42   19.04
   0   2   3  489.01   15.78
   0  -2   3  507.40   14.74
   0   2  -3  550.76   15.25
   0  -2   3  511.26   13.11
   0   2   3  519.98   15.18
   0   2  -4  575.13   16.51
   0  -2   4  563.24   16.36
   0   2   4  520.58   17.15
   0  -2  -4  575.78   16.37
   0  -2   4  558.74   16.04
   0  -2   4  544.12   14.25
   0   2   4  580.03   16.45
   0   2  -5  181.52    5.40
   0   2   5  171.38    5.70
   0  -2   5  177.25    5.23
   0  -2   5  176.80    4.65
   0  -2   5  179.94    5.41
   0   2   5  182.59    5.37
   0  -2  -5  186.45    5.42
   0  -2   6  213.46    5.72
   0  -2   6  218.16    6.43
   0  -2   6  223.80    6.66
   0   2  -6  220.58    6.64
   0   2   6  220.35    7.02
   0   2  -6  224.75    6.84
   0  -2  -6  225.57    6.67
   0   2   6  222.17    6.61
   0  -2   7  198.94    5.22
   0   2  -7  198.85    6.06
   0  -2  -7  204.86    6.08
   0   2   7  192.25    6.01
   0  -2   7  197.78    6.07
   0   2  -7  203.81    6.22
   0  -2   8  173.32    4.68
   0   2   8  174.26    5.40
   0  -2   8  175.01    5.45
   0   2  -8  175.98    5.43
   0  -2  -8  183.64    5.67
   0  -2   9   96.50    2.68
   0   2   9   92.10    3.09
   0  -2  -9   97.15    3.25
   0   2  -9   93.96    3.12
   0  -2 -10   82.20    2.83
   0   2 -10   77.54    2.72
   0  -2  10   83.67    2.36
   0   2  10   76.26    2.70
   0  -2 -11   62.42    2.28
   0   2  11   58.68    2.18
   0  -2  11   60.97    1.89
   0   2 -11   59.52    2.21
   0  -2 -12   58.73    2.22
   0   2 -12   55.32    2.17
   0  -2  12   60.40    1.87
   0   2  12   55.77    2.15
   0   2  13   27.25    1.37
   0   2 -13   26.81    1.37
   0  -2  13   30.18    1.17
   0   2 -14   26.05    1.40
   0  -2  14   29.68    1.18
   0   2  14   23.96    1.34
   0   3   0    0.06    0.12
   0  -3   0    0.02    0.12
   0   3  -1    0.15    0.14
   0   3   1    0.07    0.11
   0  -3   1    0.21    0.15
   0  -3   1    0.08    0.12
   0   3   2   13.28    0.42
   0   3  -2   12.69    0.49
   0  -3   2   12.15    0.50
   0   3   2   11.53    0.58
   0  -3   2   11.69    0.43
   0   3   3    0.44    0.09
   0   3  -3    0.57    0.13
   0   3   3    0.87    0.25
   0  -3   3    0.50    0.17
   0  -3   3    0.73    0.15
   0   3  -3    0.71    0.13
   0   3   3    0.46    0.10
   0   3   4    9.85    0.66
   0   3   4   12.33    0.48
   0   3   4   11.95    0.47
   0  -3   4   10.51    0.52
   0   3  -4   12.84    0.54
   0  -3   4   10.58    0.47
   0   3  -4   11.47    0.50
   0  -3   5   19.89    0.80
   0  -3   5   20.81    0.84
   0   3   5   21.82    0.78
   0   3   5   20.76    0.76
   0   3  -5   21.09    0.80
   0  -3   5   20.46    0.70
   0  -3  -5   21.04    0.85
   0   3   5   19.11    0.93
   0   3   5   19.35    0.74
   0  -3   6    4.66    0.45
   0  -3   6    3.80    0.35
   0   3  -6    3.88    0.39
   0   3   6    4.50    0.36
   0   3   6    3.57    0.45
   0  -3   6    3.83    0.39
   0   3  -7    9.94    0.58
   0   3   7   10.41    0.57
   0  -3   7    8.35    0.53
   0   3   7    8.31    0.75
   0  -3   7    8.33    0.49
   0  -3   8    3.85    0.37
   0   3   8    4.82    0.48
   0   3  -8    4.25    0.46
   0   3  -9    6.49    0.55
   0   3   9    6.20    0.56
   0   3  -9    6.21    0.54
   0  -3   9    4.98    0.48
   0  -3  -9    5.51    0.61
   0   3 -10   14.86    0.84
   0  -3  10   13.89    0.71
   0   3  10   14.50    0.81
   0   3 -10   14.17    0.76
   0  -3 -10   12.64    0.87
   0   3  11   11.28    0.76
   0   3 -11    9.73    0.74
   0  -3  11   10.91    0.67
   0  -3 -11   10.95    0.82
   0  -3 -12   16.29    1.01
   0  -3  12   15.85    0.83
   0   3 -12   14.88    0.96
   0   3  12   14.48    0.94
   0   3 -13    5.85    0.73
   0   3  13    6.39    0.71
   0  -3 -13    4.97    0.66
   0  -3  13    5.28    0.55
   0  -3  14    2.33    0.50
   0   4   0  275.41    6.71
   0  -4   0  275.46    7.81
   0  -4   0  267.32    6.96
   0   4  -1  364.61    8.92
   0   4   1  357.98   11.19
   0  -4   1  362.56    9.25
   0  -4   1  359.05   10.37
   0   4   1  376.22    8.90
   0  -4   2  330.75    8.34
   0  -4   2  332.33    9.38
   0   4   2  310.72   10.13
   0   4  -2  330.57    8.07
   0   4   2  334.63    8.02
   0  -4   3  362.51    9.06
   0   4  -3  363.02    8.77
   0  -4   3  357.35   10.18
   0   4   3  339.76   11.02
   0   4  -4  425.83   10.47
   0   4   4  407.59   13.17
   0  -4   4  416.59   12.16
   0   4  -4  449.90   12.46
   0  -4   4  428.22   10.82
   0   4   5  241.80    7.53
   0  -4   5  256.21    6.62
   0   4   5  263.11    7.55
   0   4  -5  260.95    7.58
   0   4  -5  270.16    7.59
   0  -4   5  252.27    7.45
   0   4   5  253.93    8.12
   0   4  -5  256.39    6.43
   0  -4   6  184.47    5.54
   0   4  -6  186.57    4.79
   0   4   6  186.86    5.57
   0   4  -6  192.88    5.62
   0   4   6  182.04    6.05
   0  -4   6  190.66    4.91
   0  -4   7  105.68    3.46
   0   4   7  113.04    3.88
   0   4  -7  113.95    3.03
   0   4   7  116.07    3.47
   0   4  -7  115.61    3.51
   0  -4   7  111.80    3.07
   0   4   8   87.73    3.15
   0   4  -8   83.93    2.79
   0   4   8   85.87    2.75
   0   4  -8   86.90    2.44
   0  -4   8   86.92    2.79
   0  -4   8   87.24    2.45
   0   4   9  101.60    3.25
   0  -4  -9  101.69    3.52
   0   4  -9  104.53    2.84
   0   4  -9  101.14    3.29
   0  -4   9  101.60    2.87
   0   4 -10   76.99    2.71
   0   4  10   78.68    2.67
   0   4 -10   82.80    2.36
   0  -4  10   83.71    2.39
   0  -4 -10   82.02    2.92
   0   4  11   61.91    2.21
   0   4 -11   60.28    2.23
   0  -4  11   64.16    1.98
   0  -4 -11   66.34    2.44
   0  -4  12   44.43    1.49
   0  -4 -12   41.25    1.80
   0   4 -12   40.52    1.66
   0   4  12   39.58    1.63
   0  -4  13   23.60    1.06
   0   4  13   21.96    1.16
   0   4 -13   22.39    1.20
   0  -4 -13   24.44    1.31
   0   5   0   -0.02    0.17
   0  -5   0    0.20    0.15
   0  -5   0   -0.05    0.17
   0   5   0    0.27    0.16
   0  -5   1    2.27    0.25
   0   5  -1    2.06    0.24
   0   5   1    2.14    0.28
   0  -5   1    2.00    0.21
   0   5   1    2.64    0.22
   0  -5   2    0.07    0.17
   0   5  -2   -0.11    0.18
   0   5   2    0.05    0.23
   0   5   2    0.15    0.15
   0  -5   2   -0.02    0.16
   0   5   3    8.46    0.64
   0  -5   3    9.43    0.49
   0  -5   3    9.66    0.44
   0   5  -3    8.98    0.51
   0   5  -4   11.08    0.58
   0  -5   4   10.85    0.49
   0  -5   4   10.63    0.57
   0   5   4    9.96    0.72
   0  -5   5    5.69    0.40
   0   5   5    4.46    0.50
   0   5  -5    5.16    0.49
   0  -5   5    5.54    0.45
   0   5  -6    3.51    0.39
   0   5  -6    3.97    0.32
   0  -5   6    3.24    0.31
   0  -5   6    3.82    0.43
   0   5   6    2.98    0.48
   0   5  -7    3.30    0.42
   0   5   7    2.72    0.55
   0   5  -7    4.17    0.38
   0  -5   7    3.96    0.48
   0  -5   7    3.62    0.35
   0   5   7    4.46    0.32
   0   5  -8    6.78    0.59
   0   5  -8    6.45    0.50
   0  -5   8    5.96    0.50
   0   5   8    6.80    0.46
   0   5   8    6.01    0.72
   0  -5   8    6.10    0.58
   0   5  -9    9.41    0.68
   0  -5   9    8.67    0.71
   0  -5   9    9.87    0.62
   0   5   9   10.08    0.56
   0   5  -9    9.70    0.62
   0  -5 -10    9.53    0.79
   0   5 -10   10.79    0.69
   0   5  10   10.98    0.65
   0  -5  10   10.66    0.70
   0   5 -10   10.57    0.74
   0   5  11    7.39    0.60
   0  -5 -11    6.91    0.79
   0   5 -11    7.31    0.67
   0   5 -11    7.85    0.69
   0  -5  11    7.00    0.66
   0  -5 -12    5.03    0.66
   0   5  12    5.70    0.62
   0  -5  12    5.48    0.55
   0   5 -12    5.31    0.62
   0   5  13    5.63    0.63
   0  -5 -13    5.27    0.70
   0   5 -13    5.79    0.66
   0   6   0  248.04    6.23
   0  -6   0  250.78    7.26
   0  -6   0  252.35    6.47
   0   6   0  250.48    7.81
   0   6  -1  277.20    6.84
   0  -6   1  271.22    7.95
   0   6  -1  268.77    8.51
   0   6   1  279.03    8.58
   0   6   1  278.85    6.81
   0  -6   1  272.08    7.07
   0   6   2  249.92    7.83
   0   6  -2  250.78    7.69
   0   6  -2  251.30    6.23
   0   6   2  253.82    6.17
   0  -6   2  246.82    6.41
   0  -6   2  237.04    7.21
   0   6   3  218.41    6.97
   0  -6   3  212.85    6.41
   0   6  -3  218.15    5.54
   0   6   3  226.69    5.45
   0  -6   3  217.11    5.68
   0   6   4  117.64    3.98
   0   6  -4  119.86    3.16
   0  -6   4  117.68    3.18
   0  -6   4  118.77    3.63
   0  -6   5  170.23    5.16
   0   6   5  174.29    5.66
   0   6  -5  172.13    4.48
   0  -6   5  171.99    4.54
   0   6  -6  137.02    3.64
   0  -6   6  138.71    3.67
   0  -6   6  132.30    4.16
   0   6   6  135.16    4.60
   0   6  -7  123.28    3.41
   0  -6   7  126.86    3.43
   0   6   7  128.51    4.37
   0  -6   7  123.08    3.90
   0   6  -8  101.08    3.02
   0   6  -8   97.19    2.80
   0  -6   8   97.15    2.77
   0   6   8  101.24    3.64
   0  -6   8   96.04    3.20
   0   6  -9   71.94    2.22
   0  -6   9   75.49    2.20
   0   6  -9   72.50    2.34
   0   6 -10   46.56    1.64
   0  -6  10   47.40    1.59
   0  -6 -10   47.11    1.99
   0   6 -10   48.12    1.64
   0   6  10   47.34    1.53
   0   6 -11   36.11    1.39
   0   6 -11   38.85    1.46
   0  -6 -11   37.93    1.72
   0   6  11   34.83    1.27
   0  -6 -12   28.43    1.47
   0   6 -12   25.64    1.14
   0   6  12   25.05    1.02
   0  -6 -13   31.08    1.59
   0   6  13   28.78    1.14
   0  -7   0    0.49    0.22
   0   7   0    0.41    0.24
   0   7   0    0.23    0.26
   0  -7   0    0.85    0.23
   0  -7  -1    1.58    0.27
   0   7  -1    2.14    0.30
   0  -7   1    2.17    0.27
   0   7   1    1.95    0.37
   0  -7  -1    2.09    0.30
   0   7  -1    1.58    0.28
   0   7   1    1.80    0.28
   0  -7   1    2.03    0.32
   0  -7   2    1.62    0.28
   0   7  -2    1.27    0.30
   0   7   2    0.81    0.33
   0   7   2    1.12    0.25
   0  -7   2    1.19    0.24
   0  -7   3    3.12    0.37
   0  -7   3    2.50    0.30
   0   7  -3    3.08    0.37
   0   7   3    2.39    0.44
   0   7   3    2.60    0.28
   0   7  -4    0.09    0.28
   0  -7   4    0.26    0.28
   0  -7   4    0.03    0.20
   0   7   4    0.05    0.37
   0   7  -5    0.59    0.28
   0  -7   5    0.89    0.33
   0   7   5    0.68    0.38
   0  -7   5    0.59    0.24
   0   7   6   15.36    1.06
   0   7  -6   15.24    0.81
   0  -7   6   14.02    0.66
   0  -7   6   15.25    0.83
   0   7   7   10.11    1.00
   0  -7   7   11.61    0.64
   0   7  -7   12.38    0.78
   0  -7   7   12.02    0.74
   0   7  -8    6.64    0.67
   0  -7   8    5.67    0.55
   0   7   8    6.03    0.81
   0   7   9    3.23    0.75
   0  -7   9    3.16    0.43
   0   7  -9    3.52    0.55
   0   7 -10    3.48    0.57
   0  -7 -10    3.09    0.60
   0   7 -11    5.83    0.68
   0  -7 -11    4.79    0.70
   0  -7 -12    1.95    0.64
   0   7 -12    1.55    0.59
   0   8   0  172.68    5.49
   0  -8   0  169.11    4.54
   0   8   0  168.59    4.39
   0  -8   0  169.75    5.09
   0   8  -1  180.27    4.73
   0  -8   1  182.29    4.88
   0   8   1  182.25    5.94
   0  -8  -1  184.09    4.90
   0  -8  -1  190.54    5.48
   0  -8   1  183.18    5.50
   0   8   1  184.57    4.72
   0   8   2  144.56    3.69
   0   8   2  145.91    4.73
   0  -8   2  135.83    3.82
   0  -8   2  138.13    4.33
   0  -8  -2  144.69    4.30
   0   8  -2  142.18    3.76
   0  -8   3  113.30    3.58
   0   8   3  116.95    3.03
   0  -8   3  109.76    3.13
   0   8  -3  112.96    3.12
   0   8   3  119.09    3.95
   0  -8   4   73.84    2.17
   0   8  -4   78.26    2.26
   0   8   4   77.73    2.83
   0  -8   4   73.14    2.51
   0   8  -5  120.51    3.30
   0   8   5  122.35    4.15
   0  -8   5  112.90    3.72
   0  -8   5  117.01    3.25
   0   8   6   96.56    3.44
   0  -8   6   88.30    3.04
   0   8  -6   94.63    2.72
   0  -8   6   92.44    2.64
   0   8   7   84.24    3.22
   0   8  -7   84.04    2.55
   0  -8   7   85.90    2.47
   0   8   8   63.87    2.66
   0  -8   8   62.52    1.92
   0   8  -8   59.36    2.03
   0   8   9   56.97    2.52
   0   8  -9   55.81    1.95
   0   8 -10   36.26    1.50
   0  -8 -10   34.02    1.67
   0   8 -11   25.73    1.32
   0  -8 -11   26.39    1.49
   0  -9   0   -0.15    0.25
   0   9   0    0.37    0.30
   0   9   0   -0.31    0.33
   0  -9   0    0.11    0.30
   0  -9   1    0.79    0.34
   0   9  -1    0.72    0.33
   0  -9   1    1.23    0.31
   0  -9  -1    0.63    0.31
   0   9   1    1.21    0.42
   0   9   1    1.25    0.35
   0  -9  -1    1.02    0.32
   0  -9  -2    0.29    0.29
   0   9   2    0.38    0.30
   0  -9   2    0.51    0.28
   0   9  -2    0.14    0.32
   0  -9  -2    0.27    0.33
   0   9   2    0.12    0.41
   0  -9   2    0.36    0.33
   0  -9   3    2.61    0.43
   0   9   3    2.79    0.55
   0  -9  -3    3.18    0.40
   0  -9   3    3.02    0.36
   0   9  -3    2.77    0.43
   0  -9   4    2.50    0.37
   0   9   4    2.03    0.56
   0   9  -4    2.26    0.46
   0  -9   4    3.11    0.46
   0  -9   5    1.64    0.35
   0   9   5    1.57    0.55
   0   9  -5    1.71    0.47
   0   9  -6    1.09    0.48
   0  -9   6    1.85    0.36
   0   9   6    1.12    0.60
   0   9  -7    4.05    0.61
   0   9   7    3.09    0.74
   0  -9   7    4.54    0.49
   0   9  -8    4.13    0.64
   0   9   8    3.30    0.81
   0   9  -9    5.71    0.72
   0  -9 -10    5.17    0.79
   0   9 -10    5.78    0.75
   0  10   0   64.70    1.99
   0 -10   0   65.97    2.02
   0 -10   0   64.75    2.26
   0 -10  -1   92.32    3.00
   0 -10   1   89.42    2.66
   0 -10  -1   94.78    2.70
   0  10   1   96.95    3.32
   0  10   1   91.11    2.61
   0 -10   1   86.10    3.00
   0  10  -1   91.42    2.63
   0 -10   2   82.94    2.89
   0  10   2   91.00    3.21
   0 -10   2   87.98    2.55
   0 -10  -2   90.64    2.87
   0 -10  -2   86.57    2.58
   0  10  -2   82.99    2.53
   0 -10  -3   86.09    2.56
   0  10  -3   83.59    2.51
   0  10   3   88.19    3.19
   0 -10   3   82.62    2.48
   0 -10   4   83.73    2.48
   0  10   4   86.70    3.20
   0  10  -4   82.30    2.52
   0  10   5   73.21    2.82
   0 -10   5   68.87    2.12
   0  10  -5   67.67    2.21
   0  10   6   55.26    2.40
   0  10  -6   52.63    1.88
   0  10  -7   38.80    1.57
   0  10   7   40.37    2.06
   0  10  -8   27.28    1.35
   0  10   8   31.14    1.75
   0  10  -9   37.20    1.61
   0 -11   0    0.05    0.34
   0  11   0   -0.24    0.37
   0 -11   1    0.26    0.34
   0  11   1    0.26    0.35
   0 -11  -1    0.06    0.39
   0  11  -1   -0.03    0.40
   0 -11   2    1.21    0.37
   0 -11  -2    1.69    0.44
   0  11  -2    1.83    0.47
   0  11  -3    0.50    0.45
   0 -11   3    0.74    0.35
   0  11   3    0.22    0.53
   0 -11  -3    0.38    0.39
   0 -11  -4    0.66    0.44
   0  11  -4    1.01    0.49
   0 -11   4    1.32    0.39
   0  11   4    0.82    0.62
   0  11   5    1.02    0.67
   0  11  -5    2.13    0.54
   0  11   6    1.74    0.82
   0  11  -6    1.84    0.57
   0  11   7    2.19    0.84
   0  11  -7    2.56    0.64
   0  11  -8    0.56    0.59
   0  11   8    0.60    0.83
   0  12   0   43.79    1.61
   0 -12   0   43.66    1.59
   0  12  -1   44.13    1.66
   0 -12  -1   45.59    1.64
   0 -12   1   46.89    1.65
   0 -12   2   52.75    1.80
   0 -12  -2   55.82    1.89
   0  12  -2   51.95    1.87
   0  12  -3   55.17    1.96
   0 -12  -3   57.62    1.96
   0  12   4   49.33    2.27
   0 -12  -4   47.78    1.74
   0  12  -4   46.34    1.77
   0 -12  -5   37.08    1.51
   0  12  -5   36.75    1.56
   0  12   5   38.18    2.07
   0  12  -6   30.28    1.49
   0  12   6   33.62    1.95
   0 -13   0   -0.02    0.43
   0 -13   1    0.22    0.43
   0 -13  -1    0.03    0.44
   0  13  -1   -0.48    0.48
   0 -13  -2   -0.28    0.46
   0  13  -2   -0.10    0.53
   0 -13  -3    0.98    0.51
   0  13  -3    0.54    0.58
   0  13  -4    1.66    0.67
   0 -13  -4    1.52    0.55
  -1   0   0    0.03    0.11
   1   0   0    0.08    0.10
   1   0   1   11.93    0.47
  -1   0   1   12.94    0.49
  -1   0  -1   12.51    0.48
   1   0  -1   12.56    0.47
  -1   0   2    9.27    0.32
  -1   0  -2    8.91    0.41
   1   0   2    8.57    0.40
  -1   0   2   10.10    0.43
   1   0  -2    9.69    0.42
  -1   0   2    8.92    0.36
  -1   0  -3    6.52    0.39
  -1   0  -3    6.98    0.41
   1   0  -3    7.18    0.29
  -1   0   3    6.72    0.34
  -1   0   3    7.16    0.29
   1   0  -3    6.72    0.37
   1   0   3    6.74    0.38
   1   0  -3    7.25    0.39
  -1   0   3    6.92    0.40
   1   0  -3    6.84    0.29
  -1   0  -4   13.57    0.64
  -1   0   4   15.15    0.64
   1   0  -4   13.75    0.60
  -1   0   4   14.51    0.51
   1   0  -4   14.97    0.47
  -1   0   4   13.07    0.54
   1   0  -4   14.45    0.52
   1   0   4   15.40    0.63
  -1   0  -4   14.70    0.64
  -1   0   5    6.15    0.46
  -1   0   5    4.75    0.32
  -1   0  -5    4.56    0.41
  -1   0   5    4.30    0.37
   1   0  -5    5.46    0.32
   1   0   5    5.99    0.42
   1   0  -5    5.78    0.42
  -1   0   5    3.90    0.39
   1   0  -5    5.53    0.30
  -1   0  -5    5.23    0.43
   1   0  -6    8.19    0.39
   1   0   6    8.82    0.53
  -1   0  -6    8.55    0.55
  -1   0  -6    7.73    0.51
   1   0  -6    8.52    0.53
  -1   0   6    6.47    0.50
  -1   0   6    7.24    0.43
  -1   0   6    8.55    0.55
  -1   0   7    4.13    0.37
  -1   0   7    3.94    0.48
   1   0   7    4.71    0.47
   1   0  -7    4.83    0.35
  -1   0  -7    3.89    0.44
  -1   0   7    5.15    0.49
  -1   0  -7    4.57    0.48
   1   0  -7    4.76    0.47
  -1   0  -8   35.11    1.41
   1   0  -8   36.13    1.40
   1   0   8   36.78    1.39
  -1   0   8   36.97    1.39
  -1   0  -8   34.52    1.39
  -1   0   8   34.00    1.19
  -1   0   9   24.01    1.09
   1   0  -9   23.04    1.08
   1   0   9   22.62    1.07
   1   0  -9   22.75    1.00
  -1   0   9   22.58    0.92
  -1   0  -9   22.58    1.05
  -1   0  -9   23.39    1.10
   1   0  10    4.02    0.52
  -1   0 -10    3.40    0.42
  -1   0  10    3.44    0.42
   1   0 -10    3.63    0.50
  -1   0 -10    3.84    0.53
  -1   0  10    4.33    0.53
  -1   0  11    6.02    0.70
   1   0 -11    4.79    0.60
  -1   0 -11    4.28    0.55
  -1   0 -11    4.40    0.60
   1   0  11    5.03    0.59
  -1   0  11    4.44    0.48
  -1   0  12    5.74    0.69
   1   0  12    5.70    0.72
  -1   0 -12    4.60    0.65
  -1   0  12    5.16    0.56
  -1   0 -13    9.12    0.92
   1   0  13    8.19    0.83
  -1   0  13    8.67    0.86
  -1   0 -14   11.65    0.99
   1   0  14   10.75    1.01
  -1   0  14   12.35    1.02
   1   1   0  819.24   25.38
  -1  -1   0  867.47   25.44
  -1   1   0  897.94   25.47
   1   1   1  253.30    7.68
  -1  -1   1  264.40    7.51
  -1   1  -1  258.39    7.53
  -1  -1   1  247.94    6.58
  -1  -1  -1  240.15    7.54
  -1   1   1  259.84    7.65
   1   1  -1  265.14    7.71
  -1  -1   2  251.33    7.28
  -1  -1   2  245.10    6.29
   1   1   2  240.03    7.32
  -1   1  -2  247.98    7.26
  -1   1   2  266.48    7.40
   1   1  -2  249.10    6.12
  -1  -1  -2  240.46    7.26
   1   1  -2  253.84    7.41
  -1   1   2  238.31    6.34
   1   1  -2  237.64    7.25
   1  -1  -3  141.05    4.14
  -1  -1   3  136.97    3.99
  -1   1  -3  133.75    4.13
   1   1   3  138.36    4.13
  -1  -1   3  132.25    3.59
   1  -1  -3  143.54    4.01
  -1   1   3  142.40    4.14
  -1  -1  -3  140.67    4.17
  -1  -1  -3  133.74    4.35
   1  -1   3  143.48    4.15
   1   1  -3  136.90    4.14
  -1   1   3  133.80    3.59
   1   1  -3  142.49    3.45
  -1   1  -4  176.29    5.24
  -1   1  -4  175.91    5.45
   1  -1  -4  176.57    5.00
   1  -1  -4  174.82    5.23
  -1  -1   4  174.21    4.54
  -1  -1   4  186.01    5.27
  -1  -1   4  181.69    5.04
   1   1   4  173.94    5.22
   1  -1   4  171.26    5.23
  -1  -1  -4  174.98    5.26
   1   1  -4  171.44    5.24
   1  -1   4  163.57    4.48
  -1   1   4  169.67    4.54
   1   1  -4  182.32    5.05
  -1   1   4  176.28    5.24
   1   1  -4  182.12    4.35
  -1  -1  -4  172.54    5.49
  -1   1   4  166.90    5.47
  -1  -1   5  134.98    3.90
  -1   1  -5  134.50    4.09
   1  -1  -5  128.30    3.85
   1   1   5  139.84    4.09
   1  -1  -5  133.00    4.08
   1  -1  -5  141.90    3.31
  -1   1  -5  131.48    4.23
  -1  -1   5  133.95    3.54
  -1  -1   5  139.20    4.11
  -1   1   5  128.17    3.53
   1   1  -5  131.30    4.09
  -1   1   5  134.38    4.08
   1  -1   5  133.49    4.08
  -1  -1  -5  138.06    4.12
   1   1  -5  139.86    3.38
   1  -1   5  129.50    3.48
  -1   1   5  122.16    4.24
  -1  -1  -5  132.36    4.27
  -1  -1   6  147.36    4.01
   1  -1  -6  153.83    3.74
   1  -1  -6  152.41    4.65
  -1   1  -6  154.45    4.81
  -1  -1   6  154.20    4.66
  -1   1  -6  152.79    4.66
   1   1   6  154.46    4.63
  -1  -1   6  153.23    4.43
  -1  -1   6  147.50    4.78
  -1  -1  -6  148.30    4.67
   1   1  -6  152.53    3.83
  -1   1   6  152.09    4.02
   1  -1   6  149.21    3.96
   1  -1   6  152.52    4.64
  -1   1   6  145.93    4.84
   1   1  -6  149.79    4.65
  -1   1   6  154.19    4.63
  -1  -1  -6  153.02    4.85
  -1   1  -7  118.83    3.82
  -1   1  -7  123.90    3.92
  -1  -1   7  121.28    3.30
  -1  -1   7  120.35    3.82
   1   1   7  117.08    3.79
   1  -1  -7  122.86    3.83
  -1  -1   7  126.27    3.63
  -1  -1  -7  120.03    3.84
   1  -1   7  119.47    3.81
  -1   1   7  123.95    3.81
   1   1  -7  113.40    3.12
   1   1  -7  125.08    3.86
  -1   1   7  119.15    3.96
   1  -1   7  122.25    3.24
  -1  -1  -7  121.81    3.96
   1   1  -7  121.26    3.82
  -1   1   7  123.51    3.30
  -1  -1   8  120.22    3.26
   1  -1  -8  121.55    3.80
  -1  -1   8  123.96    3.80
   1   1   8  118.24    3.76
  -1   1  -8  117.58    3.79
  -1   1  -8  118.64    3.87
  -1  -1  -8  116.43    3.81
   1  -1   8  113.39    3.77
  -1   1   8  116.01    3.25
  -1   1   8  124.38    3.97
   1   1  -8  112.34    3.08
  -1  -1  -8  122.12    3.92
   1   1  -8  119.87    3.78
  -1   1   8  114.83    3.74
   1  -1   8  116.91    3.19
  -1   1  -9   42.16    1.61
  -1  -1   9   42.31    1.65
  -1  -1   9   43.07    1.41
  -1   1  -9   43.55    1.66
   1   1   9   42.11    1.61
  -1   1   9   40.09    1.38
   1   1  -9   42.45    1.63
  -1  -1  -9   43.30    1.66
   1  -1   9   43.49    1.35
  -1   1   9   39.89    1.58
  -1  -1  -9   41.08    1.66
  -1   1   9   46.14    1.77
   1  -1   9   42.15    1.64
   1   1  10   51.23    1.91
  -1  -1  10   51.52    1.65
   1  -1 -10   51.29    1.89
  -1   1 -10   50.65    1.94
  -1  -1  10   49.73    1.93
  -1   1 -10   52.79    1.91
  -1  -1 -10   50.31    1.94
  -1   1  10   50.69    1.64
   1  -1  10   49.60    1.93
  -1  -1 -10   50.14    1.94
  -1   1  10   49.42    1.88
   1   1 -10   49.38    1.89
  -1  -1  11   33.50    1.23
  -1   1 -11   31.74    1.45
   1   1  11   29.85    1.39
  -1  -1  11   30.91    1.44
  -1   1  11   32.56    1.21
  -1   1  11   31.01    1.38
  -1  -1 -11   33.69    1.45
   1   1 -11   31.77    1.40
  -1   1 -12   25.62    1.32
   1   1  12   25.51    1.31
  -1  -1  12   25.60    1.33
  -1  -1  12   27.42    1.12
  -1   1  12   25.91    1.26
   1   1 -12   24.24    1.26
  -1  -1 -12   28.12    1.32
   1   1  13   13.48    0.98
  -1   1 -13   14.63    1.04
  -1  -1  13   14.00    1.01
  -1  -1  13   15.74    0.86
  -1   1  13   14.32    0.97
   1   1 -13   14.89    1.02
   1   1  14   14.36    1.06
  -1  -1  14   13.09    1.03
  -1   1 -14   13.23    1.03
  -1  -1  14   17.69    0.95
  -1   1  14   14.07    1.04
   1   1 -14   15.31    1.10
  -1   2   0    7.13    0.31
   1  -2   0    6.47    0.30
   1   2   0    7.13    0.32
  -1  -2   0    6.88    0.29
  -1  -2   1   18.23    0.58
   1   2   1   19.58    0.63
   1  -2  -1   17.44    0.57
  -1   2  -1   18.17    0.63
   1   2  -1   20.03    0.64
   1   2  -1   17.38    0.59
  -1   2   1   18.00    0.57
   1  -2   1   17.26    0.63
   1   2  -1   17.96    0.62
  -1   2  -2   14.00    0.49
  -1   2  -2   13.61    0.48
   1  -2  -2   12.77    0.41
  -1  -2   2   13.26    0.53
  -1  -2   2   13.14    0.48
   1   2   2   13.63    0.51
   1   2  -2   12.76    0.51
  -1   2   2   11.48    0.57
  -1   2   2   13.05    0.46
   1  -2   2   12.18    0.52
  -1  -2  -2   12.77    0.59
   1   2  -2   12.92    0.49
  -1   2   2   12.55    0.44
  -1   2  -3    2.44    0.25
  -1  -2   3    2.83    0.27
  -1  -2   3    2.62    0.29
   1   2   3    2.43    0.27
  -1  -2  -3    1.78    0.23
  -1  -2  -3    1.78    0.24
   1   2  -3    1.68    0.21
  -1   2   3    1.28    0.16
  -1   2   3    1.54    0.18
   1   2  -3    1.68    0.19
  -1   2   3    1.88    0.22
  -1   2   3    1.60    0.18
  -1  -2   4    2.55    0.26
   1   2   4    2.92    0.30
   1  -2  -4    2.35    0.16
  -1  -2   4    2.45    0.24
   1  -2  -4    2.78    0.33
  -1   2  -4    2.29    0.29
   1  -2  -4    2.52    0.28
  -1   2  -4    2.07    0.28
  -1  -2   4    3.08    0.39
   1   2  -4    3.69    0.32
   1   2  -4    3.35    0.32
  -1   2   4    2.46    0.33
   1  -2   4    3.60    0.35
  -1   2   4    3.11    0.27
  -1  -2  -4    3.66    0.41
   1  -2   4    3.19    0.23
  -1  -2  -4    3.41    0.35
  -1  -2   5   15.63    0.62
  -1  -2   5   16.88    0.72
   1  -2  -5   16.00    0.65
  -1   2  -5   14.67    0.65
  -1   2  -5   16.03    0.66
   1  -2  -5   14.95    0.51
   1   2   5   16.73    0.67
  -1  -2   5   14.25    0.59
   1  -2   5   14.40    0.71
   1   2  -5   14.33    0.69
  -1  -2  -5   14.45    0.74
   1  -2   5   13.85    0.52
  -1   2   5   14.71    0.65
   1   2  -5   15.22    0.59
  -1  -2  -5   13.38    0.69
  -1   2   5   12.63    0.70
  -1   2   5   13.09    0.57
   1  -2  -6   11.04    0.44
   1  -2  -6   11.63    0.61
   1   2   6   12.03    0.60
  -1  -2   6   11.18    0.53
  -1  -2   6   11.56    0.64
  -1   2  -6   11.19    0.57
  -1   2  -6   11.25    0.61
  -1  -2   6   11.20    0.55
  -1   2   6   11.06    0.53
   1  -2   6   11.00    0.48
   1   2  -6   11.38    0.55
  -1   2   6   11.44    0.57
  -1  -2  -6   11.53    0.67
  -1  -2  -6   10.91    0.64
   1   2  -6   11.16    0.62
  -1   2   6    9.70    0.65
   1  -2   6   12.19    0.64
  -1  -2   7   14.29    0.65
  -1  -2   7   13.54    0.64
  -1  -2   7   14.03    0.76
  -1   2  -7   14.76    0.74
  -1   2  -7   13.53    0.67
   1   2   7   14.34    0.72
  -1   2   7   11.51    0.76
   1  -2   7   14.37    0.77
   1  -2   7   13.77    0.58
  -1  -2  -7   13.14    0.76
   1   2  -7   13.81    0.72
  -1   2   7   14.29    0.70
  -1   2   7   13.33    0.62
  -1  -2  -7   14.55    0.77
   1   2  -7   12.71    0.62
   1   2   8   11.25    0.68
  -1   2  -8    9.61    0.59
  -1  -2   8   11.48    0.75
  -1  -2   8    9.43    0.59
  -1  -2   8   10.62    0.60
  -1   2  -8    9.85    0.68
  -1  -2  -8   10.67    0.71
  -1   2   8   10.10    0.74
   1   2  -8   11.36    0.67
  -1   2   8   10.10    0.58
   1  -2   8   10.30    0.54
   1   2  -8   11.50    0.60
  -1  -2  -8   11.88    0.74
  -1   2   8   11.65    0.63
  -1  -2   9    6.64    0.55
   1   2   9    8.18    0.61
  -1   2  -9    8.34    0.67
  -1   2  -9    7.60    0.54
  -1  -2   9    8.73    0.71
  -1   2   9    6.48    0.59
   1  -2   9    5.82    0.48
   1   2  -9    6.78    0.59
  -1   2   9    6.77    0.74
  -1  -2  -9    6.05    0.61
  -1   2 -10    8.42    0.69
   1   2  10    9.35    0.72
  -1  -2  10    8.33    0.62
   1   2 -10    9.57    0.72
  -1  -2 -10    9.57    0.73
  -1   2  10    9.40    0.70
   1  -2  10    8.95    0.54
   1   2  11   11.39    0.81
  -1  -2  11   11.17    0.70
   1  -2 -11   10.67    0.81
  -1   2 -11   11.11    0.83
  -1   2  11   11.00    0.79
   1  -2  11   11.16    0.65
   1   2 -11   10.27    0.80
  -1  -2 -11   10.55    0.80
  -1  -2  12   13.38    0.81
   1   2  12   13.73    0.94
  -1   2 -12   13.60    0.92
  -1   2  12   15.06    0.92
  -1  -2 -12   13.73    0.94
   1   2 -12   14.26    0.94
  -1  -2  13    7.38    0.68
   1   2  13    7.37    0.78
  -1   2 -13    6.12    0.74
   1   2 -13    6.58    0.78
  -1   2  13    6.87    0.77
  -1  -2 -13    6.37    0.75
   1   2  14    3.41    0.65
  -1   2 -14    3.15    0.66
  -1  -2  14    3.95    0.55
   1   2 -14    4.77    0.69
   1   3   0   72.14    2.12
   1   3   0   73.86    2.13
   1   3   0   73.06    1.87
  -1  -3   0   71.50    1.91
   1  -3   0   68.84    2.10
  -1   3   0   66.19    2.29
   1   3   1  183.49    5.12
   1  -3  -1  179.42    4.98
  -1  -3   1  175.56    4.48
   1   3   1  190.63    5.13
  -1   3   1  157.93    5.41
   1  -3   1  160.35    5.00
   1   3  -1  173.61    5.13
   1   3  -1  169.40    4.34
   1   3  -1  173.11    5.11
  -1  -3   2  266.88    7.68
   1   3   2  272.13    7.86
  -1  -3   2  260.77    6.85
   1   3   2  277.25    7.87
   1  -3  -2  273.43    7.64
   1   3  -2  290.13    7.87
  -1   3   2  258.69    8.29
  -1  -3  -2  256.38    8.28
   1   3  -2  272.61    6.62
   1   3  -2  266.83    7.87
   1  -3   2  252.03    7.67
  -1  -3   3  296.00    8.43
  -1   3  -3  293.66    8.38
  -1  -3   3  284.96    8.18
  -1   3  -3  288.98    8.37
   1   3   3  290.14    8.38
   1   3   3  290.87    8.40
  -1  -3   3  284.07    7.31
  -1   3   3  268.56    8.83
   1   3  -3  286.06    8.41
  -1  -3  -3  271.64    8.84
   1  -3   3  272.76    8.19
   1   3  -3  292.17    7.06
   1  -3   3  289.86    7.24
  -1   3  -4  320.41    9.32
   1   3   4  323.75    9.33
  -1  -3   4  314.55    9.09
  -1  -3   4  326.97    8.14
  -1   3  -4  318.61    9.76
  -1   3  -4  327.20    9.32
   1  -3   4  316.26    9.13
  -1   3   4  332.40    9.31
  -1   3   4  311.57    9.28
  -1  -3  -4  309.57    9.84
  -1   3   4  304.76    9.84
  -1  -3  -4  301.66    9.38
   1   3  -4  325.15    7.85
   1   3  -4  316.48    9.36
   1  -3   4  310.39    8.06
   1   3   5  102.79    3.11
  -1   3  -5  109.67    3.13
  -1  -3   5  102.05    2.75
  -1  -3   5  103.68    3.06
  -1  -3   5  105.75    3.19
  -1   3  -5  102.36    3.10
  -1   3  -5   98.08    3.24
  -1   3   5  102.10    3.08
   1   3  -5   99.16    3.14
   1  -3   5   99.46    2.67
  -1  -3  -5  101.08    3.35
  -1   3   5  100.95    3.07
   1  -3   5   99.98    3.10
  -1   3   5   96.55    3.34
   1   3  -5  105.38    2.69
  -1  -3  -5   92.99    3.18
   1  -3   5   98.84    3.16
  -1  -3   6   96.07    2.71
  -1   3  -6   98.18    3.20
  -1   3  -6   97.47    3.08
  -1  -3   6  104.28    3.17
   1   3   6  101.68    3.10
  -1  -3   6   98.80    3.02
  -1  -3  -6   99.15    3.32
  -1   3   6   94.84    3.32
   1   3  -6  101.23    3.12
   1  -3   6   98.46    2.65
  -1   3   6  100.44    3.06
   1   3  -6   99.19    2.66
  -1   3  -7   78.74    2.55
  -1  -3   7   76.43    2.41
  -1   3  -7   75.07    2.47
  -1  -3   7   73.29    2.18
   1   3   7   78.29    2.49
  -1  -3  -7   81.01    2.69
   1   3  -7   71.74    2.13
   1   3  -7   76.35    2.50
   1  -3   7   77.69    2.12
  -1   3   7   76.72    2.70
  -1   3   7   75.20    2.44
   1   3   8   65.24    2.14
  -1   3  -8   63.08    2.13
  -1  -3   8   64.33    1.89
  -1  -3   8   67.58    2.09
   1   3  -8   58.42    2.12
  -1  -3  -8   64.30    2.31
  -1   3   8   61.19    2.33
   1  -3   8   63.69    1.81
  -1   3   8   60.47    2.08
   1   3  -8   58.68    1.83
  -1  -3   9   61.61    2.03
   1   3   9   58.60    2.07
  -1  -3   9   60.87    1.85
  -1   3  -9   59.59    2.09
  -1   3   9   59.25    2.29
   1   3  -9   56.45    2.08
   1   3  -9   60.11    1.81
  -1   3   9   58.03    2.03
  -1  -3  -9   59.77    2.23
   1  -3   9   58.90    1.76
  -1  -3  10   44.27    1.50
  -1   3 -10   41.93    1.68
   1   3  10   41.74    1.66
   1  -3  10   44.60    1.42
  -1   3  10   50.22    1.98
  -1  -3 -10   45.05    1.80
   1   3 -10   42.45    1.68
  -1   3  10   42.76    1.64
  -1  -3  11   36.97    1.34
  -1   3 -11   33.70    1.48
   1  -3 -11   37.37    1.57
   1   3  11   34.27    1.47
  -1  -3 -11   37.32    1.60
   1   3 -11   34.64    1.49
  -1   3  11   34.91    1.45
  -1   3 -12   29.58    1.38
  -1  -3  12   33.58    1.26
   1   3  12   29.01    1.38
   1  -3 -12   33.69    1.47
   1   3 -12   28.62    1.38
  -1   3  12   28.49    1.34
  -1  -3 -12   31.10    1.48
   1   3  13   12.05    0.96
  -1  -3  13   15.10    0.86
  -1   3 -13   12.00    0.90
  -1  -3 -13   13.34    0.99
  -1   3  13   12.56    0.89
   1   3 -13   13.11    0.94
  -1  -3  14   13.95    0.90
  -1  -3 -14   14.64    1.07
   1   4   0    2.00    0.23
   1  -4   0    1.85    0.21
  -1  -4   0    1.86    0.21
  -1   4   0    1.96    0.23
  -1   4  -1    6.82    0.40
  -1  -4   1    6.62    0.37
   1  -4  -1    7.02    0.34
   1  -4   1    6.03    0.28
   1   4  -1    5.90    0.42
  -1  -4  -1    6.70    0.38
   1  -4   1    6.33    0.38
  -1   4   1    6.22    0.42
  -1  -4  -1    5.81    0.43
  -1  -4   2    0.84    0.19
   1  -4  -2    1.15    0.16
  -1   4  -2    1.10    0.19
  -1  -4   2    1.19    0.18
   1   4  -2    0.85    0.22
   1  -4   2    1.03    0.13
   1  -4   2    0.95    0.23
   1   4  -2    1.03    0.12
  -1   4   2    1.00    0.14
   1   4  -2    1.08    0.11
  -1   4   2    0.86    0.21
  -1  -4  -2    1.09    0.24
   1   4   3    5.30    0.27
  -1   4  -3    5.43    0.37
  -1  -4   3    5.39    0.36
   1   4   3    5.83    0.28
  -1  -4   3    5.50    0.36
  -1   4   3    5.18    0.24
  -1   4   3    4.88    0.46
  -1  -4  -3    4.78    0.49
   1   4  -3    4.95    0.31
   1   4  -3    5.49    0.42
   1   4  -3    5.34    0.31
   1  -4   3    4.60    0.27
   1  -4   3    4.85    0.38
   1   4   4   23.23    0.81
  -1  -4   4   22.38    0.87
  -1  -4   4   24.57    0.92
  -1   4  -4   21.74    0.88
   1   4   4   23.95    0.81
  -1  -4   4   21.11    0.78
   1   4  -4   26.10    0.86
  -1  -4  -4   21.83    0.99
   1  -4   4   23.04    0.73
   1   4  -4   23.91    0.84
  -1   4   4   22.03    1.01
   1  -4   4   22.65    0.91
   1   4  -4   25.86    0.85
  -1   4  -5   17.31    0.61
  -1  -4   5   15.22    0.68
  -1   4  -5   17.17    0.60
   1   4   5   17.30    0.64
  -1  -4   5   14.97    0.63
  -1   4  -5   15.14    0.66
  -1  -4  -5   14.13    0.77
   1  -4   5   13.99    0.70
  -1   4   5   15.78    0.53
   1  -4   5   14.16    0.55
   1   4  -5   14.12    0.65
  -1   4   5   13.64    0.80
   1   4  -5   15.17    0.69
  -1   4   5   14.37    0.51
  -1  -4   6    2.01    0.28
  -1   4  -6    1.39    0.23
   1   4   6    2.45    0.28
  -1   4  -6    2.03    0.26
  -1  -4   6    1.47    0.27
   1   4  -6    1.69    0.32
   1   4  -6    1.48    0.26
  -1   4   6    1.95    0.21
   1  -4   6    1.44    0.23
   1  -4   6    1.26    0.30
  -1  -4  -6    1.15    0.33
  -1   4   6    0.92    0.33
  -1  -4   7    4.13    0.44
   1   4   7    4.76    0.44
  -1   4  -7    4.46    0.40
  -1  -4   7    4.60    0.44
   1   4  -7    3.99    0.46
   1   4  -7    4.06    0.42
  -1  -4  -7    3.54    0.43
   1  -4   7    3.85    0.38
  -1   4   7    4.34    0.39
  -1   4   7    3.20    0.48
  -1  -4   8    4.76    0.49
  -1  -4   8    4.53    0.50
   1   4   8    5.48    0.50
  -1   4  -8    5.32    0.50
  -1   4   8    4.98    0.58
  -1  -4  -8    5.19    0.57
   1   4  -8    5.35    0.49
  -1   4   8    6.26    0.45
   1  -4   8    5.69    0.46
   1   4  -8    5.20    0.50
  -1   4  -9   11.49    0.69
   1   4   9   11.85    0.70
  -1  -4   9   11.95    0.68
  -1  -4   9   12.35    0.72
  -1  -4  -9   10.64    0.81
  -1   4   9   10.14    0.89
  -1   4   9   10.03    0.64
   1   4  -9    9.85    0.68
   1   4  -9    9.90    0.69
  -1  -4  10   14.54    0.80
   1   4  10   16.31    0.87
  -1   4 -10   15.05    0.83
  -1  -4  10   14.82    0.86
  -1   4  10   16.22    0.81
   1   4 -10   16.00    0.87
  -1  -4 -10   16.15    0.99
   1   4 -10   15.57    0.89
  -1   4  10   14.25    1.12
   1   4  11    9.47    0.71
  -1   4 -11    8.89    0.69
  -1  -4  11    8.37    0.68
   1   4 -11    8.26    0.70
  -1  -4 -11    7.93    0.73
  -1   4  11    9.41    0.67
   1  -4 -12   10.77    0.89
  -1  -4  12   10.69    0.76
   1   4  12   10.92    0.82
  -1   4 -12   10.00    0.80
   1   4 -12   10.73    0.81
  -1  -4 -12    9.43    0.87
  -1   4  12   10.79    0.75
  -1   4 -13    6.24    0.72
  -1  -4  13    5.43    0.61
   1  -4 -13    6.37    0.76
   1   4  13    6.77    0.74
  -1   4  13    5.54    0.67
  -1  -4 -13    4.86    0.68
   1   4 -13    4.75    0.66
  -1  -5   0  155.49    4.00
   1   5   0  142.84    4.81
   1  -5   0  157.51    4.44
  -1   5   0  149.86    4.79
   1   5   0  151.14    3.86
  -1  -5   1  183.28    4.67
   1   5   1  184.89    4.52
   1   5   1  160.92    5.65
  -1   5  -1  172.85    5.58
   1  -5  -1  191.40    5.18
  -1   5   1  178.53    4.44
  -1  -5  -1  180.94    4.67
   1  -5   1  171.40    4.59
   1   5  -1  182.93    4.53
   1  -5   1  180.79    5.21
  -1   5   1  172.88    5.62
  -1  -5   2  139.03    3.67
  -1   5  -2  132.71    4.37
   1  -5  -2  147.64    4.05
   1   5   2  127.41    4.51
  -1  -5   2  137.75    4.13
   1  -5   2  142.60    3.61
   1  -5   2  137.94    4.12
  -1   5   2  134.16    4.45
  -1   5   2  144.74    3.47
   1   5  -2  142.30    3.59
  -1  -5   3  139.59    3.87
  -1   5  -3  141.21    4.61
   1  -5  -3  154.54    4.26
  -1  -5   3  145.12    4.36
   1   5  -3  148.93    3.79
   1  -5   3  146.61    4.36
  -1   5   3  152.91    3.64
  -1   5   3  142.31    4.71
  -1  -5   4  136.46    3.61
  -1   5  -4  137.03    4.26
  -1  -5   4  136.08    4.05
  -1  -5  -4  128.25    4.38
   1   5  -4  139.21    4.01
   1  -5   4  129.94    4.05
  -1   5   4  125.57    4.38
   1   5  -4  137.05    3.54
   1  -5   4  135.42    3.53
   1   5  -4  141.42    4.00
  -1  -5   5  142.79    3.80
  -1  -5   5  142.76    4.26
  -1   5  -5  140.12    4.47
   1   5   5  141.83    4.20
   1   5   5  140.39    4.19
   1   5  -5  146.52    4.24
  -1  -5  -5  141.40    4.63
   1  -5   5  135.24    4.27
  -1   5   5  136.95    4.64
   1  -5   5  143.37    3.71
   1   5  -5  143.78    3.73
   1   5   6   97.23    2.97
  -1  -5   6   96.51    3.05
  -1   5  -6  100.92    2.93
  -1  -5   6   92.05    2.71
   1   5  -6   99.17    3.02
  -1   5   6   94.85    3.36
  -1  -5  -6   97.41    3.34
   1  -5   6  102.24    2.65
   1   5  -6   96.90    2.71
   1  -5   6   96.80    3.09
  -1  -5   7   57.87    1.82
  -1   5  -7   61.92    1.93
   1   5   7   61.23    1.96
  -1  -5   7   60.10    2.05
  -1   5   7   58.00    2.29
   1  -5   7   63.06    1.76
   1   5  -7   62.10    2.00
   1  -5   7   62.58    2.11
  -1  -5  -7   61.01    2.26
   1   5  -7   58.29    1.85
  -1   5  -8   47.03    1.54
  -1  -5   8   46.71    1.65
  -1  -5   8   46.04    1.47
   1   5   8   45.29    1.55
  -1   5   8   42.93    1.85
  -1   5   8   44.88    1.45
  -1  -5  -8   43.94    1.80
   1   5  -8   42.82    1.50
   1   5  -8   43.60    1.59
  -1   5  -9   50.91    1.77
  -1  -5   9   50.88    1.66
  -1  -5   9   52.49    1.87
   1   5   9   51.56    1.78
   1   5  -9   51.59    1.72
  -1   5   9   51.96    1.70
   1   5  -9   49.68    1.81
  -1   5   9   52.43    2.15
  -1  -5  -9   51.41    2.06
  -1  -5  10   41.28    1.44
  -1   5 -10   40.22    1.51
   1   5  10   39.53    1.51
   1   5 -10   42.01    1.48
  -1   5  10   42.08    1.92
   1   5 -10   39.08    1.54
  -1   5  10   41.07    1.44
  -1  -5 -10   40.31    1.77
   1   5  11   30.62    1.29
  -1  -5  11   32.92    1.28
  -1   5 -11   29.69    1.27
   1   5 -11   29.10    1.30
  -1  -5 -11   31.16    1.52
  -1   5  11   31.06    1.21
  -1   5  11   34.43    1.74
   1  -5 -12   19.90    1.19
  -1  -5  12   19.41    0.97
  -1   5 -12   17.54    1.00
   1   5  12   19.02    1.00
  -1   5 -12   16.98    0.96
   1   5 -12   16.04    0.97
  -1   5  12   17.25    0.89
  -1  -5 -12   16.94    1.09
   1  -5 -13   15.88    1.16
  -1  -5  13   13.60    0.89
  -1   5  13   13.71    0.82
  -1  -5 -13   14.79    1.09
  -1   6   0    0.32    0.22
   1   6   0   -0.09    0.29
  -1   6   0   -0.01    0.18
  -1  -6   0    0.18    0.18
   1   6   0    0.18    0.21
   1  -6   0    0.28    0.16
   1  -6   0    0.14    0.19
  -1   6  -1    1.91    0.25
  -1   6  -1    1.47    0.27
   1   6   1    1.44    0.26
   1  -6  -1    1.68    0.25
  -1  -6   1    1.62    0.25
   1   6   1    1.59    0.36
   1   6  -1    1.03    0.27
  -1   6   1    1.53    0.28
   1  -6   1    1.63    0.27
   1   6  -1    1.53    0.30
  -1   6   1    1.45    0.21
  -1  -6  -1    1.59    0.25
   1  -6   1    1.39    0.19
  -1   6  -2    1.26    0.24
  -1  -6   2    1.37    0.22
   1   6   2    0.79    0.36
   1  -6  -2    1.41    0.23
  -1  -6   2    1.22    0.27
  -1   6   2    1.29    0.19
   1  -6   2    0.88    0.17
  -1   6   2    0.94    0.28
   1   6  -2    1.13    0.27
   1  -6   2    1.31    0.28
  -1  -6   3    4.51    0.39
  -1   6  -3    4.47    0.40
  -1  -6   3    4.29    0.38
   1  -6  -3    4.65    0.35
   1   6   3    4.65    0.55
   1   6  -3    4.34    0.42
  -1   6   3    4.00    0.47
  -1   6   3    4.62    0.32
   1  -6   3    4.11    0.30
   1  -6   3    4.68    0.41
  -1  -6   4    0.72    0.23
  -1   6  -4    0.39    0.19
  -1  -6   4    0.78    0.27
  -1   6   4    0.93    0.29
   1  -6   4    1.49    0.29
   1   6  -4    1.13    0.31
   1  -6   4    1.02    0.21
  -1  -6   5    2.39    0.30
  -1  -6   5    2.39    0.33
   1  -6   5    1.59    0.25
   1  -6   5    2.18    0.34
  -1   6   5    1.55    0.39
  -1  -6  -5    1.41    0.39
   1   6  -5    2.04    0.37
  -1  -6   6   12.71    0.63
  -1  -6   6   12.40    0.68
   1  -6   6   12.80    0.57
   1   6  -6   12.37    0.75
   1  -6   6   12.15    0.72
   1   6  -6   13.63    0.53
  -1   6   6   12.41    0.89
  -1  -6  -6   12.72    0.85
  -1  -6   7    8.77    0.57
  -1  -6   7    9.88    0.65
  -1  -6  -7    8.75    0.77
  -1   6   7    7.89    0.82
   1  -6   7    8.19    0.64
   1   6  -7    8.92    0.69
   1   6  -7    9.53    0.50
   1   6   8    7.71    0.42
  -1  -6   8    6.94    0.57
  -1  -6   8    7.62    0.62
  -1   6   8    6.39    0.76
   1  -6   8    6.60    0.62
   1   6  -8    7.05    0.69
   1   6  -8    7.26    0.50
  -1  -6  -8    7.03    0.76
   1   6   9    7.45    0.47
  -1   6  -9    6.11    0.41
  -1  -6   9    6.56    0.58
   1   6  -9    5.38    0.59
  -1   6   9    4.54    0.70
  -1  -6  -9    6.00    0.75
   1   6  -9    6.21    0.52
  -1   6 -10    5.61    0.59
  -1   6 -10    5.60    0.49
  -1  -6  10    5.50    0.54
   1   6  10    5.96    0.51
   1   6 -10    5.77    0.54
  -1   6  10    4.80    0.78
   1   6 -10    5.33    0.60
  -1  -6 -10    4.91    0.60
  -1   6 -11    7.47    0.58
   1   6  11    8.55    0.61
  -1   6 -11    8.16    0.76
  -1  -6  11    7.93    0.73
   1   6 -11    8.71    0.84
  -1  -6 -11    7.01    0.84
  -1   6  11    7.38    0.95
   1   6 -11    7.66    0.64
  -1   6 -12    3.71    0.61
   1  -6 -12    3.89    0.67
   1   6  12    4.90    0.57
  -1  -6  12    4.08    0.60
  -1   6 -12    4.32    0.49
   1   6 -12    4.02    0.54
  -1  -6 -12    3.79    0.66
   1  -7   0  129.24    3.73
   1  -7   0  126.14    3.29
  -1   7   0  125.14    4.02
  -1  -7   0  130.03    3.38
  -1   7   0  124.56    3.20
   1   7   0  122.47    3.25
   1   7   0  103.03    4.03
  -1  -7   1  139.94    4.19
   1  -7  -1  142.51    4.12
  -1  -7   1  137.06    3.73
  -1   7  -1  136.88    3.57
   1   7   1  141.88    3.62
  -1   7  -1  141.77    4.45
   1   7   1  116.48    4.51
  -1   7   1  139.71    3.54
   1  -7   1  137.94    3.65
   1  -7   1  142.56    4.16
  -1  -7  -1  138.26    3.73
  -1   7   1  135.02    4.48
   1   7  -1  138.22    3.63
   1   7   2  117.69    4.24
  -1  -7   2  125.59    3.88
  -1   7  -2  129.07    4.08
   1  -7  -2  135.90    3.80
  -1  -7   2  126.14    3.44
  -1   7  -2  128.13    3.34
  -1  -7  -2  125.70    3.45
  -1   7   2  127.84    3.24
   1  -7   2  121.62    3.35
   1   7  -2  128.76    3.39
   1  -7   2  127.21    3.86
  -1   7   2  121.51    4.16
  -1  -7   3  100.98    3.16
  -1  -7   3   96.46    2.78
   1  -7  -3  105.15    3.05
  -1   7  -3  101.60    3.28
  -1   7  -3   98.29    2.72
   1   7   3   99.51    3.54
   1  -7   3  100.40    2.71
   1  -7   3  100.83    3.15
  -1   7   3   99.88    3.42
   1   7  -3   99.00    2.76
  -1  -7   4   40.37    1.51
  -1   7  -4   41.38    1.36
  -1  -7   4   41.52    1.33
   1   7   4   44.22    1.85
   1  -7   4   40.08    1.51
  -1   7   4   40.97    1.69
   1  -7   4   42.55    1.26
   1   7  -4   41.01    1.40
  -1  -7   5   73.93    2.49
  -1  -7   5   76.26    2.21
  -1   7  -5   75.17    2.19
   1  -7   5   77.50    2.52
  -1  -7  -5   76.34    2.72
   1   7  -5   74.00    2.23
  -1   7   5   76.55    2.77
  -1  -7   6   65.03    2.24
  -1  -7   6   65.06    1.96
   1  -7   6   65.44    2.25
  -1   7   6   62.62    2.49
   1   7  -6   67.35    2.04
  -1  -7  -6   66.38    2.46
  -1  -7   7   74.67    2.19
  -1   7  -7   75.23    2.21
  -1  -7   7   72.33    2.48
   1  -7   7   71.59    2.49
   1   7  -7   68.20    2.19
  -1  -7  -7   72.20    2.69
  -1   7   7   73.93    2.79
  -1  -7   8   56.61    1.79
  -1   7  -8   56.96    1.83
  -1  -7  -8   55.92    2.24
  -1   7   8   58.41    2.36
   1   7  -8   54.54    1.87
  -1  -7   9   39.00    1.37
  -1   7  -9   37.90    1.43
   1   7  -9   39.82    1.27
  -1   7   9   36.69    1.83
  -1  -7  -9   36.95    1.70
   1   7  -9   37.70    1.47
  -1  -7  10   20.27    0.99
  -1   7 -10   20.71    1.08
  -1   7  10   22.88    1.45
  -1  -7 -10   21.22    1.27
   1   7 -10   21.41    0.86
   1   7 -10   23.48    1.14
  -1   7 -11   16.41    0.99
  -1  -7  11   15.40    0.94
  -1  -7 -11   15.44    1.13
   1   7 -11   16.50    1.07
  -1   7  11   17.30    1.38
   1   7 -11   15.07    0.75
  -1  -7  12   13.38    0.93
  -1   7 -12   13.60    1.00
  -1  -7 -12   13.72    1.11
   1   7 -12   13.12    0.74
   1   8   0   -0.48    0.27
  -1  -8   0    0.09    0.26
   1  -8   0    0.09    0.20
  -1   8   0    0.30    0.28
   1  -8   0    0.11    0.25
  -1   8   0   -0.27    0.23
  -1  -8   1    0.14    0.25
  -1  -8   1    0.02    0.24
   1   8   1    0.00    0.43
   1  -8  -1    0.37    0.24
  -1   8  -1   -0.22    0.25
   1  -8  -1    0.16    0.26
   1   8   1   -0.05    0.31
  -1   8  -1   -0.01    0.27
   1  -8   1    0.01    0.27
  -1   8   1   -0.20    0.23
  -1   8   1    0.05    0.29
   1   8  -1   -0.05    0.30
  -1  -8  -1    0.32    0.28
   1  -8   1    0.02    0.21
   1   8   2    0.66    0.46
  -1   8  -2    0.33    0.27
   1  -8  -2    0.73    0.28
  -1   8  -2    0.67    0.31
  -1  -8   2    0.74    0.28
  -1  -8   2    0.57    0.30
  -1   8   2    0.50    0.25
   1  -8   2    0.77    0.33
  -1   8   2    0.06    0.33
   1   8  -2    0.17    0.34
  -1  -8  -2    0.70    0.30
   1  -8   2    0.43    0.21
  -1  -8   3    2.87    0.41
  -1   8  -3    3.13    0.40
  -1  -8   3    2.44    0.35
   1   8   3    3.75    0.63
   1  -8   3    2.82    0.30
   1  -8   3    2.84    0.40
  -1   8   3    2.51    0.45
   1   8  -3    2.97    0.43
  -1   8  -4    0.62    0.36
  -1  -8   4    0.82    0.28
   1   8   4    0.41    0.54
  -1  -8   4    0.83    0.30
   1   8  -4    0.84    0.33
   1  -8   4    0.70    0.32
  -1   8   4    0.43    0.40
  -1  -8   5    1.23    0.32
  -1   8  -5    0.93    0.38
  -1  -8   5    1.92    0.39
   1   8  -5    1.48    0.38
  -1   8   5    1.00    0.46
   1  -8   5    0.83    0.36
  -1  -8   6    6.39    0.52
  -1   8  -6    5.99    0.57
  -1  -8  -6    5.11    0.63
   1   8  -6    6.58    0.63
  -1   8   6    5.58    0.73
  -1  -8   7    7.63    0.58
  -1   8  -7    7.62    0.65
  -1  -8  -7    7.38    0.82
  -1   8   7    7.31    0.90
   1   8  -7    7.14    0.74
  -1   8  -8    5.94    0.59
  -1  -8   8    6.19    0.57
  -1  -8  -8    5.85    0.72
   1   8  -8    6.82    0.68
  -1   8   8    6.05    0.80
  -1  -8   9    5.33    0.55
  -1   8  -9    5.51    0.64
  -1  -8  -9    4.81    0.69
   1   8  -9    4.56    0.65
  -1   8   9    4.15    0.76
  -1  -8  10    4.79    0.58
  -1   8 -10    4.08    0.63
  -1  -8 -10    3.75    0.68
  -1   8  10    3.94    0.83
   1   8 -10    4.58    0.67
  -1  -8  11    2.85    0.53
  -1   8 -11    2.78    0.62
  -1   8  11    2.95    0.80
   1   8 -11    2.98    0.64
  -1  -8 -11    3.59    0.70
  -1   9   0   81.00    2.78
  -1  -9   0   76.14    2.60
  -1   9   0   76.17    2.21
   1  -9   0   80.29    2.26
   1   9   0   75.32    2.27
   1  -9   0   76.70    2.55
  -1  -9   0   79.92    2.33
   1   9   1   92.99    2.60
   1  -9  -1   92.37    2.60
  -1   9  -1   90.34    2.56
  -1  -9   1   87.26    2.97
   1  -9  -1   94.43    2.93
  -1   9  -1   91.58    3.13
  -1  -9   1   91.61    2.66
  -1   9   1   91.52    3.21
   1   9  -1   88.90    2.60
   1  -9   1   91.89    2.57
  -1   9   1   89.71    2.50
  -1  -9  -1   91.03    2.67
   1  -9   1   91.64    2.95
  -1  -9   2   65.99    2.01
  -1   9  -2   63.84    1.95
  -1  -9   2   62.59    2.24
   1   9   2   64.16    2.58
  -1  -9  -2   66.66    2.04
  -1   9   2   63.02    2.42
   1   9  -2   69.85    2.05
   1  -9   2   66.07    1.92
   1  -9   2   65.38    2.24
  -1  -9   3   57.10    1.78
  -1   9  -3   55.88    1.77
  -1  -9   3   56.22    2.02
   1   9   3   58.84    2.36
   1   9  -3   54.39    1.82
   1  -9   3   54.86    2.01
  -1  -9  -3   55.12    1.79
  -1   9   3   56.73    2.21
  -1   9  -4   55.43    1.76
  -1  -9   4   55.09    1.73
   1  -9   4   54.87    1.99
   1   9  -4   53.18    1.77
  -1   9   4   51.89    2.15
  -1   9  -5   67.26    2.07
  -1  -9   5   65.02    2.03
  -1  -9  -5   66.76    2.53
   1   9  -5   64.29    2.08
  -1   9   5   65.74    2.57
  -1  -9   6   47.52    1.60
  -1   9  -6   49.59    1.70
  -1  -9  -6   50.56    2.07
  -1   9   6   48.89    2.11
   1   9  -6   48.53    1.71
  -1  -9   7   33.88    1.27
  -1   9  -7   36.28    1.40
   1   9  -7   33.86    1.43
  -1   9   7   34.34    1.71
  -1  -9  -7   34.55    1.62
  -1   9  -8   21.23    1.12
  -1  -9   8   22.44    1.01
  -1  -9  -8   23.28    1.35
   1   9  -8   22.72    1.19
  -1   9   8   22.79    1.38
  -1  -9   9   30.68    1.25
  -1   9  -9   30.45    1.36
  -1  -9  -9   32.52    1.64
   1   9  -9   30.39    1.43
  -1   9   9   33.56    1.78
  -1  -9  10   20.75    1.02
  -1   9 -10   22.22    1.18
  -1   9  10   22.66    1.57
   1   9 -10   20.90    1.22
  -1  -9 -10   20.23    1.35
   1 -10   0    0.25    0.32
  -1  10   0    0.17    0.41
   1  10   0   -0.07    0.36
   1 -10   0   -0.14    0.26
  -1  10   0    0.09    0.33
  -1 -10   0   -0.20    0.31
  -1 -10   0   -0.28    0.28
  -1  10  -1   -0.26    0.33
   1  10   1    0.83    0.39
   1 -10  -1    0.04    0.30
  -1 -10   1    0.19    0.34
   1 -10   1    0.28    0.26
  -1 -10  -1   -0.18    0.33
  -1 -10  -1   -0.15    0.34
   1 -10   1    0.08    0.34
  -1  10   1    0.02    0.42
   1  10  -1    0.14    0.39
  -1  10  -2    1.27    0.42
   1 -10  -2    0.98    0.33
  -1 -10   2    0.74    0.36
   1  10  -2    0.35    0.43
  -1  10   2    1.15    0.47
  -1 -10  -2    1.10    0.35
   1 -10   2    0.83    0.40
  -1 -10   3    1.67    0.38
  -1  10  -3    1.25    0.43
  -1 -10  -3    1.04    0.41
   1  10  -3    0.70    0.46
  -1  10   3    0.24    0.47
  -1  10  -4    3.15    0.50
  -1 -10   4    2.49    0.42
  -1  10   4    2.31    0.59
  -1 -10  -4    2.97    0.49
   1  10  -4    2.08    0.48
  -1 -10   5    1.91    0.40
  -1  10  -5    2.58    0.52
   1  10  -5    2.24    0.55
  -1  10   5    2.43    0.58
  -1 -10  -5    2.23    0.58
  -1  10  -6    1.11    0.50
  -1 -10   6    1.73    0.39
  -1  10   6    0.59    0.59
   1  10  -6    0.94    0.53
  -1 -10  -6    1.66    0.57
  -1 -10   7    2.89    0.45
  -1  10  -7    3.39    0.59
  -1 -10  -7    2.91    0.66
   1  10  -7    2.92    0.61
  -1  10   7    2.21    0.68
  -1  10  -8    1.38    0.57
  -1 -10   8    1.75    0.44
  -1  10   8    1.31    0.71
  -1 -10  -8    0.93    0.61
   1  10  -8    0.94    0.60
  -1 -10   9    2.99    0.53
  -1  10  -9    3.08    0.67
  -1 -10  -9    3.38    0.73
   1  10  -9    3.25    0.71
  -1  10   9    2.74    0.74
  -1 -11   0   25.89    1.14
   1  11   0   26.13    1.16
  -1  11   0   26.32    1.11
  -1  11  -1   40.80    1.48
   1 -11  -1   40.88    1.45
   1  11   1   39.90    1.52
  -1 -11   1   41.60    1.53
   1  11  -1   39.83    1.51
  -1 -11  -1   41.39    1.52
  -1  11   1   42.30    1.84
  -1 -11   2   53.02    1.80
   1 -11  -2   53.24    1.76
  -1  11  -2   53.76    1.81
  -1 -11  -2   53.34    1.83
  -1  11   2   53.84    2.21
   1  11  -2   51.96    1.83
  -1 -11   3   58.52    1.94
   1 -11  -3   61.42    1.96
  -1  11  -3   59.51    1.97
   1  11  -3   57.34    2.00
  -1  11   3   61.34    2.48
  -1 -11  -3   57.13    1.99
  -1 -11   4   49.63    1.71
  -1  11  -4   51.01    1.80
  -1 -11  -4   49.17    1.76
  -1  11   4   49.92    2.21
   1  11  -4   50.69    1.84
  -1 -11  -4   49.08    2.11
  -1 -11   5   31.71    1.27
  -1  11  -5   33.52    1.42
  -1 -11  -5   33.89    1.65
   1  11  -5   32.53    1.45
  -1 -11  -5   30.16    1.33
  -1  11   5   32.72    1.73
  -1  11  -6   27.15    1.30
  -1 -11   6   25.55    1.12
   1  11  -6   24.05    1.29
  -1  11   6   24.97    1.57
  -1 -11  -6   26.86    1.48
  -1 -11   7   21.02    1.04
  -1  11  -7   22.03    1.22
   1  11  -7   21.18    1.25
  -1 -11  -7   22.08    1.44
  -1  11   7   23.38    1.53
  -1 -11   8   17.61    0.95
  -1  11  -8   18.24    1.16
  -1  11   8   18.58    1.45
   1  11  -8   17.01    1.19
  -1 -11  -8   18.41    1.31
   1  12   0   -0.24    0.50
  -1 -12   0    0.17    0.44
  -1 -12   1   -0.15    0.41
  -1  12  -1    0.30    0.47
  -1 -12  -1   -0.07    0.43
   1  12  -1   -0.16    0.45
  -1 -12   2    0.63    0.43
  -1  12  -2   -0.12    0.43
   1 -12  -2    0.35    0.42
   1  12  -2    0.31    0.50
  -1 -12  -2    0.42    0.49
  -1 -12   3    0.52    0.43
   1 -12  -3   -0.01    0.43
  -1  12  -3    0.48    0.48
  -1  12   3   -0.12    0.56
  -1 -12  -3    1.21    0.50
   1  12  -3    0.26    0.52
  -1 -12   4    1.35    0.44
   1 -12  -4    0.81    0.46
  -1  12  -4    1.50    0.56
  -1 -12  -4    0.74    0.50
  -1  12   4    0.45    0.63
   1  12  -4    1.28    0.58
  -1 -12   5    1.04    0.48
  -1  12  -5    0.83    0.58
   1  12  -5    1.49    0.64
  -1 -12  -5    1.62    0.54
  -1 -12  -5    1.69    0.64
  -1  12   5    1.67    0.78
  -1 -12   6    2.26    0.48
  -1  12  -6    2.36    0.63
  -1 -12  -6    1.71    0.65
  -1  12   6    1.48    0.76
  -1 -12  -6    1.58    0.56
   1  12  -6    1.26    0.67
  -1 -13   0   39.03    1.58
   1  13   0   39.34    1.64
  -1 -13   1   28.22    1.29
  -1 -13  -1   28.82    1.33
   1  13  -1   28.32    1.41
  -1 -13   2   25.68    1.21
  -1  13  -2   24.19    1.21
  -1 -13  -2   24.90    1.23
   1  13  -2   23.16    1.30
  -1 -13   3   23.48    1.16
  -1  13  -3   21.52    1.20
   1  13  -3   22.08    1.24
  -1 -13  -3   23.12    1.19
  -1 -13   4   22.09    1.11
  -1  13  -4   23.34    1.24
  -2   0   0 1000.00   28.62
   2   0   0  950.23   28.49
  -2   0   0  908.93   29.79
  -2   0   0  997.30   24.61
   2   0   1  436.44   13.38
  -2   0  -1  457.05   13.32
  -2   0   1  461.56   13.56
   2   0  -1  442.86   13.22
  -2   0  -1  434.07   14.03
  -2   0   1  464.25   11.55
  -2   0   2  265.80    8.65
  -2   0  -2  288.62    8.32
   2   0  -2  281.84    8.30
  -2   0   2  287.93    7.18
  -2   0  -2  274.24    8.69
  -2   0   2  290.17    8.33
   2   0   2  282.40    8.30
  -2   0  -3  175.44    5.70
   2   0   3  183.52    5.45
  -2   0   3  182.92    4.70
   2   0  -3  185.89    5.45
  -2   0   3  185.10    5.46
  -2   0  -3  177.83    5.45
  -2   0  -4  197.05    6.23
  -2   0   4  196.91    5.67
  -2   0  -4  194.25    5.95
  -2   0   4  201.59    5.97
  -2   0   4  200.60    6.17
   2   0   4  195.59    5.95
   2   0  -4  203.02    5.95
  -2   0   4  197.46    5.15
  -2   0  -5  256.32    7.80
  -2   0   5  260.28    7.11
   2   0   5  240.88    7.44
  -2   0  -5  243.69    7.46
  -2   0   5  249.28    7.46
   2   0  -5  243.93    7.44
  -2   0   5  250.96    6.46
  -2   0   5  247.20    7.73
  -2   0  -6  221.26    6.66
  -2   0   6  211.16    6.64
   2   0  -6  218.41    6.63
  -2   0   6  224.52    6.87
  -2   0   6  221.80    5.76
  -2   0  -6  213.03    6.93
  -2   0   6  231.88    6.30
   2   0   6  215.10    6.63
   2   0   7  159.68    4.97
  -2   0   7  160.18    4.30
   2   0  -7  160.58    4.98
  -2   0  -7  161.47    4.99
  -2   0  -7  157.58    5.17
  -2   0   7  165.98    5.12
  -2   0   7  157.18    4.97
   2   0  -8  143.30    4.57
   2   0   8  142.07    4.55
  -2   0   8  143.97    4.55
  -2   0   8  143.86    3.92
  -2   0  -8  147.61    4.73
  -2   0  -8  144.19    4.57
   2   0  -9   69.71    2.46
  -2   0   9   68.01    2.43
  -2   0  -9   71.44    2.49
   2   0   9   67.90    2.44
  -2   0  -9   70.87    2.51
  -2   0   9   69.40    2.10
  -2   0 -10   76.23    2.69
  -2   0 -10   71.39    2.64
   2   0 -10   75.80    2.66
   2   0  10   72.32    2.62
  -2   0  10   73.81    2.61
  -2   0  10   76.90    2.28
  -2   0  11   45.81    1.90
   2   0  11   48.98    1.94
  -2   0 -11   47.54    1.95
  -2   0 -11   49.90    1.94
  -2   0  11   49.82    1.67
  -2   0 -12   33.31    1.58
  -2   0  12   34.87    1.34
  -2   0  12   33.07    1.55
  -2   0 -12   35.23    1.55
   2   0  12   31.37    1.55
  -2   0  13   26.08    1.13
  -2   0  13   22.69    1.27
  -2   0 -13   23.93    1.35
   2   0  13   22.56    1.29
  -2   0  14   22.87    1.11
  -2   0 -14   19.80    1.31
  -2   1   0    9.27    0.49
   2   1   0    9.61    0.46
  -2  -1   0    9.84    0.49
  -2  -1   0    9.88    0.38
  -2  -1   0    9.12    0.46
  -2   1   0    9.97    0.46
   2  -1   0    9.66    0.45
  -2  -1   1    3.92    0.35
   2  -1  -1    3.42    0.31
  -2   1  -1    4.18    0.35
  -2  -1   1    3.96    0.27
   2   1   1    3.63    0.32
  -2   1  -1    4.40    0.31
  -2  -1  -1    3.83    0.23
  -2   1   1    3.68    0.32
  -2   1   1    4.01    0.32
   2  -1   1    3.87    0.31
   2   1  -1    3.63    0.32
  -2  -1  -1    3.56    0.34
  -2  -1  -1    3.77    0.34
  -2   1   1    3.72    0.24
   2   1   2    0.25    0.17
  -2  -1   2    0.18    0.14
  -2  -1   2    0.40    0.20
   2  -1  -2    0.23    0.15
  -2   1  -2    0.23    0.16
  -2   1  -2    0.45    0.17
   2  -1   2    0.10    0.17
  -2  -1  -2    0.01    0.16
  -2   1   2    0.06    0.15
   2   1  -2   -0.06    0.16
  -2  -1  -2    0.09    0.15
  -2   1   2    0.09    0.18
  -2  -1  -2    0.16    0.12
  -2   1   2    0.21    0.14
  -2  -1   3    3.08    0.30
   2   1   3    3.87    0.35
  -2  -1   3    3.93    0.39
  -2   1  -3    2.92    0.31
   2  -1  -3    3.29    0.31
  -2   1  -3    2.63    0.35
  -2  -1  -3    2.73    0.28
  -2   1   3    2.02    0.24
  -2  -1  -3    2.24    0.27
   2   1  -3    3.01    0.34
  -2   1   3    2.24    0.23
   2  -1   3    2.54    0.31
  -2   1   3    2.51    0.14
  -2   1   3    2.80    0.30
   2  -1  -4    4.39    0.39
   2   1   4    4.04    0.38
  -2  -1   4    3.81    0.26
  -2   1  -4    4.03    0.39
  -2  -1   4    4.34    0.42
  -2   1  -4    3.69    0.40
  -2  -1   4    3.54    0.31
  -2   1   4    4.03    0.39
   2   1  -4    4.90    0.40
  -2  -1  -4    3.54    0.37
  -2   1   4    3.75    0.35
   2  -1   4    4.29    0.37
  -2   1   4    4.12    0.19
   2   1  -4    4.26    0.37
  -2  -1  -4    4.25    0.40
  -2   1   4    4.01    0.39
   2   1   5    4.77    0.43
  -2   1  -5    4.44    0.43
  -2   1  -5    4.93    0.42
  -2  -1   5    4.64    0.29
   2  -1  -5    5.16    0.40
  -2  -1   5    4.22    0.36
   2  -1  -5    5.40    0.44
  -2  -1   5    4.49    0.36
  -2   1   5    3.83    0.38
  -2   1   5    4.89    0.43
  -2  -1  -5    4.59    0.46
  -2  -1  -5    4.61    0.44
   2   1  -5    5.10    0.37
   2  -1   5    5.33    0.45
  -2   1   5    4.00    0.42
   2   1  -5    4.49    0.41
  -2  -1   6    8.04    0.49
   2   1   6    9.78    0.60
  -2  -1   6    8.71    0.53
  -2   1  -6    8.87    0.58
  -2  -1   6    9.53    0.45
   2  -1  -6    9.04    0.57
  -2  -1   6    9.75    0.62
  -2   1  -6    8.92    0.57
   2  -1   6   10.28    0.61
  -2   1   6   10.22    0.60
  -2   1   6    9.18    0.52
  -2  -1  -6   10.45    0.63
   2   1  -6   10.18    0.50
  -2   1   6    9.13    0.59
  -2  -1  -6    9.10    0.62
   2   1  -6    9.87    0.58
   2   1   7    9.22    0.63
  -2   1  -7    8.79    0.61
  -2  -1   7    7.69    0.54
  -2  -1   7    9.08    0.65
   2  -1  -7    8.61    0.60
  -2   1  -7    6.78    0.56
  -2  -1   7    8.00    0.46
  -2   1   7    7.04    0.56
  -2   1   7    8.03    0.53
   2  -1   7    9.36    0.63
   2   1  -7    7.89    0.60
   2   1  -7    8.80    0.49
  -2  -1  -7    7.71    0.62
  -2   1   7    9.59    0.65
  -2  -1  -7    9.47    0.66
   2   1   8   17.94    0.90
  -2  -1   8   19.41    0.96
  -2   1  -8   16.70    0.88
  -2   1  -8   18.35    0.94
  -2  -1   8   16.51    0.77
   2  -1   8   18.18    0.94
  -2   1   8   16.66    0.78
  -2   1   8   18.57    0.90
  -2   1   8   17.37    0.92
   2   1  -8   17.69    0.91
  -2  -1  -8   17.94    0.97
  -2  -1  -8   17.32    0.94
  -2   1  -9   12.83    0.83
   2   1   9   12.17    0.78
  -2   1  -9   11.28    0.75
  -2  -1   9   11.97    0.66
  -2  -1   9   13.59    0.89
  -2  -1  -9   10.57    0.82
  -2   1   9   10.57    0.80
   2   1  -9   11.37    0.78
  -2   1   9   11.53    0.76
  -2  -1  -9   12.29    0.80
  -2   1   9   10.46    0.66
  -2   1 -10    4.60    0.55
  -2  -1  10    3.92    0.47
  -2  -1  10    5.69    0.65
  -2   1 -10    4.60    0.60
   2   1  10    5.08    0.62
  -2  -1 -10    4.76    0.61
  -2   1  10    5.31    0.65
  -2   1  10    4.35    0.46
  -2  -1 -10    4.86    0.61
   2   1 -10    5.41    0.65
   2   1  11    6.64    0.69
  -2   1 -11    5.55    0.61
  -2  -1  11    6.07    0.61
  -2  -1  11    6.40    0.74
  -2   1 -11    4.90    0.62
  -2  -1 -11    6.84    0.78
  -2  -1 -11    5.38    0.66
  -2   1  11    6.43    0.71
  -2   1  11    5.33    0.57
   2   1 -11    6.76    0.71
   2   1  12    6.08    0.76
  -2  -1  12    5.71    0.59
  -2   1 -12    5.36    0.68
  -2  -1  12    6.86    0.81
  -2   1  12    5.80    0.74
  -2  -1 -12    6.95    0.73
   2   1 -12    6.98    0.78
  -2   1  12    5.35    0.56
  -2   1 -13    7.68    0.87
  -2  -1  13    6.27    0.69
  -2  -1  13    7.04    0.88
   2   1  13    6.18    0.76
  -2   1  13    7.14    0.79
  -2   1  13    6.33    0.66
   2   1 -13    7.02    0.78
  -2  -1 -13    6.37    0.75
  -2  -2   0  279.55    9.04
  -2  -2   0  299.75    8.69
  -2   2   0  293.58    8.61
  -2   2   0  306.78    8.65
   2   2   0  296.32    8.67
  -2   2   0  274.64    9.08
  -2   2   0  311.45    8.39
  -2  -2   0  292.84    7.50
  -2   2  -1  311.54    8.93
  -2   2  -1  327.38    8.96
  -2  -2   1  310.20    7.78
  -2   2  -1  303.04    9.41
   2   2   1  311.07    8.98
  -2   2   1  302.99    7.73
  -2  -2  -1  291.93    9.38
   2   2  -1  309.82    8.98
  -2   2   1  309.98    8.95
  -2  -2  -1  293.52    8.99
  -2  -2  -1  298.68    7.76
  -2   2   1  294.57    8.91
  -2   2   1  322.61    8.74
  -2   2   1  280.88    9.39
  -2   2  -2  368.21   11.67
  -2   2  -2  385.40   11.12
  -2  -2   2  392.90    9.67
   2   2   2  365.55   11.14
  -2  -2   2  388.84   11.18
  -2   2   2  398.05   10.92
  -2  -2  -2  367.88   11.67
  -2  -2  -2  366.85   11.16
  -2   2   2  364.91   11.67
  -2   2   2  369.06   11.08
  -2   2   2  391.24    9.63
  -2  -2  -2  378.32    9.71
  -2   2   2  388.93   11.12
   2   2  -2  387.06   11.27
  -2   2  -3  333.78   10.69
   2  -2  -3  337.53   10.19
  -2   2  -3  342.00   10.19
  -2  -2   3  345.92    8.86
  -2  -2   3  352.78   10.25
   2   2   3  349.18   10.22
  -2  -2  -3  339.36   10.71
   2  -2   3  356.54   10.21
   2   2  -3  360.62   10.23
  -2   2   3  367.29   10.20
  -2   2   3  353.21    8.84
   2   2  -3  342.26   10.21
  -2  -2  -3  337.49   10.23
  -2   2   3  335.28   10.69
   2   2   4  295.34    8.61
  -2  -2   4  290.39    7.47
  -2   2  -4  282.57    8.57
  -2  -2   4  288.80    8.30
   2  -2  -4  292.06    8.59
  -2   2  -4  294.10    9.01
  -2  -2   4  298.62    8.64
  -2  -2  -4  289.10    9.03
  -2   2   4  290.27    7.45
  -2   2   4  296.96    8.58
  -2  -2  -4  286.34    8.63
  -2   2   4  278.29    9.01
   2   2  -4  285.29    8.60
   2  -2   4  285.39    8.61
   2   2  -4  297.78    7.20
   2  -2  -5  157.11    4.89
  -2  -2   5  165.04    4.70
  -2   2  -5  158.63    4.88
   2   2   5  155.55    4.89
   2  -2  -5  161.89    4.88
  -2  -2   5  162.11    4.27
  -2   2  -5  164.18    5.13
   2   2  -5  168.11    4.11
   2   2  -5  154.76    4.90
  -2   2   5  159.78    4.25
   2  -2   5  160.50    4.92
  -2  -2  -5  162.54    4.94
  -2  -2  -5  166.75    5.18
  -2   2   5  160.33    4.87
  -2   2   5  157.29    5.13
  -2   2  -6  160.91    5.13
   2   2   6  156.77    4.91
  -2   2  -6  158.31    4.91
  -2  -2   6  162.94    4.71
  -2  -2   6  157.94    4.28
   2   2  -6  159.91    4.94
  -2   2   6  163.69    4.28
  -2  -2  -6  164.10    4.99
  -2   2   6  154.93    4.89
  -2  -2  -6  159.49    5.19
   2   2  -6  165.64    4.11
  -2   2   6  161.86    5.16
  -2   2  -7  148.34    4.61
   2   2   7  143.67    4.61
  -2  -2   7  151.07    4.39
  -2   2  -7  145.33    4.79
  -2  -2   7  146.79    4.01
  -2  -2  -7  144.86    4.86
  -2  -2  -7  150.49    4.70
  -2   2   7  150.19    4.01
   2   2  -7  146.11    4.63
  -2   2   7  149.50    4.83
   2   2  -7  155.52    3.85
  -2   2   7  148.72    4.58
   2   2   8  120.47    3.94
  -2   2  -8  128.48    4.10
  -2  -2   8  125.91    4.01
  -2   2  -8  125.33    3.95
  -2  -2   8  124.84    3.44
  -2  -2   8  129.70    3.74
  -2  -2  -8  124.07    4.04
  -2   2   8  123.30    3.42
   2   2  -8  117.14    3.96
  -2   2   8  126.52    4.15
  -2   2   8  118.45    3.90
  -2  -2  -8  122.52    4.16
  -2  -2   9   81.28    2.37
  -2   2  -9   80.08    2.71
  -2   2  -9   78.75    2.77
   2   2   9   78.76    2.71
  -2  -2   9   78.55    2.76
   2   2  -9   77.26    2.72
  -2   2   9   77.22    2.66
  -2  -2  -9   78.72    2.85
  -2   2   9   83.08    2.87
  -2   2   9   79.76    2.35
  -2   2 -10   64.93    2.29
  -2  -2  10   58.53    2.28
  -2   2 -10   58.64    2.24
  -2  -2  10   59.02    1.94
   2   2  10   59.63    2.24
  -2   2  10   60.68    1.94
  -2   2  10   59.48    2.18
  -2  -2 -10   63.79    2.36
   2   2 -10   63.37    2.27
  -2   2  10   65.99    2.38
   2   2  11   45.43    1.83
  -2  -2  11   45.46    1.59
  -2   2 -11   44.95    1.83
  -2  -2 -11   47.25    1.90
  -2   2  11   43.65    1.73
   2   2 -11   43.29    1.78
   2   2  12   41.28    1.78
  -2   2 -12   41.03    1.77
  -2  -2  12   42.49    1.54
  -2  -2 -12   45.07    1.85
  -2   2  12   39.77    1.69
   2   2 -12   39.64    1.75
  -2   2 -13   25.67    1.35
   2   2  13   24.36    1.35
  -2  -2  13   26.23    1.18
   2   2 -13   25.32    1.34
  -2  -2 -13   26.27    1.38
  -2   2  13   23.58    1.27
  -2  -3   0    6.47    0.39
  -2   3   0    6.23    0.45
  -2  -3   0    6.69    0.41
  -2  -3   0    6.67    0.37
   2   3   0    6.33    0.38
   2   3   1    1.21    0.20
  -2  -3   1    1.13    0.19
  -2   3  -1    0.91    0.21
  -2  -3   1    1.18    0.23
  -2  -3  -1    1.19    0.18
  -2   3   1    0.88    0.21
  -2  -3  -1    0.92    0.19
  -2   3   1    0.98    0.14
  -2  -3  -1    0.92    0.22
   2   3  -1    0.98    0.20
  -2  -3   2    7.14    0.45
  -2   3  -2    7.44    0.34
  -2  -3   2    6.22    0.39
  -2   3  -2    7.18    0.32
   2   3   2    7.35    0.41
  -2   3  -2    5.58    0.41
  -2   3   2    6.40    0.47
  -2   3   2    6.92    0.27
  -2  -3  -2    6.50    0.37
  -2  -3  -2    6.58    0.45
  -2  -3  -2    6.73    0.47
   2   3  -2    6.57    0.38
  -2   3   2    7.17    0.28
   2   3  -2    7.37    0.43
  -2   3  -3    0.68    0.21
   2   3   3    1.10    0.20
  -2   3  -3    1.12    0.19
  -2   3  -3    1.16    0.18
  -2  -3   3    0.88    0.23
  -2  -3   3    0.83    0.20
   2   3  -3    0.82    0.21
  -2   3   3    0.90    0.16
  -2  -3  -3    0.67    0.22
  -2  -3  -3    0.75    0.23
   2   3  -3    0.72    0.22
  -2   3   3    0.46    0.21
  -2   3   3    0.93    0.13
  -2   3  -4    7.50    0.44
   2   3   4    7.75    0.49
  -2  -3   4    6.97    0.45
  -2   3  -4    8.58    0.47
  -2  -3   4    7.81    0.53
  -2  -3   4    7.35    0.44
  -2   3  -4    6.89    0.51
   2   3  -4    9.42    0.51
  -2  -3  -4    9.06    0.60
   2   3  -4    9.61    0.51
  -2  -3  -4    9.73    0.56
  -2   3   4    9.03    0.55
  -2   3   4    9.60    0.40
  -2   3   4    9.59    0.44
  -2  -3   5   12.27    0.56
  -2   3  -5   12.30    0.57
  -2  -3   5   11.57    0.54
   2   3   5   12.34    0.61
  -2   3  -5   11.73    0.62
  -2  -3  -5   10.79    0.70
  -2   3   5   10.39    0.66
   2   3  -5   10.06    0.61
  -2  -3  -5   11.42    0.66
   2   3  -5   10.90    0.57
  -2   3   5   11.24    0.55
  -2   3  -6    4.86    0.43
   2   3   6    4.88    0.47
  -2  -3   6    4.41    0.52
  -2   3  -6    3.58    0.38
  -2  -3   6    4.37    0.36
  -2  -3   6    3.96    0.42
  -2   3   6    4.19    0.51
  -2   3   6    5.29    0.44
   2   3  -6    5.01    0.49
  -2  -3  -6    3.93    0.45
   2   3  -6    4.38    0.45
  -2   3  -7    7.32    0.56
  -2   3  -7    7.66    0.56
  -2  -3   7    8.33    0.57
   2   3   7    9.30    0.60
  -2  -3   7    8.18    0.51
  -2  -3  -7    7.58    0.63
  -2   3   7    8.59    0.55
  -2   3   7    7.89    0.65
   2   3  -7    8.14    0.62
   2   3  -7    8.28    0.60
  -2   3  -8    3.89    0.44
  -2   3  -8    4.11    0.49
  -2  -3   8    4.29    0.43
  -2  -3   8    3.94    0.41
   2   3   8    4.72    0.50
  -2   3   8    6.02    0.49
   2   3  -8    6.27    0.58
  -2  -3  -8    5.88    0.64
  -2   3   8    5.13    0.62
  -2   3  -9    7.36    0.61
  -2  -3   9    5.78    0.57
   2   3   9    6.62    0.63
  -2   3  -9    7.27    0.61
   2   3  -9    4.50    0.57
  -2   3   9    5.07    0.62
  -2   3   9    5.84    0.54
  -2  -3  -9    4.54    0.56
  -2   3 -10   12.22    0.80
   2   3  10   12.07    0.82
  -2  -3  10   11.09    0.74
  -2   3  10   12.09    0.97
  -2   3  10   11.91    0.74
   2   3 -10   12.57    0.83
  -2  -3 -10   11.65    0.88
  -2  -3  11    9.51    0.72
  -2   3 -11    9.72    0.78
   2   3  11    9.95    0.81
   2   3 -11   10.00    0.79
  -2   3  11   10.13    0.75
  -2   3  11    9.98    0.94
  -2  -3 -11    9.42    0.85
  -2  -3  12   11.11    0.81
  -2   3 -12   11.97    0.88
   2   3  12   11.76    0.90
  -2  -3 -12   12.12    0.95
  -2   3  12   11.87    0.84
   2   3 -12   12.53    0.91
  -2  -3  13    4.99    0.62
   2   3  13    6.20    0.78
  -2   3 -13    5.28    0.68
   2   3 -13    5.05    0.69
  -2  -3 -13    4.57    0.67
  -2   3  13    5.03    0.66
  -2  -4   0  184.04    4.78
  -2  -4   0  179.43    5.70
   2   4   0  191.82    5.45
  -2   4   0  174.43    5.76
   2   4   0  181.26    5.43
  -2  -4   0  187.24    5.49
   2  -4   0  183.62    5.30
   2   4   1  263.89    7.34
  -2   4  -1  236.21    7.74
   2   4   1  256.20    7.33
   2  -4  -1  257.38    7.12
  -2  -4   1  253.67    6.43
  -2  -4  -1  246.82    7.72
  -2   4   1  234.03    7.75
   2   4  -1  243.92    7.33
   2   4  -1  251.20    7.34
   2   4  -1  251.24    7.34
  -2  -4  -1  241.69    7.38
  -2  -4  -1  246.92    6.42
  -2  -4   2  233.99    6.98
  -2   4  -2  229.80    7.30
   2   4   2  236.59    6.92
   2   4   2  238.07    6.92
  -2  -4   2  232.51    6.06
  -2  -4  -2  227.69    6.96
  -2  -4  -2  233.65    7.31
   2   4  -2  246.34    6.93
   2   4  -2  237.36    6.92
   2   4  -2  227.34    5.88
  -2  -4  -2  233.30    6.05
  -2   4   2  227.83    7.33
   2   4   3  249.40    7.50
  -2   4  -3  236.68    7.89
  -2  -4   3  249.15    6.57
  -2  -4   3  254.56    7.57
   2   4  -3  260.78    6.38
   2   4  -3  257.66    7.52
  -2  -4  -3  261.30    7.96
  -2   4   3  258.28    7.96
  -2   4  -4  298.26    8.43
  -2  -4   4  282.95    8.30
   2   4   4  290.14    8.50
  -2   4  -4  284.98    8.44
  -2  -4   4  288.75    7.43
  -2   4  -4  291.49    8.94
  -2  -4  -4  283.97    9.01
  -2   4   4  278.44    8.99
   2   4  -4  292.30    7.21
   2   4  -4  281.08    8.53
  -2   4  -5  200.85    6.08
  -2  -4   5  192.08    5.64
  -2   4  -5  197.01    5.70
   2   4   5  196.20    5.78
  -2  -4   5  191.60    5.07
  -2   4   5  197.80    5.66
   2   4  -5  198.12    4.94
  -2   4   5  175.90    5.63
   2   4  -5  186.52    5.80
  -2  -4  -5  190.10    6.16
  -2   4   5  183.84    6.13
   2   4   6  135.94    4.23
  -2   4  -6  134.88    4.44
  -2  -4   6  137.52    4.13
  -2   4  -6  136.19    4.16
  -2  -4   6  134.20    3.73
  -2  -4  -6  138.35    4.56
  -2   4   6  142.93    4.13
  -2   4   6  135.44    4.53
   2   4  -6  145.05    3.69
   2   4  -6  134.03    4.26
  -2   4  -7   87.40    2.72
  -2  -4   7   82.82    2.46
  -2  -4   7   87.54    2.72
  -2   4  -7   81.20    2.88
   2   4   7   84.23    2.77
  -2   4   7   86.30    3.02
   2   4  -7   85.82    2.46
   2   4  -7   87.61    2.81
  -2  -4  -7   84.97    3.03
  -2   4   7   88.73    2.68
  -2   4  -8   65.67    2.16
  -2  -4   8   67.50    2.15
   2   4   8   64.62    2.20
  -2   4  -8   68.95    2.30
  -2  -4   8   64.40    1.98
   2   4  -8   61.67    2.21
  -2   4   8   62.68    2.41
   2   4  -8   59.59    1.95
  -2   4   8   63.60    2.10
  -2  -4  -8   64.05    2.42
  -2   4  -9   77.39    2.58
  -2  -4   9   77.15    2.34
  -2  -4   9   78.45    2.54
   2   4   9   76.69    2.62
  -2   4   9   77.73    2.52
  -2  -4  -9   74.49    2.83
   2   4  -9   76.83    2.63
  -2   4   9   80.55    2.90
  -2  -4  10   62.64    2.03
  -2   4 -10   61.38    2.22
   2   4  10   59.16    2.25
   2   4 -10   61.50    2.26
  -2   4  10   63.66    2.16
  -2   4  10   70.89    2.56
  -2  -4 -10   66.73    2.50
  -2   4 -11   49.45    1.89
   2   4  11   47.27    1.91
  -2  -4  11   51.00    1.75
   2   4 -11   49.06    1.93
  -2   4  11   49.20    1.81
  -2   4  11   53.89    2.20
  -2  -4 -11   53.41    2.14
  -2   4 -12   31.93    1.45
  -2  -4  12   35.14    1.38
   2   4  12   33.29    1.49
  -2   4  12   31.63    1.37
  -2  -4 -12   34.68    1.66
   2   4 -12   30.85    1.48
  -2   4  12   38.39    1.84
  -2  -4  13   20.26    1.07
  -2  -4 -13   19.59    1.26
   2   5   0    2.45    0.23
  -2   5   0    2.40    0.30
   2   5   0    2.29    0.23
  -2  -5   0    2.63    0.28
  -2  -5   0    2.45    0.32
   2  -5   0    2.64    0.32
  -2  -5   1    1.66    0.25
   2   5   1    1.72    0.18
  -2  -5   1    1.33    0.18
   2  -5  -1    1.33    0.23
   2   5   1    1.55    0.17
  -2   5  -1    1.74    0.27
   2  -5   1    1.19    0.26
   2   5  -1    1.44    0.17
  -2   5   1    1.15    0.26
   2  -5   1    1.31    0.15
  -2  -5  -1    1.50    0.25
   2   5  -1    1.55    0.19
  -2  -5  -1    1.81    0.26
   2   5   2    0.10    0.14
  -2   5  -2    0.12    0.20
  -2  -5   2    0.12    0.20
   2   5   2    0.08    0.15
   2  -5  -2    0.07    0.16
   2   5  -2    0.24    0.22
  -2  -5  -2    0.22    0.22
   2   5  -2    0.24    0.15
   2  -5   2   -0.06    0.23
  -2   5   2    0.06    0.19
  -2  -5  -2    0.15    0.17
   2   5  -2    0.07    0.17
  -2   5  -3    4.77    0.44
   2   5   3    5.59    0.34
  -2  -5   3    4.58    0.39
  -2  -5   3    4.86    0.38
  -2  -5  -3    5.33    0.54
   2  -5   3    4.91    0.47
   2   5  -3    5.05    0.49
   2   5  -3    5.14    0.37
  -2   5   3    4.50    0.47
   2   5   4   12.44    0.56
  -2  -5   4   11.60    0.62
  -2  -5   4   10.87    0.58
  -2   5  -4   11.44    0.67
   2   5  -4   13.14    0.60
  -2  -5  -4   11.89    0.72
  -2   5   4   11.69    0.70
   2   5  -4   14.03    0.70
  -2  -5   5    6.16    0.47
  -2   5  -5    5.71    0.49
  -2  -5   5    5.51    0.46
   2   5   5    6.79    0.42
  -2  -5  -5    4.84    0.61
  -2   5   5    4.74    0.53
   2   5  -5    5.67    0.57
   2   5  -5    5.16    0.44
   2   5   6    3.89    0.40
  -2   5  -6    2.87    0.37
  -2  -5   6    2.40    0.33
  -2  -5   6    3.45    0.41
   2   5  -6    3.61    0.45
  -2  -5  -6    3.25    0.48
   2   5  -6    3.91    0.43
  -2   5   6    3.10    0.44
  -2  -5   7    3.38    0.40
  -2   5  -7    3.85    0.35
   2   5   7    4.00    0.47
  -2  -5   7    3.68    0.44
  -2  -5  -7    2.83    0.45
   2   5  -7    3.35    0.40
   2   5  -7    3.74    0.50
  -2   5   7    2.86    0.49
  -2  -5   8    4.75    0.51
  -2   5  -8    4.89    0.42
  -2  -5   8    4.38    0.47
   2   5   8    5.24    0.52
   2   5  -8    5.39    0.57
  -2   5   8    6.04    0.35
   2   5  -8    6.00    0.54
  -2   5   8    4.88    0.61
  -2  -5  -8    5.45    0.64
  -2  -5   9    9.32    0.65
   2   5   9    9.35    0.65
  -2  -5   9    8.88    0.65
  -2   5  -9    8.66    0.57
  -2   5   9    8.72    0.50
   2   5  -9    6.89    0.71
   2   5  -9    7.68    0.64
  -2  -5  -9    7.53    0.80
  -2   5   9    7.12    0.76
   2   5  10    9.87    0.72
  -2  -5  10    9.02    0.71
  -2   5 -10    9.33    0.66
  -2   5  10    9.89    0.56
   2   5 -10    9.59    0.72
  -2   5  10    8.89    0.93
  -2  -5 -10    8.74    0.86
   2   5  11    6.67    0.68
  -2  -5  11    6.09    0.65
  -2   5 -11    6.29    0.62
  -2   5  11    7.12    0.56
   2   5 -11    6.58    0.69
  -2   5  11    5.93    0.79
  -2  -5 -11    6.71    0.82
  -2   5 -12    5.57    0.64
  -2  -5  12    5.07    0.63
   2   5  12    5.62    0.70
  -2   5  12    6.65    0.59
  -2   5  12    4.74    0.86
   2   5 -12    6.08    0.68
  -2  -5 -12    5.72    0.73
  -2  -6   0  194.62    5.08
  -2   6   0  184.34    6.10
   2  -6   0  195.74    5.63
  -2  -6   0  193.48    6.02
  -2   6  -1  193.08    6.20
  -2  -6   1  194.11    5.17
   2  -6  -1  196.04    5.70
  -2   6   1  192.47    6.24
   2   6  -1  193.44    5.05
   2  -6   1  197.89    5.76
  -2  -6  -1  201.55    6.18
  -2  -6  -1  196.23    5.18
  -2   6  -2  175.68    5.75
  -2  -6   2  177.54    4.81
   2  -6  -2  183.36    5.27
   2   6  -2  183.65    4.71
  -2  -6  -2  179.65    4.81
  -2   6   2  178.13    5.82
   2  -6   2  183.77    5.38
  -2  -6  -2  186.98    5.79
  -2  -6   3  158.36    4.92
  -2  -6   3  159.24    4.39
  -2   6  -3  169.70    5.26
  -2   6   3  161.88    5.33
   2  -6   3  168.46    4.95
  -2  -6  -3  159.61    5.31
   2   6  -3  171.28    4.86
  -2  -6  -3  163.18    4.40
   2   6  -3  164.80    4.32
  -2  -6   4  105.02    2.89
  -2  -6   4  104.15    3.22
  -2   6  -4  103.42    3.40
   2  -6   4  102.88    3.26
  -2  -6  -4   99.16    3.51
  -2   6   4  100.45    3.50
   2   6  -4  104.65    3.12
   2   6  -4  103.76    2.86
  -2   6  -5  131.12    4.08
  -2  -6   5  125.99    3.85
  -2  -6   5  125.57    3.44
   2   6   5  125.42    3.73
  -2   6   5  119.06    4.18
  -2  -6  -5  118.37    4.19
   2   6  -5  126.21    3.78
   2   6  -5  126.38    3.43
   2  -6   5  122.10    3.88
   2   6   6  102.86    3.12
  -2  -6   6   98.39    3.23
  -2  -6   6  101.11    2.90
  -2   6   6  103.06    3.56
   2   6  -6  102.30    2.93
  -2  -6  -6  100.53    3.55
   2   6  -6  106.50    3.18
  -2  -6   7   94.12    2.73
   2   6   7   91.59    2.93
  -2  -6   7   93.92    3.04
  -2   6   7   95.85    3.38
   2   6  -7   96.25    2.98
  -2  -6  -7   95.74    3.37
   2   6  -7   92.77    2.77
  -2  -6   8   78.91    2.37
   2   6   8   77.72    2.51
  -2  -6   8   78.32    2.62
  -2  -6  -8   79.26    2.93
   2   6  -8   76.43    2.56
  -2   6   8   80.45    2.96
   2   6   9   54.59    1.86
  -2  -6   9   53.92    1.79
   2   6  -9   48.45    1.87
  -2  -6  -9   56.09    2.24
  -2   6   9   56.78    2.30
   2   6  -9   55.70    1.92
  -2  -6  10   38.02    1.44
   2   6  10   38.10    1.45
  -2   6 -10   37.55    1.30
   2   6 -10   38.18    1.54
   2   6 -10   38.83    1.50
  -2   6  10   39.44    1.88
  -2  -6 -10   39.97    1.80
  -2   6 -11   27.70    1.10
  -2  -6  11   30.45    1.28
   2   6  11   29.61    1.25
   2   6 -11   29.26    1.28
  -2  -6 -11   31.14    1.58
  -2   6  11   32.48    1.69
   2   6  12   21.05    1.07
  -2  -6  12   22.78    1.16
  -2   6 -12   20.99    0.92
  -2   6  12   23.42    1.54
  -2  -6 -12   23.02    1.38
  -2   7   0    0.15    0.27
  -2  -7   0    0.22    0.25
   2  -7   0    0.30    0.28
   2  -7  -1    2.68    0.34
  -2  -7   1    1.93    0.30
  -2   7  -1    2.74    0.38
   2   7  -1    1.95    0.37
  -2   7   1    2.09    0.38
  -2  -7  -1    2.26    0.35
   2  -7   1    2.19    0.36
  -2  -7  -1    1.98    0.33
  -2   7  -2    0.75    0.28
  -2  -7   2    0.47    0.27
   2  -7   2    1.27    0.35
   2   7  -2    1.41    0.33
  -2   7   2    1.18    0.35
  -2  -7  -2    1.03    0.34
  -2  -7  -2    1.12    0.30
  -2  -7   3    1.81    0.32
  -2   7  -3    1.98    0.35
  -2  -7   3    1.71    0.31
  -2  -7  -3    1.88    0.34
   2  -7   3    2.37    0.42
  -2   7   3    1.95    0.41
  -2  -7  -3    2.31    0.42
   2   7  -3    1.85    0.38
  -2  -7   4    0.13    0.26
  -2  -7   4    0.36    0.26
  -2   7  -4    0.37    0.28
  -2  -7  -4    0.73    0.37
  -2   7   4    1.01    0.38
   2   7  -4   -0.03    0.35
   2  -7   4    0.79    0.38
  -2  -7   5    0.99    0.30
  -2  -7   5    0.58    0.30
   2   7  -5    1.03    0.42
  -2   7   5    0.58    0.40
   2  -7   5    1.03    0.37
  -2  -7  -5    1.07    0.44
  -2  -7   6   10.87    0.65
  -2  -7   6   10.43    0.67
   2   7  -6   10.80    0.76
  -2   7   6   11.04    0.82
  -2  -7  -6   10.15    0.88
   2  -7   6   10.33    0.75
  -2  -7   7    7.59    0.61
  -2  -7   7    8.54    0.65
  -2  -7  -7    8.48    0.85
   2   7  -7    8.65    0.80
  -2   7   7    8.31    0.79
   2   7  -7    9.42    0.48
  -2  -7   8    5.71    0.59
   2   7  -8    7.31    0.48
  -2  -7  -8    6.93    0.82
   2   7  -8    6.40    0.70
  -2   7   8    6.94    0.85
  -2  -7   9    3.40    0.50
  -2  -7  -9    3.38    0.63
   2   7  -9    3.84    0.69
  -2   7   9    3.78    0.70
   2   7  -9    4.02    0.46
  -2  -7  10    2.08    0.49
   2   7 -10    3.64    0.44
  -2   7  10    2.04    0.67
   2   7 -10    2.29    0.64
  -2  -7 -10    2.82    0.62
  -2  -7  11    4.72    0.61
   2   7 -11    5.06    0.57
  -2   7  11    4.95    0.84
  -2  -7 -11    4.70    0.74
  -2  -8   0  146.31    4.11
  -2   8   0  151.38    4.94
   2  -8   0  155.58    4.55
  -2   8   0  145.26    3.89
  -2  -8   1  142.54    3.86
  -2   8  -1  141.56    4.58
  -2  -8  -1  140.33    3.85
   2  -8   1  141.00    4.26
   2   8  -1  134.74    3.76
  -2   8   1  136.19    4.61
  -2   8   1  135.68    3.60
  -2   8  -2  111.36    3.71
  -2  -8   2  105.64    3.50
  -2  -8   2  111.69    3.14
   2  -8   2  114.35    3.51
   2   8  -2  112.51    3.12
  -2  -8  -2  112.00    3.15
  -2  -8  -2  108.60    3.73
  -2   8   2  107.51    3.77
  -2  -8   3   89.62    2.55
  -2   8  -3   91.39    3.00
  -2  -8   3   83.58    2.84
   2  -8   3   92.02    2.88
  -2  -8  -3   85.71    2.55
  -2  -8  -3   77.97    3.04
  -2   8   3   87.69    3.10
   2   8  -3   85.91    2.54
  -2  -8   4   63.19    1.99
  -2  -8   4   62.53    2.23
   2  -8   4   67.48    2.29
  -2  -8  -4   66.22    2.01
   2   8  -4   67.74    2.07
  -2  -8  -4   60.88    2.43
  -2   8   4   64.97    2.47
  -2  -8   5   86.20    2.55
  -2  -8   5   83.80    2.86
   2   8  -5   88.79    2.62
  -2  -8  -5   85.09    3.14
  -2   8   5   86.81    3.14
   2  -8   5   88.60    2.93
  -2  -8   6   74.81    2.28
  -2   8   6   75.69    2.85
  -2  -8  -6   73.90    2.83
   2   8  -6   74.16    2.37
  -2  -8   7   68.91    2.14
  -2   8   7   67.54    2.67
  -2  -8  -7   68.66    2.68
   2   8  -7   67.29    2.25
  -2  -8   8   50.84    1.74
  -2   8   8   51.48    2.26
   2   8  -8   50.88    1.93
  -2  -8  -8   53.14    2.21
  -2  -8   9   41.45    1.52
  -2   8   9   42.77    2.02
   2   8  -9   38.20    1.67
  -2  -8  -9   42.81    1.93
  -2  -8  10   28.81    1.25
   2   8 -10   29.45    1.46
  -2   8  10   32.39    1.75
  -2  -8 -10   29.91    1.61
  -2  -8  11   20.69    1.11
  -2   8 -11   19.77    1.16
  -2   8  11   20.34    1.48
   2   8 -11   20.96    1.27
  -2  -8 -11   21.25    1.36
  -2   9   0    0.09    0.31
  -2  -9   0    0.04    0.33
  -2   9   0    0.13    0.35
  -2   9  -1    0.36    0.32
  -2  -9   1    0.16    0.33
  -2  -9   1    0.68    0.33
  -2   9  -1    0.67    0.37
   2   9  -1    1.10    0.43
  -2  -9  -1    0.68    0.35
  -2   9   1    0.69    0.39
   2  -9   1    0.90    0.38
  -2   9  -2    0.34    0.36
  -2   9  -2   -0.01    0.34
  -2  -9   2    0.28    0.33
   2   9  -2    0.24    0.41
   2  -9   2    0.31    0.39
  -2   9   2    0.38    0.39
  -2  -9  -2    0.30    0.35
  -2  -9   3    1.54    0.35
  -2   9  -3    2.08    0.44
   2  -9   3    2.09    0.48
  -2  -9  -3    1.95    0.42
   2   9  -3    2.26    0.49
  -2  -9  -3    2.17    0.49
  -2   9   3    1.84    0.44
  -2  -9   4    2.11    0.41
  -2   9  -4    2.19    0.47
   2  -9   4    2.35    0.51
   2   9  -4    1.50    0.50
  -2   9   4    1.94    0.53
  -2  -9  -4    2.16    0.55
  -2  -9  -4    2.16    0.44
  -2   9  -5    1.84    0.47
  -2  -9   5    1.67    0.40
  -2   9   5    2.04    0.55
  -2  -9  -5    2.02    0.45
  -2  -9  -5    2.65    0.58
   2   9  -5    1.82    0.53
  -2  -9   6    0.86    0.37
  -2   9  -6    1.54    0.44
   2   9  -6    2.64    0.59
  -2   9   6    1.84    0.58
  -2  -9  -6    1.68    0.56
  -2  -9   7    2.98    0.48
  -2   9  -7    4.02    0.61
   2   9  -7    2.88    0.65
  -2  -9  -7    3.86    0.69
  -2   9   7    3.56    0.69
  -2   9  -8    2.92    0.60
  -2  -9   8    3.56    0.51
  -2  -9  -8    3.59    0.69
   2   9  -8    3.33    0.70
  -2   9   8    3.08    0.71
  -2   9  -9    4.98    0.70
  -2  -9   9    4.87    0.58
  -2  -9  -9    5.46    0.78
  -2   9   9    4.43    0.83
   2   9  -9    3.99    0.74
  -2  -9  10    4.08    0.59
  -2   9 -10    3.92    0.70
  -2  -9 -10    3.62    0.75
  -2   9  10    3.16    0.82
   2   9 -10    4.13    0.79
  -2  10   0   57.85    2.26
  -2 -10   0   58.12    1.93
  -2 -10   1   70.42    2.26
  -2  10  -1   67.93    2.13
  -2  10  -1   73.21    2.65
  -2  10   1   74.63    2.70
  -2 -10  -1   71.20    2.26
  -2 -10   2   71.81    2.27
  -2  10  -2   70.85    2.17
  -2  10   2   71.20    2.72
  -2 -10  -2   71.31    2.28
   2 -10   2   72.96    2.53
   2  10  -2   71.91    2.30
  -2  10  -3   71.10    2.18
  -2 -10   3   70.99    2.23
  -2 -10  -3   70.85    2.25
  -2  10   3   71.11    2.73
   2  10  -3   68.16    2.27
  -2  10  -4   70.75    2.19
  -2 -10   4   68.47    2.20
  -2 -10  -4   65.72    2.66
  -2  10   4   72.26    2.73
   2  10  -4   69.57    2.28
  -2 -10  -4   68.75    2.23
  -2  10  -5   54.33    1.89
  -2 -10   5   56.00    1.88
  -2 -10  -5   56.74    1.91
  -2 -10  -5   57.13    2.36
   2  10  -5   55.02    1.97
  -2  10   5   56.53    2.37
  -2  10  -6   43.06    1.62
  -2 -10   6   43.09    1.55
  -2 -10  -6   43.86    1.98
  -2  10   6   44.57    2.02
   2  10  -6   40.60    1.69
  -2 -10  -6   40.56    1.59
  -2 -10   7   34.29    1.33
  -2  10  -7   30.44    1.39
   2  10  -7   30.52    1.48
  -2  10   7   33.28    1.76
  -2 -10  -7   33.42    1.70
  -2  10  -8   25.03    1.27
  -2 -10   8   26.57    1.17
  -2  10   8   24.81    1.57
  -2 -10  -8   25.91    1.50
   2  10  -8   22.71    1.34
  -2 -10   9   29.91    1.30
  -2 -10  -9   32.10    1.71
  -2  10   9   29.45    1.79
   2  10  -9   29.91    1.53
  -2 -11   0   -0.02    0.39
  -2  11   0   -0.42    0.45
  -2  11  -1    0.48    0.44
  -2 -11   1    0.61    0.42
  -2 -11  -1    0.13    0.42
  -2  11   1    0.43    0.52
  -2  11  -2    1.11    0.44
  -2 -11   2    1.02    0.45
   2  11  -2    1.25    0.54
  -2 -11  -2    0.99    0.45
  -2  11   2    1.54    0.56
  -2  11  -3    0.74    0.46
  -2 -11   3    0.48    0.42
   2  11  -3    0.22    0.53
  -2  11   3    0.98    0.55
  -2 -11  -3    0.46    0.46
  -2 -11   4    1.16    0.45
  -2  11  -4    0.84    0.49
  -2 -11  -4    0.94    0.48
  -2  11   4    0.58    0.56
   2  11  -4    0.55    0.55
  -2  11  -5    1.31    0.55
  -2 -11   5    1.63    0.48
  -2  11   5    2.19    0.68
   2  11  -5    2.05    0.63
  -2 -11  -5    2.28    0.64
  -2 -11  -5    1.98    0.53
  -2  11  -6    1.74    0.58
  -2 -11   6    1.48    0.50
   2  11  -6    1.38    0.65
  -2  11   6    1.75    0.69
  -2 -11  -6    1.93    0.66
  -2 -11  -6    1.64    0.52
  -2  11  -7    2.43    0.63
  -2 -11   7    2.39    0.51
   2  11  -7    0.96    0.70
  -2  11   7    2.34    0.75
  -2 -11  -7    2.20    0.67
  -2 -11  -7    2.03    0.57
  -2 -12   0   36.05    1.49
  -2 -12   1   36.70    1.52
  -2 -12  -1   39.24    1.56
  -2 -12   2   45.35    1.72
  -2  12  -2   46.03    1.68
  -2  12   2   47.04    2.06
  -2 -12  -2   42.91    1.70
   2  12  -2   44.07    1.77
  -2 -12   3   49.02    1.79
  -2  12  -3   45.40    1.75
   2  12  -3   45.43    1.86
  -2 -12  -3   46.95    1.78
  -2  12   3   49.37    2.20
  -2 -12   4   39.57    1.57
  -2  12  -4   38.70    1.61
  -2 -12  -4   40.55    1.62
  -2  12   4   43.06    2.02
   2  12  -4   39.34    1.72
  -2  12  -5   32.00    1.44
  -2 -12   5   30.59    1.36
  -2  12   5   33.71    1.79
  -2 -12  -5   30.57    1.41
   2  12  -5   30.84    1.53
  -2 -13   0   -0.27    0.49
  -2 -13   1   -0.26    0.49
  -2 -13  -1   -0.36    0.49
  -2 -13   2   -0.03    0.49
  -2 -13  -2    0.15    0.53
  -3   0   0   -0.11    0.16
   3   0   0   -0.07    0.20
  -3   0   0    0.09    0.22
  -3   0   0    0.11    0.12
  -3   0  -1   -0.08    0.15
   3   0   1   -0.02    0.19
  -3   0  -1    0.07    0.11
  -3   0   1   -0.02    0.16
   3   0  -1   -0.06    0.19
  -3   0   1   -0.01    0.14
  -3   0   1    0.02    0.22
  -3   0  -1    0.04    0.20
  -3   0  -2    0.45    0.21
  -3   0   2    0.61    0.24
  -3   0   2    0.42    0.18
   3   0   2    0.37    0.21
  -3   0   2    0.51    0.19
   3   0  -2    0.23    0.20
  -3   0  -2    0.45    0.23
  -3   0  -2    0.41    0.11
  -3   0   3    3.39    0.34
  -3   0   3    4.16    0.35
  -3   0  -3    3.69    0.44
   3   0  -3    4.10    0.41
  -3   0  -3    3.64    0.22
  -3   0   3    4.32    0.43
  -3   0  -3    3.41    0.39
   3   0   3    4.29    0.41
  -3   0   4    5.94    0.42
  -3   0   4    4.93    0.43
  -3   0  -4    5.79    0.51
   3   0   4    6.12    0.48
  -3   0  -4    5.47    0.46
  -3   0   4    5.94    0.50
   3   0  -4    6.10    0.49
  -3   0  -5    3.96    0.45
  -3   0  -5    3.23    0.39
   3   0  -5    4.28    0.48
  -3   0   5    4.25    0.49
  -3   0   5    3.45    0.34
  -3   0   5    3.47    0.40
   3   0   5    4.33    0.47
  -3   0  -6    7.30    0.61
  -3   0   6    7.14    0.63
   3   0  -6    7.19    0.63
   3   0  -6    6.59    0.54
  -3   0   6    6.57    0.51
  -3   0   6    5.81    0.50
  -3   0  -6    6.18    0.59
   3   0   6    7.27    0.62
  -3   0   7    6.71    0.67
   3   0   7    6.53    0.62
  -3   0   7    6.29    0.53
  -3   0  -7    6.57    0.62
   3   0  -7    5.59    0.56
  -3   0  -7    5.66    0.60
  -3   0   8   15.58    0.91
  -3   0  -8   15.99    0.94
   3   0   8   16.71    0.94
  -3   0   8   14.63    0.75
  -3   0  -8   15.86    0.93
  -3   0   9   12.90    0.75
  -3   0  -9   11.95    0.85
   3   0   9   12.81    0.92
  -3   0   9   13.05    0.90
  -3   0  -9   12.76    0.90
  -3   0 -10    4.29    0.56
  -3   0  10    4.55    0.60
  -3   0 -10    4.78    0.65
   3   0  10    4.92    0.63
  -3   0  10    3.48    0.49
  -3   0  11    3.88    0.51
  -3   0  11    3.96    0.66
  -3   0 -11    4.47    0.72
  -3   0 -11    3.55    0.59
  -3   0  12    3.46    0.64
  -3   0 -12    2.55    0.55
  -3   0  12    2.39    0.51
  -3   0 -12    3.46    0.73
  -3   0 -13    6.27    0.80
  -3   0  13    5.97    0.65
  -3   0 -13    6.34    0.87
  -3   0  13    6.80    0.82
   3   1   0  301.54    9.10
  -3   1   0  307.88    9.09
   3  -1   0  308.97    9.09
  -3   1   0  307.55    7.78
  -3  -1   0  300.44    9.49
  -3  -1   0  320.85    7.83
  -3  -1   0  304.26    9.12
  -3   1   0  302.23    9.52
  -3   1  -1  229.41    6.56
  -3  -1   1  205.90    6.80
   3  -1  -1  226.09    6.55
  -3   1  -1  209.30    6.85
  -3  -1   1  232.08    5.64
  -3  -1   1  220.67    6.58
   3   1   1  220.04    6.56
  -3   1   1  224.60    6.55
  -3  -1  -1  211.03    6.84
  -3   1   1  208.36    6.84
  -3  -1  -1  223.57    5.61
   3  -1   1  224.91    6.56
  -3   1   1  212.04    5.59
   3   1  -1  214.39    6.55
  -3  -1  -1  216.60    6.57
  -3  -1   2  186.19    5.60
   3  -1  -2  187.12    5.55
  -3   1  -2  178.90    5.82
   3   1   2  179.59    5.56
  -3  -1   2  186.13    4.78
  -3   1  -2  181.76    5.54
  -3  -1  -2  184.33    5.57
  -3  -1  -2  182.00    4.73
  -3   1   2  184.77    4.75
   3  -1   2  184.96    5.55
  -3   1   2  193.62    5.56
  -3  -1  -2  178.63    5.80
   3   1  -2  189.24    5.57
  -3   1   2  175.78    5.78
   3   1   3  141.59    4.28
  -3  -1   3  133.32    4.38
  -3   1  -3  134.10    4.24
  -3  -1   3  140.59    4.30
  -3  -1   3  144.21    3.68
  -3   1  -3  136.15    4.47
   3  -1  -3  142.75    4.26
  -3  -1  -3  138.62    4.28
  -3   1   3  143.63    3.66
   3  -1   3  137.60    4.26
  -3  -1  -3  138.28    4.48
   3   1  -3  141.46    4.28
  -3  -1  -3  138.06    3.60
  -3   1   3  138.67    4.26
  -3   1   3  130.44    4.42
   3  -1  -4  121.44    3.74
  -3  -1   4  125.67    3.24
  -3  -1   4  117.70    3.81
  -3   1  -4  119.94    3.93
   3   1   4  120.04    3.75
  -3   1  -4  120.56    3.73
   3  -1   4  117.28    3.74
  -3  -1  -4  117.80    3.76
  -3   1   4  116.69    3.87
  -3  -1  -4  118.97    3.93
  -3   1   4  122.19    3.74
   3   1  -4  118.85    3.75
  -3  -1   5  133.89    3.52
   3   1   5  130.62    4.07
  -3  -1   5  135.42    3.81
   3  -1  -5  128.76    4.06
  -3   1  -5  129.67    4.05
  -3   1  -5  127.78    4.25
  -3  -1   5  132.92    4.13
  -3   1   5  129.31    3.50
  -3   1   5  131.36    4.20
   3   1  -5  124.27    4.05
   3  -1   5  127.76    4.07
   3   1  -5  123.69    4.03
  -3  -1  -5  131.43    4.28
  -3  -1  -5  129.37    4.09
   3   1   6  115.62    3.75
  -3  -1   6  119.08    3.26
  -3   1  -6  116.58    3.93
  -3   1  -6  116.01    3.75
  -3  -1   6  118.34    3.80
  -3   1   6  118.12    3.76
   3   1  -6  115.25    3.75
  -3   1   6  120.29    3.25
   3  -1   6  120.00    3.79
  -3   1   6  120.27    3.88
  -3  -1  -6  120.95    3.82
  -3  -1  -6  118.53    3.96
  -3   1  -7   98.84    3.32
  -3   1  -7  101.56    3.47
  -3  -1   7  100.56    2.88
   3   1   7   96.19    3.30
  -3   1   7  106.82    3.41
  -3  -1  -7  105.20    3.39
   3   1  -7  100.18    3.30
  -3   1   7  103.27    2.87
  -3   1   7  101.08    3.31
  -3  -1  -7  100.97    3.49
   3   1   8   86.14    2.92
  -3  -1   8   87.35    2.53
  -3   1  -8   88.95    3.04
  -3  -1   8   83.18    2.92
  -3   1  -8   88.49    2.94
  -3  -1  -8   84.84    3.05
   3   1  -8   82.42    2.90
  -3   1   8   87.15    2.96
  -3   1   8   81.14    2.86
  -3  -1  -8   87.16    2.98
  -3   1   8   85.16    2.50
  -3   1  -9   53.78    2.04
  -3  -1   9   53.77    1.72
  -3  -1   9   52.17    2.00
   3   1   9   52.16    1.99
  -3   1  -9   51.50    1.98
   3   1  -9   52.08    2.00
  -3  -1  -9   53.50    2.08
  -3  -1  -9   51.00    2.06
  -3   1   9   47.18    1.92
  -3   1   9   50.81    1.70
  -3   1 -10   44.03    1.83
   3   1  10   42.44    1.80
  -3   1 -10   43.46    1.83
  -3  -1  10   41.02    1.81
  -3  -1  10   42.50    1.53
   3   1 -10   45.49    1.83
  -3   1  10   44.16    1.54
  -3   1  10   43.42    1.76
  -3  -1 -10   45.90    1.89
  -3  -1 -10   46.01    1.88
   3   1  11   29.41    1.46
  -3  -1  11   30.89    1.26
  -3   1 -11   32.43    1.52
  -3  -1  11   28.75    1.45
  -3   1 -11   30.83    1.46
  -3  -1 -11   32.25    1.51
  -3   1  11   29.65    1.40
  -3  -1 -11   30.76    1.58
  -3   1  11   31.85    1.26
   3   1 -11   30.34    1.47
  -3   1 -12   22.78    1.26
  -3   1 -12   23.31    1.33
  -3  -1  12   22.96    1.33
   3   1  12   22.53    1.33
  -3  -1  12   23.26    1.11
  -3   1  12   23.57    1.09
  -3  -1 -12   24.71    1.32
  -3  -1 -12   22.39    1.36
  -3   1  12   21.25    1.23
  -3   1 -13   17.92    1.25
   3   1  13   18.01    1.25
  -3  -1  13   19.93    1.06
  -3  -1  13   18.38    1.23
  -3  -1 -13   22.17    1.30
  -3   1  13   20.45    1.05
  -3   2   0    6.95    0.50
  -3  -2   0    7.66    0.40
  -3  -2   0    7.61    0.52
  -3   2   0    6.90    0.45
  -3   2   0    7.04    0.29
   3  -2   0    7.83    0.48
   3   2   0    7.08    0.48
  -3  -2   0    6.62    0.45
  -3  -2   1    5.22    0.35
  -3   2  -1    4.63    0.41
   3   2   1    4.61    0.41
  -3  -2   1    4.66    0.46
  -3   2  -1    4.94    0.37
  -3  -2   1    4.57    0.36
   3  -2  -1    4.98    0.39
   3  -2   1    4.98    0.37
   3   2  -1    4.64    0.41
  -3  -2  -1    4.20    0.41
  -3   2   1    4.24    0.27
  -3  -2  -1    4.57    0.44
  -3   2   1    5.14    0.38
  -3  -2  -1    4.82    0.33
  -3   2   1    4.09    0.42
  -3   2  -2    4.49    0.39
  -3  -2   2    3.80    0.34
   3   2   2    4.63    0.41
  -3  -2   2    3.85    0.43
  -3   2  -2    4.04    0.43
  -3  -2   2    4.26    0.35
   3  -2   2    3.45    0.36
  -3   2   2    4.11    0.30
  -3  -2  -2    3.85    0.30
  -3  -2  -2    3.34    0.41
  -3   2   2    4.02    0.37
  -3  -2  -2    3.59    0.41
   3   2  -2    4.12    0.40
  -3   2   2    4.10    0.41
  -3   2  -3    1.86    0.27
  -3  -2   3    1.82    0.21
  -3  -2   3    2.14    0.33
  -3   2  -3    1.73    0.29
  -3  -2   3    2.37    0.26
  -3  -2  -3    0.91    0.23
  -3   2   3    1.10    0.21
  -3   2   3    1.30    0.25
   3   2  -3    1.35    0.30
  -3  -2  -3    1.49    0.28
  -3   2   3    1.35    0.28
  -3  -2  -3    1.12    0.18
  -3   2  -4    1.33    0.28
  -3  -2   4    1.18    0.31
  -3   2  -4    0.85    0.27
  -3  -2   4    1.17    0.24
   3   2   4    1.26    0.29
   3   2  -4    1.36    0.29
  -3   2   4    0.90    0.25
  -3   2   4    1.28    0.29
  -3  -2  -4    0.79    0.25
  -3  -2  -4    1.44    0.31
   3   2  -4    0.97    0.27
  -3   2   4    0.98    0.22
  -3   2  -5    5.40    0.52
  -3  -2   5    5.45    0.36
   3   2   5    5.94    0.52
  -3  -2   5    4.96    0.45
  -3   2  -5    5.44    0.47
   3   2  -5    4.63    0.46
   3   2  -5    5.19    0.52
  -3   2   5    4.81    0.44
  -3  -2  -5    4.35    0.53
  -3   2   5    4.08    0.47
  -3   2   5    5.23    0.52
  -3  -2  -5    5.18    0.53
   3   2   6    8.70    0.62
  -3  -2   6    7.12    0.55
  -3   2  -6    8.26    0.58
  -3   2  -6    7.82    0.62
  -3  -2   6    7.58    0.44
  -3   2   6    8.40    0.61
  -3   2   6    7.14    0.53
   3   2  -6    8.11    0.58
  -3  -2  -6    7.76    0.66
  -3   2   6    7.66    0.60
  -3  -2  -6    8.23    0.67
   3   2   7    9.51    0.68
  -3  -2   7    9.50    0.63
  -3   2  -7    8.70    0.67
  -3   2  -7    9.11    0.65
  -3   2   7    7.98    0.65
   3   2  -7    8.75    0.66
  -3  -2  -7    9.53    0.76
  -3   2   7    8.63    0.57
  -3   2   7    8.80    0.68
  -3  -2  -7    8.12    0.67
  -3   2  -8    6.27    0.61
  -3   2  -8    5.73    0.61
  -3  -2   8    5.18    0.52
   3   2   8    6.83    0.63
  -3  -2  -8    8.27    0.76
   3   2  -8    8.22    0.69
  -3   2   8    7.06    0.56
  -3   2   8    6.96    0.64
  -3   2   8    7.90    0.65
  -3  -2  -8    6.69    0.69
   3   2   9    7.39    0.67
  -3   2  -9    7.01    0.68
  -3  -2   9    6.91    0.61
  -3  -2   9    6.24    0.73
  -3   2  -9    6.82    0.65
   3   2  -9    4.99    0.60
  -3  -2  -9    5.57    0.69
  -3   2   9    4.69    0.63
  -3   2   9    4.36    0.47
  -3   2   9    4.87    0.59
  -3  -2  10    7.03    0.80
   3   2  10    7.05    0.71
  -3   2 -10    6.85    0.69
  -3   2 -10    7.54    0.75
  -3  -2  10    6.34    0.65
  -3   2  10    7.43    0.61
  -3   2  10    7.85    0.70
  -3  -2 -10    6.92    0.75
   3   2 -10    7.30    0.74
  -3   2 -11    8.16    0.77
  -3  -2  11    7.73    0.70
   3   2  11    7.88    0.83
  -3   2 -11    7.05    0.79
  -3  -2  11    8.59    0.88
  -3  -2 -11    7.52    0.80
   3   2 -11    8.15    0.80
  -3   2  11    7.77    0.75
  -3   2  11    8.19    0.67
  -3   2 -12    8.50    0.87
  -3  -2  12    8.35    0.75
   3   2  12    8.69    0.88
  -3   2  12    8.50    0.79
   3   2 -12    7.84    0.82
  -3  -2 -12    7.74    0.85
  -3   2  12    7.89    0.70
  -3  -2  13    5.18    0.64
   3   2  13    5.87    0.78
   3   2 -13    5.55    0.71
  -3  -2 -13    4.83    0.70
  -3   3   0  106.20    3.18
  -3   3   0  103.90    3.15
  -3   3   0   99.97    3.44
  -3  -3   0  106.37    2.83
  -3  -3   0  111.05    3.33
   3   3   0  104.59    3.28
  -3  -3   0  104.01    3.39
   3   3   1  153.26    4.61
  -3  -3   1  160.58    4.66
  -3   3  -1  157.28    4.49
  -3   3  -1  159.59    4.51
  -3   3  -1  154.19    4.85
  -3  -3   1  150.84    4.74
  -3  -3   1  156.31    3.99
  -3  -3  -1  151.20    4.64
  -3   3   1  149.72    4.50
  -3  -3  -1  146.92    3.96
  -3   3   1  144.49    4.83
   3   3  -1  141.31    4.59
  -3   3   1  145.82    4.47
  -3  -3  -1  138.37    4.77
   3   3   2  183.12    5.58
  -3  -3   2  190.41    4.85
  -3   3  -2  180.79    5.86
  -3  -3   2  189.32    5.63
  -3   3  -2  190.33    5.50
  -3  -3   2  173.56    5.73
  -3  -3  -2  182.44    4.80
   3   3  -2  196.10    5.59
  -3  -3  -2  181.09    5.84
  -3  -3  -2  184.21    5.61
  -3   3   2  175.42    5.85
  -3   3   2  184.73    5.48
  -3   3  -3  194.62    5.80
  -3  -3   3  199.07    5.94
  -3  -3   3  194.93    5.11
  -3   3  -3  190.69    6.18
   3   3   3  189.38    5.88
  -3   3   3  200.30    5.79
   3   3  -3  197.37    5.89
  -3  -3  -3  194.97    6.18
  -3   3   3  196.11    5.04
  -3  -3  -3  191.99    5.06
  -3  -3  -3  190.59    5.91
  -3   3   3  190.36    6.17
  -3  -3   4  192.13    5.65
  -3  -3   4  184.77    4.85
   3   3   4  179.25    5.57
  -3   3  -4  181.63    5.51
  -3   3  -4  178.57    5.85
  -3   3   4  181.98    4.79
  -3  -3  -4  183.74    5.62
  -3  -3  -4  185.52    4.80
  -3   3   4  182.65    5.49
  -3   3   4  180.48    5.86
  -3  -3  -4  182.10    5.88
   3   3  -4  183.01    5.59
   3   3  -4  184.29    5.58
  -3   3  -5  109.53    3.59
  -3   3  -5  106.07    3.33
   3   3   5  109.42    3.42
  -3  -3   5  110.07    2.98
  -3  -3   5  108.54    3.25
  -3   3   5  108.06    3.32
  -3   3   5  104.71    3.58
  -3   3   5  102.85    2.91
  -3  -3  -5  106.32    3.61
   3   3  -5  103.99    3.40
  -3   3  -6   88.96    2.83
  -3  -3   6   89.15    2.74
  -3   3  -6   87.29    3.03
   3   3   6   87.28    2.90
  -3  -3   6   89.48    2.53
   3   3  -6   89.09    2.91
  -3   3   6   89.92    2.81
  -3   3   6   87.42    3.04
  -3   3   6   86.90    2.49
  -3  -3  -6   86.91    3.10
   3   3   7   70.61    2.45
  -3  -3   7   70.52    2.15
  -3   3  -7   71.11    2.40
  -3   3  -7   71.59    2.56
  -3   3   7   72.84    2.58
   3   3  -7   73.21    2.49
  -3   3   7   70.59    2.37
  -3  -3  -7   71.75    2.64
  -3   3   7   72.77    2.12
  -3   3  -8   56.51    1.98
  -3  -3   8   58.18    1.80
   3   3   8   56.32    2.04
  -3   3  -8   58.59    2.11
   3   3  -8   52.96    2.05
  -3   3   8   55.01    2.12
  -3  -3  -8   56.05    2.20
  -3   3   8   53.77    1.74
  -3   3   8   52.83    1.93
  -3  -3   9   55.08    1.82
  -3   3  -9   55.43    2.11
   3   3   9   52.30    2.03
  -3   3  -9   53.89    1.99
   3   3  -9   54.18    2.07
  -3  -3  -9   55.36    2.20
  -3   3   9   53.77    1.95
  -3   3   9   59.07    2.20
  -3   3   9   55.54    1.78
   3   3  10   39.75    1.68
  -3   3 -10   41.33    1.72
  -3  -3  10   36.72    1.46
  -3   3 -10   38.72    1.62
  -3   3  10   44.05    1.83
   3   3 -10   41.11    1.70
  -3   3  10   38.36    1.54
  -3  -3 -10   40.43    1.80
  -3  -3  11   31.63    1.33
  -3   3 -11   32.07    1.45
   3   3  11   31.56    1.51
  -3  -3 -11   35.28    1.63
   3   3 -11   32.62    1.52
  -3   3  11   31.48    1.37
  -3  -3  12   29.43    1.26
   3   3  12   25.64    1.38
  -3   3 -12   26.73    1.34
  -3  -3 -12   26.79    1.45
   3   3 -12   24.68    1.34
  -3   3  12   25.99    1.25
  -3   4   0    0.56    0.25
   3   4   0    0.40    0.22
  -3  -4   0    0.19    0.19
  -3  -4   0    0.44    0.19
  -3  -4   1    2.71    0.32
   3   4   1    2.44    0.30
  -3  -4   1    3.03    0.29
  -3   4  -1    2.80    0.34
  -3  -4  -1    2.50    0.29
   3   4  -1    1.92    0.29
  -3   4   1    2.59    0.32
  -3  -4  -1    2.21    0.26
   3   4   2    1.16    0.26
  -3   4  -2    1.25    0.29
  -3  -4   2    1.12    0.24
   3   4  -2    0.94    0.27
  -3   4   2    0.73    0.27
  -3  -4  -2    0.67    0.21
  -3  -4  -2    0.76    0.23
  -3   4  -3    2.84    0.36
  -3  -4   3    2.93    0.32
  -3   4  -3    3.23    0.25
   3   4   3    3.29    0.35
  -3  -4  -3    2.32    0.34
  -3  -4  -3    2.52    0.28
   3   4  -3    2.60    0.32
   3   4  -3    2.82    0.34
  -3   4   3    2.28    0.35
  -3  -4   4    9.46    0.55
  -3  -4   4    9.94    0.57
  -3   4  -4   10.02    0.68
  -3   4  -4   10.53    0.50
   3   4   4   11.55    0.64
   3   4  -4   11.64    0.62
  -3   4   4   11.79    0.44
  -3  -4  -4   11.83    0.55
  -3  -4  -4   10.94    0.73
  -3   4   4   10.81    0.68
  -3  -4   5    9.76    0.59
  -3   4  -5   10.44    0.68
  -3   4  -5   10.55    0.51
   3   4   5   11.03    0.63
  -3  -4   5    9.90    0.57
  -3   4   5    8.84    0.45
  -3   4   5    7.48    0.63
   3   4  -5    9.20    0.62
  -3  -4  -5    7.63    0.70
   3   4   6    2.12    0.38
  -3  -4   6    1.42    0.33
  -3   4  -6    1.60    0.30
  -3  -4   6    1.73    0.31
  -3   4  -6    1.39    0.33
  -3   4   6    1.46    0.26
   3   4  -6    1.35    0.38
  -3  -4  -6    1.10    0.38
  -3   4   6    1.04    0.36
   3   4   7    3.69    0.47
  -3  -4   7    3.63    0.42
  -3  -4   7    3.32    0.39
  -3   4  -7    2.81    0.42
  -3   4  -7    3.23    0.38
  -3   4   7    3.11    0.34
  -3   4   7    2.69    0.47
   3   4  -7    3.05    0.48
  -3  -4  -7    3.02    0.51
  -3   4  -8    3.40    0.41
  -3  -4   8    3.06    0.44
   3   4   8    3.41    0.49
  -3   4  -8    3.24    0.45
   3   4  -8    3.33    0.52
  -3   4   8    3.53    0.54
  -3   4   8    4.18    0.47
  -3  -4  -8    3.90    0.56
  -3  -4   9    7.96    0.62
   3   4   9    9.70    0.76
  -3   4  -9    8.90    0.73
  -3   4  -9    8.85    0.63
  -3   4   9    7.68    0.60
  -3  -4  -9    7.56    0.81
   3   4  -9    6.75    0.67
  -3   4   9    6.70    0.77
  -3  -4  10    9.96    0.76
  -3   4 -10   10.16    0.75
   3   4  10   10.69    0.84
   3   4 -10   11.14    0.85
  -3  -4 -10    9.67    0.86
  -3   4  10   11.25    0.70
  -3   4  10   10.04    0.92
  -3   4 -11    7.01    0.70
   3   4  11    7.71    0.82
  -3  -4  11    7.25    0.67
  -3  -4 -11    5.94    0.74
  -3   4  11    6.31    0.62
  -3   4  11    6.60    0.87
   3   4 -11    6.91    0.75
  -3  -4  12    6.61    0.70
  -3   4 -12    6.72    0.71
   3   4  12    7.17    0.81
  -3   4  12    7.95    0.70
   3   4 -12    7.51    0.81
  -3  -4 -12    7.77    0.89
  -3  -5   0  128.99    3.46
  -3   5   0  125.22    4.18
  -3  -5   0  125.04    4.06
   3   5   0  128.28    3.89
  -3   5  -1  133.75    4.34
   3   5   1  136.91    4.05
  -3  -5   1  133.37    3.59
  -3   5   1  128.08    4.34
   3   5  -1  132.98    4.03
  -3  -5  -1  130.01    3.58
  -3  -5  -1  129.26    4.25
   3   5  -1  132.09    4.05
  -3   5  -2  115.83    3.94
  -3  -5   2  118.34    3.27
   3   5   2  120.99    3.68
  -3  -5  -2  121.89    3.92
  -3   5   2  117.27    3.96
  -3  -5  -2  118.52    3.26
   3   5  -2  121.53    3.68
   3   5   3  117.99    3.70
  -3  -5   3  120.64    3.30
  -3   5  -3  115.89    3.96
  -3   5   3  118.81    4.00
  -3  -5  -3  120.31    3.98
   3   5  -3  122.94    3.72
  -3  -5  -3  121.23    3.28
  -3  -5   4  124.70    3.40
  -3   5  -4  122.25    4.07
  -3  -5   4  124.29    3.78
   3   5   4  125.65    3.82
  -3  -5  -4  121.43    3.36
  -3   5   4  119.12    4.12
  -3  -5  -4  120.81    4.11
   3   5  -4  124.51    3.84
  -3   5  -5  109.43    3.57
  -3  -5   5  106.85    2.99
   3   5   5  105.92    3.33
  -3  -5   5  105.50    3.28
   3   5  -5  104.53    3.36
  -3   5   5  103.30    3.62
  -3  -5  -5  102.26    3.62
  -3  -5   6   78.43    2.59
   3   5   6   80.27    2.65
  -3  -5   6   77.63    2.37
  -3   5  -6   79.97    2.83
  -3  -5  -6   81.76    2.94
   3   5  -6   82.35    2.69
  -3   5   6   82.85    2.91
  -3  -5   7   51.57    1.73
  -3   5  -7   53.71    1.74
   3   5   7   52.58    1.91
  -3   5  -7   56.91    2.06
  -3  -5   7   53.29    1.87
   3   5  -7   53.76    1.95
  -3   5   7   55.98    2.14
  -3  -5  -7   54.56    2.18
   3   5  -7   55.69    1.85
  -3   5  -8   45.74    1.79
   3   5   8   45.63    1.68
  -3   5  -8   43.08    1.50
  -3  -5   8   45.39    1.55
   3   5  -8   42.77    1.60
   3   5  -8   43.28    1.71
  -3   5   8   44.18    1.88
  -3  -5  -8   44.55    1.90
  -3   5  -9   44.20    1.54
  -3  -5   9   43.58    1.56
   3   5   9   43.11    1.68
  -3   5   9   44.37    1.91
  -3   5   9   42.69    1.40
  -3  -5  -9   43.37    1.90
   3   5  -9   43.59    1.72
  -3   5 -10   36.90    1.39
   3   5  10   36.33    1.55
  -3  -5  10   36.84    1.43
  -3   5  10   35.56    1.26
  -3  -5 -10   38.00    1.77
  -3   5  10   39.67    1.80
   3   5 -10   35.86    1.54
  -3  -5  11   28.94    1.26
   3   5  11   26.96    1.31
  -3   5 -11   27.10    1.17
   3   5 -11   27.51    1.33
  -3   5  11   27.20    1.04
  -3   5  11   31.05    1.60
  -3  -5 -11   27.66    1.52
  -3  -5  12   17.95    1.04
  -3   5  12   19.33    1.33
  -3  -5 -12   17.83    1.25
  -3   5  12   17.19    0.80
   3   6   0   -0.05    0.20
  -3   6   0   -0.03    0.28
  -3  -6   0    0.01    0.24
  -3  -6   1    1.30    0.30
  -3   6  -1    1.35    0.34
   3   6   1    1.29    0.26
   3   6  -1    1.68    0.26
  -3  -6  -1    1.27    0.27
  -3  -6  -1    1.15    0.26
  -3   6   1    1.40    0.32
  -3   6  -2    1.00    0.32
   3   6   2    0.85    0.25
  -3  -6   2    0.77    0.28
  -3   6   2    0.71    0.34
  -3  -6  -2    0.50    0.29
   3   6  -2    0.44    0.25
  -3  -6  -2    0.64    0.28
   3   6   3    1.97    0.29
  -3   6  -3    1.91    0.37
  -3  -6   3    1.55    0.32
   3   6  -3    1.42    0.30
  -3   6   3    1.42    0.38
  -3  -6  -3    1.49    0.35
  -3  -6  -3    1.58    0.32
  -3   6  -4    1.15    0.33
  -3  -6   4    0.86    0.31
   3   6   4    1.20    0.28
  -3  -6   4    1.09    0.33
  -3  -6  -4    1.67    0.32
   3   6  -4    1.74    0.33
  -3   6   4    1.36    0.41
  -3  -6  -4    1.59    0.40
   3   6   5    3.52    0.43
  -3  -6   5    3.02    0.40
  -3  -6   5    3.62    0.42
  -3   6  -5    3.15    0.45
  -3   6   5    2.07    0.42
   3   6  -5    2.52    0.39
  -3  -6  -5    2.61    0.38
  -3  -6  -5    1.61    0.45
  -3   6  -6    6.92    0.66
   3   6   6    7.91    0.56
  -3  -6   6    7.07    0.57
  -3  -6   6    6.97    0.56
  -3  -6  -6    6.58    0.78
  -3   6   6    7.02    0.74
   3   6  -6    6.82    0.58
   3   6  -6    6.70    0.67
  -3  -6   7    6.06    0.57
   3   6   7    6.46    0.55
  -3   6  -7    5.76    0.64
  -3  -6   7    6.43    0.55
   3   6  -7    5.66    0.55
   3   6  -7    4.90    0.62
  -3  -6  -7    4.31    0.63
  -3   6   7    4.55    0.63
  -3  -6   8    6.03    0.61
   3   6   8    6.37    0.58
   3   6  -8    5.38    0.60
   3   6  -8    4.66    0.64
  -3  -6  -8    5.09    0.68
  -3   6   8    4.83    0.66
  -3  -6   9    4.66    0.55
   3   6   9    5.90    0.61
   3   6  -9    3.89    0.51
   3   6  -9    4.01    0.68
  -3  -6  -9    4.20    0.68
  -3   6   9    4.07    0.68
  -3  -6  10    3.15    0.55
   3   6  10    3.72    0.54
  -3  -6 -10    3.25    0.66
   3   6 -10    3.71    0.53
  -3   6  10    3.56    0.71
  -3  -6  11    4.88    0.64
   3   6  11    5.52    0.68
  -3  -6 -11    4.80    0.75
   3   6 -11    5.06    0.61
  -3   6  11    5.50    0.82
  -3   7   0  119.58    4.06
  -3  -7   0  121.50    3.39
  -3  -7   1  104.63    2.97
  -3   7  -1  104.41    3.56
  -3  -7  -1  105.99    2.97
  -3   7   1  100.54    3.56
  -3   7  -2   98.57    3.44
  -3  -7   2  100.19    2.89
  -3   7   2  101.21    3.50
  -3  -7  -2  102.09    3.40
  -3  -7  -2  102.21    2.88
   3   7  -2   98.75    3.02
  -3   7  -3   80.30    2.84
  -3  -7   3   82.07    2.40
  -3  -7  -3   80.77    2.39
  -3   7   3   81.79    2.93
   3   7  -3   78.39    2.47
  -3  -7   4   50.01    1.65
   3   7   4   51.70    1.57
  -3  -7   4   49.25    1.80
  -3   7  -4   51.44    1.94
  -3  -7  -4   50.26    1.63
  -3   7   4   48.36    2.00
   3   7  -4   48.38    1.62
  -3  -7   5   55.93    2.06
  -3  -7   5   57.74    1.87
   3   7   5   60.67    1.87
  -3   7  -5   63.09    2.23
  -3  -7  -5   60.02    2.33
  -3  -7  -5   60.04    1.88
   3   7  -5   58.13    1.91
  -3   7   5   57.14    2.29
   3   7  -5   58.81    1.99
  -3  -7   6   56.28    1.87
   3   7   6   57.77    1.87
   3   7  -6   57.66    1.92
  -3   7   6   60.48    2.34
   3   7  -6   57.72    1.99
  -3  -7  -6   58.79    2.35
  -3  -7   7   61.34    2.00
   3   7   7   61.00    2.00
  -3  -7  -7   60.41    2.49
  -3   7   7   63.31    2.47
   3   7  -7   63.35    2.07
   3   7  -7   60.80    2.12
   3   7   8   52.51    1.78
  -3  -7   8   53.95    1.81
   3   7  -8   54.32    1.85
  -3   7   8   56.62    2.28
   3   7  -8   46.76    1.90
  -3  -7  -8   53.11    2.27
   3   7   9   29.84    1.16
  -3  -7   9   28.15    1.24
   3   7  -9   26.13    1.41
   3   7  -9   30.78    1.23
  -3  -7  -9   31.16    1.58
  -3   7   9   31.99    1.63
   3   7  10   20.08    0.96
  -3  -7  10   19.69    1.06
  -3   7  10   22.35    1.43
   3   7 -10   22.43    1.05
  -3  -7 -10   22.10    1.38
  -3  -7  11   14.67    0.96
  -3  -8   0   -0.05    0.28
  -3   8   0    0.30    0.36
  -3   8  -1    0.67    0.37
  -3  -8   1    0.54    0.33
  -3   8   1    0.42    0.38
  -3  -8  -1    0.19    0.29
  -3  -8   2    0.26    0.29
  -3   8  -2    0.54    0.36
  -3   8   2   -0.20    0.38
  -3  -8  -2    0.22    0.33
  -3  -8   3    1.17    0.37
  -3   8  -3    1.28    0.39
  -3   8   3    0.91    0.43
  -3  -8  -3    1.17    0.44
  -3  -8  -3    0.87    0.36
  -3  -8   4    1.68    0.35
  -3   8  -4    1.67    0.43
  -3   8   4    0.91    0.41
  -3  -8  -4    0.70    0.43
  -3  -8  -4    1.26    0.39
  -3  -8   5    1.65    0.39
  -3   8   5    1.52    0.45
  -3  -8  -5    0.66    0.47
  -3  -8  -5    1.56    0.41
   3   8  -5    1.24    0.54
  -3  -8   6    3.45    0.49
   3   8  -6    3.49    0.64
  -3  -8  -6    3.79    0.50
  -3   8   6    3.09    0.61
  -3  -8  -6    2.50    0.59
  -3  -8   7    4.67    0.53
   3   8  -7    3.70    0.74
  -3  -8  -7    4.00    0.67
  -3   8   7    4.39    0.69
  -3  -8   8    5.67    0.59
  -3   8   8    5.57    0.78
  -3  -8  -8    4.64    0.73
   3   8  -8    5.11    0.76
  -3  -8   9    4.07    0.58
   3   8  -9    2.83    0.72
  -3  -8  -9    4.32    0.75
  -3   8   9    3.07    0.72
  -3  -8  10    2.69    0.56
   3   8 -10    2.35    0.72
  -3   8  10    2.27    0.76
  -3  -8 -10    2.26    0.70
  -3  -9   0   73.53    2.33
  -3   9   0   75.59    2.78
  -3  -9   1   72.23    2.29
  -3   9  -1   72.45    2.72
  -3   9   1   75.14    2.78
  -3  -9  -1   73.07    2.30
  -3   9  -2   58.63    2.23
  -3  -9   2   56.30    1.89
  -3   9   2   55.15    2.26
  -3  -9  -2   56.16    1.88
  -3   9  -3   53.07    2.03
  -3  -9   3   49.89    1.72
  -3   9   3   48.12    2.07
  -3  -9  -3   47.12    1.70
  -3  -9   4   51.57    1.80
  -3  -9  -4   54.26    2.18
  -3  -9  -4   53.35    1.81
  -3   9   4   52.65    2.18
  -3  -9   5   49.79    1.77
  -3  -9  -5   51.90    1.79
  -3   9   5   53.40    2.22
  -3  -9   6   43.28    1.55
  -3  -9  -6   36.97    1.87
  -3  -9  -6   41.72    1.54
  -3   9   6   42.53    1.94
   3   9  -6   40.87    1.72
  -3  -9   7   31.54    1.31
   3   9  -7   30.09    1.51
  -3   9   7   33.01    1.69
  -3  -9  -7   31.07    1.66
  -3  -9  -7   31.87    1.33
  -3  -9   8   23.17    1.11
   3   9  -8   19.81    1.30
  -3   9   8   24.13    1.48
  -3  -9  -8   23.83    1.46
  -3  -9   9   24.60    1.19
  -3   9   9   26.17    1.60
  -3  -9  -9   26.75    1.57
   3   9  -9   21.46    1.38
  -3 -10   0    0.17    0.39
  -3  10   0    0.11    0.49
  -3  10  -1   -0.53    0.40
  -3 -10   1   -0.07    0.34
  -3  10   1   -0.09    0.43
  -3 -10  -1    0.16    0.41
  -3  10  -2    0.61    0.42
  -3  10  -2    1.44    0.48
  -3 -10   2    0.48    0.41
  -3 -10  -2    1.09    0.45
  -3  10   2    0.36    0.48
  -3 -10   3    1.09    0.45
  -3 -10  -3    0.61    0.42
  -3  10   3    0.55    0.53
  -3 -10   4    2.97    0.50
  -3  10   4    1.81    0.54
  -3 -10  -4    1.55    0.44
  -3 -10   5    1.43    0.47
  -3 -10  -5    1.54    0.50
  -3  10   5    1.73    0.64
  -3 -10  -5    1.56    0.58
  -3 -10   6    1.32    0.46
  -3 -10  -6    0.24    0.56
   3  10  -6    0.84    0.64
  -3  10   6    0.55    0.52
  -3 -10  -6    0.54    0.47
  -3 -10   7    1.66    0.49
  -3  10   7    1.63    0.67
  -3 -10  -7    1.55    0.65
  -3 -10  -7    1.33    0.52
   3  10  -7    1.78    0.71
  -3 -11   0   25.93    1.23
  -3  11   0   27.14    1.44
  -3 -11   1   32.97    1.45
  -3  11  -1   35.32    1.69
  -3  11   1   38.45    1.77
  -3 -11  -1   36.32    1.48
  -3  11  -2   46.15    1.65
  -3 -11   2   45.24    1.71
  -3 -11  -2   43.98    1.70
  -3  11   2   44.85    2.04
  -3 -11   3   51.71    1.83
  -3  11  -3   50.14    1.79
  -3  11   3   48.63    2.20
  -3 -11  -3   46.52    1.79
  -3  11  -4   40.44    1.63
  -3 -11   4   42.49    1.65
  -3  11   4   45.36    2.07
  -3  11  -5   25.94    1.31
  -3 -11   5   28.75    1.28
  -3 -11  -5   26.19    1.27
  -3  11   5   28.11    1.55
  -3  11  -6   22.95    1.25
  -3 -11   6   21.62    1.13
  -3 -11  -6   22.82    1.19
  -3  11   6   22.28    1.43
  -3  12   0    0.92    0.58
  -3 -12   0    1.44    0.54
  -3 -12   1   -0.15    0.46
  -3 -12  -1   -0.03    0.49
  -3  12   1    0.06    0.60
  -3 -12   2    0.51    0.48
  -3 -12  -2   -0.13    0.49
  -3  12   2    0.76    0.65
  -3  12  -3    0.02    0.51
  -3 -12   3    0.27    0.50
  -3 -12  -3    0.52    0.50
  -3  12   3   -0.23    0.57
  -4   0   0  222.26    6.77
  -4   0   0  217.42    7.04
   4   0   0  228.63    6.78
  -4   0   1  175.21    5.26
  -4   0   1  174.94    4.43
  -4   0  -1  160.38    5.44
  -4   0  -1  168.01    5.24
   4   0   1  172.92    5.25
   4   0  -1  175.56    5.25
  -4   0   1  162.57    5.43
   4   0   2  115.20    3.62
  -4   0  -2  113.14    3.61
   4   0  -2  113.60    3.61
  -4   0   2  113.63    3.62
  -4   0   2  116.32    3.04
  -4   0   2  108.98    3.70
  -4   0  -2  111.56    3.76
  -4   0  -3   87.03    3.03
   4   0  -3   89.79    2.91
  -4   0   3   88.80    2.92
  -4   0  -3   88.54    2.91
  -4   0   3   86.31    2.96
  -4   0   3   92.19    2.46
   4   0   3   86.50    2.91
  -4   0   4   73.86    2.52
  -4   0  -4   72.24    2.62
  -4   0  -4   76.52    2.52
  -4   0   4   73.58    2.53
   4   0  -4   73.22    2.51
   4   0   4   74.73    2.52
  -4   0   4   74.92    2.13
  -4   0   5  110.48    3.02
  -4   0  -5  107.27    3.51
  -4   0   5  107.77    3.52
  -4   0  -5  109.59    3.71
   4   0   5  106.89    3.53
  -4   0   5  108.76    3.57
  -4   0   6   92.80    2.64
  -4   0  -6   93.96    3.25
  -4   0   6   90.40    3.08
   4   0   6   92.56    3.10
  -4   0  -6   89.92    3.08
  -4   0   7   78.51    2.30
  -4   0  -7   74.71    2.68
  -4   0  -7   76.60    2.80
  -4   0  -8   59.00    2.26
  -4   0   8   56.74    2.21
  -4   0   8   62.27    1.93
  -4   0  -8   61.70    2.34
  -4   0  -9   44.56    1.87
  -4   0   9   43.55    1.82
  -4   0   9   45.84    1.58
  -4   0  -9   46.38    1.94
  -4   0 -10   38.18    1.71
  -4   0  10   34.82    1.63
  -4   0 -10   34.69    1.67
  -4   0  10   37.18    1.41
  -4   0 -11   24.57    1.42
  -4   0 -11   26.41    1.41
  -4   0  11   23.84    1.35
  -4   0  11   26.26    1.17
  -4   0 -12   14.22    1.13
  -4   0  12   17.56    1.01
  -4   0 -12   16.47    1.15
   4   1   0    4.03    0.42
  -4   1   0    4.59    0.49
  -4  -1   0    4.25    0.36
  -4  -1   0    3.75    0.45
  -4  -1   0    4.48    0.50
  -4   1   0    4.40    0.48
  -4  -1   1    0.03    0.18
  -4   1  -1    0.31    0.28
   4   1   1    0.15    0.27
  -4  -1   1    0.11    0.21
  -4  -1   1    0.20    0.28
  -4   1  -1    0.35    0.23
  -4  -1  -1    0.02    0.23
  -4   1   1    0.14    0.20
  -4   1   1    0.15    0.28
  -4  -1  -1    0.05    0.30
  -4  -1  -1    0.18    0.16
   4   1  -1    0.06    0.26
  -4   1  -2    0.11    0.22
   4   1   2    0.53    0.30
  -4  -1   2    0.42    0.31
  -4   1  -2    0.31    0.27
  -4  -1   2    0.20    0.21
  -4  -1   2    0.35    0.23
  -4  -1  -2    0.41    0.29
  -4   1   2    0.12    0.20
  -4  -1  -2    0.07    0.24
  -4   1   2    0.04    0.29
   4   1  -2    0.67    0.29
  -4   1   2    0.32    0.23
  -4  -1   3    2.66    0.30
  -4  -1   3    2.76    0.32
  -4  -1   3    3.45    0.45
  -4   1  -3    2.29    0.38
  -4   1  -3    2.58    0.39
   4   1   3    2.77    0.40
  -4  -1  -3    1.98    0.35
  -4   1   3    2.42    0.29
  -4  -1  -3    2.36    0.39
  -4   1   3    2.28    0.39
  -4   1   3    1.71    0.30
   4   1  -3    2.46    0.37
   4   1   4    1.95    0.41
  -4   1  -4    1.58    0.36
  -4  -1   4    1.52    0.41
  -4   1  -4    2.23    0.39
  -4  -1   4    1.93    0.30
  -4  -1   4    1.21    0.27
  -4   1   4    1.55    0.30
  -4   1   4    1.94    0.39
  -4  -1  -4    2.11    0.38
  -4   1   4    1.45    0.32
  -4  -1  -4    1.65    0.36
   4   1  -4    1.86    0.38
  -4  -1   5    2.32    0.36
  -4  -1   5    1.86    0.44
  -4   1  -5    1.51    0.37
   4   1   5    2.47    0.43
  -4   1  -5    2.79    0.41
  -4  -1  -5    2.58    0.43
  -4  -1  -5    2.39    0.41
  -4   1   5    2.73    0.45
  -4   1   5    2.37    0.33
  -4   1   5    2.67    0.38
   4   1  -5    2.83    0.45
  -4   1  -6    6.12    0.62
  -4  -1   6    5.65    0.55
  -4  -1   6    6.44    0.67
   4   1   6    7.35    0.65
  -4   1  -6    7.27    0.64
  -4  -1  -6    6.90    0.69
   4   1  -6    7.51    0.66
  -4   1   6    6.93    0.67
  -4   1   6    6.48    0.54
   4   1  -6    7.79    0.73
  -4  -1  -6    7.47    0.66
  -4   1   6    6.30    0.60
   4   1   7    7.96    0.75
  -4  -1   7    6.48    0.59
  -4  -1   7    6.44    0.70
  -4   1  -7    6.26    0.69
  -4   1  -7    6.26    0.66
  -4   1   7    6.90    0.70
  -4  -1  -7    6.80    0.69
   4   1  -7    6.03    0.63
  -4   1   7    7.10    0.60
  -4   1   7    7.01    0.58
  -4  -1  -7    6.80    0.72
  -4  -1   8    7.43    0.64
  -4   1  -8    7.45    0.75
   4   1   8    8.47    0.82
  -4  -1   8    6.97    0.75
  -4   1  -8    7.95    0.71
  -4   1   8    8.20    0.63
  -4  -1  -8    7.40    0.76
  -4  -1  -8    8.69    0.80
   4   1  -8    7.63    0.71
  -4   1   8    8.23    0.75
  -4   1  -9    6.65    0.74
  -4  -1   9    6.58    0.78
  -4   1  -9    6.27    0.74
   4   1   9    6.78    0.77
  -4  -1   9    6.39    0.65
  -4  -1  -9    6.36    0.77
  -4   1   9    6.68    0.75
  -4   1   9    6.33    0.61
  -4  -1  -9    7.23    0.84
  -4   1 -10    4.61    0.63
  -4   1 -10    4.60    0.68
   4   1  10    4.50    0.68
  -4  -1  10    3.93    0.56
  -4  -1  10    4.80    0.68
  -4   1  10    4.89    0.67
  -4  -1 -10    4.80    0.72
  -4   1  10    4.90    0.57
  -4  -1 -10    5.07    0.67
  -4   1 -11    4.43    0.68
   4   1  11    4.10    0.70
  -4  -1  11    4.89    0.72
  -4  -1  11    4.21    0.59
  -4   1 -11    3.64    0.62
  -4   1  11    5.32    0.71
  -4  -1 -11    3.82    0.65
  -4   1  11    4.53    0.57
  -4  -1 -11    4.48    0.80
   4   1  12    2.69    0.69
  -4   1 -12    3.62    0.68
  -4  -1  12    3.54    0.70
  -4  -1  12    3.52    0.59
  -4  -1 -12    3.45    0.77
  -4  -1 -12    3.38    0.65
  -4   1  12    3.23    0.55
  -4  -2   0  115.52    2.97
  -4  -2   0  110.85    3.55
  -4  -2   0  104.83    3.61
   4   2   0  112.82    3.53
  -4   2   0  104.77    3.66
  -4   2   0  110.31    3.45
  -4   2  -1  125.70    3.88
   4   2   1  132.34    3.97
  -4   2  -1  127.44    4.13
  -4  -2   1  125.06    4.05
  -4  -2   1  135.15    3.37
   4   2  -1  121.29    3.93
  -4  -2  -1  122.63    3.96
  -4   2   1  123.39    3.88
  -4   2   1  116.41    4.09
  -4  -2  -1  124.74    3.32
  -4  -2  -1  117.77    4.06
  -4   2  -2  136.51    4.52
  -4  -2   2  135.46    4.34
  -4   2  -2  140.93    4.27
   4   2   2  133.50    4.30
  -4  -2   2  135.15    4.41
   4   2  -2  138.75    4.31
  -4  -2  -2  139.13    4.34
  -4  -2  -2  135.95    4.48
  -4   2   2  139.99    4.25
  -4  -2  -2  139.12    3.63
  -4   2   2  136.72    4.49
  -4   2  -3  132.01    4.13
   4   2   3  132.72    4.19
  -4  -2   3  131.58    3.58
  -4  -2   3  137.46    4.24
  -4   2  -3  130.44    4.38
  -4  -2  -3  130.64    4.36
  -4   2   3  129.14    4.34
   4   2  -3  134.30    4.19
  -4   2   3  131.18    4.12
  -4  -2  -3  135.01    4.22
  -4   2   3  132.10    3.52
  -4  -2   4  104.68    2.86
  -4   2  -4   98.91    3.47
  -4   2  -4  104.62    3.28
  -4  -2   4  105.86    3.37
   4   2   4  104.15    3.33
   4   2  -4  100.18    3.32
  -4   2   4  102.00    2.80
  -4  -2  -4  102.70    3.35
  -4   2   4  100.23    3.26
  -4   2   4  100.35    3.44
  -4  -2  -4   99.91    3.48
  -4   2  -5   82.49    2.72
   4   2   5   81.83    2.78
  -4  -2   5   85.40    2.39
  -4  -2   5   83.55    2.82
  -4   2  -5   81.44    2.90
  -4  -2  -5   82.26    2.92
   4   2  -5   81.00    2.74
   4   2  -5   80.17    2.77
  -4   2   5   81.31    2.85
  -4   2   5   84.40    2.35
  -4   2   5   78.04    2.69
  -4  -2  -5   81.58    2.80
   4   2   6   69.02    2.51
  -4   2  -6   70.35    2.46
  -4  -2   6   75.96    2.19
  -4   2  -6   73.17    2.64
  -4  -2  -6   73.87    2.68
  -4  -2  -6   73.32    2.57
  -4   2   6   73.90    2.14
   4   2  -6   72.59    2.51
  -4   2   6   72.85    2.59
  -4   2   6   71.82    2.45
   4   2  -6   69.14    2.52
   4   2   7   67.74    2.46
  -4  -2   7   67.95    2.12
  -4   2  -7   69.58    2.57
  -4   2  -7   66.77    2.40
  -4  -2  -7   69.31    2.53
  -4   2   7   70.48    2.09
   4   2  -7   67.89    2.44
  -4   2   7   72.03    2.51
  -4  -2  -7   72.49    2.62
  -4   2   7   66.42    2.38
  -4   2  -8   53.58    2.02
  -4   2  -8   56.72    2.17
  -4  -2   8   58.03    1.82
   4   2   8   55.23    2.10
  -4  -2  -8   54.26    2.22
  -4  -2  -8   55.06    2.17
  -4   2   8   51.15    2.00
  -4   2   8   53.37    1.76
   4   2  -8   53.53    2.07
  -4   2   8   55.57    2.11
   4   2   9   43.85    1.83
  -4   2  -9   44.01    1.78
  -4  -2   9   45.56    1.60
  -4   2  -9   47.16    1.91
   4   2  -9   42.93    1.83
  -4   2   9   42.37    1.74
  -4  -2  -9   43.56    1.92
  -4   2   9   45.25    1.55
  -4  -2  10   29.77    1.27
  -4   2 -10   31.10    1.51
  -4   2 -10   28.41    1.41
   4   2  10   27.76    1.44
  -4  -2  10   27.83    1.51
  -4  -2 -10   31.39    1.54
  -4   2  10   30.06    1.38
  -4   2  10   32.23    1.24
   4   2 -10   32.64    1.51
  -4   2 -11   24.69    1.36
  -4  -2  11   22.71    1.36
  -4  -2  11   25.25    1.19
   4   2  11   22.67    1.33
  -4   2 -11   23.09    1.32
  -4  -2 -11   27.05    1.46
   4   2 -11   25.15    1.40
  -4   2  11   24.80    1.27
  -4   2  11   27.42    1.18
  -4  -2  12   21.58    1.11
  -4   2 -12   22.33    1.30
  -4  -2  12   19.14    1.28
   4   2  12   18.86    1.30
  -4  -2 -12   21.87    1.35
   4   2 -12   18.74    1.24
  -4   2  12   21.67    1.10
  -4  -3   0    3.09    0.35
  -4   3   0    3.22    0.40
  -4   3   0    2.83    0.39
   4   3   0    3.09    0.39
  -4  -3   0    3.10    0.30
  -4   3  -1    0.50    0.26
   4   3   1    0.66    0.30
  -4   3  -1    0.73    0.27
  -4  -3   1    0.26    0.31
  -4  -3   1    0.21    0.20
  -4  -3   1    0.39    0.22
  -4  -3  -1    0.31    0.21
  -4   3   1    0.18    0.26
  -4  -3  -1    0.10    0.24
  -4  -3  -1    0.18    0.30
  -4   3   1    0.10    0.27
   4   3  -1    0.49    0.30
  -4  -3   2    2.35    0.40
  -4  -3   2    2.86    0.32
   4   3   2    2.90    0.42
  -4  -3   2    2.22    0.30
  -4   3  -2    2.51    0.39
  -4   3  -2    3.34    0.42
  -4   3   2    2.60    0.38
  -4   3   2    2.98    0.35
  -4  -3  -2    2.65    0.28
  -4  -3  -2    2.90    0.37
   4   3  -2    2.59    0.41
  -4  -3  -2    2.64    0.43
  -4  -3   3    1.11    0.39
   4   3   3    1.48    0.36
  -4   3  -3    1.15    0.34
  -4   3  -3    1.39    0.31
  -4  -3   3    0.93    0.27
  -4  -3  -3    1.19    0.23
  -4   3   3    1.53    0.32
   4   3  -3    1.30    0.38
  -4   3   3    1.05    0.32
  -4  -3  -3    0.88    0.30
  -4  -3  -3    1.17    0.38
  -4  -3   4    2.71    0.37
   4   3   4    3.07    0.44
  -4   3  -4    3.10    0.39
  -4  -3   4    3.38    0.49
  -4   3  -4    2.28    0.41
   4   3  -4    3.92    0.46
  -4   3   4    3.69    0.41
  -4  -3  -4    3.66    0.43
  -4   3   4    3.73    0.37
  -4   3   4    3.12    0.42
   4   3  -4    4.03    0.45
  -4  -3  -4    3.55    0.38
  -4   3  -5    5.02    0.59
  -4  -3   5    4.48    0.43
   4   3   5    4.88    0.59
  -4   3  -5    5.28    0.51
  -4   3   5    4.32    0.50
  -4   3   5    3.51    0.46
   4   3  -5    4.32    0.53
  -4  -3  -5    3.81    0.50
  -4   3   5    4.13    0.40
   4   3  -5    4.71    0.53
  -4   3  -6    3.04    0.46
  -4   3  -6    3.35    0.42
   4   3   6    3.92    0.50
  -4  -3   6    2.55    0.41
  -4   3   6    3.49    0.43
  -4   3   6    2.93    0.47
  -4   3   6    2.77    0.34
  -4  -3  -6    2.75    0.50
   4   3  -6    3.60    0.52
   4   3   7    4.86    0.62
  -4  -3   7    4.25    0.49
  -4   3  -7    4.64    0.55
  -4   3  -7    5.12    0.57
  -4   3   7    5.70    0.58
  -4  -3  -7    4.84    0.61
  -4   3   7    4.97    0.51
  -4   3   7    5.45    0.64
   4   3  -7    5.78    0.63
   4   3   8    2.93    0.57
  -4   3  -8    3.14    0.47
  -4   3  -8    2.90    0.53
  -4  -3   8    2.60    0.46
   4   3  -8    5.08    0.63
  -4   3   8    4.75    0.50
  -4   3   8    5.28    0.61
  -4  -3  -8    4.69    0.63
  -4   3   8    4.64    0.54
  -4   3  -9    4.45    0.58
  -4   3  -9    4.81    0.58
   4   3   9    5.42    0.67
  -4  -3   9    4.39    0.56
  -4   3   9    3.82    0.46
   4   3  -9    3.68    0.60
  -4   3   9    3.60    0.54
  -4   3   9    3.63    0.57
  -4  -3  -9    3.58    0.58
  -4  -3  10    7.65    0.74
  -4   3 -10    7.71    0.74
  -4   3 -10    6.91    0.76
   4   3  10    8.06    0.87
  -4   3  10    8.10    0.75
  -4  -3 -10    7.76    0.88
   4   3 -10    8.01    0.82
   4   3  11    6.92    0.88
  -4  -3  11    6.58    0.70
  -4   3 -11    6.80    0.76
  -4   3 -11    6.40    0.81
  -4  -3 -11    6.76    0.88
  -4   3  11    6.66    0.71
   4   3 -11    7.39    0.82
  -4  -4   0   83.12    2.84
  -4  -4   0   87.25    2.40
  -4   4   0   80.48    2.94
   4   4   0   87.66    2.80
  -4  -4   1  105.92    3.31
  -4  -4   1  103.00    2.80
  -4   4  -1  103.76    3.03
   4   4   1  104.26    3.24
  -4   4  -1   98.41    3.42
   4   4  -1   96.95    3.23
  -4  -4  -1   97.30    3.34
  -4   4   1   90.31    3.38
  -4   4   1  100.43    3.01
  -4  -4  -1   99.94    2.77
   4   4   2  100.63    3.25
  -4   4  -2  105.00    3.06
  -4   4  -2   98.82    3.44
  -4  -4   2  103.08    2.82
  -4   4   2   98.57    3.43
  -4  -4  -2  100.20    2.78
   4   4  -2   96.09    3.23
  -4  -4  -2   96.76    3.37
  -4   4   2  102.26    3.03
   4   4   3  108.77    3.50
  -4   4  -3  107.34    3.30
  -4   4  -3  105.04    3.68
  -4  -4   3  102.70    3.01
  -4   4   3  107.58    3.68
  -4  -4  -3  113.03    2.99
  -4  -4  -3  107.08    3.66
   4   4  -3  107.87    3.49
  -4   4   3  113.41    3.27
  -4   4  -4  123.29    3.73
  -4   4  -4  124.91    4.13
   4   4   4  117.78    3.89
  -4  -4   4  124.33    3.41
  -4   4   4  122.55    4.13
  -4  -4  -4  123.34    3.34
  -4  -4  -4  123.11    4.14
   4   4  -4  117.63    3.91
   4   4  -4  121.78    3.89
  -4   4   4  122.37    3.69
  -4  -4   5   90.26    2.57
  -4  -4   5   88.04    2.78
  -4   4  -5   90.12    3.11
   4   4   5   86.00    2.92
  -4   4  -5   89.10    2.77
  -4  -4  -5   85.95    2.48
  -4  -4  -5   87.03    3.13
  -4   4   5   86.11    3.09
  -4   4   5   85.46    2.71
   4   4  -5   85.49    2.92
  -4   4  -6   61.42    2.12
  -4  -4   6   63.78    2.00
   4   4   6   61.90    2.27
  -4   4  -6   64.60    2.41
  -4   4   6   64.86    2.42
  -4   4   6   65.16    2.07
   4   4  -6   64.53    2.28
  -4  -4  -6   66.47    2.49
   4   4   7   42.44    1.71
  -4   4  -7   41.71    1.57
  -4  -4   7   42.59    1.51
  -4   4  -7   43.32    1.80
  -4   4   7   45.50    1.84
   4   4  -7   44.58    1.75
  -4   4   7   44.19    1.52
  -4  -4  -7   43.25    1.90
   4   4   8   33.79    1.49
  -4   4  -8   34.13    1.34
  -4  -4   8   33.75    1.32
  -4   4  -8   35.99    1.57
  -4  -4  -8   33.41    1.61
  -4   4   8   34.26    1.57
  -4   4   8   32.39    1.26
   4   4  -8   34.52    1.52
   4   4   9   36.69    1.66
  -4   4  -9   40.84    1.74
  -4   4  -9   37.04    1.52
  -4  -4   9   41.47    1.51
  -4  -4  -9   40.26    1.86
  -4   4   9   38.13    1.45
  -4   4   9   42.80    1.80
   4   4  -9   38.43    1.70
  -4   4 -10   32.08    1.41
   4   4  10   32.69    1.59
  -4   4 -10   37.64    1.66
  -4  -4  10   33.26    1.40
  -4   4  10   32.93    1.34
   4   4 -10   33.25    1.58
  -4   4  10   38.10    1.72
  -4  -4 -10   34.16    1.74
  -4  -4  11   27.93    1.28
   4   4 -11   27.65    1.45
  -4  -4 -11   28.90    1.58
  -4   4  11   25.49    1.16
  -4  -5   0    0.50    0.26
   4   5   0    0.62    0.32
  -4   5   0    0.50    0.33
   4   5   1   -0.04    0.28
  -4   5  -1    0.09    0.31
  -4  -5   1   -0.16    0.25
  -4  -5  -1   -0.15    0.24
  -4  -5  -1   -0.03    0.26
   4   5  -1    0.07    0.30
  -4   5   1   -0.03    0.30
  -4   5  -2   -0.10    0.29
  -4  -5   2    0.00    0.26
   4   5   2    0.21    0.30
   4   5  -2    0.03    0.30
  -4   5   2    0.07    0.31
  -4  -5  -2   -0.02    0.26
  -4  -5  -2    0.42    0.26
   4   5  -2    0.15    0.31
  -4  -5   3    1.72    0.35
   4   5   3    1.88    0.40
  -4   5  -3    0.98    0.37
  -4  -5  -3    1.73    0.37
  -4   5   3    1.11    0.38
   4   5  -3    2.01    0.38
   4   5  -3    1.85    0.41
  -4  -5  -3    1.72    0.32
  -4   5  -4    6.02    0.66
  -4  -5   4    6.00    0.55
   4   5   4    6.85    0.61
  -4   5   4    7.90    0.73
  -4  -5  -4    9.07    0.74
   4   5  -4    8.07    0.62
  -4  -5  -4    8.44    0.58
  -4   5  -5    3.65    0.47
  -4  -5   5    3.97    0.41
  -4  -5   5    4.31    0.47
   4   5   5    4.29    0.54
  -4  -5  -5    3.12    0.51
  -4   5   5    3.47    0.54
  -4  -5  -5    3.39    0.41
   4   5  -5    3.49    0.50
   4   5   6    2.64    0.45
  -4  -5   6    2.14    0.41
  -4   5  -6    1.73    0.43
  -4   5  -6    1.89    0.23
  -4   5   6    2.06    0.50
  -4  -5  -6    2.26    0.39
   4   5  -6    2.34    0.49
  -4  -5  -6    1.62    0.49
  -4  -5   7    2.60    0.45
   4   5   7    2.63    0.49
  -4   5  -7    2.18    0.31
  -4   5  -7    2.36    0.48
  -4   5   7    2.05    0.53
  -4  -5  -7    2.11    0.50
   4   5  -7    2.39    0.51
  -4  -5   8    3.90    0.48
   4   5   8    3.99    0.59
  -4   5  -8    3.43    0.54
  -4   5  -8    3.33    0.39
  -4   5   8    3.54    0.61
  -4  -5  -8    4.35    0.67
   4   5  -8    3.57    0.58
  -4  -5   9    5.44    0.60
  -4   5  -9    5.09    0.65
   4   5   9    6.33    0.71
  -4   5  -9    5.96    0.53
   4   5  -9    5.34    0.66
  -4   5   9    5.66    0.71
  -4  -5  -9    4.82    0.74
   4   5  10    5.13    0.65
  -4  -5  10    3.92    0.60
   4   5 -10    5.91    0.71
  -4  -5 -10    4.79    0.75
  -4   5  10    5.66    0.75
   4   6   0   99.68    3.22
  -4   6   0  100.61    3.52
  -4  -6   0  102.40    2.89
  -4  -6   1   86.19    2.46
  -4   6  -1   83.41    2.99
   4   6   1   84.67    2.73
  -4   6   1   80.66    2.97
   4   6  -1   81.46    2.72
   4   6  -1   84.59    2.71
  -4  -6  -1   84.61    2.46
   4   6   2   83.36    2.75
  -4  -6   2   85.76    2.50
  -4   6  -2   86.04    3.04
  -4  -6  -2   86.05    2.48
  -4   6   2   80.76    3.01
   4   6  -2   85.51    2.75
  -4  -6  -2   84.52    2.94
   4   6   3   74.15    2.50
  -4   6  -3   74.89    2.73
  -4  -6   3   72.50    2.26
  -4   6   3   73.94    2.76
   4   6  -3   74.69    2.49
  -4  -6  -3   77.09    2.71
  -4  -6  -3   78.06    2.26
  -4  -6   4   62.57    1.95
   4   6   4   62.69    2.13
  -4   6  -4   65.09    2.36
   4   6  -4   59.30    2.13
  -4   6   4   60.00    2.39
  -4  -6  -4   60.93    1.93
  -4  -6  -4   61.86    2.36
   4   6   5   57.22    2.02
  -4  -6   5   57.10    1.86
  -4  -6   5   56.21    2.01
  -4   6  -5   58.98    2.24
  -4  -6  -5   57.80    2.28
  -4   6   5   57.22    2.29
   4   6  -5   55.82    2.04
  -4  -6  -5   57.33    1.83
  -4  -6   6   49.78    1.90
  -4  -6   6   49.35    1.75
   4   6   6   49.10    1.91
  -4   6  -6   53.68    2.12
  -4  -6  -6   55.61    1.75
  -4  -6  -6   56.73    2.24
   4   6  -6   55.70    1.98
  -4   6   6   57.16    2.21
   4   6   7   47.69    1.86
  -4   6  -7   51.12    2.03
  -4  -6   7   45.80    1.67
   4   6  -7   50.23    1.90
  -4   6   7   51.10    2.11
  -4  -6  -7   51.03    1.67
  -4  -6  -7   50.53    2.16
   4   6   8   44.29    1.77
  -4  -6   8   45.98    1.66
  -4   6  -8   47.88    1.94
  -4  -6  -8   45.57    1.63
  -4   6   8   48.34    2.06
   4   6  -8   45.16    1.81
  -4  -6  -8   45.88    2.09
  -4  -6   9   27.84    1.22
   4   6   9   26.19    1.26
   4   6  -9   27.68    1.31
  -4  -6  -9   24.10    1.45
  -4   6   9   28.42    1.53
  -4  -6  10   21.05    1.12
  -4  -6 -10   21.80    1.41
  -4   6  10   23.93    1.42
  -4   7   0    0.20    0.38
   4   7   0    0.49    0.30
  -4  -7   0    0.14    0.32
   4   7   1    1.36    0.32
   4   7   1    1.50    0.30
  -4  -7   1    1.45    0.37
  -4   7  -1    1.99    0.46
   4   7  -1    1.05    0.31
  -4  -7  -1    1.50    0.36
  -4   7   1    1.61    0.46
  -4  -7   2    0.02    0.32
  -4   7  -2    0.43    0.37
   4   7   2    0.87    0.32
  -4   7   2    0.56    0.42
   4   7  -2    0.53    0.32
  -4  -7  -2    0.73    0.35
  -4  -7   3    0.74    0.35
  -4   7  -3    0.51    0.39
   4   7   3    0.55    0.32
   4   7  -3    1.13    0.36
  -4  -7  -3    0.78    0.38
  -4  -7  -3    0.83    0.37
  -4   7   3    0.70    0.43
  -4   7  -4    0.48    0.39
  -4  -7   4    0.23    0.30
   4   7   4    0.26    0.33
  -4   7   4    0.48    0.45
  -4  -7  -4    0.75    0.36
  -4  -7  -4    0.34    0.41
   4   7  -4    1.10    0.36
  -4   7  -5    1.22    0.43
   4   7   5    1.55    0.37
  -4  -7   5    1.38    0.41
  -4  -7  -5    1.44    0.49
  -4  -7  -5    0.95    0.38
   4   7  -5    1.24    0.41
  -4   7   5    1.60    0.52
   4   7   6    6.45    0.57
  -4  -7   6    5.10    0.55
  -4   7  -6    5.30    0.68
   4   7  -6    5.11    0.60
  -4   7   6    5.10    0.65
  -4  -7  -6    4.83    0.69
  -4  -7  -6    5.30    0.54
   4   7   7    4.71    0.56
  -4   7  -7    4.07    0.58
  -4  -7   7    4.34    0.55
  -4  -7  -7    4.41    0.71
  -4  -7  -7    5.03    0.57
   4   7  -7    4.77    0.58
  -4   7   7    4.22    0.69
  -4  -7   8    5.48    0.61
   4   7   8    5.98    0.62
   4   7  -8    6.37    0.65
  -4  -7  -8    5.35    0.62
  -4  -7  -8    4.81    0.76
  -4   7   8    5.73    0.77
  -4  -7   9    2.12    0.54
   4   7   9    3.55    0.54
   4   7  -9    3.08    0.52
  -4  -7  -9    2.43    0.70
  -4   7   9    2.71    0.70
  -4  -8   0   83.55    2.55
  -4   8   0   83.57    3.08
  -4  -8   1   68.43    2.18
  -4   8  -1   69.54    2.63
  -4  -8  -1   67.83    2.17
  -4   8   1   68.58    2.65
  -4   8  -2   57.51    2.26
  -4  -8   2   55.42    1.87
  -4  -8  -2   56.29    1.87
   4   8  -2   55.14    1.75
  -4   8   2   56.87    2.29
  -4  -8   3   43.68    1.56
  -4   8  -3   47.50    1.91
  -4   8   3   43.97    1.96
  -4  -8  -3   45.65    1.58
   4   8  -3   42.78    1.44
  -4   8  -4   42.07    1.82
  -4  -8   4   40.50    1.53
  -4  -8  -4   42.06    1.52
  -4  -8  -4   44.98    1.86
  -4   8   4   42.77    1.90
   4   8  -4   41.39    1.40
  -4  -8   5   40.56    1.55
  -4   8  -5   42.58    1.83
  -4   8   5   44.42    1.95
  -4  -8  -5   42.75    1.55
   4   8  -5   42.27    1.45
  -4  -8  -5   43.79    1.92
  -4  -8   6   42.44    1.57
  -4   8   6   39.96    1.91
   4   8  -6   42.14    1.45
  -4  -8  -6   41.59    1.55
  -4  -8   7   37.60    1.50
  -4   8   7   38.41    1.88
  -4  -8  -7   37.72    1.48
  -4  -8  -7   37.57    1.89
   4   8  -7   39.13    1.39
  -4  -8   8   32.08    1.38
  -4  -8  -8   30.50    1.74
   4   8  -8   33.77    1.27
  -4  -8  -8   32.30    1.36
  -4   8   8   34.14    1.75
  -4   9   0    0.16    0.44
  -4  -9   0    0.23    0.40
  -4   9  -1    0.18    0.43
  -4  -9   1   -0.08    0.38
  -4   9   1    0.18    0.47
  -4  -9  -1    0.49    0.40
  -4   9  -2    0.18    0.43
  -4  -9   2    0.20    0.40
  -4   9   2    0.69    0.51
  -4  -9  -2    0.50    0.40
  -4   9  -3    0.88    0.47
  -4  -9   3    0.78    0.42
  -4   9   3    0.78    0.52
  -4  -9  -3    0.88    0.44
  -4  -9   4    2.11    0.49
  -4   9  -4    2.07    0.53
  -4   9   4    1.76    0.57
  -4  -9  -4    1.96    0.48
  -4  -9   5    1.70    0.47
  -4  -9  -5    2.08    0.51
  -4  -9  -5    1.88    0.59
  -4   9   5    2.02    0.63
  -4  -9   6    0.64    0.44
  -4   9   6    0.98    0.61
  -4  -9  -6    1.35    0.60
  -4  -9  -6    1.34    0.49
  -4  -9   7    1.42    0.50
  -4  -9  -7    1.42    0.64
  -4  -9  -7    2.17    0.58
  -4   9   7    1.92    0.68
  -4  10   0   35.63    1.74
  -4 -10   0   35.44    1.46
  -4 -10   1   39.44    1.56
  -4  10  -1   39.22    1.85
  -4  10   1   41.32    1.91
  -4 -10  -1   39.05    1.55
  -4 -10   2   39.81    1.57
  -4  10  -2   42.07    1.88
  -4  10   2   38.22    1.89
  -4 -10   3   39.61    1.58
  -4  10  -3   43.96    1.92
  -4  10   3   39.70    1.93
  -4 -10   4   42.56    1.67
  -4 -10  -4   42.53    1.65
  -4  10   4   44.97    2.08
  -4 -10   5   29.47    1.35
  -4  10   5   33.27    1.73
  -4 -10  -5   31.89    1.41
  -4  11   0    0.28    0.56
  -4 -11   0    0.03    0.46
  -4 -11   1    0.31    0.49
  -4  11  -1    0.39    0.60
  -4 -11  -1    0.03    0.48
  -4  11   1    0.20    0.57
  -4 -11   2    0.54    0.50
  -4  11  -2    1.22    0.58
  -4  11   2    0.47    0.58
  -4 -11  -2    0.49    0.51
  -4 -11   3    0.31    0.48
  -4 -11  -3    0.02    0.48
  -4  11   3    0.96    0.64
  -5   0   0    0.00    0.27
  -5   0   0    0.21    0.36
  -5   0   1    0.03    0.38
  -5   0  -1    0.09    0.36
  -5   0  -1   -0.19    0.29
  -5   0   1   -0.24    0.25
  -5   0  -2    0.08    0.38
  -5   0  -2   -0.01    0.30
  -5   0   2    0.04    0.26
  -5   0   2   -0.25    0.33
  -5   0  -3    1.99    0.43
  -5   0  -3    3.07    0.50
  -5   0   3    2.28    0.39
  -5   0   3    2.41    0.49
  -5   0   4    1.37    0.35
  -5   0   4    1.42    0.47
  -5   0  -4    1.52    0.46
  -5   0  -4    0.91    0.38
  -5   0  -5    0.96    0.42
  -5   0  -5    0.93    0.36
  -5   0   5    0.70    0.35
  -5   0   5    0.91    0.47
  -5   0   6    3.88    0.62
  -5   0   6    3.95    0.45
  -5   0  -6    4.26    0.54
  -5   0  -6    4.02    0.60
  -5   0  -7    3.82    0.58
  -5   0  -7    4.75    0.67
  -5   0   7    4.30    0.65
  -5   0   7    4.00    0.48
  -5   0  -8    6.41    0.75
  -5   0   8    4.89    0.71
  -5   0   8    5.24    0.55
  -5   0  -8    5.23    0.68
  -5   0  -9    5.97    0.76
  -5   0   9    4.34    0.59
  -5   0   9    5.06    0.74
  -5   0  -9    5.02    0.70
  -5   0  10    3.75    0.72
  -5   0 -10    3.38    0.65
  -5   0  10    3.47    0.59
  -5   0 -10    3.29    0.72
  -5   1   0  125.43    4.29
  -5  -1   0  127.48    4.16
   5   1   0  132.26    4.17
  -5   1   0  128.88    4.11
  -5  -1   0  126.68    4.26
  -5   1  -1  131.34    4.41
  -5  -1   1  132.47    4.26
  -5  -1   1  132.38    4.36
  -5   1  -1  129.49    4.19
   5   1   1  138.73    4.28
  -5   1   1  126.71    4.37
  -5  -1  -1  131.55    4.24
  -5   1   1  128.46    4.19
  -5  -1  -1  127.61    4.37
   5   1  -1  137.32    4.27
  -5  -1   2  108.26    3.69
  -5   1  -2  108.81    3.59
  -5   1  -2  107.86    3.77
  -5  -1   2  108.97    3.65
   5   1   2  114.97    3.67
  -5   1   2  109.88    3.59
  -5  -1  -2  109.01    3.63
   5   1  -2  115.22    3.66
  -5  -1  -2  109.11    3.76
  -5   1   2  111.93    3.75
   5   1   3   94.41    3.21
  -5  -1   3   99.24    2.69
  -5   1  -3   96.90    3.17
  -5  -1   3   92.95    3.19
  -5   1  -3   95.65    3.34
  -5  -1  -3   94.63    3.32
   5   1  -3   93.63    3.20
  -5   1   3   91.66    3.15
  -5  -1  -3   94.45    3.20
  -5   1   3   95.67    3.27
  -5   1  -4   68.44    2.44
  -5  -1   4   74.86    2.10
  -5   1  -4   69.84    2.59
   5   1   4   69.76    2.49
  -5  -1   4   69.47    2.49
  -5   1   4   66.73    2.42
  -5  -1  -4   69.49    2.48
  -5   1   4   69.55    2.51
  -5  -1  -4   67.41    2.58
   5   1  -4   69.56    2.50
   5   1   5   90.44    3.16
  -5   1  -5   92.91    3.32
  -5  -1   5   97.96    2.69
  -5   1  -5   88.01    3.10
  -5   1   5   92.12    3.19
  -5   1   5   89.64    3.11
  -5  -1  -5   92.65    3.16
  -5  -1  -5   93.33    3.31
  -5   1  -6   72.59    2.64
  -5   1  -6   76.12    2.83
  -5  -1   6   77.28    2.30
   5   1   6   73.81    2.72
  -5  -1   6   72.71    2.70
  -5  -1  -6   78.28    2.87
  -5   1   6   73.88    2.65
  -5   1   6   80.46    2.28
  -5  -1  -6   75.37    2.72
  -5   1  -7   68.19    2.62
   5   1   7   64.60    2.51
  -5   1  -7   65.82    2.45
  -5  -1   7   69.31    2.14
  -5  -1   7   65.36    2.51
  -5  -1  -7   70.81    2.66
  -5  -1  -7   66.50    2.53
  -5   1   7   64.86    2.43
  -5   1   7   68.96    2.09
  -5   1  -8   51.42    2.17
  -5   1  -8   54.35    2.09
  -5  -1   8   56.27    1.83
  -5  -1  -8   51.86    2.22
  -5  -1  -8   49.54    2.11
  -5   1   8   48.00    2.01
  -5   1   8   53.77    1.77
  -5   1  -9   46.60    1.94
  -5   1  -9   47.55    2.04
  -5  -1   9   43.59    1.92
  -5  -1   9   48.83    1.68
  -5  -1  -9   44.94    2.03
  -5   1   9   41.36    1.85
  -5   1   9   48.25    1.66
  -5  -1  -9   43.82    1.98
  -5  -1  10   32.56    1.35
  -5   1 -10   31.18    1.61
  -5   1 -10   29.43    1.55
  -5  -1  10   28.44    1.58
  -5  -1 -10   33.86    1.70
  -5   1  10   31.76    1.31
  -5  -1 -10   33.15    1.71
  -5   1  10   31.19    1.53
  -5  -2   0    2.33    0.38
   5   2   0    2.33    0.45
  -5   2   0    2.49    0.40
  -5  -2   0    2.77    0.47
  -5   2   0    2.42    0.43
  -5   2  -1    0.42    0.37
  -5  -2   1    0.31    0.30
  -5   2  -1    0.31    0.33
  -5  -2   1    0.42    0.37
   5   2   1    0.18    0.38
  -5   2   1    0.37    0.34
  -5  -2  -1    0.21    0.37
  -5   2   1    0.48    0.32
   5   2  -1    0.27    0.37
  -5  -2  -1    0.11    0.31
  -5  -2   2    1.14    0.33
  -5   2  -2    1.36    0.40
  -5  -2   2    1.70    0.45
  -5  -2   2    1.34    0.32
  -5   2  -2    1.82    0.38
   5   2   2    1.87    0.44
  -5   2   2    1.04    0.35
  -5  -2  -2    1.71    0.47
  -5   2   2    1.29    0.40
   5   2  -2    1.31    0.41
  -5  -2  -2    1.50    0.37
  -5   2  -3    1.39    0.41
  -5  -2   3    0.86    0.32
  -5  -2   3    1.88    0.45
   5   2   3    1.67    0.47
  -5   2  -3    1.17    0.41
   5   2  -3    0.84    0.42
  -5  -2  -3    1.11    0.36
  -5   2   3    0.87    0.37
  -5  -2  -3    1.39    0.43
  -5   2   3    1.05    0.36
  -5   2  -4    0.81    0.38
  -5  -2   4    1.32    0.37
  -5  -2   4    1.08    0.44
   5   2   4    0.70    0.43
  -5   2  -4    0.35    0.37
   5   2  -4    0.53    0.44
  -5   2   4    0.77    0.42
  -5   2   4    0.40    0.33
  -5  -2  -4    0.41    0.41
  -5  -2  -4    0.39    0.37
  -5  -2   5    2.00    0.42
  -5   2  -5    1.17    0.44
  -5   2  -5    1.44    0.43
   5   2   5    2.02    0.49
  -5  -2   5    2.00    0.52
  -5  -2  -5    1.93    0.46
  -5   2   5    1.42    0.39
  -5  -2  -5    1.53    0.52
   5   2  -5    1.23    0.46
  -5   2   5    1.69    0.46
   5   2   6    4.15    0.59
  -5  -2   6    3.72    0.48
  -5   2  -6    3.79    0.56
  -5  -2   6    4.05    0.61
  -5   2  -6    4.39    0.55
  -5  -2  -6    4.26    0.62
  -5  -2  -6    3.95    0.59
  -5   2   6    4.38    0.53
   5   2  -6    3.95    0.62
   5   2  -6    4.63    0.61
  -5   2   6    3.89    0.55
   5   2   7    5.49    0.67
  -5  -2   7    4.63    0.67
  -5  -2   7    4.57    0.54
  -5   2  -7    5.36    0.64
  -5   2  -7    4.33    0.57
  -5  -2  -7    5.32    0.73
  -5   2   7    4.93    0.50
  -5  -2  -7    4.50    0.60
   5   2  -7    5.71    0.71
  -5   2   7    5.49    0.69
  -5   2   7    4.81    0.60
  -5   2  -8    2.00    0.53
  -5  -2   8    2.33    0.50
   5   2   8    1.84    0.63
  -5   2  -8    2.46    0.55
  -5  -2   8    2.44    0.66
  -5   2   8    3.77    0.60
  -5   2   8    2.86    0.47
  -5  -2  -8    3.44    0.66
   5   2  -8    2.70    0.57
  -5  -2  -8    3.08    0.56
   5   2   9    3.53    0.71
  -5   2  -9    3.08    0.63
  -5   2  -9    3.57    0.61
  -5  -2   9    3.49    0.56
  -5  -2   9    2.99    0.72
  -5   2   9    2.85    0.56
  -5   2   9    2.89    0.47
  -5  -2  -9    2.76    0.68
  -5  -2  -9    2.49    0.61
   5   2  -9    2.36    0.62
  -5   2 -10    3.49    0.63
  -5  -2  10    4.57    0.82
  -5  -2  10    4.16    0.61
   5   2  10    4.22    0.73
  -5  -2 -10    3.53    0.70
  -5   2  10    4.12    0.56
   5   2 -10    4.35    0.78
  -5  -3   0   71.24    2.52
  -5   3   0   72.14    2.63
  -5   3   0   71.90    2.38
  -5  -3   0   70.65    2.56
   5   3   0   71.24    2.52
  -5  -3   1   98.38    3.31
  -5  -3   1  106.48    2.76
  -5   3  -1   98.24    3.11
  -5  -3   1   98.15    3.29
   5   3   1  100.67    3.27
  -5   3  -1   96.84    3.40
  -5   3   1   92.25    3.09
  -5   3   1   94.66    3.38
   5   3  -1   93.61    3.25
  -5  -3  -1   95.30    3.32
  -5  -3  -1   92.51    3.28
  -5   3  -2  103.89    3.39
  -5   3  -2  106.37    3.72
   5   3   2  107.87    3.56
  -5  -3   2  106.10    3.59
  -5  -3   2  114.26    3.03
  -5   3   2  108.16    3.70
  -5   3   2  104.53    3.40
   5   3  -2  105.78    3.56
  -5  -3  -2  106.20    3.65
  -5   3  -3  108.78    3.80
  -5  -3   3  113.00    3.10
   5   3   3  105.39    3.62
  -5   3  -3  107.50    3.49
  -5  -3   3  106.46    3.68
   5   3  -3  110.42    3.63
  -5   3   3  107.81    3.47
  -5   3   3  112.44    3.79
  -5  -3  -3  112.52    3.78
  -5   3  -4   94.59    3.23
   5   3   4  101.24    3.40
  -5  -3   4  108.21    2.92
  -5   3  -4  104.33    3.59
  -5   3   4   95.23    3.22
   5   3  -4   98.59    3.39
  -5   3   4  101.85    3.52
  -5  -3  -4  101.68    3.55
   5   3   5   74.95    2.72
  -5   3  -5   76.76    2.85
  -5   3  -5   75.50    2.59
  -5  -3   5   80.19    2.34
  -5   3   5   78.35    2.83
   5   3  -5   74.30    2.71
  -5  -3  -5   78.03    2.88
   5   3  -5   79.96    2.71
  -5   3   5   74.81    2.57
  -5   3  -6   61.08    2.42
  -5  -3   6   62.80    1.98
   5   3   6   59.67    2.30
  -5   3  -6   61.12    2.19
   5   3  -6   61.21    2.29
  -5   3   6   66.43    2.42
  -5   3   6   60.16    2.15
  -5  -3  -6   61.54    2.45
   5   3   7   48.14    2.02
  -5   3  -7   51.51    2.12
  -5   3  -7   48.22    1.89
  -5  -3   7   51.19    1.75
  -5  -3  -7   51.79    2.19
  -5   3   7   48.79    1.86
  -5   3   7   55.28    2.11
   5   3  -7   52.51    2.03
  -5   3  -8   41.61    1.81
  -5   3  -8   37.80    1.60
   5   3   8   40.08    1.76
  -5  -3   8   40.47    1.52
  -5  -3  -8   40.08    1.89
  -5   3   8   36.86    1.56
   5   3  -8   38.82    1.72
  -5   3   8   41.77    1.78
  -5   3  -9   38.51    1.67
  -5   3  -9   42.51    1.89
  -5  -3   9   42.85    1.60
   5   3   9   38.53    1.82
  -5   3   9   40.90    1.65
  -5   3   9   41.64    1.48
  -5  -3  -9   42.24    1.99
   5   3  -9   41.95    1.86
  -5   3 -10   31.74    1.62
  -5  -3  10   30.64    1.38
  -5  -3 -10   33.52    1.75
   5   3 -10   31.09    1.63
  -5   4   0   -0.26    0.32
  -5  -4   0    0.03    0.27
  -5  -4   0    0.09    0.27
  -5   4   0   -0.04    0.27
   5   4   0    0.01    0.39
  -5  -4   1    0.17    0.29
  -5   4  -1    0.43    0.37
   5   4   1    0.44    0.41
  -5   4  -1    0.16    0.28
  -5  -4  -1    0.33    0.31
  -5   4   1    0.15    0.27
   5   4  -1    0.28    0.40
  -5   4   1    0.29    0.35
  -5  -4  -1    0.17    0.24
   5   4   2    0.78    0.43
  -5   4  -2    0.65    0.37
  -5  -4   2    0.53    0.30
  -5   4  -2    0.22    0.28
   5   4  -2    0.48    0.39
  -5   4   2    0.51    0.29
  -5   4   2    0.58    0.37
  -5  -4  -2    0.57    0.33
   5   4   3    1.01    0.46
  -5  -4   3    1.17    0.37
  -5   4  -3    1.18    0.43
  -5   4  -3    0.99    0.32
  -5  -4  -3    0.80    0.37
  -5   4   3    1.35    0.32
   5   4  -3    1.43    0.44
  -5   4   3    1.06    0.41
  -5  -4   4    3.18    0.44
   5   4   4    3.21    0.54
  -5   4  -4    3.67    0.56
  -5   4  -4    3.82    0.46
  -5   4   4    4.77    0.47
   5   4  -4    4.83    0.57
  -5  -4  -4    3.37    0.51
  -5   4   4    4.61    0.56
   5   4  -4    4.19    0.59
  -5   4  -5    3.42    0.55
  -5  -4   5    3.33    0.46
   5   4   5    4.43    0.60
  -5   4  -5    3.92    0.49
   5   4  -5    2.84    0.55
  -5   4   5    3.91    0.46
  -5  -4  -5    3.38    0.56
  -5   4   5    3.35    0.55
   5   4  -5    3.01    0.52
  -5   4  -6    0.96    0.37
  -5  -4   6    0.78    0.40
   5   4   6    0.85    0.49
  -5   4  -6    1.00    0.45
   5   4  -6    0.64    0.45
  -5   4   6    0.81    0.36
  -5   4   6    1.09    0.47
  -5  -4  -6    0.58    0.47
  -5   4  -7    1.72    0.42
   5   4   7    1.33    0.56
  -5   4  -7    1.41    0.48
  -5  -4   7    0.97    0.43
   5   4  -7    1.55    0.54
  -5   4   7    1.39    0.49
  -5   4   7    1.93    0.39
  -5  -4  -7    1.64    0.50
  -5  -4   8    1.03    0.49
   5   4   8    1.91    0.59
  -5   4  -8    1.98    0.47
  -5   4  -8    1.63    0.52
  -5   4   8    2.36    0.57
  -5  -4  -8    1.97    0.62
   5   4  -8    2.14    0.61
  -5   4   8    2.54    0.42
  -5  -4   9    3.54    0.60
  -5   4  -9    4.11    0.64
  -5   4  -9    3.59    0.53
   5   4   9    4.15    0.70
   5   4  -9    4.26    0.72
  -5   4   9    3.64    0.45
  -5   4   9    3.11    0.64
  -5  -4  -9    3.25    0.69
  -5  -5   0   93.53    2.62
   5   5   0   88.77    3.03
  -5   5   0   86.38    3.21
  -5   5  -1   82.11    2.95
  -5  -5   1   78.81    2.35
   5   5   1   76.17    2.71
   5   5  -1   78.48    2.73
  -5  -5  -1   79.30    2.78
  -5   5   1   78.26    2.90
  -5  -5  -1   81.01    2.34
  -5   5  -2   79.43    2.91
  -5  -5   2   78.71    2.35
   5   5   2   77.01    2.71
  -5  -5  -2   79.52    2.33
  -5   5   2   78.93    2.91
  -5  -5  -2   79.25    2.81
   5   5  -2   75.96    2.71
   5   5   3   74.46    2.68
  -5  -5   3   76.24    2.34
  -5   5  -3   76.01    2.87
  -5  -5  -3   80.55    2.84
  -5   5   3   79.06    2.89
   5   5  -3   75.04    2.69
   5   5  -3   79.63    2.68
   5   5   4   79.27    2.82
  -5  -5   4   81.65    2.45
  -5   5  -4   81.18    3.00
  -5   5   4   82.73    3.02
   5   5  -4   79.85    2.79
   5   5   5   64.73    2.41
  -5  -5   5   68.14    2.12
  -5   5  -5   67.38    2.58
  -5   5   5   65.89    2.57
  -5  -5  -5   65.11    2.59
   5   5  -5   66.70    2.40
  -5   5  -6   53.91    2.26
   5   5   6   51.89    2.12
  -5  -5   6   54.62    1.86
   5   5  -6   56.42    2.13
  -5   5   6   60.54    2.33
  -5  -5  -6   57.25    2.34
   5   5   7   37.85    1.72
  -5   5  -7   42.28    1.87
  -5  -5   7   40.97    1.55
  -5   5   7   43.37    1.89
  -5  -5  -7   43.02    1.97
   5   5  -7   41.77    1.77
  -5  -5   8   36.65    1.47
  -5   5  -8   37.52    1.75
   5   5   8   33.82    1.62
  -5  -5  -8   37.33    1.87
  -5   5   8   40.14    1.79
   5   5  -8   36.51    1.67
  -5   5  -9   32.50    1.65
  -5  -5   9   30.60    1.37
  -5  -5  -9   31.96    1.75
  -5   5   9   32.86    1.67
  -5   6   0    0.22    0.35
  -5  -6   0    0.47    0.35
   5   6   0   -0.09    0.40
  -5   6  -1    0.86    0.43
   5   6   1    0.85    0.44
  -5  -6   1    1.07    0.34
  -5   6   1    0.96    0.44
  -5  -6  -1    0.73    0.36
   5   6  -1    0.88    0.44
  -5  -6   2    0.64    0.34
   5   6   2    0.26    0.38
  -5   6  -2    0.35    0.42
   5   6  -2    0.30    0.43
   5   6  -2    0.06    0.39
  -5  -6  -2    0.00    0.33
  -5   6   2    0.00    0.41
  -5  -6   3    0.19    0.32
   5   6   3    0.03    0.38
  -5   6  -3    0.29    0.40
   5   6  -3    0.33    0.42
  -5   6   3    0.10    0.42
  -5  -6  -3    0.38    0.40
  -5  -6  -3    0.25    0.32
  -5  -6   4    1.01    0.39
  -5   6  -4    0.68    0.44
   5   6   4    1.01    0.46
  -5   6   4    1.25    0.51
  -5  -6  -4    0.82    0.47
   5   6  -4    1.18    0.44
   5   6   5    2.04    0.52
  -5   6  -5    1.64    0.51
  -5  -6   5    1.78    0.44
  -5  -6  -5    1.20    0.52
  -5   6   5    1.95    0.56
   5   6  -5    2.14    0.53
  -5   6  -6    2.85    0.57
   5   6   6    3.01    0.56
  -5  -6   6    2.75    0.50
   5   6  -6    2.38    0.54
  -5   6   6    2.25    0.59
  -5  -6  -6    1.88    0.58
  -5  -6   7    2.54    0.52
   5   6   7    2.92    0.59
  -5   6  -7    2.42    0.60
  -5  -6  -7    1.90    0.63
  -5   6   7    2.38    0.62
   5   6  -7    3.04    0.61
  -5   6  -8    3.93    0.63
  -5  -6   8    3.78    0.60
  -5   6   8    3.17    0.67
  -5  -6  -8    3.00    0.71
   5   7   0   78.90    2.77
   5   7   0   83.11    2.75
  -5   7   0   85.51    3.11
  -5  -7   0   84.12    2.52
   5   7   1   60.78    2.24
  -5   7  -1   66.49    2.57
  -5  -7   1   64.58    2.07
   5   7  -1   66.44    2.25
  -5  -7  -1   66.81    2.09
  -5   7   1   63.46    2.56
  -5   7  -2   63.32    2.50
  -5  -7   2   61.95    2.03
   5   7   2   60.25    2.20
  -5  -7  -2   64.19    2.04
   5   7  -2   63.81    2.20
  -5   7   2   62.64    2.51
  -5  -7   3   53.04    1.81
  -5   7  -3   54.91    2.24
   5   7   3   51.74    1.95
  -5   7   3   53.57    2.26
   5   7  -3   54.79    1.97
  -5  -7  -3   53.98    1.82
  -5   7  -4   47.49    2.02
  -5  -7   4   46.05    1.65
   5   7   4   45.51    1.74
  -5  -7  -4   45.22    1.61
  -5  -7  -4   45.66    1.97
   5   7  -4   45.89    1.77
  -5   7   4   45.70    2.02
   5   7   5   39.30    1.57
  -5   7  -5   40.11    1.80
  -5  -7   5   37.68    1.48
   5   7  -5   40.15    1.62
  -5   7   5   38.44    1.83
   5   7   6   39.60    1.66
  -5   7  -6   44.12    1.92
  -5  -7   6   42.23    1.60
  -5   7   6   44.18    1.99
  -5  -7  -6   43.30    2.01
   5   7  -6   41.19    1.69
  -5   7  -7   45.26    2.00
  -5  -7   7   43.00    1.67
  -5  -7  -7   44.52    2.13
  -5   7   7   46.37    2.10
  -5   8   0   -0.06    0.46
  -5  -8   0    0.09    0.36
   5   8   0    0.13    0.34
   5   8   1    0.61    0.35
  -5  -8   1    0.38    0.38
  -5   8  -1    0.39    0.47
  -5  -8  -1    0.71    0.40
  -5   8   1    0.46    0.50
   5   8  -1    0.30    0.37
   5   8   2    0.23    0.33
  -5   8  -2    0.62    0.49
  -5  -8   2    0.23    0.39
   5   8  -2    0.01    0.37
  -5  -8  -2    0.43    0.40
  -5   8   2    0.56    0.52
  -5   8  -3    0.47    0.48
  -5  -8   3    0.19    0.40
   5   8   3   -0.17    0.35
   5   8   3    0.16    0.33
  -5  -8  -3    0.12    0.39
  -5   8   3    0.16    0.51
   5   8  -3    0.00    0.37
   5   8   4    1.29    0.41
  -5  -8   4    0.77    0.43
  -5   8  -4    1.33    0.57
  -5   8   4    0.59    0.56
  -5  -8  -4    1.15    0.44
   5   8  -4    0.94    0.43
  -5   8  -5    1.48    0.55
   5   8   5    1.72    0.43
  -5  -8   5    1.53    0.47
  -5   8   5    0.96    0.59
   5   8  -5    1.77    0.45
  -5  -8  -5    1.42    0.50
  -5  -8  -5    1.24    0.55
  -5   8  -6    1.75    0.61
  -5  -8   6    1.45    0.50
   5   8   6    1.33    0.43
  -5  -8  -6    1.36    0.66
   5   8  -6    1.60    0.43
  -5   8   6    1.62    0.64
  -5  -9   0   51.84    1.89
  -5   9   0   56.34    2.35
  -5  -9   1   44.27    1.69
  -5   9  -1   47.25    2.10
  -5   9   1   47.13    2.12
  -5  -9  -1   45.05    1.70
  -5   9  -2   39.27    1.86
  -5  -9   2   36.75    1.51
  -5   9   2   39.97    1.92
  -5  -9  -2   39.54    1.55
  -5   9  -3   38.08    1.81
  -5  -9   3   36.54    1.51
  -5   9   3   37.18    1.84
  -5  -9  -3   35.86    1.48
  -5   9  -4   43.33    1.98
  -5  -9   4   38.39    1.59
  -5   9   4   43.07    2.04
  -5  -9  -4   43.47    1.67
  -5  10   0    0.01    0.55
  -5 -10   0   -0.11    0.44
  -6   0   0   60.68    2.29
  -6   0   0   56.56    2.22
  -6   0  -1   56.38    2.19
  -6   0   1   55.83    2.21
  -6   0  -1   61.12    2.29
  -6   0   1   60.71    2.27
  -6   0   2   40.61    1.73
  -6   0  -2   42.33    1.82
  -6   0   2   44.29    1.79
  -6   0  -2   41.25    1.74
  -6   0  -3   34.45    1.58
  -6   0   3   32.78    1.52
  -6   0  -3   33.08    1.48
  -6   0  -4   21.92    1.19
  -6   0  -4   22.68    1.25
  -6   0   4   22.83    1.22
  -6   0   5   38.52    1.70
  -6   0  -5   39.44    1.73
  -6   0  -5   40.85    1.79
  -6   0   6   34.55    1.63
  -6   0  -6   34.75    1.64
  -6   0  -6   36.72    1.74
  -6   0  -7   29.14    1.50
  -6   0  -7   30.13    1.57
  -6   0   7   27.79    1.46
  -6   0  -8   22.67    1.38
  -6   0  -8   20.55    1.27
  -6   1   0    1.19    0.42
  -6  -1   0    1.27    0.46
  -6  -1   0    0.66    0.38
  -6   1   0    1.13    0.46
  -6   1  -1   -0.10    0.35
  -6   1  -1    0.08    0.42
  -6  -1   1    0.03    0.34
  -6  -1   1    0.04    0.42
  -6  -1  -1    0.21    0.46
  -6   1   1   -0.37    0.39
  -6   1   1    0.11    0.36
  -6  -1  -1   -0.20    0.38
  -6   1  -2    0.70    0.44
  -6  -1   2    0.08    0.35
  -6   1  -2    0.28    0.39
  -6  -1   2   -0.04    0.47
  -6   1   2    0.11    0.45
  -6  -1  -2    0.08    0.37
  -6  -1  -2    0.37    0.43
  -6   1   2    0.24    0.37
  -6  -1   3    1.80    0.52
  -6   1  -3    1.70    0.50
  -6   1  -3    1.75    0.49
  -6  -1  -3    0.81    0.53
  -6  -1  -3    1.26    0.43
  -6   1   3    1.15    0.41
  -6   1   3    1.35    0.53
  -6   1  -4    0.55    0.46
  -6  -1   4    0.93    0.55
  -6   1  -4    0.35    0.43
  -6  -1  -4    0.87    0.45
  -6  -1  -4    0.94    0.49
  -6   1   4    0.44    0.47
  -6   1   4    0.65    0.39
  -6  -1   5    0.42    0.55
  -6   1  -5    0.78    0.50
  -6   1  -5    0.49    0.41
  -6  -1  -5    0.68    0.46
  -6   1   5    0.64    0.52
  -6  -1  -5    1.17    0.53
  -6  -1   6    2.82    0.67
  -6   1  -6    3.34    0.56
  -6   1  -6    3.58    0.63
  -6  -1  -6    3.50    0.61
  -6  -1  -6    3.93    0.69
  -6   1   6    3.69    0.64
  -6  -1   7    3.58    0.72
  -6   1  -7    3.71    0.63
  -6   1  -7    3.84    0.67
  -6   1   7    3.15    0.65
  -6  -1  -7    3.32    0.72
  -6  -1  -7    3.22    0.64
  -6   1  -8    3.00    0.64
  -6  -1   8    2.02    0.70
  -6  -1  -8    2.64    0.68
  -6  -1  -8    2.86    0.65
  -6   2   0   32.80    1.41
  -6   2   0   32.33    1.53
   6   2   0   33.50    1.54
  -6  -2   0   32.23    1.53
  -6  -2   0   35.04    1.51
  -6  -2   1   44.23    1.92
  -6  -2   1   50.15    1.89
   6   2   1   47.78    1.92
  -6   2  -1   44.05    1.75
  -6   2  -1   47.86    1.97
  -6   2   1   42.99    1.77
  -6   2   1   46.34    1.93
  -6  -2  -1   47.31    1.89
   6   2  -1   44.74    1.90
  -6  -2  -1   44.06    1.88
  -6   2  -2   46.85    1.98
   6   2   2   46.66    1.95
  -6  -2   2   46.02    1.95
  -6   2  -2   45.26    1.80
   6   2  -2   47.94    1.96
  -6   2   2   44.59    1.78
  -6  -2  -2   49.52    1.94
  -6  -2  -2   46.46    1.92
  -6   2   2   48.29    1.95
  -6   2  -3   45.67    1.94
  -6   2  -3   42.96    1.75
  -6  -2   3   43.21    1.86
   6   2   3   45.86    1.91
  -6  -2  -3   43.18    1.86
  -6   2   3   47.40    1.90
  -6  -2  -3   45.51    1.91
   6   2  -3   45.26    1.93
   6   2   4   32.55    1.56
  -6   2  -4   32.32    1.43
  -6   2  -4   34.20    1.62
  -6  -2  -4   34.79    1.60
  -6   2   4   35.21    1.55
   6   2  -4   32.80    1.60
  -6   2   4   30.77    1.40
  -6  -2  -4   32.42    1.55
   6   2   5   33.61    1.64
  -6   2  -5   32.98    1.50
  -6   2  -5   33.98    1.66
  -6   2   5   37.12    1.60
  -6  -2  -5   35.27    1.67
   6   2  -5   34.30    1.66
  -6   2  -6   27.67    1.35
   6   2   6   28.71    1.47
  -6   2  -6   29.43    1.51
  -6  -2  -6   28.47    1.52
  -6  -2  -6   28.27    1.51
  -6   2   6   25.69    1.31
  -6   2  -7   24.84    1.40
  -6  -2   7   27.26    1.19
   6   2   7   24.88    1.45
  -6   2  -7   24.53    1.30
  -6   2   7   25.03    1.28
  -6  -2  -7   27.80    1.54
  -6  -2  -7   26.83    1.48
  -6   2  -8   20.73    1.30
  -6  -2   8   21.14    1.08
   6   2   8   20.10    1.32
  -6  -2  -8   19.15    1.33
  -6  -2  -8   20.14    1.41
   6   3   0   -0.38    0.43
  -6   3   0    0.06    0.38
  -6  -3   0    0.25    0.37
  -6   3   0    0.06    0.40
  -6   3  -1    0.11    0.39
   6   3   1    0.01    0.46
  -6   3  -1    0.31    0.39
  -6   3   1    0.36    0.40
   6   3  -1    0.07    0.45
  -6  -3  -1   -0.36    0.35
  -6   3   1   -0.01    0.41
  -6   3  -2    0.90    0.41
   6   3   2    0.84    0.53
  -6   3  -2    0.78    0.41
  -6   3   2    0.58    0.42
  -6   3   2    0.78    0.44
  -6  -3  -2    0.80    0.40
   6   3  -2    0.69    0.53
  -6   3  -3    0.25    0.42
  -6   3  -3    0.76    0.42
   6   3   3    0.97    0.50
  -6   3   3    0.50    0.43
  -6  -3  -3    0.81    0.43
   6   3  -3    0.54    0.54
  -6   3   3    1.12    0.45
   6   3   4    1.17    0.54
  -6   3  -4    0.57    0.45
  -6   3  -4    1.16    0.46
  -6   3   4    1.04    0.47
  -6   3   4    1.11    0.47
  -6  -3  -4    0.72    0.44
   6   3  -4    0.99    0.53
  -6   3  -5    1.85    0.46
  -6   3  -5    1.51    0.51
   6   3   5    1.82    0.61
  -6   3   5    1.80    0.51
   6   3  -5    1.74    0.55
  -6   3   5    1.99    0.52
  -6  -3  -5    1.09    0.49
   6   3  -5    1.59    0.57
  -6   3  -6    1.15    0.48
  -6   3  -6    1.43    0.53
  -6  -3   6    1.78    0.52
   6   3   6    2.01    0.59
  -6   3   6    1.58    0.52
   6   3  -6    2.16    0.67
  -6  -3  -6    1.39    0.54
   6   3  -6    2.20    0.63
  -6   3   6    1.58    0.51
   6   3   7    2.61    0.68
  -6   3  -7    1.98    0.59
  -6   3  -7    2.22    0.54
  -6  -3   7    2.29    0.54
  -6   3   7    2.98    0.54
  -6  -3  -7    2.80    0.65
   6   3  -7    2.75    0.68
  -6   4   0   30.88    1.19
   6   4   0   32.51    1.52
  -6   4   0   32.99    1.55
  -6   4  -1   35.60    1.64
  -6   4  -1   33.54    1.30
   6   4   1   36.01    1.63
  -6   4   1   37.36    1.69
   6   4  -1   35.19    1.63
  -6  -4  -1   37.41    1.58
  -6   4  -2   38.16    1.72
  -6   4  -2   35.14    1.33
   6   4   2   37.52    1.66
  -6   4   2   38.20    1.72
  -6  -4  -2   38.82    1.65
  -6   4   2   34.65    1.32
   6   4  -2   35.76    1.65
   6   4   3   38.62    1.76
  -6   4  -3   40.42    1.84
  -6   4  -3   38.38    1.46
  -6  -4  -3   41.96    1.79
   6   4  -3   39.82    1.77
  -6   4   3   43.39    1.85
  -6   4   3   40.99    1.43
  -6   4  -4   44.23    1.98
  -6  -4   4   48.56    1.61
  -6   4  -4   42.54    1.58
   6   4   4   42.04    1.88
  -6  -4  -4   45.33    1.94
  -6   4   4   45.35    1.96
  -6   4   4   42.94    1.54
   6   4  -4   42.38    1.88
   6   4  -4   47.61    1.90
  -6   4  -5   32.02    1.30
  -6   4  -5   32.74    1.66
  -6  -4   5   34.79    1.34
   6   4   5   33.96    1.63
   6   4  -5   34.17    1.57
  -6   4   5   37.00    1.68
  -6  -4  -5   34.70    1.69
   6   4  -5   31.35    1.58
  -6   4   5   32.22    1.24
  -6   4  -6   24.83    1.14
  -6  -4   6   27.04    1.20
  -6   4  -6   25.93    1.46
   6   4   6   25.46    1.42
  -6   4   6   29.32    1.52
   6   4  -6   26.46    1.42
  -6  -4  -6   28.56    1.54
  -6   4   6   25.34    1.05
  -6   4  -7   18.48    1.23
  -6  -4   7   18.78    1.05
  -6   4  -7   16.90    0.95
  -6  -4  -7   19.53    1.33
  -6   4   7   19.12    0.87
  -6   4   7   22.23    1.28
   6   5   0    0.13    0.49
  -6   5   0   -0.44    0.34
   6   5   1    0.22    0.49
  -6   5  -1   -0.41    0.41
   6   5  -1   -0.26    0.48
  -6   5   1    0.10    0.44
  -6   5  -2    0.06    0.43
   6   5   2    0.05    0.50
  -6   5   2    0.04    0.43
   6   5  -2   -0.03    0.50
  -6  -5   3    0.49    0.40
   6   5   3    1.29    0.54
  -6   5  -3    0.67    0.48
  -6  -5  -3    0.62    0.42
   6   5  -3    0.74    0.51
   6   5  -3    1.08    0.55
  -6   5   3    0.46    0.47
   6   5   4    2.32    0.60
  -6  -5   4    1.95    0.45
  -6   5  -4    1.81    0.56
  -6   5   4    2.56    0.61
   6   5  -4    2.80    0.60
   6   5  -4    1.15    0.59
  -6  -5  -4    2.25    0.54
   6   5   5    1.79    0.59
  -6  -5   5    2.16    0.51
  -6   5  -5    1.80    0.57
   6   5  -5    2.16    0.60
  -6   5   5    1.80    0.57
  -6  -5  -5    2.49    0.58
  -6   5  -6    0.58    0.51
  -6  -5   6    1.03    0.51
  -6  -5  -6    1.15    0.59
  -6   5   6    1.23    0.57
   6   6   0   39.89    1.75
  -6   6   0   44.03    1.94
  -6   6  -1   32.15    1.62
   6   6   1   30.95    1.49
   6   6  -1   32.25    1.51
  -6   6   1   31.38    1.58
  -6   6  -2   31.50    1.58
   6   6   2   29.85    1.45
  -6  -6   2   32.97    1.30
   6   6  -2   32.60    1.46
  -6   6   2   33.70    1.65
   6   6  -2   29.33    1.48
  -6  -6   3   30.35    1.26
  -6   6  -3   30.34    1.60
   6   6   3   28.91    1.45
  -6   6   3   31.34    1.61
   6   6  -3   32.05    1.46
   6   6   4   28.36    1.45
  -6   6  -4   28.50    1.54
  -6  -6   4   32.14    1.30
  -6  -6  -4   27.68    1.49
  -6   6   4   28.76    1.58
   6   6  -4   29.16    1.43
  -6   6  -5   23.18    1.38
  -6  -6   5   23.61    1.12
  -6  -6  -5   23.29    1.40
  -6   6   5   23.48    1.44
   6   7   0    0.01    0.51
  -6   7   0   -0.50    0.48
   6   7   0    0.34    0.47
  -6   7  -1    0.92    0.55
  -6  -7   1    0.79    0.41
   6   7   1    0.39    0.52
  -6   7   1    1.30    0.57
   6   7  -1    0.16    0.51
   6   7  -1    0.43    0.47
  -6   7  -2    0.05    0.48
  -6  -7   2   -0.31    0.39
  -6   7   2    0.32    0.53
  -6  -7   3    0.33    0.41
  -6   7  -3    0.01    0.49
  -6   7   3    0.59    0.57
  -7   0   0    0.07    0.44
  -7   0   0    1.16    0.55
  -7   0  -1   -0.09    0.43
  -7   0   1    0.02    0.41
  -7   0  -1    0.49    0.55
  -7   0   1    0.08    0.53
  -7   0   2   -0.58    0.39
  -7   0  -2    0.12    0.45
  -7   0  -2    0.00    0.52
  -7   0   2    0.56    0.56
  -7   0   3    0.49    0.57
  -7   0  -3    1.13    0.51
  -7   0  -3    0.84    0.56
  -7   0  -4   -0.11    0.48
  -7  -1   0   58.79    2.28
  -7   1   0   58.17    2.30
  -7  -1   0   50.04    2.19
  -7   1   0   50.42    2.12
  -7   1  -1   55.12    2.28
  -7  -1   1   63.73    2.42
  -7  -1   1   55.12    2.37
  -7   1  -1   65.46    2.50
  -7  -1  -1   63.50    2.46
  -7   1   1   55.66    2.29
  -7  -1  -1   57.60    2.39
  -7   1   1   65.57    2.49
  -7   1  -2   53.92    2.27
  -7   1  -2   50.11    2.09
  -7  -1   2   48.16    2.17
  -7  -1  -2   48.71    2.15
  -7  -1  -2   56.21    2.25
  -7   1   2   59.73    2.27
  -7  -1   3   42.12    2.00
  -7   1  -3   48.18    2.11
  -7   1   3   50.15    2.06
  -7  -1  -3   42.63    1.99
  -7  -1  -3   49.03    2.10
  -7   1  -4   35.32    1.77
  -7  -1  -4   36.55    1.78
  -7   2   0   -0.15    0.52
  -7  -2   0   -0.08    0.54
  -7   2   0    0.33    0.47
  -7  -2   0    0.29    0.43
  -7  -2   1   -0.21    0.56
  -7   2  -1   -0.29    0.47
  -7   2  -1    0.08    0.47
  -7   2   1   -0.02    0.46
  -7   2   1   -0.53    0.48
  -7  -2  -1   -0.41    0.39
  -7  -2  -1   -0.02    0.54
  -7  -2   2    0.17    0.58
  -7   2  -2    0.08    0.48
  -7  -2  -2    0.14    0.53
  -7  -2  -2    0.46    0.47
  -7   2   2    0.92    0.49
  -7   2  -3    0.80    0.53
  -7  -2   3    1.03    0.63
  -7  -2  -3    0.13    0.57
  -7  -2  -3    0.62    0.48
  -7   2   3    0.44    0.48
   7   3   0   34.17    1.80
  -7   3   0   40.59    1.85
  -7   3  -1   48.58    2.09
   7   3   1   44.48    2.03
  -7   3   1   50.52    2.10
  -7   3   1   41.70    1.76
   7   3  -1   44.00    2.06
   7   3   2   47.03    2.14
  -7   3  -2   50.30    2.21
   7   3  -2   46.64    2.16
  -7   3   2   54.22    2.22
  -7  -3  -2   52.80    2.16
   7   3   3   48.62    2.21
  -7   3  -3   51.15    2.28
   7   3  -3   49.00    2.26
  -7  -3  -3   53.48    2.25
  -7   3   3   58.39    2.33
  -7   4   0    0.23    0.48
  -7   4  -1   -0.03    0.50
  -7   4   1    0.37    0.51
;
_shelx_hkl_checksum              62943
loop_
_space_group_symop_id
_space_group_symop_operation_xyz
1 +X,+Y,+Z
2 -X,-Y,+Z
3 1/2+X,1/2-Y,-Z
4 1/2-X,1/2+Y,-Z
loop_
_atom_site_label
_atom_site_type_symbol
_atom_site_fract_x
_atom_site_fract_y
_atom_site_fract_z
_atom_site_U_iso_or_equiv
_atom_site_adp_type
_atom_site_occupancy
_atom_site_site_symmetry_order
_atom_site_calc_flag
_atom_site_refinement_flags_posn
_atom_site_refinement_flags_adp
_atom_site_refinement_flags_occupancy
Pt1 Pt 0.5000 1.0000 0.99398(2) 0.01946(8) Uani 1 2 d S T P
Cl2 Cl 0.0719(4) 1.0074(4) 1.00117(13) 0.0291(5) Uani 0.5 1 d . . P
N1 N 0.5172(12) 1.2210(3) 1.1947(3) 0.0309(8) Uani 1 1 d . . .
N2 N 0.483(2) 0.8653(3) 0.8478(3) 0.0267(10) Uani 1 1 d . . .
H2A H 0.6301 0.8223 0.8404 0.032 Uiso 1 1 calc R U .
H2B H 0.3643 0.8037 0.8632 0.032 Uiso 1 1 calc R U .
C1 C 0.513(2) 1.1386(4) 1.1229(4) 0.0246(9) Uani 1 1 d . . .
C2 C 0.4265(7) 0.9366(4) 0.7303(4) 0.0287(10) Uani 1 1 d . . .
H2 H 0.2475 0.9604 0.7312 0.034 Uiso 1 1 calc R U .
C3 C 0.4757(15) 0.8535(4) 0.6150(4) 0.0377(12) Uani 1 1 d . . .
H3A H 0.3695 0.7736 0.6160 0.045 Uiso 1 1 calc R U .
H3B H 0.6498 0.8242 0.6145 0.045 Uiso 1 1 calc R U .
C4 C 0.4221(13) 0.9358(8) 0.4982(3) 0.0448(15) Uani 1 1 d . . .
H4A H 0.2448 0.9589 0.4955 0.054 Uiso 1 1 calc R U .
H4B H 0.4611 0.8827 0.4231 0.054 Uiso 1 1 calc R U .
loop_
_atom_site_aniso_label
_atom_site_aniso_U_11
_atom_site_aniso_U_22
_atom_site_aniso_U_33
_atom_site_aniso_U_23
_atom_site_aniso_U_13
_atom_site_aniso_U_12
Pt1 0.01602(11) 0.01919(11) 0.02316(11) 0.000 0.000 0.00018(17)
Cl2 0.0167(9) 0.0404(13) 0.0301(9) -0.001(2) 0.0009(4) 0.0042(19)
N1 0.036(2) 0.0234(17) 0.0330(15) 0.0009(13) -0.001(3) 0.000(3)
N2 0.026(3) 0.0249(17) 0.0286(15) -0.0029(12) 0.005(3) -0.005(3)
C1 0.019(3) 0.0238(18) 0.0311(17) 0.0060(14) -0.001(4) 0.006(3)
C2 0.026(3) 0.034(2) 0.0258(19) -0.0024(17) -0.0018(14) 0.0003(18)
C3 0.041(4) 0.042(2) 0.0299(18) -0.0074(17) 0.002(3) 0.000(3)
C4 0.048(4) 0.060(4) 0.026(3) -0.0089(17) -0.0015(15) 0.006(3)
loop_
_atom_type_symbol
_atom_type_description
_atom_type_scat_dispersion_real
_atom_type_scat_dispersion_imag
_atom_type_scat_source
C C 0.0033 0.0016
;
International Tables for Crystallography
(Vol. C, Tables 4.2.6.8 and 6.1.1.4)
;
N N 0.0061 0.0033
;
International Tables for Crystallography
(Vol. C, Tables 4.2.6.8 and 6.1.1.4)
;
Cl Cl 0.1484 0.1585
;
International Tables for Crystallography
(Vol. C, Tables 4.2.6.8 and 6.1.1.4)
;
Pt Pt -1.7033 8.3905
;
International Tables for Crystallography
(Vol. C, Tables 4.2.6.8 and 6.1.1.4)
;
H H 0.0000 0.0000
;
International Tables for Crystallography
(Vol. C, Table 6.1.1.4)
;
loop_
_geom_angle_atom_site_label_1
_geom_angle_atom_site_label_2
_geom_angle_atom_site_label_3
_geom_angle
_geom_angle_site_symmetry_1
_geom_angle_site_symmetry_3
C1 Pt1 C1 90.5(2) . 2_675
C1 Pt1 N2 93.87(16) . 2_675
C1 Pt1 N2 175.57(14) 2_675 2_675
C1 Pt1 N2 175.57(14) . .
C1 Pt1 N2 93.87(16) 2_675 .
N2 Pt1 N2 81.76(19) 2_675 .
C1 Pt1 Cl2 89.4(4) . .
C1 Pt1 Cl2 88.0(4) 2_675 .
N2 Pt1 Cl2 92.8(3) 2_675 .
N2 Pt1 Cl2 90.1(3) . .
C1 Pt1 Cl2 88.0(4) . 2_675
C1 Pt1 Cl2 89.4(4) 2_675 2_675
N2 Pt1 Cl2 90.1(3) 2_675 2_675
N2 Pt1 Cl2 92.8(3) . 2_675
Cl2 Pt1 Cl2 176.19(7) . 2_675
Cl2 Cl2 Pt1 167.3(7) 2_575 .
C2 N2 Pt1 109.6(3) . .
C2 N2 H2A 109.7 . .
Pt1 N2 H2A 109.7 . .
C2 N2 H2B 109.7 . .
Pt1 N2 H2B 109.7 . .
H2A N2 H2B 108.2 . .
N1 C1 Pt1 178.0(5) . .
N2 C2 C2 107.5(4) . 2_675
N2 C2 C3 113.0(4) . .
C2 C2 C3 112.0(3) 2_675 .
N2 C2 H2 108.1 . .
C2 C2 H2 108.1 2_675 .
C3 C2 H2 108.1 . .
C2 C3 C4 109.7(4) . .
C2 C3 H3A 109.7 . .
C4 C3 H3A 109.7 . .
C2 C3 H3B 109.7 . .
C4 C3 H3B 109.7 . .
H3A C3 H3B 108.2 . .
C3 C4 C4 110.4(5) . 2_675
C3 C4 H4A 109.6 . .
C4 C4 H4A 109.6 2_675 .
C3 C4 H4B 109.6 . .
C4 C4 H4B 109.6 2_675 .
H4A C4 H4B 108.1 . .
loop_
_geom_bond_atom_site_label_1
_geom_bond_atom_site_label_2
_geom_bond_distance
_geom_bond_site_symmetry_2
Pt1 C1 1.968(4) .
Pt1 C1 1.968(4) 2_675
Pt1 N2 2.078(3) 2_675
Pt1 N2 2.078(3) .
Pt1 Cl2 2.325(2) .
Pt1 Cl2 2.325(2) 2_675
Cl2 Cl2 0.794(4) 2_575
N1 C1 1.133(5) .
N2 C2 1.484(5) .
N2 H2A 0.9100 .
N2 H2B 0.9100 .
C2 C2 1.506(8) 2_675
C2 C3 1.518(5) .
C2 H2 1.0000 .
C3 C4 1.532(7) .
C3 H3A 0.9900 .
C3 H3B 0.9900 .
C4 C4 1.545(15) 2_675
C4 H4A 0.9900 .
C4 H4B 0.9900 .
loop_
_geom_torsion_atom_site_label_1
_geom_torsion_atom_site_label_2
_geom_torsion_atom_site_label_3
_geom_torsion_atom_site_label_4
_geom_torsion
_geom_torsion_site_symmetry_1
_geom_torsion_site_symmetry_4
Pt1 N2 C2 C2 41.0(7) . 2_675
Pt1 N2 C2 C3 165.0(5) . .
N2 C2 C3 C4 -177.8(7) . .
C2 C2 C3 C4 -56.3(7) 2_675 .
C2 C3 C4 C4 56.8(8) . 2_675
